MODEL 1
REMARK VINA RESULT:      -9.3      0.000      0.000
REMARK SMILES CCC[NH2+][C@]1(C(=O)OCCOCCOCCOC(=O)c2ccc(-c3c4nc(c(-c5ccccc5)c5ccc([nH]5)c(-c5ccccc5)c5nc(c(-c6ccccc6)c6ccc3[nH]6)C=C5)C=C4)cc2)CC[C@@H](Sc2nnc(C)n2C)C1
REMARK SMILES IDX 12 1 11 2 10 3 9 4 8 5 6 6 7 7 5 8 68 9 79 10 69 11 70 12
REMARK SMILES IDX 4 13 3 16 2 17 1 18 71 19 72 20 73 21 77 22 74 23 75 24
REMARK SMILES IDX 78 25 76 26 13 27 14 28 15 29 16 30 17 31 18 32 19 33 20 34
REMARK SMILES IDX 21 35 67 36 22 37 66 38 23 39 24 40 25 41 60 42 26 43 65 44
REMARK SMILES IDX 59 45 61 46 27 47 64 48 58 49 57 50 28 52 50 53 35 54 49 55
REMARK SMILES IDX 36 56 39 57 48 58 62 59 37 60 38 61 47 63 63 64 40 65 29 66
REMARK SMILES IDX 30 67 34 68 31 69 33 70 32 71 51 72 52 73 56 74 53 75 55 76
REMARK SMILES IDX 54 77 41 78 42 79 46 80 43 81 45 82 44 83
REMARK H PARENT 4 14 4 15 61 51 39 62
REMARK Flexibility Score: inf
ROOT
ATOM      1  C   UNL A   1      34.751  32.279  28.251  1.00  0.00     0.188 C 
ENDROOT
BRANCH   1   2
ATOM      2  O   UNL A   1      33.733  31.317  28.003  1.00  0.00    -0.376 OA
BRANCH   2   3
ATOM      3  C   UNL A   1      33.865  30.418  26.914  1.00  0.00     0.202 C 
BRANCH   3   4
ATOM      4  C   UNL A   1      33.077  29.101  26.973  1.00  0.00     0.261 C 
BRANCH   4   5
ATOM      5  O   UNL A   1      33.794  27.915  26.552  1.00  0.00    -0.459 OA
BRANCH   5   6
ATOM      6  C   UNL A   1      33.649  27.572  25.247  1.00  0.00     0.368 C 
ATOM      7  O   UNL A   1      33.917  28.326  24.310  1.00  0.00    -0.245 OA
BRANCH   6   8
ATOM      8  C   UNL A   1      33.124  26.127  24.979  1.00  0.00     0.195 C 
ATOM      9  C   UNL A   1      34.126  25.360  24.085  1.00  0.00     0.082 C 
ATOM     10  C   UNL A   1      32.997  25.116  26.134  1.00  0.00     0.096 C 
ATOM     11  C   UNL A   1      33.660  23.898  24.109  1.00  0.00     0.022 C 
ATOM     12  C   UNL A   1      32.866  23.761  25.413  1.00  0.00     0.062 C 
BRANCH   8  13
ATOM     13  N   UNL A   1      31.910  26.278  24.132  1.00  0.00    -0.332 N 
ATOM     14  H   UNL A   1      32.170  26.839  23.321  1.00  0.00     0.347 HD
ATOM     15  H   UNL A   1      31.616  25.323  23.926  1.00  0.00     0.347 HD
BRANCH  13  16
ATOM     16  C   UNL A   1      30.741  26.901  24.735  1.00  0.00     0.261 C 
BRANCH  16  17
ATOM     17  C   UNL A   1      29.995  27.843  23.782  1.00  0.00     0.058 C 
ATOM     18  C   UNL A   1      30.622  28.006  22.405  1.00  0.00     0.010 C 
ENDBRANCH  16  17
ENDBRANCH  13  16
ENDBRANCH   8  13
BRANCH  12  19
ATOM     19  S   UNL A   1      33.149  22.329  26.482  1.00  0.00    -0.082 SA
BRANCH  19  20
ATOM     20  C   UNL A   1      33.038  20.927  25.483  1.00  0.00     0.191 A 
ATOM     21  N   UNL A   1      31.944  20.250  25.225  1.00  0.00    -0.123 NA
ATOM     22  N   UNL A   1      34.127  20.205  25.071  1.00  0.00    -0.309 N 
ATOM     23  N   UNL A   1      32.318  19.031  24.711  1.00  0.00    -0.135 NA
ATOM     24  C   UNL A   1      33.636  18.983  24.672  1.00  0.00     0.130 A 
ATOM     25  C   UNL A   1      35.492  20.656  25.041  1.00  0.00     0.154 C 
ATOM     26  C   UNL A   1      34.449  17.801  24.294  1.00  0.00     0.090 C 
ENDBRANCH  19  20
ENDBRANCH  12  19
ENDBRANCH   6   8
ENDBRANCH   5   6
ENDBRANCH   4   5
ENDBRANCH   3   4
ENDBRANCH   2   3
ENDBRANCH   1   2
BRANCH   1  27
ATOM     27  C   UNL A   1      34.420  33.576  29.009  1.00  0.00     0.188 C 
BRANCH  27  28
ATOM     28  O   UNL A   1      34.571  34.758  28.246  1.00  0.00    -0.376 OA
BRANCH  28  29
ATOM     29  C   UNL A   1      33.951  35.920  28.769  1.00  0.00     0.202 C 
BRANCH  29  30
ATOM     30  C   UNL A   1      32.853  35.609  29.793  1.00  0.00     0.261 C 
BRANCH  30  31
ATOM     31  O   UNL A   1      33.050  36.221  31.086  1.00  0.00    -0.460 OA
BRANCH  31  32
ATOM     32  C   UNL A   1      32.796  35.415  32.144  1.00  0.00     0.338 C 
ATOM     33  O   UNL A   1      31.696  35.113  32.556  1.00  0.00    -0.246 OA
BRANCH  32  34
ATOM     34  C   UNL A   1      34.053  34.811  32.633  1.00  0.00     0.060 A 
ATOM     35  C   UNL A   1      35.260  35.498  32.456  1.00  0.00     0.016 A 
ATOM     36  C   UNL A   1      34.046  33.535  33.190  1.00  0.00     0.016 A 
ATOM     37  C   UNL A   1      36.470  34.896  32.805  1.00  0.00     0.010 A 
ATOM     38  C   UNL A   1      35.260  32.931  33.538  1.00  0.00     0.010 A 
ATOM     39  C   UNL A   1      36.480  33.599  33.331  1.00  0.00    -0.014 A 
BRANCH  39  40
ATOM     40  C   UNL A   1      37.768  32.917  33.612  1.00  0.00     0.031 A 
ATOM     41  C   UNL A   1      38.312  31.911  32.636  1.00  0.00     0.074 A 
ATOM     42  C   UNL A   1      38.453  33.204  34.735  1.00  0.00     0.049 A 
ATOM     43  N   UNL A   1      39.363  31.137  32.743  1.00  0.00    -0.248 NA
ATOM     44  C   UNL A   1      37.575  31.755  31.372  1.00  0.00     0.031 C 
ATOM     45  C   UNL A   1      38.064  34.202  35.730  1.00  0.00     0.029 A 
ATOM     46  N   UNL A   1      39.622  32.676  35.224  1.00  0.00    -0.354 N 
ATOM     47  C   UNL A   1      39.409  30.396  31.568  1.00  0.00     0.074 A 
ATOM     48  C   UNL A   1      38.268  30.797  30.772  1.00  0.00     0.031 C 
ATOM     49  C   UNL A   1      38.978  34.214  36.715  1.00  0.00     0.029 A 
ATOM     50  C   UNL A   1      39.987  33.194  36.444  1.00  0.00     0.049 A 
ATOM     51  H   UNL A   1      40.147  31.993  34.749  1.00  0.00     0.167 HD
ATOM     52  C   UNL A   1      40.323  29.471  31.185  1.00  0.00     0.031 A 
ATOM     53  C   UNL A   1      41.003  32.862  37.262  1.00  0.00     0.031 A 
ATOM     54  C   UNL A   1      41.456  29.070  31.980  1.00  0.00     0.049 A 
ATOM     55  C   UNL A   1      41.952  31.768  36.851  1.00  0.00     0.074 A 
ATOM     56  C   UNL A   1      42.431  28.134  31.683  1.00  0.00     0.029 A 
ATOM     57  N   UNL A   1      41.766  29.585  33.229  1.00  0.00    -0.354 N 
ATOM     58  N   UNL A   1      41.976  31.064  35.745  1.00  0.00    -0.248 NA
ATOM     59  C   UNL A   1      43.016  31.424  37.805  1.00  0.00     0.031 C 
ATOM     60  C   UNL A   1      43.303  28.045  32.774  1.00  0.00     0.029 A 
ATOM     61  C   UNL A   1      42.905  28.971  33.724  1.00  0.00     0.049 A 
ATOM     62  H   UNL A   1      41.255  30.287  33.694  1.00  0.00     0.167 HD
ATOM     63  C   UNL A   1      43.070  30.215  35.860  1.00  0.00     0.074 A 
ATOM     64  C   UNL A   1      43.698  30.510  37.131  1.00  0.00     0.031 C 
ATOM     65  C   UNL A   1      43.515  29.271  34.994  1.00  0.00     0.031 A 
BRANCH  52  66
ATOM     66  C   UNL A   1      40.118  28.797  29.856  1.00  0.00    -0.014 A 
ATOM     67  C   UNL A   1      40.580  29.376  28.664  1.00  0.00     0.009 A 
ATOM     68  C   UNL A   1      39.502  27.536  29.803  1.00  0.00     0.009 A 
ATOM     69  C   UNL A   1      40.407  28.717  27.444  1.00  0.00     0.001 A 
ATOM     70  C   UNL A   1      39.354  26.869  28.586  1.00  0.00     0.001 A 
ATOM     71  C   UNL A   1      39.800  27.462  27.406  1.00  0.00     0.000 A 
ENDBRANCH  52  66
BRANCH  53  72
ATOM     72  C   UNL A   1      41.161  33.538  38.578  1.00  0.00    -0.014 A 
ATOM     73  C   UNL A   1      40.525  33.039  39.725  1.00  0.00     0.009 A 
ATOM     74  C   UNL A   1      41.918  34.716  38.685  1.00  0.00     0.009 A 
ATOM     75  C   UNL A   1      40.613  33.723  40.940  1.00  0.00     0.001 A 
ATOM     76  C   UNL A   1      42.033  35.379  39.908  1.00  0.00     0.001 A 
ATOM     77  C   UNL A   1      41.370  34.890  41.031  1.00  0.00     0.000 A 
ENDBRANCH  53  72
BRANCH  65  78
ATOM     78  C   UNL A   1      44.757  28.519  35.385  1.00  0.00    -0.014 A 
ATOM     79  C   UNL A   1      46.034  28.992  35.046  1.00  0.00     0.009 A 
ATOM     80  C   UNL A   1      44.646  27.321  36.108  1.00  0.00     0.009 A 
ATOM     81  C   UNL A   1      47.173  28.255  35.380  1.00  0.00     0.001 A 
ATOM     82  C   UNL A   1      45.787  26.603  36.470  1.00  0.00     0.001 A 
ATOM     83  C   UNL A   1      47.048  27.063  36.094  1.00  0.00     0.000 A 
ENDBRANCH  65  78
ENDBRANCH  39  40
ENDBRANCH  32  34
ENDBRANCH  31  32
ENDBRANCH  30  31
ENDBRANCH  29  30
ENDBRANCH  28  29
ENDBRANCH  27  28
ENDBRANCH   1  27
TORSDOF 22
ENDMDL
MODEL 2
REMARK VINA RESULT:      -9.2      1.270      5.975
REMARK SMILES CCC[NH2+][C@]1(C(=O)OCCOCCOCCOC(=O)c2ccc(-c3c4nc(c(-c5ccccc5)c5ccc([nH]5)c(-c5ccccc5)c5nc(c(-c6ccccc6)c6ccc3[nH]6)C=C5)C=C4)cc2)CC[C@@H](Sc2nnc(C)n2C)C1
REMARK SMILES IDX 12 1 11 2 10 3 9 4 8 5 6 6 7 7 5 8 68 9 79 10 69 11 70 12
REMARK SMILES IDX 4 13 3 16 2 17 1 18 71 19 72 20 73 21 77 22 74 23 75 24
REMARK SMILES IDX 78 25 76 26 13 27 14 28 15 29 16 30 17 31 18 32 19 33 20 34
REMARK SMILES IDX 21 35 67 36 22 37 66 38 23 39 24 40 25 41 60 42 26 43 65 44
REMARK SMILES IDX 59 45 61 46 27 47 64 48 58 49 57 50 28 52 50 53 35 54 49 55
REMARK SMILES IDX 36 56 39 57 48 58 62 59 37 60 38 61 47 63 63 64 40 65 29 66
REMARK SMILES IDX 30 67 34 68 31 69 33 70 32 71 51 72 52 73 56 74 53 75 55 76
REMARK SMILES IDX 54 77 41 78 42 79 46 80 43 81 45 82 44 83
REMARK H PARENT 4 14 4 15 61 51 39 62
REMARK Flexibility Score: inf
ROOT
ATOM      1  C   UNL A   1      34.517  31.674  28.102  1.00  0.00     0.188 C 
ENDROOT
BRANCH   1   2
ATOM      2  O   UNL A   1      33.407  30.802  27.929  1.00  0.00    -0.376 OA
BRANCH   2   3
ATOM      3  C   UNL A   1      32.667  30.835  26.719  1.00  0.00     0.202 C 
BRANCH   3   4
ATOM      4  C   UNL A   1      31.865  29.583  26.334  1.00  0.00     0.261 C 
BRANCH   4   5
ATOM      5  O   UNL A   1      32.612  28.345  26.282  1.00  0.00    -0.459 OA
BRANCH   5   6
ATOM      6  C   UNL A   1      31.895  27.237  25.964  1.00  0.00     0.368 C 
ATOM      7  O   UNL A   1      31.129  26.674  26.745  1.00  0.00    -0.245 OA
BRANCH   6   8
ATOM      8  C   UNL A   1      32.082  26.702  24.509  1.00  0.00     0.195 C 
ATOM      9  C   UNL A   1      33.528  26.974  24.031  1.00  0.00     0.082 C 
ATOM     10  C   UNL A   1      32.003  25.192  24.217  1.00  0.00     0.096 C 
ATOM     11  C   UNL A   1      33.682  26.182  22.726  1.00  0.00     0.022 C 
ATOM     12  C   UNL A   1      32.640  25.062  22.820  1.00  0.00     0.062 C 
BRANCH   8  13
ATOM     13  N   UNL A   1      31.235  27.562  23.639  1.00  0.00    -0.332 N 
ATOM     14  H   UNL A   1      31.415  28.531  23.898  1.00  0.00     0.347 HD
ATOM     15  H   UNL A   1      31.499  27.308  22.687  1.00  0.00     0.347 HD
BRANCH  13  16
ATOM     16  C   UNL A   1      29.795  27.359  23.689  1.00  0.00     0.261 C 
BRANCH  16  17
ATOM     17  C   UNL A   1      28.993  28.564  23.183  1.00  0.00     0.058 C 
ATOM     18  C   UNL A   1      29.825  29.763  22.748  1.00  0.00     0.010 C 
ENDBRANCH  16  17
ENDBRANCH  13  16
ENDBRANCH   8  13
BRANCH  12  19
ATOM     19  S   UNL A   1      33.105  23.370  22.379  1.00  0.00    -0.082 SA
BRANCH  19  20
ATOM     20  C   UNL A   1      34.601  23.039  23.170  1.00  0.00     0.191 A 
ATOM     21  N   UNL A   1      35.796  23.337  22.714  1.00  0.00    -0.123 NA
ATOM     22  N   UNL A   1      34.721  22.183  24.232  1.00  0.00    -0.309 N 
ATOM     23  N   UNL A   1      36.712  22.604  23.433  1.00  0.00    -0.135 NA
ATOM     24  C   UNL A   1      36.058  21.866  24.309  1.00  0.00     0.130 A 
ATOM     25  C   UNL A   1      33.662  21.739  25.098  1.00  0.00     0.154 C 
ATOM     26  C   UNL A   1      36.660  20.844  25.202  1.00  0.00     0.090 C 
ENDBRANCH  19  20
ENDBRANCH  12  19
ENDBRANCH   6   8
ENDBRANCH   5   6
ENDBRANCH   4   5
ENDBRANCH   3   4
ENDBRANCH   2   3
ENDBRANCH   1   2
BRANCH   1  27
ATOM     27  C   UNL A   1      34.348  32.996  28.870  1.00  0.00     0.188 C 
BRANCH  27  28
ATOM     28  O   UNL A   1      34.528  34.159  28.085  1.00  0.00    -0.376 OA
BRANCH  28  29
ATOM     29  C   UNL A   1      34.022  35.364  28.633  1.00  0.00     0.202 C 
BRANCH  29  30
ATOM     30  C   UNL A   1      32.957  35.136  29.713  1.00  0.00     0.261 C 
BRANCH  30  31
ATOM     31  O   UNL A   1      32.861  36.193  30.692  1.00  0.00    -0.460 OA
BRANCH  31  32
ATOM     32  C   UNL A   1      32.643  35.777  31.962  1.00  0.00     0.338 C 
ATOM     33  O   UNL A   1      31.593  35.861  32.564  1.00  0.00    -0.246 OA
BRANCH  32  34
ATOM     34  C   UNL A   1      33.825  35.046  32.464  1.00  0.00     0.060 A 
ATOM     35  C   UNL A   1      35.097  35.609  32.313  1.00  0.00     0.016 A 
ATOM     36  C   UNL A   1      33.680  33.771  33.008  1.00  0.00     0.016 A 
ATOM     37  C   UNL A   1      36.234  34.886  32.675  1.00  0.00     0.010 A 
ATOM     38  C   UNL A   1      34.821  33.045  33.368  1.00  0.00     0.010 A 
ATOM     39  C   UNL A   1      36.106  33.589  33.188  1.00  0.00    -0.014 A 
BRANCH  39  40
ATOM     40  C   UNL A   1      37.314  32.779  33.481  1.00  0.00     0.031 A 
ATOM     41  C   UNL A   1      38.074  33.000  34.759  1.00  0.00     0.074 A 
ATOM     42  C   UNL A   1      37.725  31.841  32.607  1.00  0.00     0.049 A 
ATOM     43  N   UNL A   1      39.204  32.469  35.154  1.00  0.00    -0.248 NA
ATOM     44  C   UNL A   1      37.484  33.944  35.720  1.00  0.00     0.031 C 
ATOM     45  C   UNL A   1      37.043  31.487  31.362  1.00  0.00     0.029 A 
ATOM     46  N   UNL A   1      38.821  31.015  32.637  1.00  0.00    -0.354 N 
ATOM     47  C   UNL A   1      39.466  33.020  36.402  1.00  0.00     0.074 A 
ATOM     48  C   UNL A   1      38.389  33.944  36.690  1.00  0.00     0.031 C 
ATOM     49  C   UNL A   1      37.737  30.517  30.745  1.00  0.00     0.029 A 
ATOM     50  C   UNL A   1      38.934  30.215  31.525  1.00  0.00     0.049 A 
ATOM     51  H   UNL A   1      39.463  30.996  33.383  1.00  0.00     0.167 HD
ATOM     52  C   UNL A   1      40.506  32.774  37.236  1.00  0.00     0.031 A 
ATOM     53  C   UNL A   1      39.909  29.360  31.163  1.00  0.00     0.031 A 
ATOM     54  C   UNL A   1      41.580  31.856  36.947  1.00  0.00     0.049 A 
ATOM     55  C   UNL A   1      41.097  29.172  32.067  1.00  0.00     0.074 A 
ATOM     56  C   UNL A   1      42.683  31.547  37.723  1.00  0.00     0.029 A 
ATOM     57  N   UNL A   1      41.682  31.100  35.790  1.00  0.00    -0.354 N 
ATOM     58  N   UNL A   1      41.341  29.710  33.238  1.00  0.00    -0.248 NA
ATOM     59  C   UNL A   1      42.145  28.256  31.597  1.00  0.00     0.031 C 
ATOM     60  C   UNL A   1      43.480  30.642  37.013  1.00  0.00     0.029 A 
ATOM     61  C   UNL A   1      42.841  30.341  35.822  1.00  0.00     0.049 A 
ATOM     62  H   UNL A   1      41.026  31.099  35.056  1.00  0.00     0.167 HD
ATOM     63  C   UNL A   1      42.556  29.178  33.654  1.00  0.00     0.074 A 
ATOM     64  C   UNL A   1      42.984  28.256  32.623  1.00  0.00     0.031 C 
ATOM     65  C   UNL A   1      43.257  29.432  34.786  1.00  0.00     0.031 A 
BRANCH  52  66
ATOM     66  C   UNL A   1      40.556  33.534  38.532  1.00  0.00    -0.014 A 
ATOM     67  C   UNL A   1      40.073  32.976  39.726  1.00  0.00     0.009 A 
ATOM     68  C   UNL A   1      41.147  34.808  38.570  1.00  0.00     0.009 A 
ATOM     69  C   UNL A   1      40.158  33.689  40.925  1.00  0.00     0.001 A 
ATOM     70  C   UNL A   1      41.254  35.506  39.774  1.00  0.00     0.001 A 
ATOM     71  C   UNL A   1      40.754  34.950  40.950  1.00  0.00     0.000 A 
ENDBRANCH  52  66
BRANCH  53  72
ATOM     72  C   UNL A   1      39.833  28.640  29.863  1.00  0.00    -0.014 A 
ATOM     73  C   UNL A   1      39.425  27.299  29.805  1.00  0.00     0.009 A 
ATOM     74  C   UNL A   1      40.214  29.282  28.673  1.00  0.00     0.009 A 
ATOM     75  C   UNL A   1      39.432  26.606  28.592  1.00  0.00     0.001 A 
ATOM     76  C   UNL A   1      40.188  28.597  27.456  1.00  0.00     0.001 A 
ATOM     77  C   UNL A   1      39.810  27.257  27.419  1.00  0.00     0.000 A 
ENDBRANCH  53  72
BRANCH  65  78
ATOM     78  C   UNL A   1      44.541  28.673  34.975  1.00  0.00    -0.014 A 
ATOM     79  C   UNL A   1      45.771  29.199  34.548  1.00  0.00     0.009 A 
ATOM     80  C   UNL A   1      44.520  27.414  35.596  1.00  0.00     0.009 A 
ATOM     81  C   UNL A   1      46.946  28.458  34.694  1.00  0.00     0.001 A 
ATOM     82  C   UNL A   1      45.701  26.690  35.770  1.00  0.00     0.001 A 
ATOM     83  C   UNL A   1      46.910  27.205  35.307  1.00  0.00     0.000 A 
ENDBRANCH  65  78
ENDBRANCH  39  40
ENDBRANCH  32  34
ENDBRANCH  31  32
ENDBRANCH  30  31
ENDBRANCH  29  30
ENDBRANCH  28  29
ENDBRANCH  27  28
ENDBRANCH   1  27
TORSDOF 22
ENDMDL
MODEL 3
REMARK VINA RESULT:      -9.0      3.702      9.779
REMARK SMILES CCC[NH2+][C@]1(C(=O)OCCOCCOCCOC(=O)c2ccc(-c3c4nc(c(-c5ccccc5)c5ccc([nH]5)c(-c5ccccc5)c5nc(c(-c6ccccc6)c6ccc3[nH]6)C=C5)C=C4)cc2)CC[C@@H](Sc2nnc(C)n2C)C1
REMARK SMILES IDX 12 1 11 2 10 3 9 4 8 5 6 6 7 7 5 8 68 9 79 10 69 11 70 12
REMARK SMILES IDX 4 13 3 16 2 17 1 18 71 19 72 20 73 21 77 22 74 23 75 24
REMARK SMILES IDX 78 25 76 26 13 27 14 28 15 29 16 30 17 31 18 32 19 33 20 34
REMARK SMILES IDX 21 35 67 36 22 37 66 38 23 39 24 40 25 41 60 42 26 43 65 44
REMARK SMILES IDX 59 45 61 46 27 47 64 48 58 49 57 50 28 52 50 53 35 54 49 55
REMARK SMILES IDX 36 56 39 57 48 58 62 59 37 60 38 61 47 63 63 64 40 65 29 66
REMARK SMILES IDX 30 67 34 68 31 69 33 70 32 71 51 72 52 73 56 74 53 75 55 76
REMARK SMILES IDX 54 77 41 78 42 79 46 80 43 81 45 82 44 83
REMARK H PARENT 4 14 4 15 61 51 39 62
REMARK Flexibility Score: inf
ROOT
ATOM      1  C   UNL A   1      39.784  22.084  26.826  1.00  0.00     0.188 C 
ENDROOT
BRANCH   1   2
ATOM      2  O   UNL A   1      38.796  21.998  25.806  1.00  0.00    -0.376 OA
BRANCH   2   3
ATOM      3  C   UNL A   1      37.903  23.081  25.598  1.00  0.00     0.202 C 
BRANCH   3   4
ATOM      4  C   UNL A   1      36.728  22.865  24.632  1.00  0.00     0.261 C 
BRANCH   4   5
ATOM      5  O   UNL A   1      35.447  23.377  25.070  1.00  0.00    -0.459 OA
BRANCH   5   6
ATOM      6  C   UNL A   1      34.395  23.104  24.258  1.00  0.00     0.368 C 
ATOM      7  O   UNL A   1      34.513  22.764  23.080  1.00  0.00    -0.245 OA
BRANCH   6   8
ATOM      8  C   UNL A   1      32.982  23.234  24.910  1.00  0.00     0.195 C 
ATOM      9  C   UNL A   1      33.117  23.755  26.359  1.00  0.00     0.082 C 
ATOM     10  C   UNL A   1      31.965  24.257  24.371  1.00  0.00     0.096 C 
ATOM     11  C   UNL A   1      31.690  24.100  26.805  1.00  0.00     0.022 C 
ATOM     12  C   UNL A   1      30.924  24.359  25.503  1.00  0.00     0.062 C 
BRANCH   8  13
ATOM     13  N   UNL A   1      32.467  21.846  25.061  1.00  0.00    -0.332 N 
ATOM     14  H   UNL A   1      31.595  21.898  25.586  1.00  0.00     0.347 HD
ATOM     15  H   UNL A   1      32.381  21.496  24.107  1.00  0.00     0.347 HD
BRANCH  13  16
ATOM     16  C   UNL A   1      33.322  20.879  25.733  1.00  0.00     0.261 C 
BRANCH  16  17
ATOM     17  C   UNL A   1      32.965  19.423  25.412  1.00  0.00     0.058 C 
ATOM     18  C   UNL A   1      33.915  18.717  24.455  1.00  0.00     0.010 C 
ENDBRANCH  16  17
ENDBRANCH  13  16
ENDBRANCH   8  13
BRANCH  12  19
ATOM     19  S   UNL A   1      29.841  25.803  25.377  1.00  0.00    -0.082 SA
BRANCH  19  20
ATOM     20  C   UNL A   1      30.688  26.987  24.454  1.00  0.00     0.191 A 
ATOM     21  N   UNL A   1      30.508  27.243  23.179  1.00  0.00    -0.123 NA
ATOM     22  N   UNL A   1      31.835  27.601  24.883  1.00  0.00    -0.309 N 
ATOM     23  N   UNL A   1      31.593  27.967  22.741  1.00  0.00    -0.135 NA
ATOM     24  C   UNL A   1      32.418  28.134  23.756  1.00  0.00     0.130 A 
ATOM     25  C   UNL A   1      32.304  27.689  26.240  1.00  0.00     0.154 C 
ATOM     26  C   UNL A   1      33.763  28.759  23.685  1.00  0.00     0.090 C 
ENDBRANCH  19  20
ENDBRANCH  12  19
ENDBRANCH   6   8
ENDBRANCH   5   6
ENDBRANCH   4   5
ENDBRANCH   3   4
ENDBRANCH   2   3
ENDBRANCH   1   2
BRANCH   1  27
ATOM     27  C   UNL A   1      40.863  20.995  26.949  1.00  0.00     0.188 C 
BRANCH  27  28
ATOM     28  O   UNL A   1      41.592  20.751  25.762  1.00  0.00    -0.376 OA
BRANCH  28  29
ATOM     29  C   UNL A   1      42.948  20.375  25.929  1.00  0.00     0.202 C 
BRANCH  29  30
ATOM     30  C   UNL A   1      43.931  21.356  25.277  1.00  0.00     0.261 C 
BRANCH  30  31
ATOM     31  O   UNL A   1      44.310  22.469  26.114  1.00  0.00    -0.460 OA
BRANCH  31  32
ATOM     32  C   UNL A   1      44.221  23.684  25.523  1.00  0.00     0.338 C 
ATOM     33  O   UNL A   1      44.498  23.931  24.369  1.00  0.00    -0.246 OA
BRANCH  32  34
ATOM     34  C   UNL A   1      43.575  24.646  26.440  1.00  0.00     0.060 A 
ATOM     35  C   UNL A   1      43.983  25.985  26.431  1.00  0.00     0.016 A 
ATOM     36  C   UNL A   1      42.629  24.206  27.362  1.00  0.00     0.016 A 
ATOM     37  C   UNL A   1      43.468  26.883  27.366  1.00  0.00     0.010 A 
ATOM     38  C   UNL A   1      42.115  25.106  28.302  1.00  0.00     0.010 A 
ATOM     39  C   UNL A   1      42.544  26.446  28.323  1.00  0.00    -0.014 A 
BRANCH  39  40
ATOM     40  C   UNL A   1      42.069  27.372  29.381  1.00  0.00     0.031 A 
ATOM     41  C   UNL A   1      42.795  27.444  30.696  1.00  0.00     0.074 A 
ATOM     42  C   UNL A   1      40.994  28.152  29.162  1.00  0.00     0.049 A 
ATOM     43  N   UNL A   1      42.482  28.110  31.779  1.00  0.00    -0.248 NA
ATOM     44  C   UNL A   1      44.037  26.663  30.805  1.00  0.00     0.031 C 
ATOM     45  C   UNL A   1      40.239  28.220  27.911  1.00  0.00     0.029 A 
ATOM     46  N   UNL A   1      40.351  29.036  29.992  1.00  0.00    -0.354 N 
ATOM     47  C   UNL A   1      43.481  27.822  32.701  1.00  0.00     0.074 A 
ATOM     48  C   UNL A   1      44.397  26.903  32.058  1.00  0.00     0.031 C 
ATOM     49  C   UNL A   1      39.233  29.098  28.057  1.00  0.00     0.029 A 
ATOM     50  C   UNL A   1      39.243  29.616  29.422  1.00  0.00     0.049 A 
ATOM     51  H   UNL A   1      40.653  29.235  30.908  1.00  0.00     0.167 HD
ATOM     52  C   UNL A   1      43.625  28.286  33.967  1.00  0.00     0.031 A 
ATOM     53  C   UNL A   1      38.325  30.447  29.950  1.00  0.00     0.031 A 
ATOM     54  C   UNL A   1      42.710  29.198  34.608  1.00  0.00     0.049 A 
ATOM     55  C   UNL A   1      38.461  30.876  31.386  1.00  0.00     0.074 A 
ATOM     56  C   UNL A   1      42.765  29.717  35.890  1.00  0.00     0.029 A 
ATOM     57  N   UNL A   1      41.577  29.727  34.012  1.00  0.00    -0.354 N 
ATOM     58  N   UNL A   1      39.401  30.585  32.253  1.00  0.00    -0.248 NA
ATOM     59  C   UNL A   1      37.406  31.751  31.916  1.00  0.00     0.031 C 
ATOM     60  C   UNL A   1      41.636  30.520  36.087  1.00  0.00     0.029 A 
ATOM     61  C   UNL A   1      40.912  30.549  34.907  1.00  0.00     0.049 A 
ATOM     62  H   UNL A   1      41.288  29.548  33.087  1.00  0.00     0.167 HD
ATOM     63  C   UNL A   1      39.064  31.262  33.420  1.00  0.00     0.074 A 
ATOM     64  C   UNL A   1      37.848  31.998  33.140  1.00  0.00     0.031 C 
ATOM     65  C   UNL A   1      39.700  31.271  34.617  1.00  0.00     0.031 A 
BRANCH  52  66
ATOM     66  C   UNL A   1      44.800  27.789  34.763  1.00  0.00    -0.014 A 
ATOM     67  C   UNL A   1      44.723  26.611  35.522  1.00  0.00     0.009 A 
ATOM     68  C   UNL A   1      46.021  28.481  34.707  1.00  0.00     0.009 A 
ATOM     69  C   UNL A   1      45.837  26.151  36.229  1.00  0.00     0.001 A 
ATOM     70  C   UNL A   1      47.140  28.004  35.393  1.00  0.00     0.001 A 
ATOM     71  C   UNL A   1      47.046  26.844  36.160  1.00  0.00     0.000 A 
ENDBRANCH  52  66
BRANCH  53  72
ATOM     72  C   UNL A   1      37.165  30.902  29.137  1.00  0.00    -0.014 A 
ATOM     73  C   UNL A   1      37.054  32.239  28.727  1.00  0.00     0.009 A 
ATOM     74  C   UNL A   1      36.137  30.006  28.803  1.00  0.00     0.009 A 
ATOM     75  C   UNL A   1      35.924  32.677  28.032  1.00  0.00     0.001 A 
ATOM     76  C   UNL A   1      35.025  30.438  28.078  1.00  0.00     0.001 A 
ATOM     77  C   UNL A   1      34.913  31.775  27.705  1.00  0.00     0.000 A 
ENDBRANCH  53  72
BRANCH  65  78
ATOM     78  C   UNL A   1      39.105  32.131  35.697  1.00  0.00    -0.014 A 
ATOM     79  C   UNL A   1      38.225  31.598  36.653  1.00  0.00     0.009 A 
ATOM     80  C   UNL A   1      39.433  33.494  35.761  1.00  0.00     0.009 A 
ATOM     81  C   UNL A   1      37.649  32.425  37.621  1.00  0.00     0.001 A 
ATOM     82  C   UNL A   1      38.881  34.310  36.750  1.00  0.00     0.001 A 
ATOM     83  C   UNL A   1      37.980  33.779  37.670  1.00  0.00     0.000 A 
ENDBRANCH  65  78
ENDBRANCH  39  40
ENDBRANCH  32  34
ENDBRANCH  31  32
ENDBRANCH  30  31
ENDBRANCH  29  30
ENDBRANCH  28  29
ENDBRANCH  27  28
ENDBRANCH   1  27
TORSDOF 22
ENDMDL
