MODEL 1
REMARK VINA RESULT:      -9.4      0.000      0.000
REMARK SMILES C[C@@H](SC1CCOCC1)c1ccc(C(=O)OCCOCCOCCOC(=O)c2ccc(-c3c4nc(c(-c5ccccc5)c5ccc([nH]5)c(-c5ccccc5)c5nc(c(-c6ccccc6)c6ccc3[nH]6)C=C5)C=C4)cc2)o1
REMARK SMILES IDX 20 1 19 2 18 3 17 4 16 5 14 6 15 7 13 8 10 9 11 10 76 11
REMARK SMILES IDX 12 12 2 13 1 14 3 15 4 16 5 17 9 18 6 19 8 20 7 21 21 22
REMARK SMILES IDX 22 23 23 24 24 25 25 26 26 27 27 28 28 29 29 30 75 31 30 32
REMARK SMILES IDX 74 33 31 34 32 35 33 36 68 37 34 38 73 39 67 40 69 41 35 42
REMARK SMILES IDX 72 43 66 44 65 45 36 47 58 48 43 49 57 50 44 51 47 52 56 53
REMARK SMILES IDX 70 54 45 55 46 56 55 58 71 59 48 60 37 61 38 62 42 63 39 64
REMARK SMILES IDX 41 65 40 66 59 67 60 68 64 69 61 70 63 71 62 72 49 73 50 74
REMARK SMILES IDX 54 75 51 76 53 77 52 78
REMARK H PARENT 69 46 47 57
REMARK Flexibility Score: inf
ROOT
ATOM      1  C   UNL A   1      31.190  28.002  24.775  1.00  0.00     0.188 C 
ENDROOT
BRANCH   1   2
ATOM      2  O   UNL A   1      31.003  27.102  23.687  1.00  0.00    -0.376 OA
BRANCH   2   3
ATOM      3  C   UNL A   1      31.745  27.280  22.489  1.00  0.00     0.202 C 
BRANCH   3   4
ATOM      4  C   UNL A   1      33.016  26.442  22.344  1.00  0.00     0.261 C 
BRANCH   4   5
ATOM      5  O   UNL A   1      33.021  25.301  23.220  1.00  0.00    -0.457 OA
BRANCH   5   6
ATOM      6  C   UNL A   1      33.969  25.307  24.202  1.00  0.00     0.374 C 
ATOM      7  O   UNL A   1      34.166  26.235  24.977  1.00  0.00    -0.242 OA
BRANCH   6   8
ATOM      8  C   UNL A   1      34.612  24.013  24.269  1.00  0.00     0.211 A 
ATOM      9  C   UNL A   1      34.681  21.876  24.867  1.00  0.00     0.117 A 
ATOM     10  C   UNL A   1      35.761  22.092  24.033  1.00  0.00     0.048 A 
ATOM     11  O   UNL A   1      34.024  23.061  25.055  1.00  0.00    -0.453 OA
ATOM     12  C   UNL A   1      35.705  23.454  23.634  1.00  0.00     0.058 A 
BRANCH   9  13
ATOM     13  C   UNL A   1      34.073  20.689  25.573  1.00  0.00     0.110 C 
ATOM     14  C   UNL A   1      33.732  21.086  27.017  1.00  0.00     0.028 C 
BRANCH  13  15
ATOM     15  S   UNL A   1      32.517  20.144  24.752  1.00  0.00    -0.147 SA
BRANCH  15  16
ATOM     16  C   UNL A   1      32.722  18.322  24.525  1.00  0.00     0.052 C 
ATOM     17  C   UNL A   1      32.532  17.416  25.740  1.00  0.00     0.043 C 
ATOM     18  C   UNL A   1      34.059  18.023  23.838  1.00  0.00     0.043 C 
ATOM     19  C   UNL A   1      32.741  15.956  25.350  1.00  0.00     0.161 C 
ATOM     20  C   UNL A   1      34.161  16.530  23.544  1.00  0.00     0.161 C 
ATOM     21  O   UNL A   1      34.020  15.774  24.746  1.00  0.00    -0.381 OA
ENDBRANCH  15  16
ENDBRANCH  13  15
ENDBRANCH   9  13
ENDBRANCH   6   8
ENDBRANCH   5   6
ENDBRANCH   4   5
ENDBRANCH   3   4
ENDBRANCH   2   3
ENDBRANCH   1   2
BRANCH   1  22
ATOM     22  C   UNL A   1      31.375  29.506  24.500  1.00  0.00     0.188 C 
BRANCH  22  23
ATOM     23  O   UNL A   1      31.721  30.265  25.651  1.00  0.00    -0.376 OA
BRANCH  23  24
ATOM     24  C   UNL A   1      31.052  31.511  25.795  1.00  0.00     0.202 C 
BRANCH  24  25
ATOM     25  C   UNL A   1      31.430  32.216  27.098  1.00  0.00     0.261 C 
BRANCH  25  26
ATOM     26  O   UNL A   1      32.831  32.516  27.216  1.00  0.00    -0.460 OA
BRANCH  26  27
ATOM     27  C   UNL A   1      33.158  33.577  27.983  1.00  0.00     0.338 C 
ATOM     28  O   UNL A   1      32.482  34.564  28.211  1.00  0.00    -0.246 OA
BRANCH  27  29
ATOM     29  C   UNL A   1      34.444  33.279  28.641  1.00  0.00     0.060 A 
ATOM     30  C   UNL A   1      35.633  33.601  27.979  1.00  0.00     0.016 A 
ATOM     31  C   UNL A   1      34.468  32.676  29.902  1.00  0.00     0.016 A 
ATOM     32  C   UNL A   1      36.859  33.297  28.573  1.00  0.00     0.010 A 
ATOM     33  C   UNL A   1      35.694  32.359  30.487  1.00  0.00     0.010 A 
ATOM     34  C   UNL A   1      36.894  32.645  29.814  1.00  0.00    -0.014 A 
BRANCH  34  35
ATOM     35  C   UNL A   1      38.173  32.121  30.346  1.00  0.00     0.031 A 
ATOM     36  C   UNL A   1      38.700  30.821  29.807  1.00  0.00     0.074 A 
ATOM     37  C   UNL A   1      38.851  32.779  31.301  1.00  0.00     0.049 A 
ATOM     38  N   UNL A   1      39.783  30.165  30.138  1.00  0.00    -0.248 NA
ATOM     39  C   UNL A   1      37.898  30.175  28.756  1.00  0.00     0.031 C 
ATOM     40  C   UNL A   1      38.462  34.058  31.892  1.00  0.00     0.029 A 
ATOM     41  N   UNL A   1      40.016  32.446  31.948  1.00  0.00    -0.354 N 
ATOM     42  C   UNL A   1      39.795  29.033  29.334  1.00  0.00     0.074 A 
ATOM     43  C   UNL A   1      38.598  29.076  28.521  1.00  0.00     0.031 C 
ATOM     44  C   UNL A   1      39.371  34.398  32.825  1.00  0.00     0.029 A 
ATOM     45  C   UNL A   1      40.387  33.350  32.910  1.00  0.00     0.049 A 
ATOM     46  H   UNL A   1      40.533  31.634  31.741  1.00  0.00     0.167 HD
ATOM     47  C   UNL A   1      40.719  28.046  29.273  1.00  0.00     0.031 A 
ATOM     48  C   UNL A   1      41.421  33.326  33.772  1.00  0.00     0.031 A 
ATOM     49  C   UNL A   1      41.894  27.979  30.098  1.00  0.00     0.049 A 
ATOM     50  C   UNL A   1      42.391  32.175  33.745  1.00  0.00     0.074 A 
ATOM     51  C   UNL A   1      42.898  27.026  30.093  1.00  0.00     0.029 A 
ATOM     52  N   UNL A   1      42.212  28.893  31.089  1.00  0.00    -0.354 N 
ATOM     53  N   UNL A   1      42.416  31.134  32.948  1.00  0.00    -0.248 NA
ATOM     54  C   UNL A   1      43.475  32.199  34.738  1.00  0.00     0.031 C 
ATOM     55  C   UNL A   1      43.801  27.339  31.116  1.00  0.00     0.029 A 
ATOM     56  C   UNL A   1      43.382  28.512  31.723  1.00  0.00     0.049 A 
ATOM     57  H   UNL A   1      41.684  29.695  31.309  1.00  0.00     0.167 HD
ATOM     58  C   UNL A   1      43.531  30.395  33.325  1.00  0.00     0.074 A 
ATOM     59  C   UNL A   1      44.161  31.110  34.416  1.00  0.00     0.031 C 
ATOM     60  C   UNL A   1      43.995  29.230  32.809  1.00  0.00     0.031 A 
BRANCH  47  61
ATOM     61  C   UNL A   1      40.468  26.940  28.292  1.00  0.00    -0.014 A 
ATOM     62  C   UNL A   1      39.724  25.805  28.655  1.00  0.00     0.009 A 
ATOM     63  C   UNL A   1      40.973  27.036  26.987  1.00  0.00     0.009 A 
ATOM     64  C   UNL A   1      39.523  24.773  27.738  1.00  0.00     0.001 A 
ATOM     65  C   UNL A   1      40.751  26.012  26.065  1.00  0.00     0.001 A 
ATOM     66  C   UNL A   1      40.034  24.878  26.444  1.00  0.00     0.000 A 
ENDBRANCH  47  61
BRANCH  48  67
ATOM     67  C   UNL A   1      41.597  34.428  34.753  1.00  0.00    -0.014 A 
ATOM     68  C   UNL A   1      42.350  35.564  34.421  1.00  0.00     0.009 A 
ATOM     69  C   UNL A   1      41.029  34.337  36.033  1.00  0.00     0.009 A 
ATOM     70  C   UNL A   1      42.548  36.579  35.360  1.00  0.00     0.001 A 
ATOM     71  C   UNL A   1      41.210  35.364  36.962  1.00  0.00     0.001 A 
ATOM     72  C   UNL A   1      41.974  36.481  36.627  1.00  0.00     0.000 A 
ENDBRANCH  48  67
BRANCH  60  73
ATOM     73  C   UNL A   1      45.259  28.670  33.397  1.00  0.00    -0.014 A 
ATOM     74  C   UNL A   1      46.514  28.973  32.847  1.00  0.00     0.009 A 
ATOM     75  C   UNL A   1      45.195  27.865  34.545  1.00  0.00     0.009 A 
ATOM     76  C   UNL A   1      47.678  28.459  33.421  1.00  0.00     0.001 A 
ATOM     77  C   UNL A   1      46.362  27.372  35.131  1.00  0.00     0.001 A 
ATOM     78  C   UNL A   1      47.602  27.664  34.565  1.00  0.00     0.000 A 
ENDBRANCH  60  73
ENDBRANCH  34  35
ENDBRANCH  27  29
ENDBRANCH  26  27
ENDBRANCH  25  26
ENDBRANCH  24  25
ENDBRANCH  23  24
ENDBRANCH  22  23
ENDBRANCH   1  22
TORSDOF 20
ENDMDL
MODEL 2
REMARK VINA RESULT:      -9.3      4.137      8.754
REMARK SMILES C[C@@H](SC1CCOCC1)c1ccc(C(=O)OCCOCCOCCOC(=O)c2ccc(-c3c4nc(c(-c5ccccc5)c5ccc([nH]5)c(-c5ccccc5)c5nc(c(-c6ccccc6)c6ccc3[nH]6)C=C5)C=C4)cc2)o1
REMARK SMILES IDX 20 1 19 2 18 3 17 4 16 5 14 6 15 7 13 8 10 9 11 10 76 11
REMARK SMILES IDX 12 12 2 13 1 14 3 15 4 16 5 17 9 18 6 19 8 20 7 21 21 22
REMARK SMILES IDX 22 23 23 24 24 25 25 26 26 27 27 28 28 29 29 30 75 31 30 32
REMARK SMILES IDX 74 33 31 34 32 35 33 36 68 37 34 38 73 39 67 40 69 41 35 42
REMARK SMILES IDX 72 43 66 44 65 45 36 47 58 48 43 49 57 50 44 51 47 52 56 53
REMARK SMILES IDX 70 54 45 55 46 56 55 58 71 59 48 60 37 61 38 62 42 63 39 64
REMARK SMILES IDX 41 65 40 66 59 67 60 68 64 69 61 70 63 71 62 72 49 73 50 74
REMARK SMILES IDX 54 75 51 76 53 77 52 78
REMARK H PARENT 69 46 47 57
REMARK Flexibility Score: inf
ROOT
ATOM      1  C   UNL A   1      35.961  23.564  25.301  1.00  0.00     0.188 C 
ENDROOT
BRANCH   1   2
ATOM      2  O   UNL A   1      34.845  23.492  26.184  1.00  0.00    -0.376 OA
BRANCH   2   3
ATOM      3  C   UNL A   1      34.432  22.233  26.696  1.00  0.00     0.202 C 
BRANCH   3   4
ATOM      4  C   UNL A   1      32.928  22.040  26.898  1.00  0.00     0.261 C 
BRANCH   4   5
ATOM      5  O   UNL A   1      32.279  23.242  27.347  1.00  0.00    -0.457 OA
BRANCH   5   6
ATOM      6  C   UNL A   1      31.010  23.443  26.884  1.00  0.00     0.374 C 
ATOM      7  O   UNL A   1      29.990  23.114  27.478  1.00  0.00    -0.242 OA
BRANCH   6   8
ATOM      8  C   UNL A   1      31.053  24.212  25.660  1.00  0.00     0.211 A 
ATOM      9  C   UNL A   1      31.174  26.123  24.537  1.00  0.00     0.117 A 
ATOM     10  C   UNL A   1      31.305  25.106  23.610  1.00  0.00     0.048 A 
ATOM     11  O   UNL A   1      30.958  25.571  25.770  1.00  0.00    -0.453 OA
ATOM     12  C   UNL A   1      31.249  23.884  24.332  1.00  0.00     0.058 A 
BRANCH   9  13
ATOM     13  C   UNL A   1      31.228  27.630  24.511  1.00  0.00     0.110 C 
ATOM     14  C   UNL A   1      32.547  28.096  25.147  1.00  0.00     0.028 C 
BRANCH  13  15
ATOM     15  S   UNL A   1      31.171  28.275  22.786  1.00  0.00    -0.147 SA
BRANCH  15  16
ATOM     16  C   UNL A   1      29.779  29.489  22.787  1.00  0.00     0.052 C 
ATOM     17  C   UNL A   1      29.760  30.567  23.871  1.00  0.00     0.043 C 
ATOM     18  C   UNL A   1      28.437  28.754  22.740  1.00  0.00     0.043 C 
ATOM     19  C   UNL A   1      28.540  31.466  23.702  1.00  0.00     0.161 C 
ATOM     20  C   UNL A   1      27.302  29.765  22.616  1.00  0.00     0.161 C 
ATOM     21  O   UNL A   1      27.340  30.695  23.697  1.00  0.00    -0.381 OA
ENDBRANCH  15  16
ENDBRANCH  13  15
ENDBRANCH   9  13
ENDBRANCH   6   8
ENDBRANCH   5   6
ENDBRANCH   4   5
ENDBRANCH   3   4
ENDBRANCH   2   3
ENDBRANCH   1   2
BRANCH   1  22
ATOM     22  C   UNL A   1      36.352  22.335  24.461  1.00  0.00     0.188 C 
BRANCH  22  23
ATOM     23  O   UNL A   1      37.537  21.686  24.904  1.00  0.00    -0.376 OA
BRANCH  23  24
ATOM     24  C   UNL A   1      37.406  20.308  25.226  1.00  0.00     0.202 C 
BRANCH  24  25
ATOM     25  C   UNL A   1      38.760  19.651  25.494  1.00  0.00     0.261 C 
BRANCH  25  26
ATOM     26  O   UNL A   1      39.831  20.585  25.712  1.00  0.00    -0.460 OA
BRANCH  26  27
ATOM     27  C   UNL A   1      40.372  20.604  26.949  1.00  0.00     0.338 C 
ATOM     28  O   UNL A   1      40.705  19.649  27.627  1.00  0.00    -0.246 OA
BRANCH  27  29
ATOM     29  C   UNL A   1      40.639  22.010  27.303  1.00  0.00     0.060 A 
ATOM     30  C   UNL A   1      39.891  23.018  26.684  1.00  0.00     0.016 A 
ATOM     31  C   UNL A   1      41.631  22.326  28.235  1.00  0.00     0.016 A 
ATOM     32  C   UNL A   1      40.153  24.355  26.983  1.00  0.00     0.010 A 
ATOM     33  C   UNL A   1      41.901  23.665  28.522  1.00  0.00     0.010 A 
ATOM     34  C   UNL A   1      41.180  24.686  27.879  1.00  0.00    -0.014 A 
BRANCH  34  35
ATOM     35  C   UNL A   1      41.613  26.094  28.032  1.00  0.00     0.031 A 
ATOM     36  C   UNL A   1      42.906  26.525  27.401  1.00  0.00     0.074 A 
ATOM     37  C   UNL A   1      40.877  26.974  28.732  1.00  0.00     0.049 A 
ATOM     38  N   UNL A   1      43.489  27.697  27.423  1.00  0.00    -0.248 NA
ATOM     39  C   UNL A   1      43.640  25.498  26.646  1.00  0.00     0.031 C 
ATOM     40  C   UNL A   1      39.595  26.691  29.374  1.00  0.00     0.029 A 
ATOM     41  N   UNL A   1      41.119  28.294  29.023  1.00  0.00    -0.354 N 
ATOM     42  C   UNL A   1      44.654  27.549  26.683  1.00  0.00     0.074 A 
ATOM     43  C   UNL A   1      44.710  26.169  26.250  1.00  0.00     0.031 C 
ATOM     44  C   UNL A   1      39.166  27.806  29.993  1.00  0.00     0.029 A 
ATOM     45  C   UNL A   1      40.153  28.868  29.810  1.00  0.00     0.049 A 
ATOM     46  H   UNL A   1      41.911  28.781  28.698  1.00  0.00     0.167 HD
ATOM     47  C   UNL A   1      45.593  28.477  26.385  1.00  0.00     0.031 A 
ATOM     48  C   UNL A   1      40.084  30.106  30.337  1.00  0.00     0.031 A 
ATOM     49  C   UNL A   1      45.561  29.841  26.836  1.00  0.00     0.049 A 
ATOM     50  C   UNL A   1      41.184  31.097  30.064  1.00  0.00     0.074 A 
ATOM     51  C   UNL A   1      46.459  30.859  26.568  1.00  0.00     0.029 A 
ATOM     52  N   UNL A   1      44.587  30.372  27.666  1.00  0.00    -0.354 N 
ATOM     53  N   UNL A   1      42.257  30.959  29.322  1.00  0.00    -0.248 NA
ATOM     54  C   UNL A   1      41.058  32.418  30.699  1.00  0.00     0.031 C 
ATOM     55  C   UNL A   1      46.053  31.997  27.277  1.00  0.00     0.029 A 
ATOM     56  C   UNL A   1      44.877  31.697  27.946  1.00  0.00     0.049 A 
ATOM     57  H   UNL A   1      43.805  29.880  28.007  1.00  0.00     0.167 HD
ATOM     58  C   UNL A   1      42.918  32.179  29.382  1.00  0.00     0.074 A 
ATOM     59  C   UNL A   1      42.123  33.049  30.224  1.00  0.00     0.031 C 
ATOM     60  C   UNL A   1      44.080  32.548  28.788  1.00  0.00     0.031 A 
BRANCH  47  61
ATOM     61  C   UNL A   1      46.754  28.025  25.550  1.00  0.00    -0.014 A 
ATOM     62  C   UNL A   1      46.715  28.112  24.149  1.00  0.00     0.009 A 
ATOM     63  C   UNL A   1      47.903  27.513  26.170  1.00  0.00     0.009 A 
ATOM     64  C   UNL A   1      47.793  27.662  23.385  1.00  0.00     0.001 A 
ATOM     65  C   UNL A   1      48.988  27.084  25.405  1.00  0.00     0.001 A 
ATOM     66  C   UNL A   1      48.929  27.150  24.014  1.00  0.00     0.000 A 
ENDBRANCH  47  61
BRANCH  48  67
ATOM     67  C   UNL A   1      38.932  30.486  31.193  1.00  0.00    -0.014 A 
ATOM     68  C   UNL A   1      38.997  30.328  32.586  1.00  0.00     0.009 A 
ATOM     69  C   UNL A   1      37.754  30.988  30.619  1.00  0.00     0.009 A 
ATOM     70  C   UNL A   1      37.896  30.648  33.385  1.00  0.00     0.001 A 
ATOM     71  C   UNL A   1      36.664  31.327  31.422  1.00  0.00     0.001 A 
ATOM     72  C   UNL A   1      36.733  31.151  32.804  1.00  0.00     0.000 A 
ENDBRANCH  48  67
BRANCH  60  73
ATOM     73  C   UNL A   1      44.546  33.961  29.000  1.00  0.00    -0.014 A 
ATOM     74  C   UNL A   1      44.127  35.000  28.155  1.00  0.00     0.009 A 
ATOM     75  C   UNL A   1      45.378  34.261  30.089  1.00  0.00     0.009 A 
ATOM     76  C   UNL A   1      44.555  36.309  28.383  1.00  0.00     0.001 A 
ATOM     77  C   UNL A   1      45.785  35.575  30.328  1.00  0.00     0.001 A 
ATOM     78  C   UNL A   1      45.379  36.597  29.471  1.00  0.00     0.000 A 
ENDBRANCH  60  73
ENDBRANCH  34  35
ENDBRANCH  27  29
ENDBRANCH  26  27
ENDBRANCH  25  26
ENDBRANCH  24  25
ENDBRANCH  23  24
ENDBRANCH  22  23
ENDBRANCH   1  22
TORSDOF 20
ENDMDL
MODEL 3
REMARK VINA RESULT:      -9.0      2.635      6.956
REMARK SMILES C[C@@H](SC1CCOCC1)c1ccc(C(=O)OCCOCCOCCOC(=O)c2ccc(-c3c4nc(c(-c5ccccc5)c5ccc([nH]5)c(-c5ccccc5)c5nc(c(-c6ccccc6)c6ccc3[nH]6)C=C5)C=C4)cc2)o1
REMARK SMILES IDX 20 1 19 2 18 3 17 4 16 5 14 6 15 7 13 8 10 9 11 10 76 11
REMARK SMILES IDX 12 12 2 13 1 14 3 15 4 16 5 17 9 18 6 19 8 20 7 21 21 22
REMARK SMILES IDX 22 23 23 24 24 25 25 26 26 27 27 28 28 29 29 30 75 31 30 32
REMARK SMILES IDX 74 33 31 34 32 35 33 36 68 37 34 38 73 39 67 40 69 41 35 42
REMARK SMILES IDX 72 43 66 44 65 45 36 47 58 48 43 49 57 50 44 51 47 52 56 53
REMARK SMILES IDX 70 54 45 55 46 56 55 58 71 59 48 60 37 61 38 62 42 63 39 64
REMARK SMILES IDX 41 65 40 66 59 67 60 68 64 69 61 70 63 71 62 72 49 73 50 74
REMARK SMILES IDX 54 75 51 76 53 77 52 78
REMARK H PARENT 69 46 47 57
REMARK Flexibility Score: inf
ROOT
ATOM      1  C   UNL A   1      30.190  27.818  24.397  1.00  0.00     0.188 C 
ENDROOT
BRANCH   1   2
ATOM      2  O   UNL A   1      29.767  27.343  23.123  1.00  0.00    -0.376 OA
BRANCH   2   3
ATOM      3  C   UNL A   1      30.736  26.935  22.167  1.00  0.00     0.202 C 
BRANCH   3   4
ATOM      4  C   UNL A   1      31.385  25.569  22.395  1.00  0.00     0.261 C 
BRANCH   4   5
ATOM      5  O   UNL A   1      32.723  25.505  21.873  1.00  0.00    -0.457 OA
BRANCH   5   6
ATOM      6  C   UNL A   1      33.610  26.405  22.391  1.00  0.00     0.374 C 
ATOM      7  O   UNL A   1      34.067  27.365  21.782  1.00  0.00    -0.242 OA
BRANCH   6   8
ATOM      8  C   UNL A   1      33.824  26.128  23.794  1.00  0.00     0.211 A 
ATOM      9  C   UNL A   1      34.653  24.915  25.458  1.00  0.00     0.117 A 
ATOM     10  C   UNL A   1      34.158  26.076  26.019  1.00  0.00     0.048 A 
ATOM     11  O   UNL A   1      34.389  24.925  24.116  1.00  0.00    -0.453 OA
ATOM     12  C   UNL A   1      33.647  26.862  24.952  1.00  0.00     0.058 A 
BRANCH   9  13
ATOM     13  C   UNL A   1      35.396  23.700  25.955  1.00  0.00     0.110 C 
ATOM     14  C   UNL A   1      34.548  22.996  27.025  1.00  0.00     0.028 C 
BRANCH  13  15
ATOM     15  S   UNL A   1      35.703  22.497  24.593  1.00  0.00    -0.147 SA
BRANCH  15  16
ATOM     16  C   UNL A   1      34.191  21.436  24.559  1.00  0.00     0.052 C 
ATOM     17  C   UNL A   1      34.364  19.925  24.718  1.00  0.00     0.043 C 
ATOM     18  C   UNL A   1      33.353  21.750  23.315  1.00  0.00     0.043 C 
ATOM     19  C   UNL A   1      33.008  19.229  24.664  1.00  0.00     0.161 C 
ATOM     20  C   UNL A   1      32.050  20.958  23.362  1.00  0.00     0.161 C 
ATOM     21  O   UNL A   1      32.318  19.561  23.461  1.00  0.00    -0.381 OA
ENDBRANCH  15  16
ENDBRANCH  13  15
ENDBRANCH   9  13
ENDBRANCH   6   8
ENDBRANCH   5   6
ENDBRANCH   4   5
ENDBRANCH   3   4
ENDBRANCH   2   3
ENDBRANCH   1   2
BRANCH   1  22
ATOM     22  C   UNL A   1      31.050  29.091  24.493  1.00  0.00     0.188 C 
BRANCH  22  23
ATOM     23  O   UNL A   1      31.375  29.470  25.824  1.00  0.00    -0.376 OA
BRANCH  23  24
ATOM     24  C   UNL A   1      32.381  30.465  25.956  1.00  0.00     0.202 C 
BRANCH  24  25
ATOM     25  C   UNL A   1      33.386  30.121  27.057  1.00  0.00     0.261 C 
BRANCH  25  26
ATOM     26  O   UNL A   1      34.450  31.077  27.198  1.00  0.00    -0.460 OA
BRANCH  26  27
ATOM     27  C   UNL A   1      34.907  31.290  28.450  1.00  0.00     0.338 C 
ATOM     28  O   UNL A   1      34.347  31.884  29.353  1.00  0.00    -0.246 OA
BRANCH  27  29
ATOM     29  C   UNL A   1      36.168  30.540  28.603  1.00  0.00     0.060 A 
ATOM     30  C   UNL A   1      36.479  29.987  29.850  1.00  0.00     0.016 A 
ATOM     31  C   UNL A   1      37.037  30.395  27.519  1.00  0.00     0.016 A 
ATOM     32  C   UNL A   1      37.683  29.303  30.021  1.00  0.00     0.010 A 
ATOM     33  C   UNL A   1      38.248  29.723  27.696  1.00  0.00     0.010 A 
ATOM     34  C   UNL A   1      38.587  29.195  28.953  1.00  0.00    -0.014 A 
BRANCH  34  35
ATOM     35  C   UNL A   1      39.953  28.671  29.181  1.00  0.00     0.031 A 
ATOM     36  C   UNL A   1      40.970  29.564  29.833  1.00  0.00     0.074 A 
ATOM     37  C   UNL A   1      40.291  27.426  28.805  1.00  0.00     0.049 A 
ATOM     38  N   UNL A   1      42.226  29.324  30.111  1.00  0.00    -0.248 NA
ATOM     39  C   UNL A   1      40.509  30.906  30.221  1.00  0.00     0.031 C 
ATOM     40  C   UNL A   1      39.395  26.452  28.185  1.00  0.00     0.029 A 
ATOM     41  N   UNL A   1      41.497  26.774  28.887  1.00  0.00    -0.354 N 
ATOM     42  C   UNL A   1      42.704  30.482  30.710  1.00  0.00     0.074 A 
ATOM     43  C   UNL A   1      41.613  31.433  30.729  1.00  0.00     0.031 C 
ATOM     44  C   UNL A   1      40.088  25.326  27.933  1.00  0.00     0.029 A 
ATOM     45  C   UNL A   1      41.476  25.511  28.353  1.00  0.00     0.049 A 
ATOM     46  H   UNL A   1      42.300  27.177  29.291  1.00  0.00     0.167 HD
ATOM     47  C   UNL A   1      43.938  30.734  31.204  1.00  0.00     0.031 A 
ATOM     48  C   UNL A   1      42.469  24.614  28.205  1.00  0.00     0.031 A 
ATOM     49  C   UNL A   1      45.037  29.808  31.162  1.00  0.00     0.049 A 
ATOM     50  C   UNL A   1      43.857  24.948  28.684  1.00  0.00     0.074 A 
ATOM     51  C   UNL A   1      46.320  29.968  31.656  1.00  0.00     0.029 A 
ATOM     52  N   UNL A   1      44.985  28.554  30.575  1.00  0.00    -0.354 N 
ATOM     53  N   UNL A   1      44.283  26.029  29.292  1.00  0.00    -0.248 NA
ATOM     54  C   UNL A   1      44.897  23.933  28.459  1.00  0.00     0.031 C 
ATOM     55  C   UNL A   1      47.060  28.827  31.325  1.00  0.00     0.029 A 
ATOM     56  C   UNL A   1      46.223  27.940  30.667  1.00  0.00     0.049 A 
ATOM     57  H   UNL A   1      44.187  28.159  30.155  1.00  0.00     0.167 HD
ATOM     58  C   UNL A   1      45.633  25.814  29.544  1.00  0.00     0.074 A 
ATOM     59  C   UNL A   1      45.953  24.497  29.032  1.00  0.00     0.031 C 
ATOM     60  C   UNL A   1      46.527  26.632  30.150  1.00  0.00     0.031 A 
BRANCH  47  61
ATOM     61  C   UNL A   1      44.165  32.088  31.808  1.00  0.00    -0.014 A 
ATOM     62  C   UNL A   1      43.981  32.308  33.183  1.00  0.00     0.009 A 
ATOM     63  C   UNL A   1      44.575  33.155  30.995  1.00  0.00     0.009 A 
ATOM     64  C   UNL A   1      44.170  33.581  33.723  1.00  0.00     0.001 A 
ATOM     65  C   UNL A   1      44.785  34.422  31.543  1.00  0.00     0.001 A 
ATOM     66  C   UNL A   1      44.573  34.635  32.904  1.00  0.00     0.000 A 
ENDBRANCH  47  61
BRANCH  48  67
ATOM     67  C   UNL A   1      42.197  23.304  27.560  1.00  0.00    -0.014 A 
ATOM     68  C   UNL A   1      41.654  22.244  28.302  1.00  0.00     0.009 A 
ATOM     69  C   UNL A   1      42.498  23.102  26.204  1.00  0.00     0.009 A 
ATOM     70  C   UNL A   1      41.438  21.001  27.702  1.00  0.00     0.001 A 
ATOM     71  C   UNL A   1      42.260  21.866  25.603  1.00  0.00     0.001 A 
ATOM     72  C   UNL A   1      41.736  20.814  26.353  1.00  0.00     0.000 A 
ENDBRANCH  48  67
BRANCH  60  73
ATOM     73  C   UNL A   1      47.929  26.119  30.321  1.00  0.00    -0.014 A 
ATOM     74  C   UNL A   1      48.828  26.088  29.245  1.00  0.00     0.009 A 
ATOM     75  C   UNL A   1      48.367  25.704  31.588  1.00  0.00     0.009 A 
ATOM     76  C   UNL A   1      50.134  25.626  29.430  1.00  0.00     0.001 A 
ATOM     77  C   UNL A   1      49.679  25.266  31.775  1.00  0.00     0.001 A 
ATOM     78  C   UNL A   1      50.559  25.221  30.695  1.00  0.00     0.000 A 
ENDBRANCH  60  73
ENDBRANCH  34  35
ENDBRANCH  27  29
ENDBRANCH  26  27
ENDBRANCH  25  26
ENDBRANCH  24  25
ENDBRANCH  23  24
ENDBRANCH  22  23
ENDBRANCH   1  22
TORSDOF 20
ENDMDL
