MODEL 1
REMARK VINA RESULT:      -9.5      0.000      0.000
REMARK SMILES O=C(OCCOCCOCCOC(=O)[C@@H]([NH2+]C[C@@H]1CCCO1)c1cncn1C1CC1)c1ccc(-c2c3nc(c(-c4ccccc4)c4ccc([nH]4)c(-c4ccccc4)c4nc(c(-c5ccccc5)c5ccc2[nH]5)C=C4)C=C3)cc1
REMARK SMILES IDX 8 1 7 2 6 3 5 4 4 5 3 6 2 7 1 8 31 9 32 10 78 11 33 12 77 13
REMARK SMILES IDX 34 14 35 15 36 16 71 17 37 18 76 19 70 20 72 21 38 22 75 23
REMARK SMILES IDX 69 24 68 25 39 27 61 28 46 29 60 30 47 31 50 32 59 33 73 34
REMARK SMILES IDX 48 35 49 36 58 38 74 39 51 40 40 41 41 42 45 43 42 44 44 45
REMARK SMILES IDX 43 46 62 47 63 48 67 49 64 50 66 51 65 52 52 53 53 54 57 55
REMARK SMILES IDX 54 56 56 57 55 58 9 59 10 60 11 61 12 62 13 63 14 64 15 65
REMARK SMILES IDX 16 66 17 69 18 70 19 71 22 72 20 73 21 74 23 75 24 76 27 77
REMARK SMILES IDX 25 78 26 79 28 80 29 81 30 82
REMARK H PARENT 72 26 50 37 16 67 16 68
REMARK Flexibility Score: inf
ROOT
ATOM      1  C   UNL A   1      39.798  21.772  26.437  1.00  0.00     0.188 C 
ENDROOT
BRANCH   1   2
ATOM      2  C   UNL A   1      40.350  20.339  26.408  1.00  0.00     0.188 C 
BRANCH   2   3
ATOM      3  O   UNL A   1      41.704  20.035  26.141  1.00  0.00    -0.376 OA
BRANCH   3   4
ATOM      4  C   UNL A   1      42.252  18.747  25.934  1.00  0.00     0.202 C 
BRANCH   4   5
ATOM      5  C   UNL A   1      43.742  18.398  25.964  1.00  0.00     0.261 C 
BRANCH   5   6
ATOM      6  O   UNL A   1      44.501  18.619  24.783  1.00  0.00    -0.460 OA
BRANCH   6   7
ATOM      7  C   UNL A   1      44.602  19.705  23.997  1.00  0.00     0.338 C 
ATOM      8  O   UNL A   1      44.529  19.550  22.781  1.00  0.00    -0.246 OA
BRANCH   7   9
ATOM      9  C   UNL A   1      44.931  21.068  24.500  1.00  0.00     0.060 A 
ATOM     10  C   UNL A   1      45.865  21.383  25.486  1.00  0.00     0.016 A 
ATOM     11  C   UNL A   1      44.156  22.103  23.936  1.00  0.00     0.016 A 
ATOM     12  C   UNL A   1      45.883  22.654  26.036  1.00  0.00     0.010 A 
ATOM     13  C   UNL A   1      44.177  23.376  24.470  1.00  0.00     0.010 A 
ATOM     14  C   UNL A   1      44.972  23.605  25.583  1.00  0.00    -0.014 A 
BRANCH  14  15
ATOM     15  C   UNL A   1      44.810  24.798  26.386  1.00  0.00     0.031 A 
ATOM     16  C   UNL A   1      45.946  25.742  26.387  1.00  0.00     0.074 A 
ATOM     17  C   UNL A   1      43.674  25.010  27.078  1.00  0.00     0.049 A 
ATOM     18  N   UNL A   1      46.723  26.036  27.376  1.00  0.00    -0.248 NA
ATOM     19  C   UNL A   1      46.326  26.357  25.109  1.00  0.00     0.031 C 
ATOM     20  C   UNL A   1      42.401  24.291  26.967  1.00  0.00     0.029 A 
ATOM     21  N   UNL A   1      43.393  26.001  27.963  1.00  0.00    -0.354 N 
ATOM     22  C   UNL A   1      47.590  27.012  26.899  1.00  0.00     0.074 A 
ATOM     23  C   UNL A   1      47.394  27.069  25.470  1.00  0.00     0.031 C 
ATOM     24  C   UNL A   1      41.429  25.018  27.562  1.00  0.00     0.029 A 
ATOM     25  C   UNL A   1      42.039  26.167  28.211  1.00  0.00     0.049 A 
ATOM     26  H   UNL A   1      44.088  26.552  28.391  1.00  0.00     0.167 HD
ATOM     27  C   UNL A   1      48.240  27.863  27.738  1.00  0.00     0.031 A 
ATOM     28  C   UNL A   1      41.459  27.219  28.837  1.00  0.00     0.031 A 
ATOM     29  C   UNL A   1      48.235  27.395  29.098  1.00  0.00     0.049 A 
ATOM     30  C   UNL A   1      42.506  27.907  29.627  1.00  0.00     0.074 A 
ATOM     31  C   UNL A   1      48.724  26.281  29.749  1.00  0.00     0.029 A 
ATOM     32  N   UNL A   1      47.330  27.970  29.959  1.00  0.00    -0.354 N 
ATOM     33  N   UNL A   1      43.062  27.390  30.685  1.00  0.00    -0.248 NA
ATOM     34  C   UNL A   1      43.256  28.982  28.994  1.00  0.00     0.031 C 
ATOM     35  C   UNL A   1      47.754  25.982  30.749  1.00  0.00     0.029 A 
ATOM     36  C   UNL A   1      46.757  26.959  30.684  1.00  0.00     0.049 A 
ATOM     37  H   UNL A   1      47.130  28.930  30.038  1.00  0.00     0.167 HD
ATOM     38  C   UNL A   1      44.399  27.751  30.595  1.00  0.00     0.074 A 
ATOM     39  C   UNL A   1      44.436  28.820  29.599  1.00  0.00     0.031 C 
ATOM     40  C   UNL A   1      45.379  26.957  31.120  1.00  0.00     0.031 A 
BRANCH  27  41
ATOM     41  C   UNL A   1      48.521  29.302  27.397  1.00  0.00    -0.014 A 
ATOM     42  C   UNL A   1      49.825  29.800  27.573  1.00  0.00     0.009 A 
ATOM     43  C   UNL A   1      47.502  30.252  27.194  1.00  0.00     0.009 A 
ATOM     44  C   UNL A   1      50.078  31.177  27.615  1.00  0.00     0.001 A 
ATOM     45  C   UNL A   1      47.757  31.625  27.195  1.00  0.00     0.001 A 
ATOM     46  C   UNL A   1      49.041  32.087  27.435  1.00  0.00     0.000 A 
ENDBRANCH  27  41
BRANCH  28  47
ATOM     47  C   UNL A   1      40.143  27.827  28.554  1.00  0.00    -0.014 A 
ATOM     48  C   UNL A   1      39.140  27.859  29.533  1.00  0.00     0.009 A 
ATOM     49  C   UNL A   1      39.960  28.613  27.400  1.00  0.00     0.009 A 
ATOM     50  C   UNL A   1      38.013  28.678  29.378  1.00  0.00     0.001 A 
ATOM     51  C   UNL A   1      38.833  29.425  27.243  1.00  0.00     0.001 A 
ATOM     52  C   UNL A   1      37.866  29.469  28.240  1.00  0.00     0.000 A 
ENDBRANCH  28  47
BRANCH  40  53
ATOM     53  C   UNL A   1      44.960  25.812  32.007  1.00  0.00    -0.014 A 
ATOM     54  C   UNL A   1      44.628  24.540  31.508  1.00  0.00     0.009 A 
ATOM     55  C   UNL A   1      45.052  25.978  33.397  1.00  0.00     0.009 A 
ATOM     56  C   UNL A   1      44.364  23.475  32.377  1.00  0.00     0.001 A 
ATOM     57  C   UNL A   1      44.811  24.909  34.263  1.00  0.00     0.001 A 
ATOM     58  C   UNL A   1      44.460  23.660  33.754  1.00  0.00     0.000 A 
ENDBRANCH  40  53
ENDBRANCH  14  15
ENDBRANCH   7   9
ENDBRANCH   6   7
ENDBRANCH   5   6
ENDBRANCH   4   5
ENDBRANCH   3   4
ENDBRANCH   2   3
ENDBRANCH   1   2
BRANCH   1  59
ATOM     59  O   UNL A   1      38.600  22.090  25.744  1.00  0.00    -0.376 OA
BRANCH  59  60
ATOM     60  C   UNL A   1      37.748  21.029  25.364  1.00  0.00     0.202 C 
BRANCH  60  61
ATOM     61  C   UNL A   1      36.308  21.482  25.051  1.00  0.00     0.261 C 
BRANCH  61  62
ATOM     62  O   UNL A   1      35.844  22.663  25.746  1.00  0.00    -0.459 OA
BRANCH  62  63
ATOM     63  C   UNL A   1      35.499  23.664  24.889  1.00  0.00     0.371 C 
ATOM     64  O   UNL A   1      36.032  23.784  23.797  1.00  0.00    -0.245 OA
BRANCH  63  65
ATOM     65  C   UNL A   1      34.400  24.658  25.368  1.00  0.00     0.343 C 
BRANCH  65  66
ATOM     66  N   UNL A   1      34.042  25.689  24.367  1.00  0.00    -0.327 N 
ATOM     67  H   UNL A   1      33.571  25.213  23.596  1.00  0.00     0.347 HD
ATOM     68  H   UNL A   1      34.928  26.136  24.134  1.00  0.00     0.347 HD
BRANCH  66  69
ATOM     69  C   UNL A   1      33.170  26.798  24.796  1.00  0.00     0.293 C 
BRANCH  69  70
ATOM     70  C   UNL A   1      33.739  28.114  25.384  1.00  0.00     0.173 C 
ATOM     71  C   UNL A   1      33.670  28.231  26.903  1.00  0.00     0.040 C 
ATOM     72  O   UNL A   1      32.971  29.233  24.870  1.00  0.00    -0.372 OA
ATOM     73  C   UNL A   1      33.498  29.714  27.119  1.00  0.00     0.031 C 
ATOM     74  C   UNL A   1      32.604  30.089  25.963  1.00  0.00     0.161 C 
ENDBRANCH  69  70
ENDBRANCH  66  69
ENDBRANCH  65  66
BRANCH  65  75
ATOM     75  C   UNL A   1      33.201  23.862  25.774  1.00  0.00     0.108 A 
ATOM     76  C   UNL A   1      32.700  23.625  27.048  1.00  0.00     0.141 A 
ATOM     77  N   UNL A   1      32.252  23.290  24.951  1.00  0.00    -0.326 N 
ATOM     78  N   UNL A   1      31.508  22.959  27.020  1.00  0.00    -0.245 NA
ATOM     79  C   UNL A   1      31.245  22.811  25.746  1.00  0.00     0.200 A 
BRANCH  77  80
ATOM     80  C   UNL A   1      32.125  23.241  23.511  1.00  0.00     0.089 C 
ATOM     81  C   UNL A   1      33.183  23.087  22.451  1.00  0.00     0.027 C 
ATOM     82  C   UNL A   1      32.267  21.947  22.744  1.00  0.00     0.027 C 
ENDBRANCH  77  80
ENDBRANCH  65  75
ENDBRANCH  63  65
ENDBRANCH  62  63
ENDBRANCH  61  62
ENDBRANCH  60  61
ENDBRANCH  59  60
ENDBRANCH   1  59
TORSDOF 22
ENDMDL
MODEL 2
REMARK VINA RESULT:      -9.5      3.478      5.266
REMARK SMILES O=C(OCCOCCOCCOC(=O)[C@@H]([NH2+]C[C@@H]1CCCO1)c1cncn1C1CC1)c1ccc(-c2c3nc(c(-c4ccccc4)c4ccc([nH]4)c(-c4ccccc4)c4nc(c(-c5ccccc5)c5ccc2[nH]5)C=C4)C=C3)cc1
REMARK SMILES IDX 8 1 7 2 6 3 5 4 4 5 3 6 2 7 1 8 31 9 32 10 78 11 33 12 77 13
REMARK SMILES IDX 34 14 35 15 36 16 71 17 37 18 76 19 70 20 72 21 38 22 75 23
REMARK SMILES IDX 69 24 68 25 39 27 61 28 46 29 60 30 47 31 50 32 59 33 73 34
REMARK SMILES IDX 48 35 49 36 58 38 74 39 51 40 40 41 41 42 45 43 42 44 44 45
REMARK SMILES IDX 43 46 62 47 63 48 67 49 64 50 66 51 65 52 52 53 53 54 57 55
REMARK SMILES IDX 54 56 56 57 55 58 9 59 10 60 11 61 12 62 13 63 14 64 15 65
REMARK SMILES IDX 16 66 17 69 18 70 19 71 22 72 20 73 21 74 23 75 24 76 27 77
REMARK SMILES IDX 25 78 26 79 28 80 29 81 30 82
REMARK H PARENT 72 26 50 37 16 67 16 68
REMARK Flexibility Score: inf
ROOT
ATOM      1  C   UNL A   1      33.746  21.157  24.801  1.00  0.00     0.188 C 
ENDROOT
BRANCH   1   2
ATOM      2  C   UNL A   1      35.045  21.051  25.614  1.00  0.00     0.188 C 
BRANCH   2   3
ATOM      3  O   UNL A   1      36.186  20.351  25.164  1.00  0.00    -0.376 OA
BRANCH   3   4
ATOM      4  C   UNL A   1      37.479  20.890  24.963  1.00  0.00     0.202 C 
BRANCH   4   5
ATOM      5  C   UNL A   1      38.090  22.056  25.745  1.00  0.00     0.261 C 
BRANCH   5   6
ATOM      6  O   UNL A   1      39.496  22.060  25.945  1.00  0.00    -0.460 OA
BRANCH   6   7
ATOM      7  C   UNL A   1      40.228  22.391  27.023  1.00  0.00     0.338 C 
ATOM      8  O   UNL A   1      40.400  21.539  27.891  1.00  0.00    -0.246 OA
BRANCH   7   9
ATOM      9  C   UNL A   1      40.733  23.765  27.296  1.00  0.00     0.060 A 
ATOM     10  C   UNL A   1      41.696  24.121  28.240  1.00  0.00     0.016 A 
ATOM     11  C   UNL A   1      40.105  24.780  26.543  1.00  0.00     0.016 A 
ATOM     12  C   UNL A   1      41.880  25.453  28.566  1.00  0.00     0.010 A 
ATOM     13  C   UNL A   1      40.292  26.112  26.854  1.00  0.00     0.010 A 
ATOM     14  C   UNL A   1      41.106  26.423  27.934  1.00  0.00    -0.014 A 
BRANCH  14  15
ATOM     15  C   UNL A   1      41.100  27.747  28.517  1.00  0.00     0.031 A 
ATOM     16  C   UNL A   1      42.147  28.674  28.040  1.00  0.00     0.074 A 
ATOM     17  C   UNL A   1      40.177  28.088  29.437  1.00  0.00     0.049 A 
ATOM     18  N   UNL A   1      43.140  29.150  28.714  1.00  0.00    -0.248 NA
ATOM     19  C   UNL A   1      42.146  29.034  26.617  1.00  0.00     0.031 C 
ATOM     20  C   UNL A   1      38.957  27.361  29.805  1.00  0.00     0.029 A 
ATOM     21  N   UNL A   1      40.088  29.230  30.167  1.00  0.00    -0.354 N 
ATOM     22  C   UNL A   1      43.801  30.018  27.851  1.00  0.00     0.074 A 
ATOM     23  C   UNL A   1      43.234  29.802  26.542  1.00  0.00     0.031 C 
ATOM     24  C   UNL A   1      38.141  28.189  30.494  1.00  0.00     0.029 A 
ATOM     25  C   UNL A   1      38.840  29.440  30.733  1.00  0.00     0.049 A 
ATOM     26  H   UNL A   1      40.843  29.852  30.285  1.00  0.00     0.167 HD
ATOM     27  C   UNL A   1      44.605  31.013  28.315  1.00  0.00     0.031 A 
ATOM     28  C   UNL A   1      38.393  30.592  31.287  1.00  0.00     0.031 A 
ATOM     29  C   UNL A   1      44.981  30.812  29.689  1.00  0.00     0.049 A 
ATOM     30  C   UNL A   1      39.574  31.418  31.628  1.00  0.00     0.074 A 
ATOM     31  C   UNL A   1      45.680  29.843  30.378  1.00  0.00     0.029 A 
ATOM     32  N   UNL A   1      44.306  31.541  30.639  1.00  0.00    -0.354 N 
ATOM     33  N   UNL A   1      40.414  31.112  32.574  1.00  0.00    -0.248 NA
ATOM     34  C   UNL A   1      40.076  32.352  30.631  1.00  0.00     0.031 C 
ATOM     35  C   UNL A   1      45.023  29.741  31.638  1.00  0.00     0.029 A 
ATOM     36  C   UNL A   1      43.996  30.688  31.664  1.00  0.00     0.049 A 
ATOM     37  H   UNL A   1      44.086  32.500  30.591  1.00  0.00     0.167 HD
ATOM     38  C   UNL A   1      41.660  31.448  32.065  1.00  0.00     0.074 A 
ATOM     39  C   UNL A   1      41.381  32.308  30.917  1.00  0.00     0.031 C 
ATOM     40  C   UNL A   1      42.783  30.769  32.446  1.00  0.00     0.031 A 
BRANCH  27  41
ATOM     41  C   UNL A   1      44.713  32.361  27.652  1.00  0.00    -0.014 A 
ATOM     42  C   UNL A   1      43.634  33.257  27.758  1.00  0.00     0.009 A 
ATOM     43  C   UNL A   1      45.698  32.664  26.693  1.00  0.00     0.009 A 
ATOM     44  C   UNL A   1      43.515  34.356  26.898  1.00  0.00     0.001 A 
ATOM     45  C   UNL A   1      45.604  33.782  25.862  1.00  0.00     0.001 A 
ATOM     46  C   UNL A   1      44.496  34.612  25.945  1.00  0.00     0.000 A 
ENDBRANCH  27  41
BRANCH  28  47
ATOM     47  C   UNL A   1      37.019  31.136  31.260  1.00  0.00    -0.014 A 
ATOM     48  C   UNL A   1      36.385  31.546  32.441  1.00  0.00     0.009 A 
ATOM     49  C   UNL A   1      36.425  31.496  30.035  1.00  0.00     0.009 A 
ATOM     50  C   UNL A   1      35.218  32.322  32.396  1.00  0.00     0.001 A 
ATOM     51  C   UNL A   1      35.258  32.264  29.990  1.00  0.00     0.001 A 
ATOM     52  C   UNL A   1      34.662  32.690  31.171  1.00  0.00     0.000 A 
ENDBRANCH  28  47
BRANCH  40  53
ATOM     53  C   UNL A   1      42.670  29.814  33.608  1.00  0.00    -0.014 A 
ATOM     54  C   UNL A   1      42.882  30.205  34.942  1.00  0.00     0.009 A 
ATOM     55  C   UNL A   1      42.186  28.521  33.363  1.00  0.00     0.009 A 
ATOM     56  C   UNL A   1      42.647  29.316  35.996  1.00  0.00     0.001 A 
ATOM     57  C   UNL A   1      41.929  27.641  34.416  1.00  0.00     0.001 A 
ATOM     58  C   UNL A   1      42.166  28.035  35.732  1.00  0.00     0.000 A 
ENDBRANCH  40  53
ENDBRANCH  14  15
ENDBRANCH   7   9
ENDBRANCH   6   7
ENDBRANCH   5   6
ENDBRANCH   4   5
ENDBRANCH   3   4
ENDBRANCH   2   3
ENDBRANCH   1   2
BRANCH   1  59
ATOM     59  O   UNL A   1      33.448  22.344  24.082  1.00  0.00    -0.376 OA
BRANCH  59  60
ATOM     60  C   UNL A   1      32.941  22.218  22.769  1.00  0.00     0.202 C 
BRANCH  60  61
ATOM     61  C   UNL A   1      33.249  23.436  21.875  1.00  0.00     0.261 C 
BRANCH  61  62
ATOM     62  O   UNL A   1      33.686  24.635  22.555  1.00  0.00    -0.459 OA
BRANCH  62  63
ATOM     63  C   UNL A   1      33.241  25.767  21.943  1.00  0.00     0.371 C 
ATOM     64  O   UNL A   1      33.269  25.891  20.728  1.00  0.00    -0.245 OA
BRANCH  63  65
ATOM     65  C   UNL A   1      32.704  26.905  22.861  1.00  0.00     0.343 C 
BRANCH  65  66
ATOM     66  N   UNL A   1      31.925  27.941  22.145  1.00  0.00    -0.327 N 
ATOM     67  H   UNL A   1      32.056  27.782  21.145  1.00  0.00     0.347 HD
ATOM     68  H   UNL A   1      32.287  28.824  22.503  1.00  0.00     0.347 HD
BRANCH  66  69
ATOM     69  C   UNL A   1      30.473  28.010  22.392  1.00  0.00     0.293 C 
BRANCH  69  70
ATOM     70  C   UNL A   1      29.748  29.350  22.674  1.00  0.00     0.173 C 
ATOM     71  C   UNL A   1      28.297  29.222  23.130  1.00  0.00     0.040 C 
ATOM     72  O   UNL A   1      29.707  30.133  21.452  1.00  0.00    -0.372 OA
ATOM     73  C   UNL A   1      27.659  30.471  22.575  1.00  0.00     0.031 C 
ATOM     74  C   UNL A   1      28.369  30.616  21.251  1.00  0.00     0.161 C 
ENDBRANCH  69  70
ENDBRANCH  66  69
ENDBRANCH  65  66
BRANCH  65  75
ATOM     75  C   UNL A   1      31.893  26.276  23.949  1.00  0.00     0.108 A 
ATOM     76  C   UNL A   1      30.984  25.229  23.868  1.00  0.00     0.141 A 
ATOM     77  N   UNL A   1      31.969  26.523  25.305  1.00  0.00    -0.326 N 
ATOM     78  N   UNL A   1      30.532  24.839  25.095  1.00  0.00    -0.245 NA
ATOM     79  C   UNL A   1      31.175  25.606  25.940  1.00  0.00     0.200 A 
BRANCH  77  80
ATOM     80  C   UNL A   1      32.780  27.437  26.078  1.00  0.00     0.089 C 
ATOM     81  C   UNL A   1      33.250  28.829  25.747  1.00  0.00     0.027 C 
ATOM     82  C   UNL A   1      32.183  28.638  26.773  1.00  0.00     0.027 C 
ENDBRANCH  77  80
ENDBRANCH  65  75
ENDBRANCH  63  65
ENDBRANCH  62  63
ENDBRANCH  61  62
ENDBRANCH  60  61
ENDBRANCH  59  60
ENDBRANCH   1  59
TORSDOF 22
ENDMDL
MODEL 3
REMARK VINA RESULT:      -9.3      3.550      8.084
REMARK SMILES O=C(OCCOCCOCCOC(=O)[C@@H]([NH2+]C[C@@H]1CCCO1)c1cncn1C1CC1)c1ccc(-c2c3nc(c(-c4ccccc4)c4ccc([nH]4)c(-c4ccccc4)c4nc(c(-c5ccccc5)c5ccc2[nH]5)C=C4)C=C3)cc1
REMARK SMILES IDX 8 1 7 2 6 3 5 4 4 5 3 6 2 7 1 8 31 9 32 10 78 11 33 12 77 13
REMARK SMILES IDX 34 14 35 15 36 16 71 17 37 18 76 19 70 20 72 21 38 22 75 23
REMARK SMILES IDX 69 24 68 25 39 27 61 28 46 29 60 30 47 31 50 32 59 33 73 34
REMARK SMILES IDX 48 35 49 36 58 38 74 39 51 40 40 41 41 42 45 43 42 44 44 45
REMARK SMILES IDX 43 46 62 47 63 48 67 49 64 50 66 51 65 52 52 53 53 54 57 55
REMARK SMILES IDX 54 56 56 57 55 58 9 59 10 60 11 61 12 62 13 63 14 64 15 65
REMARK SMILES IDX 16 66 17 69 18 70 19 71 22 72 20 73 21 74 23 75 24 76 27 77
REMARK SMILES IDX 25 78 26 79 28 80 29 81 30 82
REMARK H PARENT 72 26 50 37 16 67 16 68
REMARK Flexibility Score: inf
ROOT
ATOM      1  C   UNL A   1      35.766  32.731  27.908  1.00  0.00     0.188 C 
ENDROOT
BRANCH   1   2
ATOM      2  C   UNL A   1      35.788  33.917  28.883  1.00  0.00     0.188 C 
BRANCH   2   3
ATOM      3  O   UNL A   1      34.977  33.987  30.037  1.00  0.00    -0.376 OA
BRANCH   3   4
ATOM      4  C   UNL A   1      34.656  32.918  30.906  1.00  0.00     0.202 C 
BRANCH   4   5
ATOM      5  C   UNL A   1      35.666  32.010  31.613  1.00  0.00     0.261 C 
BRANCH   5   6
ATOM      6  O   UNL A   1      36.147  30.875  30.908  1.00  0.00    -0.460 OA
BRANCH   6   7
ATOM      7  C   UNL A   1      36.782  29.773  31.347  1.00  0.00     0.338 C 
ATOM      8  O   UNL A   1      36.573  29.405  32.500  1.00  0.00    -0.246 OA
BRANCH   7   9
ATOM      9  C   UNL A   1      37.823  29.047  30.568  1.00  0.00     0.060 A 
ATOM     10  C   UNL A   1      38.370  27.802  30.878  1.00  0.00     0.016 A 
ATOM     11  C   UNL A   1      38.316  29.752  29.450  1.00  0.00     0.016 A 
ATOM     12  C   UNL A   1      39.506  27.366  30.218  1.00  0.00     0.010 A 
ATOM     13  C   UNL A   1      39.442  29.318  28.778  1.00  0.00     0.010 A 
ATOM     14  C   UNL A   1      40.080  28.176  29.242  1.00  0.00    -0.014 A 
BRANCH  14  15
ATOM     15  C   UNL A   1      41.419  27.841  28.808  1.00  0.00     0.031 A 
ATOM     16  C   UNL A   1      41.572  26.550  28.106  1.00  0.00     0.074 A 
ATOM     17  C   UNL A   1      42.447  28.679  29.042  1.00  0.00     0.049 A 
ATOM     18  N   UNL A   1      42.203  25.501  28.519  1.00  0.00    -0.248 NA
ATOM     19  C   UNL A   1      40.853  26.371  26.839  1.00  0.00     0.031 C 
ATOM     20  C   UNL A   1      42.390  30.073  29.496  1.00  0.00     0.029 A 
ATOM     21  N   UNL A   1      43.771  28.482  28.814  1.00  0.00    -0.354 N 
ATOM     22  C   UNL A   1      42.115  24.576  27.484  1.00  0.00     0.074 A 
ATOM     23  C   UNL A   1      41.161  25.108  26.541  1.00  0.00     0.031 C 
ATOM     24  C   UNL A   1      43.587  30.659  29.272  1.00  0.00     0.029 A 
ATOM     25  C   UNL A   1      44.519  29.649  28.800  1.00  0.00     0.049 A 
ATOM     26  H   UNL A   1      44.165  27.591  28.673  1.00  0.00     0.167 HD
ATOM     27  C   UNL A   1      43.002  23.551  27.365  1.00  0.00     0.031 A 
ATOM     28  C   UNL A   1      45.791  29.783  28.354  1.00  0.00     0.031 A 
ATOM     29  C   UNL A   1      43.736  23.323  28.580  1.00  0.00     0.049 A 
ATOM     30  C   UNL A   1      46.409  28.438  28.342  1.00  0.00     0.074 A 
ATOM     31  C   UNL A   1      43.402  22.965  29.870  1.00  0.00     0.029 A 
ATOM     32  N   UNL A   1      45.018  23.816  28.643  1.00  0.00    -0.354 N 
ATOM     33  N   UNL A   1      46.699  27.772  29.423  1.00  0.00    -0.248 NA
ATOM     34  C   UNL A   1      46.305  27.639  27.130  1.00  0.00     0.031 C 
ATOM     35  C   UNL A   1      44.304  23.693  30.699  1.00  0.00     0.029 A 
ATOM     36  C   UNL A   1      45.167  24.410  29.868  1.00  0.00     0.049 A 
ATOM     37  H   UNL A   1      45.702  23.754  27.937  1.00  0.00     0.167 HD
ATOM     38  C   UNL A   1      46.377  26.455  29.125  1.00  0.00     0.074 A 
ATOM     39  C   UNL A   1      46.248  26.417  27.670  1.00  0.00     0.031 C 
ATOM     40  C   UNL A   1      45.966  25.593  30.101  1.00  0.00     0.031 A 
BRANCH  27  41
ATOM     41  C   UNL A   1      43.485  23.031  26.037  1.00  0.00    -0.014 A 
ATOM     42  C   UNL A   1      43.413  21.650  25.782  1.00  0.00     0.009 A 
ATOM     43  C   UNL A   1      44.272  23.798  25.157  1.00  0.00     0.009 A 
ATOM     44  C   UNL A   1      44.148  21.063  24.744  1.00  0.00     0.001 A 
ATOM     45  C   UNL A   1      44.974  23.222  24.096  1.00  0.00     0.001 A 
ATOM     46  C   UNL A   1      44.934  21.849  23.908  1.00  0.00     0.000 A 
ENDBRANCH  27  41
BRANCH  28  47
ATOM     47  C   UNL A   1      46.390  30.944  27.664  1.00  0.00    -0.014 A 
ATOM     48  C   UNL A   1      45.734  31.558  26.587  1.00  0.00     0.009 A 
ATOM     49  C   UNL A   1      47.490  31.615  28.232  1.00  0.00     0.009 A 
ATOM     50  C   UNL A   1      46.142  32.816  26.123  1.00  0.00     0.001 A 
ATOM     51  C   UNL A   1      47.901  32.866  27.765  1.00  0.00     0.001 A 
ATOM     52  C   UNL A   1      47.217  33.474  26.719  1.00  0.00     0.000 A 
ENDBRANCH  28  47
BRANCH  40  53
ATOM     53  C   UNL A   1      46.103  26.034  31.537  1.00  0.00    -0.014 A 
ATOM     54  C   UNL A   1      47.296  25.894  32.269  1.00  0.00     0.009 A 
ATOM     55  C   UNL A   1      45.047  26.752  32.118  1.00  0.00     0.009 A 
ATOM     56  C   UNL A   1      47.414  26.428  33.557  1.00  0.00     0.001 A 
ATOM     57  C   UNL A   1      45.174  27.305  33.394  1.00  0.00     0.001 A 
ATOM     58  C   UNL A   1      46.354  27.137  34.116  1.00  0.00     0.000 A 
ENDBRANCH  40  53
ENDBRANCH  14  15
ENDBRANCH   7   9
ENDBRANCH   6   7
ENDBRANCH   5   6
ENDBRANCH   4   5
ENDBRANCH   3   4
ENDBRANCH   2   3
ENDBRANCH   1   2
BRANCH   1  59
ATOM     59  O   UNL A   1      34.529  32.175  27.487  1.00  0.00    -0.376 OA
BRANCH  59  60
ATOM     60  C   UNL A   1      34.333  30.785  27.650  1.00  0.00     0.202 C 
BRANCH  60  61
ATOM     61  C   UNL A   1      33.109  30.246  26.883  1.00  0.00     0.261 C 
BRANCH  61  62
ATOM     62  O   UNL A   1      33.349  29.800  25.528  1.00  0.00    -0.459 OA
BRANCH  62  63
ATOM     63  C   UNL A   1      32.950  28.513  25.330  1.00  0.00     0.371 C 
ATOM     64  O   UNL A   1      33.456  27.584  25.940  1.00  0.00    -0.245 OA
BRANCH  63  65
ATOM     65  C   UNL A   1      31.824  28.275  24.280  1.00  0.00     0.343 C 
BRANCH  65  66
ATOM     66  N   UNL A   1      31.312  29.515  23.653  1.00  0.00    -0.327 N 
ATOM     67  H   UNL A   1      32.111  30.002  23.247  1.00  0.00     0.347 HD
ATOM     68  H   UNL A   1      30.834  30.004  24.409  1.00  0.00     0.347 HD
BRANCH  66  69
ATOM     69  C   UNL A   1      30.293  29.386  22.594  1.00  0.00     0.293 C 
BRANCH  69  70
ATOM     70  C   UNL A   1      29.011  30.257  22.574  1.00  0.00     0.173 C 
ATOM     71  C   UNL A   1      28.716  30.949  21.247  1.00  0.00     0.040 C 
ATOM     72  O   UNL A   1      29.147  31.322  23.550  1.00  0.00    -0.372 OA
ATOM     73  C   UNL A   1      28.027  32.220  21.677  1.00  0.00     0.031 C 
ATOM     74  C   UNL A   1      28.786  32.568  22.934  1.00  0.00     0.161 C 
ENDBRANCH  69  70
ENDBRANCH  66  69
ENDBRANCH  65  66
BRANCH  65  75
ATOM     75  C   UNL A   1      32.346  27.325  23.250  1.00  0.00     0.108 A 
ATOM     76  C   UNL A   1      33.367  27.511  22.327  1.00  0.00     0.141 A 
ATOM     77  N   UNL A   1      32.005  25.998  23.079  1.00  0.00    -0.326 N 
ATOM     78  N   UNL A   1      33.653  26.371  21.634  1.00  0.00    -0.245 NA
ATOM     79  C   UNL A   1      32.848  25.469  22.138  1.00  0.00     0.200 A 
BRANCH  77  80
ATOM     80  C   UNL A   1      31.064  25.145  23.770  1.00  0.00     0.089 C 
ATOM     81  C   UNL A   1      30.670  23.717  23.497  1.00  0.00     0.027 C 
ATOM     82  C   UNL A   1      31.522  24.029  24.681  1.00  0.00     0.027 C 
ENDBRANCH  77  80
ENDBRANCH  65  75
ENDBRANCH  63  65
ENDBRANCH  62  63
ENDBRANCH  61  62
ENDBRANCH  60  61
ENDBRANCH  59  60
ENDBRANCH   1  59
TORSDOF 22
ENDMDL
