MODEL 1
REMARK VINA RESULT:     -10.0      0.000      0.000
REMARK SMILES Cc1cc(C)n2ncc(C(=O)N(C)CCCC(=O)OCCOCCOCCOC(=O)c3ccc(-c4c5nc(c(-c6ccccc6)c6ccc([nH]6)c(-c6ccccc6)c6nc(c(-c7ccccc7)c7ccc4[nH]7)C=C6)C=C5)cc3)c2n1
REMARK SMILES IDX 22 1 21 2 20 3 19 4 17 5 18 6 16 7 15 8 14 9 12 10 13 11
REMARK SMILES IDX 10 12 11 13 9 14 1 15 2 16 3 17 80 18 4 19 79 20 5 21 6 22
REMARK SMILES IDX 7 23 8 24 23 25 24 26 25 27 26 28 27 29 28 30 29 31 30 32
REMARK SMILES IDX 31 33 32 34 78 35 33 36 77 37 34 38 35 39 36 40 71 41 37 42
REMARK SMILES IDX 76 43 70 44 72 45 38 46 75 47 69 48 68 49 39 51 61 52 46 53
REMARK SMILES IDX 60 54 47 55 50 56 59 57 73 58 48 59 49 60 58 62 74 63 51 64
REMARK SMILES IDX 40 65 41 66 45 67 42 68 44 69 43 70 62 71 63 72 67 73 64 74
REMARK SMILES IDX 66 75 65 76 52 77 53 78 57 79 54 80 56 81 55 82
REMARK H PARENT 72 50 50 61
REMARK Flexibility Score: inf
ROOT
ATOM      1  O   UNL A   1      37.098  23.975  25.236  1.00  0.00    -0.376 OA
ENDROOT
BRANCH   1   2
ATOM      2  C   UNL A   1      36.852  23.332  23.995  1.00  0.00     0.202 C 
BRANCH   2   3
ATOM      3  C   UNL A   1      35.428  23.002  23.499  1.00  0.00     0.261 C 
BRANCH   3   4
ATOM      4  O   UNL A   1      34.640  24.130  23.080  1.00  0.00    -0.463 OA
BRANCH   4   5
ATOM      5  C   UNL A   1      33.378  23.876  22.659  1.00  0.00     0.305 C 
ATOM      6  O   UNL A   1      32.587  23.150  23.258  1.00  0.00    -0.252 OA
BRANCH   5   7
ATOM      7  C   UNL A   1      32.924  24.694  21.456  1.00  0.00     0.124 C 
BRANCH   7   8
ATOM      8  C   UNL A   1      32.649  26.203  21.483  1.00  0.00     0.033 C 
BRANCH   8   9
ATOM      9  C   UNL A   1      32.056  26.833  22.742  1.00  0.00     0.120 C 
BRANCH   9  10
ATOM     10  N   UNL A   1      33.071  27.528  23.525  1.00  0.00    -0.342 N 
ATOM     11  C   UNL A   1      33.829  28.524  22.789  1.00  0.00     0.147 C 
BRANCH  10  12
ATOM     12  C   UNL A   1      33.100  27.246  24.893  1.00  0.00     0.259 C 
ATOM     13  O   UNL A   1      33.986  27.743  25.589  1.00  0.00    -0.269 OA
BRANCH  12  14
ATOM     14  C   UNL A   1      32.061  26.457  25.532  1.00  0.00     0.104 A 
ATOM     15  C   UNL A   1      34.575  22.438  26.931  1.00  0.00     0.067 C 
ATOM     16  C   UNL A   1      33.331  23.263  26.703  1.00  0.00     0.042 A 
ATOM     17  C   UNL A   1      32.025  22.588  26.983  1.00  0.00     0.047 A 
ATOM     18  N   UNL A   1      33.457  24.494  26.301  1.00  0.00    -0.233 NA
ATOM     19  C   UNL A   1      30.923  23.346  26.848  1.00  0.00     0.043 A 
ATOM     20  C   UNL A   1      32.302  25.209  26.103  1.00  0.00     0.168 A 
ATOM     21  C   UNL A   1      29.539  22.823  27.063  1.00  0.00     0.067 C 
ATOM     22  N   UNL A   1      31.054  24.677  26.436  1.00  0.00    -0.219 N 
ATOM     23  N   UNL A   1      30.069  25.590  26.269  1.00  0.00    -0.174 NA
ATOM     24  C   UNL A   1      30.677  26.630  25.701  1.00  0.00     0.151 A 
ENDBRANCH  12  14
ENDBRANCH  10  12
ENDBRANCH   9  10
ENDBRANCH   8   9
ENDBRANCH   7   8
ENDBRANCH   5   7
ENDBRANCH   4   5
ENDBRANCH   3   4
ENDBRANCH   2   3
ENDBRANCH   1   2
BRANCH   1  25
ATOM     25  C   UNL A   1      38.050  23.400  26.095  1.00  0.00     0.188 C 
BRANCH  25  26
ATOM     26  C   UNL A   1      38.496  21.948  25.878  1.00  0.00     0.188 C 
BRANCH  26  27
ATOM     27  O   UNL A   1      39.819  21.463  25.765  1.00  0.00    -0.376 OA
BRANCH  27  28
ATOM     28  C   UNL A   1      40.452  20.464  26.552  1.00  0.00     0.202 C 
BRANCH  28  29
ATOM     29  C   UNL A   1      41.712  19.702  26.144  1.00  0.00     0.261 C 
BRANCH  29  30
ATOM     30  O   UNL A   1      42.884  20.454  26.288  1.00  0.00    -0.460 OA
BRANCH  30  31
ATOM     31  C   UNL A   1      43.734  20.307  25.248  1.00  0.00     0.338 C 
ATOM     32  O   UNL A   1      43.931  19.329  24.565  1.00  0.00    -0.246 OA
BRANCH  31  33
ATOM     33  C   UNL A   1      44.350  21.624  25.039  1.00  0.00     0.060 A 
ATOM     34  C   UNL A   1      45.568  21.859  25.674  1.00  0.00     0.016 A 
ATOM     35  C   UNL A   1      43.615  22.631  24.406  1.00  0.00     0.016 A 
ATOM     36  C   UNL A   1      45.806  23.141  26.082  1.00  0.00     0.010 A 
ATOM     37  C   UNL A   1      43.853  23.904  24.804  1.00  0.00     0.010 A 
ATOM     38  C   UNL A   1      44.811  24.072  25.795  1.00  0.00    -0.014 A 
BRANCH  38  39
ATOM     39  C   UNL A   1      44.594  25.142  26.731  1.00  0.00     0.031 A 
ATOM     40  C   UNL A   1      45.632  26.170  26.656  1.00  0.00     0.074 A 
ATOM     41  C   UNL A   1      43.470  25.198  27.471  1.00  0.00     0.049 A 
ATOM     42  N   UNL A   1      46.625  26.302  27.464  1.00  0.00    -0.248 NA
ATOM     43  C   UNL A   1      45.729  26.957  25.418  1.00  0.00     0.031 C 
ATOM     44  C   UNL A   1      42.250  24.381  27.411  1.00  0.00     0.029 A 
ATOM     45  N   UNL A   1      43.159  26.116  28.411  1.00  0.00    -0.354 N 
ATOM     46  C   UNL A   1      47.386  27.321  26.918  1.00  0.00     0.074 A 
ATOM     47  C   UNL A   1      46.951  27.467  25.555  1.00  0.00     0.031 C 
ATOM     48  C   UNL A   1      41.263  25.007  28.102  1.00  0.00     0.029 A 
ATOM     49  C   UNL A   1      41.818  26.186  28.748  1.00  0.00     0.049 A 
ATOM     50  H   UNL A   1      43.837  26.696  28.828  1.00  0.00     0.167 HD
ATOM     51  C   UNL A   1      48.105  28.167  27.698  1.00  0.00     0.031 A 
ATOM     52  C   UNL A   1      41.235  27.200  29.437  1.00  0.00     0.031 A 
ATOM     53  C   UNL A   1      48.182  27.696  29.057  1.00  0.00     0.049 A 
ATOM     54  C   UNL A   1      42.333  27.946  30.117  1.00  0.00     0.074 A 
ATOM     55  C   UNL A   1      48.738  26.581  29.651  1.00  0.00     0.029 A 
ATOM     56  N   UNL A   1      47.237  28.174  29.939  1.00  0.00    -0.354 N 
ATOM     57  N   UNL A   1      43.040  27.433  31.087  1.00  0.00    -0.248 NA
ATOM     58  C   UNL A   1      42.986  29.024  29.380  1.00  0.00     0.031 C 
ATOM     59  C   UNL A   1      47.794  26.179  30.640  1.00  0.00     0.029 A 
ATOM     60  C   UNL A   1      46.750  27.108  30.658  1.00  0.00     0.049 A 
ATOM     61  H   UNL A   1      46.958  29.114  30.037  1.00  0.00     0.167 HD
ATOM     62  C   UNL A   1      44.351  27.807  30.816  1.00  0.00     0.074 A 
ATOM     63  C   UNL A   1      44.246  28.856  29.800  1.00  0.00     0.031 C 
ATOM     64  C   UNL A   1      45.406  27.023  31.194  1.00  0.00     0.031 A 
BRANCH  51  65
ATOM     65  C   UNL A   1      48.402  29.583  27.305  1.00  0.00    -0.014 A 
ATOM     66  C   UNL A   1      49.741  29.977  27.180  1.00  0.00     0.009 A 
ATOM     67  C   UNL A   1      47.431  30.605  27.265  1.00  0.00     0.009 A 
ATOM     68  C   UNL A   1      50.087  31.327  27.060  1.00  0.00     0.001 A 
ATOM     69  C   UNL A   1      47.769  31.947  27.099  1.00  0.00     0.001 A 
ATOM     70  C   UNL A   1      49.102  32.310  27.021  1.00  0.00     0.000 A 
ENDBRANCH  51  65
BRANCH  52  71
ATOM     71  C   UNL A   1      39.867  27.751  29.285  1.00  0.00    -0.014 A 
ATOM     72  C   UNL A   1      39.017  27.919  30.391  1.00  0.00     0.009 A 
ATOM     73  C   UNL A   1      39.481  28.357  28.074  1.00  0.00     0.009 A 
ATOM     74  C   UNL A   1      37.843  28.683  30.292  1.00  0.00     0.001 A 
ATOM     75  C   UNL A   1      38.311  29.119  27.975  1.00  0.00     0.001 A 
ATOM     76  C   UNL A   1      37.497  29.293  29.087  1.00  0.00     0.000 A 
ENDBRANCH  52  71
BRANCH  64  77
ATOM     77  C   UNL A   1      45.111  25.802  32.042  1.00  0.00    -0.014 A 
ATOM     78  C   UNL A   1      45.064  25.839  33.449  1.00  0.00     0.009 A 
ATOM     79  C   UNL A   1      44.667  24.638  31.400  1.00  0.00     0.009 A 
ATOM     80  C   UNL A   1      44.597  24.744  34.186  1.00  0.00     0.001 A 
ATOM     81  C   UNL A   1      44.181  23.552  32.134  1.00  0.00     0.001 A 
ATOM     82  C   UNL A   1      44.147  23.604  33.526  1.00  0.00     0.000 A 
ENDBRANCH  64  77
ENDBRANCH  38  39
ENDBRANCH  31  33
ENDBRANCH  30  31
ENDBRANCH  29  30
ENDBRANCH  28  29
ENDBRANCH  27  28
ENDBRANCH  26  27
ENDBRANCH  25  26
ENDBRANCH   1  25
TORSDOF 22
ENDMDL
MODEL 2
REMARK VINA RESULT:      -9.5      3.444      7.431
REMARK SMILES Cc1cc(C)n2ncc(C(=O)N(C)CCCC(=O)OCCOCCOCCOC(=O)c3ccc(-c4c5nc(c(-c6ccccc6)c6ccc([nH]6)c(-c6ccccc6)c6nc(c(-c7ccccc7)c7ccc4[nH]7)C=C6)C=C5)cc3)c2n1
REMARK SMILES IDX 22 1 21 2 20 3 19 4 17 5 18 6 16 7 15 8 14 9 12 10 13 11
REMARK SMILES IDX 10 12 11 13 9 14 1 15 2 16 3 17 80 18 4 19 79 20 5 21 6 22
REMARK SMILES IDX 7 23 8 24 23 25 24 26 25 27 26 28 27 29 28 30 29 31 30 32
REMARK SMILES IDX 31 33 32 34 78 35 33 36 77 37 34 38 35 39 36 40 71 41 37 42
REMARK SMILES IDX 76 43 70 44 72 45 38 46 75 47 69 48 68 49 39 51 61 52 46 53
REMARK SMILES IDX 60 54 47 55 50 56 59 57 73 58 48 59 49 60 58 62 74 63 51 64
REMARK SMILES IDX 40 65 41 66 45 67 42 68 44 69 43 70 62 71 63 72 67 73 64 74
REMARK SMILES IDX 66 75 65 76 52 77 53 78 57 79 54 80 56 81 55 82
REMARK H PARENT 72 50 50 61
REMARK Flexibility Score: inf
ROOT
ATOM      1  O   UNL A   1      37.679  22.622  24.731  1.00  0.00    -0.376 OA
ENDROOT
BRANCH   1   2
ATOM      2  C   UNL A   1      36.625  22.154  23.904  1.00  0.00     0.202 C 
BRANCH   2   3
ATOM      3  C   UNL A   1      35.400  23.024  23.550  1.00  0.00     0.261 C 
BRANCH   3   4
ATOM      4  O   UNL A   1      34.147  22.323  23.457  1.00  0.00    -0.463 OA
BRANCH   4   5
ATOM      5  C   UNL A   1      33.083  23.023  22.997  1.00  0.00     0.305 C 
ATOM      6  O   UNL A   1      31.945  22.916  23.447  1.00  0.00    -0.252 OA
BRANCH   5   7
ATOM      7  C   UNL A   1      33.415  24.102  21.975  1.00  0.00     0.124 C 
BRANCH   7   8
ATOM      8  C   UNL A   1      32.744  25.481  21.914  1.00  0.00     0.033 C 
BRANCH   8   9
ATOM      9  C   UNL A   1      33.501  26.705  22.427  1.00  0.00     0.120 C 
BRANCH   9  10
ATOM     10  N   UNL A   1      32.681  27.505  23.328  1.00  0.00    -0.342 N 
ATOM     11  C   UNL A   1      31.748  28.399  22.668  1.00  0.00     0.147 C 
BRANCH  10  12
ATOM     12  C   UNL A   1      32.801  27.221  24.692  1.00  0.00     0.259 C 
ATOM     13  O   UNL A   1      33.719  27.737  25.332  1.00  0.00    -0.269 OA
BRANCH  12  14
ATOM     14  C   UNL A   1      31.822  26.410  25.393  1.00  0.00     0.104 A 
ATOM     15  C   UNL A   1      34.603  22.652  26.997  1.00  0.00     0.067 C 
ATOM     16  C   UNL A   1      33.307  23.380  26.737  1.00  0.00     0.042 A 
ATOM     17  C   UNL A   1      32.050  22.643  27.077  1.00  0.00     0.047 A 
ATOM     18  N   UNL A   1      33.349  24.590  26.259  1.00  0.00    -0.233 NA
ATOM     19  C   UNL A   1      30.900  23.320  26.912  1.00  0.00     0.043 A 
ATOM     20  C   UNL A   1      32.148  25.216  26.035  1.00  0.00     0.168 A 
ATOM     21  C   UNL A   1      29.555  22.725  27.179  1.00  0.00     0.067 C 
ATOM     22  N   UNL A   1      30.941  24.629  26.418  1.00  0.00    -0.219 N 
ATOM     23  N   UNL A   1      29.897  25.466  26.210  1.00  0.00    -0.174 NA
ATOM     24  C   UNL A   1      30.432  26.505  25.571  1.00  0.00     0.151 A 
ENDBRANCH  12  14
ENDBRANCH  10  12
ENDBRANCH   9  10
ENDBRANCH   8   9
ENDBRANCH   7   8
ENDBRANCH   5   7
ENDBRANCH   4   5
ENDBRANCH   3   4
ENDBRANCH   2   3
ENDBRANCH   1   2
BRANCH   1  25
ATOM     25  C   UNL A   1      38.095  21.799  25.791  1.00  0.00     0.188 C 
BRANCH  25  26
ATOM     26  C   UNL A   1      39.591  21.655  26.104  1.00  0.00     0.188 C 
BRANCH  26  27
ATOM     27  O   UNL A   1      40.434  22.604  26.726  1.00  0.00    -0.376 OA
BRANCH  27  28
ATOM     28  C   UNL A   1      41.849  22.705  26.637  1.00  0.00     0.202 C 
BRANCH  28  29
ATOM     29  C   UNL A   1      42.610  23.980  26.278  1.00  0.00     0.261 C 
BRANCH  29  30
ATOM     30  O   UNL A   1      42.052  25.134  26.840  1.00  0.00    -0.460 OA
BRANCH  30  31
ATOM     31  C   UNL A   1      41.862  26.120  25.935  1.00  0.00     0.338 C 
ATOM     32  O   UNL A   1      42.412  26.286  24.872  1.00  0.00    -0.246 OA
BRANCH  31  33
ATOM     33  C   UNL A   1      40.769  26.948  26.462  1.00  0.00     0.060 A 
ATOM     34  C   UNL A   1      40.796  28.305  26.145  1.00  0.00     0.016 A 
ATOM     35  C   UNL A   1      39.891  26.403  27.403  1.00  0.00     0.016 A 
ATOM     36  C   UNL A   1      40.298  29.161  27.086  1.00  0.00     0.010 A 
ATOM     37  C   UNL A   1      39.389  27.250  28.334  1.00  0.00     0.010 A 
ATOM     38  C   UNL A   1      39.797  28.575  28.247  1.00  0.00    -0.014 A 
BRANCH  38  39
ATOM     39  C   UNL A   1      39.948  29.289  29.486  1.00  0.00     0.031 A 
ATOM     40  C   UNL A   1      38.809  30.162  29.770  1.00  0.00     0.074 A 
ATOM     41  C   UNL A   1      40.983  29.036  30.309  1.00  0.00     0.049 A 
ATOM     42  N   UNL A   1      38.768  31.435  29.591  1.00  0.00    -0.248 NA
ATOM     43  C   UNL A   1      37.506  29.528  30.021  1.00  0.00     0.031 C 
ATOM     44  C   UNL A   1      42.010  27.988  30.253  1.00  0.00     0.029 A 
ATOM     45  N   UNL A   1      41.267  29.658  31.474  1.00  0.00    -0.354 N 
ATOM     46  C   UNL A   1      37.462  31.788  29.880  1.00  0.00     0.074 A 
ATOM     47  C   UNL A   1      36.697  30.570  29.848  1.00  0.00     0.031 C 
ATOM     48  C   UNL A   1      42.632  27.910  31.457  1.00  0.00     0.029 A 
ATOM     49  C   UNL A   1      42.137  28.978  32.310  1.00  0.00     0.049 A 
ATOM     50  H   UNL A   1      40.883  30.533  31.713  1.00  0.00     0.167 HD
ATOM     51  C   UNL A   1      37.154  32.996  30.416  1.00  0.00     0.031 A 
ATOM     52  C   UNL A   1      42.339  29.258  33.623  1.00  0.00     0.031 A 
ATOM     53  C   UNL A   1      38.276  33.897  30.366  1.00  0.00     0.049 A 
ATOM     54  C   UNL A   1      41.826  30.638  33.855  1.00  0.00     0.074 A 
ATOM     55  C   UNL A   1      38.996  34.470  29.336  1.00  0.00     0.029 A 
ATOM     56  N   UNL A   1      39.085  33.952  31.481  1.00  0.00    -0.354 N 
ATOM     57  N   UNL A   1      42.391  31.697  33.341  1.00  0.00    -0.248 NA
ATOM     58  C   UNL A   1      40.416  30.795  34.196  1.00  0.00     0.031 C 
ATOM     59  C   UNL A   1      40.354  34.423  29.764  1.00  0.00     0.029 A 
ATOM     60  C   UNL A   1      40.392  33.900  31.060  1.00  0.00     0.049 A 
ATOM     61  H   UNL A   1      38.780  34.016  32.415  1.00  0.00     0.167 HD
ATOM     62  C   UNL A   1      41.339  32.491  32.900  1.00  0.00     0.074 A 
ATOM     63  C   UNL A   1      40.145  31.925  33.529  1.00  0.00     0.031 C 
ATOM     64  C   UNL A   1      41.481  33.326  31.826  1.00  0.00     0.031 A 
BRANCH  51  65
ATOM     65  C   UNL A   1      35.970  33.214  31.308  1.00  0.00    -0.014 A 
ATOM     66  C   UNL A   1      34.988  34.130  30.908  1.00  0.00     0.009 A 
ATOM     67  C   UNL A   1      35.881  32.722  32.627  1.00  0.00     0.009 A 
ATOM     68  C   UNL A   1      33.995  34.558  31.796  1.00  0.00     0.001 A 
ATOM     69  C   UNL A   1      34.867  33.110  33.500  1.00  0.00     0.001 A 
ATOM     70  C   UNL A   1      33.937  34.049  33.091  1.00  0.00     0.000 A 
ENDBRANCH  51  65
BRANCH  52  71
ATOM     71  C   UNL A   1      42.635  28.317  34.730  1.00  0.00    -0.014 A 
ATOM     72  C   UNL A   1      41.754  27.274  35.061  1.00  0.00     0.009 A 
ATOM     73  C   UNL A   1      43.920  28.285  35.304  1.00  0.00     0.009 A 
ATOM     74  C   UNL A   1      42.154  26.232  35.913  1.00  0.00     0.001 A 
ATOM     75  C   UNL A   1      44.320  27.245  36.153  1.00  0.00     0.001 A 
ATOM     76  C   UNL A   1      43.440  26.211  36.448  1.00  0.00     0.000 A 
ENDBRANCH  52  71
BRANCH  64  77
ATOM     77  C   UNL A   1      42.861  33.464  31.216  1.00  0.00    -0.014 A 
ATOM     78  C   UNL A   1      43.798  34.422  31.649  1.00  0.00     0.009 A 
ATOM     79  C   UNL A   1      43.299  32.472  30.327  1.00  0.00     0.009 A 
ATOM     80  C   UNL A   1      45.123  34.391  31.200  1.00  0.00     0.001 A 
ATOM     81  C   UNL A   1      44.627  32.428  29.895  1.00  0.00     0.001 A 
ATOM     82  C   UNL A   1      45.539  33.387  30.330  1.00  0.00     0.000 A 
ENDBRANCH  64  77
ENDBRANCH  38  39
ENDBRANCH  31  33
ENDBRANCH  30  31
ENDBRANCH  29  30
ENDBRANCH  28  29
ENDBRANCH  27  28
ENDBRANCH  26  27
ENDBRANCH  25  26
ENDBRANCH   1  25
TORSDOF 22
ENDMDL
MODEL 3
REMARK VINA RESULT:      -9.2      3.041      5.202
REMARK SMILES Cc1cc(C)n2ncc(C(=O)N(C)CCCC(=O)OCCOCCOCCOC(=O)c3ccc(-c4c5nc(c(-c6ccccc6)c6ccc([nH]6)c(-c6ccccc6)c6nc(c(-c7ccccc7)c7ccc4[nH]7)C=C6)C=C5)cc3)c2n1
REMARK SMILES IDX 22 1 21 2 20 3 19 4 17 5 18 6 16 7 15 8 14 9 12 10 13 11
REMARK SMILES IDX 10 12 11 13 9 14 1 15 2 16 3 17 80 18 4 19 79 20 5 21 6 22
REMARK SMILES IDX 7 23 8 24 23 25 24 26 25 27 26 28 27 29 28 30 29 31 30 32
REMARK SMILES IDX 31 33 32 34 78 35 33 36 77 37 34 38 35 39 36 40 71 41 37 42
REMARK SMILES IDX 76 43 70 44 72 45 38 46 75 47 69 48 68 49 39 51 61 52 46 53
REMARK SMILES IDX 60 54 47 55 50 56 59 57 73 58 48 59 49 60 58 62 74 63 51 64
REMARK SMILES IDX 40 65 41 66 45 67 42 68 44 69 43 70 62 71 63 72 67 73 64 74
REMARK SMILES IDX 66 75 65 76 52 77 53 78 57 79 54 80 56 81 55 82
REMARK H PARENT 72 50 50 61
REMARK Flexibility Score: inf
ROOT
ATOM      1  O   UNL A   1      41.912  18.743  25.913  1.00  0.00    -0.376 OA
ENDROOT
BRANCH   1   2
ATOM      2  C   UNL A   1      41.595  19.839  26.755  1.00  0.00     0.202 C 
BRANCH   2   3
ATOM      3  C   UNL A   1      41.081  21.187  26.205  1.00  0.00     0.261 C 
BRANCH   3   4
ATOM      4  O   UNL A   1      39.652  21.314  26.112  1.00  0.00    -0.463 OA
BRANCH   4   5
ATOM      5  C   UNL A   1      39.117  22.510  26.456  1.00  0.00     0.305 C 
ATOM      6  O   UNL A   1      39.602  23.261  27.299  1.00  0.00    -0.252 OA
BRANCH   5   7
ATOM      7  C   UNL A   1      37.941  22.960  25.600  1.00  0.00     0.124 C 
BRANCH   7   8
ATOM      8  C   UNL A   1      36.813  23.882  26.084  1.00  0.00     0.033 C 
BRANCH   8   9
ATOM      9  C   UNL A   1      35.434  23.288  26.372  1.00  0.00     0.120 C 
BRANCH   9  10
ATOM     10  N   UNL A   1      34.432  23.779  25.434  1.00  0.00    -0.342 N 
ATOM     11  C   UNL A   1      33.987  25.139  25.676  1.00  0.00     0.147 C 
BRANCH  10  12
ATOM     12  C   UNL A   1      34.126  22.940  24.359  1.00  0.00     0.259 C 
ATOM     13  O   UNL A   1      34.401  23.307  23.215  1.00  0.00    -0.269 OA
BRANCH  12  14
ATOM     14  C   UNL A   1      33.577  21.610  24.560  1.00  0.00     0.104 A 
ATOM     15  C   UNL A   1      37.681  18.880  24.925  1.00  0.00     0.067 C 
ATOM     16  C   UNL A   1      36.193  19.103  24.805  1.00  0.00     0.042 A 
ATOM     17  C   UNL A   1      35.345  17.877  24.669  1.00  0.00     0.047 A 
ATOM     18  N   UNL A   1      35.733  20.319  24.841  1.00  0.00    -0.233 NA
ATOM     19  C   UNL A   1      34.015  18.074  24.633  1.00  0.00     0.043 A 
ATOM     20  C   UNL A   1      34.375  20.480  24.726  1.00  0.00     0.168 A 
ATOM     21  C   UNL A   1      33.028  16.963  24.475  1.00  0.00     0.067 C 
ATOM     22  N   UNL A   1      33.515  19.380  24.695  1.00  0.00    -0.219 N 
ATOM     23  N   UNL A   1      32.218  19.767  24.695  1.00  0.00    -0.174 NA
ATOM     24  C   UNL A   1      32.271  21.093  24.582  1.00  0.00     0.151 A 
ENDBRANCH  12  14
ENDBRANCH  10  12
ENDBRANCH   9  10
ENDBRANCH   8   9
ENDBRANCH   7   8
ENDBRANCH   5   7
ENDBRANCH   4   5
ENDBRANCH   3   4
ENDBRANCH   2   3
ENDBRANCH   1   2
BRANCH   1  25
ATOM     25  C   UNL A   1      43.043  18.857  25.086  1.00  0.00     0.188 C 
BRANCH  25  26
ATOM     26  C   UNL A   1      44.306  19.552  25.611  1.00  0.00     0.188 C 
BRANCH  26  27
ATOM     27  O   UNL A   1      44.661  20.913  25.466  1.00  0.00    -0.376 OA
BRANCH  27  28
ATOM     28  C   UNL A   1      44.877  21.635  24.262  1.00  0.00     0.202 C 
BRANCH  28  29
ATOM     29  C   UNL A   1      44.482  23.094  24.038  1.00  0.00     0.261 C 
BRANCH  29  30
ATOM     30  O   UNL A   1      43.455  23.524  24.886  1.00  0.00    -0.460 OA
BRANCH  30  31
ATOM     31  C   UNL A   1      43.626  24.794  25.316  1.00  0.00     0.338 C 
ATOM     32  O   UNL A   1      44.436  25.613  24.950  1.00  0.00    -0.246 OA
BRANCH  31  33
ATOM     33  C   UNL A   1      42.562  25.035  26.299  1.00  0.00     0.060 A 
ATOM     34  C   UNL A   1      41.433  25.719  25.852  1.00  0.00     0.016 A 
ATOM     35  C   UNL A   1      42.803  24.765  27.649  1.00  0.00     0.016 A 
ATOM     36  C   UNL A   1      40.811  26.529  26.759  1.00  0.00     0.010 A 
ATOM     37  C   UNL A   1      42.183  25.562  28.553  1.00  0.00     0.010 A 
ATOM     38  C   UNL A   1      41.365  26.560  28.038  1.00  0.00    -0.014 A 
BRANCH  38  39
ATOM     39  C   UNL A   1      41.308  27.795  28.771  1.00  0.00     0.031 A 
ATOM     40  C   UNL A   1      42.339  28.743  28.350  1.00  0.00     0.074 A 
ATOM     41  C   UNL A   1      40.309  28.039  29.641  1.00  0.00     0.049 A 
ATOM     42  N   UNL A   1      43.445  28.981  28.964  1.00  0.00    -0.248 NA
ATOM     43  C   UNL A   1      42.261  29.278  26.983  1.00  0.00     0.031 C 
ATOM     44  C   UNL A   1      39.082  27.280  29.918  1.00  0.00     0.029 A 
ATOM     45  N   UNL A   1      40.158  29.130  30.422  1.00  0.00    -0.354 N 
ATOM     46  C   UNL A   1      44.130  29.843  28.128  1.00  0.00     0.074 A 
ATOM     47  C   UNL A   1      43.497  29.750  26.840  1.00  0.00     0.031 C 
ATOM     48  C   UNL A   1      38.220  28.067  30.610  1.00  0.00     0.029 A 
ATOM     49  C   UNL A   1      38.884  29.321  30.930  1.00  0.00     0.049 A 
ATOM     50  H   UNL A   1      40.901  29.747  30.617  1.00  0.00     0.167 HD
ATOM     51  C   UNL A   1      44.972  30.789  28.618  1.00  0.00     0.031 A 
ATOM     52  C   UNL A   1      38.429  30.472  31.488  1.00  0.00     0.031 A 
ATOM     53  C   UNL A   1      45.245  30.579  30.017  1.00  0.00     0.049 A 
ATOM     54  C   UNL A   1      39.628  31.283  31.844  1.00  0.00     0.074 A 
ATOM     55  C   UNL A   1      45.867  29.572  30.727  1.00  0.00     0.029 A 
ATOM     56  N   UNL A   1      44.452  31.256  30.918  1.00  0.00    -0.354 N 
ATOM     57  N   UNL A   1      40.464  30.931  32.782  1.00  0.00    -0.248 NA
ATOM     58  C   UNL A   1      40.179  32.173  30.828  1.00  0.00     0.031 C 
ATOM     59  C   UNL A   1      45.077  29.406  31.901  1.00  0.00     0.029 A 
ATOM     60  C   UNL A   1      44.062  30.367  31.891  1.00  0.00     0.049 A 
ATOM     61  H   UNL A   1      44.206  32.208  30.872  1.00  0.00     0.167 HD
ATOM     62  C   UNL A   1      41.726  31.188  32.257  1.00  0.00     0.074 A 
ATOM     63  C   UNL A   1      41.485  32.032  31.085  1.00  0.00     0.031 C 
ATOM     64  C   UNL A   1      42.813  30.444  32.623  1.00  0.00     0.031 A 
BRANCH  51  65
ATOM     65  C   UNL A   1      45.229  32.091  27.921  1.00  0.00    -0.014 A 
ATOM     66  C   UNL A   1      44.139  32.922  27.631  1.00  0.00     0.009 A 
ATOM     67  C   UNL A   1      46.466  32.439  27.342  1.00  0.00     0.009 A 
ATOM     68  C   UNL A   1      44.277  34.020  26.775  1.00  0.00     0.001 A 
ATOM     69  C   UNL A   1      46.619  33.558  26.527  1.00  0.00     0.001 A 
ATOM     70  C   UNL A   1      45.515  34.336  26.223  1.00  0.00     0.000 A 
ENDBRANCH  51  65
BRANCH  52  71
ATOM     71  C   UNL A   1      37.062  31.044  31.432  1.00  0.00    -0.014 A 
ATOM     72  C   UNL A   1      36.452  31.598  32.570  1.00  0.00     0.009 A 
ATOM     73  C   UNL A   1      36.446  31.280  30.188  1.00  0.00     0.009 A 
ATOM     74  C   UNL A   1      35.288  32.376  32.461  1.00  0.00     0.001 A 
ATOM     75  C   UNL A   1      35.285  32.056  30.079  1.00  0.00     0.001 A 
ATOM     76  C   UNL A   1      34.712  32.615  31.215  1.00  0.00     0.000 A 
ENDBRANCH  52  71
BRANCH  64  77
ATOM     77  C   UNL A   1      42.630  29.418  33.723  1.00  0.00    -0.014 A 
ATOM     78  C   UNL A   1      42.866  29.703  35.082  1.00  0.00     0.009 A 
ATOM     79  C   UNL A   1      42.007  28.204  33.404  1.00  0.00     0.009 A 
ATOM     80  C   UNL A   1      42.500  28.796  36.084  1.00  0.00     0.001 A 
ATOM     81  C   UNL A   1      41.622  27.308  34.406  1.00  0.00     0.001 A 
ATOM     82  C   UNL A   1      41.868  27.603  35.745  1.00  0.00     0.000 A 
ENDBRANCH  64  77
ENDBRANCH  38  39
ENDBRANCH  31  33
ENDBRANCH  30  31
ENDBRANCH  29  30
ENDBRANCH  28  29
ENDBRANCH  27  28
ENDBRANCH  26  27
ENDBRANCH  25  26
ENDBRANCH   1  25
TORSDOF 22
ENDMDL
