MODEL 1
REMARK VINA RESULT:     -10.0      0.000      0.000
REMARK SMILES CCn1ccc([C@@H](C)NC(=O)c2cnn(CCC(=O)OCCOCCOCCOC(=O)c3ccc(-c4c5nc(c(-c6ccccc6)c6ccc([nH]6)c(-c6ccccc6)c6nc(c(-c7ccccc7)c7ccc4[nH]7)C=C6)C=C5)cc3)c2)n1
REMARK SMILES IDX 22 1 21 2 20 3 18 4 19 5 17 6 16 7 15 8 12 9 13 10 80 11
REMARK SMILES IDX 14 12 10 13 9 14 11 16 7 17 8 18 6 19 3 20 4 21 81 22 5 23
REMARK SMILES IDX 2 24 1 25 23 26 24 27 25 28 26 29 27 30 28 31 29 32 30 33
REMARK SMILES IDX 31 34 32 35 33 36 79 37 34 38 78 39 35 40 36 41 37 42 72 43
REMARK SMILES IDX 38 44 77 45 71 46 73 47 39 48 76 49 70 50 69 51 40 53 62 54
REMARK SMILES IDX 47 55 61 56 48 57 51 58 60 59 74 60 49 61 50 62 59 64 75 65
REMARK SMILES IDX 52 66 41 67 42 68 46 69 43 70 45 71 44 72 63 73 64 74 68 75
REMARK SMILES IDX 65 76 67 77 66 78 53 79 54 80 58 81 55 82 57 83 56 84
REMARK H PARENT 9 15 73 52 51 63
REMARK Flexibility Score: inf
ROOT
ATOM      1  C   UNL A   1      37.514  21.741  24.923  1.00  0.00     0.202 C 
ENDROOT
BRANCH   1   2
ATOM      2  C   UNL A   1      36.023  21.668  24.581  1.00  0.00     0.261 C 
BRANCH   2   3
ATOM      3  O   UNL A   1      35.376  20.571  25.250  1.00  0.00    -0.463 OA
BRANCH   3   4
ATOM      4  C   UNL A   1      34.251  20.863  25.939  1.00  0.00     0.307 C 
ATOM      5  O   UNL A   1      34.240  21.434  27.028  1.00  0.00    -0.252 OA
BRANCH   4   6
ATOM      6  C   UNL A   1      32.957  20.562  25.213  1.00  0.00     0.146 C 
BRANCH   6   7
ATOM      7  C   UNL A   1      31.918  21.657  25.033  1.00  0.00     0.156 C 
BRANCH   7   8
ATOM      8  N   UNL A   1      32.271  22.666  24.058  1.00  0.00    -0.271 N 
ATOM      9  C   UNL A   1      32.815  24.517  23.016  1.00  0.00     0.077 A 
ATOM     10  C   UNL A   1      32.887  23.390  22.184  1.00  0.00     0.149 A 
ATOM     11  C   UNL A   1      32.503  23.996  24.260  1.00  0.00     0.122 A 
ATOM     12  N   UNL A   1      32.444  22.296  22.785  1.00  0.00    -0.181 NA
BRANCH   9  13
ATOM     13  C   UNL A   1      33.021  25.895  22.647  1.00  0.00     0.254 C 
ATOM     14  N   UNL A   1      32.099  26.811  23.094  1.00  0.00    -0.344 N 
ATOM     15  H   UNL A   1      32.112  27.690  22.653  1.00  0.00     0.164 HD
ATOM     16  O   UNL A   1      33.970  26.264  21.961  1.00  0.00    -0.269 OA
BRANCH  14  17
ATOM     17  C   UNL A   1      31.098  26.634  24.150  1.00  0.00     0.130 C 
ATOM     18  C   UNL A   1      29.703  26.976  23.645  1.00  0.00     0.038 C 
BRANCH  17  19
ATOM     19  C   UNL A   1      31.507  27.429  25.355  1.00  0.00     0.084 A 
ATOM     20  N   UNL A   1      31.982  29.157  26.491  1.00  0.00    -0.273 N 
ATOM     21  C   UNL A   1      32.087  28.123  27.375  1.00  0.00     0.109 A 
ATOM     22  N   UNL A   1      31.661  28.758  25.250  1.00  0.00    -0.176 NA
ATOM     23  C   UNL A   1      31.780  26.983  26.670  1.00  0.00     0.047 A 
BRANCH  20  24
ATOM     24  C   UNL A   1      32.237  30.561  26.751  1.00  0.00     0.141 C 
ATOM     25  C   UNL A   1      31.196  31.488  26.143  1.00  0.00     0.029 C 
ENDBRANCH  20  24
ENDBRANCH  17  19
ENDBRANCH  14  17
ENDBRANCH   9  13
ENDBRANCH   7   8
ENDBRANCH   6   7
ENDBRANCH   4   6
ENDBRANCH   3   4
ENDBRANCH   2   3
ENDBRANCH   1   2
BRANCH   1  26
ATOM     26  O   UNL A   1      37.840  22.626  25.991  1.00  0.00    -0.376 OA
BRANCH  26  27
ATOM     27  C   UNL A   1      39.184  22.574  26.472  1.00  0.00     0.188 C 
BRANCH  27  28
ATOM     28  C   UNL A   1      39.940  21.287  26.137  1.00  0.00     0.188 C 
BRANCH  28  29
ATOM     29  O   UNL A   1      41.133  21.023  26.858  1.00  0.00    -0.376 OA
BRANCH  29  30
ATOM     30  C   UNL A   1      41.559  19.701  27.193  1.00  0.00     0.202 C 
BRANCH  30  31
ATOM     31  C   UNL A   1      42.540  18.905  26.327  1.00  0.00     0.261 C 
BRANCH  31  32
ATOM     32  O   UNL A   1      42.888  19.540  25.123  1.00  0.00    -0.460 OA
BRANCH  32  33
ATOM     33  C   UNL A   1      44.216  19.685  24.924  1.00  0.00     0.338 C 
ATOM     34  O   UNL A   1      45.043  18.818  24.726  1.00  0.00    -0.246 OA
BRANCH  33  35
ATOM     35  C   UNL A   1      44.485  21.128  25.013  1.00  0.00     0.060 A 
ATOM     36  C   UNL A   1      45.610  21.522  25.731  1.00  0.00     0.016 A 
ATOM     37  C   UNL A   1      43.561  22.065  24.506  1.00  0.00     0.016 A 
ATOM     38  C   UNL A   1      45.681  22.831  26.150  1.00  0.00     0.010 A 
ATOM     39  C   UNL A   1      43.633  23.371  24.917  1.00  0.00     0.010 A 
ATOM     40  C   UNL A   1      44.630  23.697  25.826  1.00  0.00    -0.014 A 
BRANCH  40  41
ATOM     41  C   UNL A   1      44.502  24.897  26.615  1.00  0.00     0.031 A 
ATOM     42  C   UNL A   1      45.593  25.870  26.501  1.00  0.00     0.074 A 
ATOM     43  C   UNL A   1      43.413  25.094  27.380  1.00  0.00     0.049 A 
ATOM     44  N   UNL A   1      46.422  26.226  27.422  1.00  0.00    -0.248 NA
ATOM     45  C   UNL A   1      45.842  26.461  25.180  1.00  0.00     0.031 C 
ATOM     46  C   UNL A   1      42.146  24.356  27.351  1.00  0.00     0.029 A 
ATOM     47  N   UNL A   1      43.183  26.084  28.283  1.00  0.00    -0.354 N 
ATOM     48  C   UNL A   1      47.196  27.226  26.854  1.00  0.00     0.074 A 
ATOM     49  C   UNL A   1      46.893  27.237  25.444  1.00  0.00     0.031 C 
ATOM     50  C   UNL A   1      41.214  25.056  28.034  1.00  0.00     0.029 A 
ATOM     51  C   UNL A   1      41.853  26.208  28.647  1.00  0.00     0.049 A 
ATOM     52  H   UNL A   1      43.895  26.659  28.643  1.00  0.00     0.167 HD
ATOM     53  C   UNL A   1      47.851  28.136  27.620  1.00  0.00     0.031 A 
ATOM     54  C   UNL A   1      41.306  27.232  29.339  1.00  0.00     0.031 A 
ATOM     55  C   UNL A   1      48.003  27.705  28.983  1.00  0.00     0.049 A 
ATOM     56  C   UNL A   1      42.396  27.947  30.041  1.00  0.00     0.074 A 
ATOM     57  C   UNL A   1      48.607  26.628  29.600  1.00  0.00     0.029 A 
ATOM     58  N   UNL A   1      47.175  28.267  29.923  1.00  0.00    -0.354 N 
ATOM     59  N   UNL A   1      43.054  27.455  31.052  1.00  0.00    -0.248 NA
ATOM     60  C   UNL A   1      43.030  29.078  29.381  1.00  0.00     0.031 C 
ATOM     61  C   UNL A   1      47.793  26.338  30.734  1.00  0.00     0.029 A 
ATOM     62  C   UNL A   1      46.748  27.263  30.756  1.00  0.00     0.049 A 
ATOM     63  H   UNL A   1      46.932  29.219  29.989  1.00  0.00     0.167 HD
ATOM     64  C   UNL A   1      44.351  27.921  30.893  1.00  0.00     0.074 A 
ATOM     65  C   UNL A   1      44.243  29.017  29.938  1.00  0.00     0.031 C 
ATOM     66  C   UNL A   1      45.420  27.192  31.331  1.00  0.00     0.031 A 
BRANCH  53  67
ATOM     67  C   UNL A   1      47.996  29.573  27.202  1.00  0.00    -0.014 A 
ATOM     68  C   UNL A   1      49.225  30.221  27.400  1.00  0.00     0.009 A 
ATOM     69  C   UNL A   1      46.891  30.383  26.868  1.00  0.00     0.009 A 
ATOM     70  C   UNL A   1      49.329  31.614  27.306  1.00  0.00     0.001 A 
ATOM     71  C   UNL A   1      47.002  31.767  26.729  1.00  0.00     0.001 A 
ATOM     72  C   UNL A   1      48.220  32.384  26.971  1.00  0.00     0.000 A 
ENDBRANCH  53  67
BRANCH  54  73
ATOM     73  C   UNL A   1      39.935  27.767  29.229  1.00  0.00    -0.014 A 
ATOM     74  C   UNL A   1      39.113  27.872  30.359  1.00  0.00     0.009 A 
ATOM     75  C   UNL A   1      39.512  28.404  28.047  1.00  0.00     0.009 A 
ATOM     76  C   UNL A   1      37.927  28.614  30.316  1.00  0.00     0.001 A 
ATOM     77  C   UNL A   1      38.322  29.137  28.000  1.00  0.00     0.001 A 
ATOM     78  C   UNL A   1      37.538  29.254  29.140  1.00  0.00     0.000 A 
ENDBRANCH  54  73
BRANCH  66  79
ATOM     79  C   UNL A   1      45.145  26.026  32.250  1.00  0.00    -0.014 A 
ATOM     80  C   UNL A   1      44.774  24.755  31.774  1.00  0.00     0.009 A 
ATOM     81  C   UNL A   1      45.396  26.173  33.623  1.00  0.00     0.009 A 
ATOM     82  C   UNL A   1      44.618  23.678  32.652  1.00  0.00     0.001 A 
ATOM     83  C   UNL A   1      45.263  25.090  34.496  1.00  0.00     0.001 A 
ATOM     84  C   UNL A   1      44.867  23.844  34.011  1.00  0.00     0.000 A 
ENDBRANCH  66  79
ENDBRANCH  40  41
ENDBRANCH  33  35
ENDBRANCH  32  33
ENDBRANCH  31  32
ENDBRANCH  30  31
ENDBRANCH  29  30
ENDBRANCH  28  29
ENDBRANCH  27  28
ENDBRANCH  26  27
ENDBRANCH   1  26
TORSDOF 23
ENDMDL
MODEL 2
REMARK VINA RESULT:      -9.7      3.879      7.974
REMARK SMILES CCn1ccc([C@@H](C)NC(=O)c2cnn(CCC(=O)OCCOCCOCCOC(=O)c3ccc(-c4c5nc(c(-c6ccccc6)c6ccc([nH]6)c(-c6ccccc6)c6nc(c(-c7ccccc7)c7ccc4[nH]7)C=C6)C=C5)cc3)c2)n1
REMARK SMILES IDX 22 1 21 2 20 3 18 4 19 5 17 6 16 7 15 8 12 9 13 10 80 11
REMARK SMILES IDX 14 12 10 13 9 14 11 16 7 17 8 18 6 19 3 20 4 21 81 22 5 23
REMARK SMILES IDX 2 24 1 25 23 26 24 27 25 28 26 29 27 30 28 31 29 32 30 33
REMARK SMILES IDX 31 34 32 35 33 36 79 37 34 38 78 39 35 40 36 41 37 42 72 43
REMARK SMILES IDX 38 44 77 45 71 46 73 47 39 48 76 49 70 50 69 51 40 53 62 54
REMARK SMILES IDX 47 55 61 56 48 57 51 58 60 59 74 60 49 61 50 62 59 64 75 65
REMARK SMILES IDX 52 66 41 67 42 68 46 69 43 70 45 71 44 72 63 73 64 74 68 75
REMARK SMILES IDX 65 76 67 77 66 78 53 79 54 80 58 81 55 82 57 83 56 84
REMARK H PARENT 9 15 73 52 51 63
REMARK Flexibility Score: inf
ROOT
ATOM      1  C   UNL A   1      33.840  19.787  24.731  1.00  0.00     0.202 C 
ENDROOT
BRANCH   1   2
ATOM      2  C   UNL A   1      32.476  20.424  24.446  1.00  0.00     0.261 C 
BRANCH   2   3
ATOM      3  O   UNL A   1      31.948  21.091  25.607  1.00  0.00    -0.463 OA
BRANCH   3   4
ATOM      4  C   UNL A   1      31.393  22.306  25.404  1.00  0.00     0.307 C 
ATOM      5  O   UNL A   1      30.388  22.710  25.986  1.00  0.00    -0.252 OA
BRANCH   4   6
ATOM      6  C   UNL A   1      32.177  23.225  24.491  1.00  0.00     0.146 C 
BRANCH   6   7
ATOM      7  C   UNL A   1      31.510  23.820  23.261  1.00  0.00     0.156 C 
BRANCH   7   8
ATOM      8  N   UNL A   1      31.790  25.223  23.045  1.00  0.00    -0.271 N 
ATOM      9  C   UNL A   1      32.729  27.187  22.782  1.00  0.00     0.077 A 
ATOM     10  C   UNL A   1      31.357  27.202  22.487  1.00  0.00     0.149 A 
ATOM     11  C   UNL A   1      33.000  25.857  23.050  1.00  0.00     0.122 A 
ATOM     12  N   UNL A   1      30.775  26.044  22.762  1.00  0.00    -0.181 NA
BRANCH   9  13
ATOM     13  C   UNL A   1      33.635  28.308  22.797  1.00  0.00     0.254 C 
ATOM     14  N   UNL A   1      33.477  29.230  23.803  1.00  0.00    -0.344 N 
ATOM     15  H   UNL A   1      33.932  30.094  23.675  1.00  0.00     0.164 HD
ATOM     16  O   UNL A   1      34.519  28.460  21.958  1.00  0.00    -0.269 OA
BRANCH  14  17
ATOM     17  C   UNL A   1      32.712  29.082  25.045  1.00  0.00     0.130 C 
ATOM     18  C   UNL A   1      31.411  29.870  24.983  1.00  0.00     0.038 C 
BRANCH  17  19
ATOM     19  C   UNL A   1      33.583  29.459  26.208  1.00  0.00     0.084 A 
ATOM     20  N   UNL A   1      34.324  30.666  27.787  1.00  0.00    -0.273 N 
ATOM     21  C   UNL A   1      35.054  29.515  27.860  1.00  0.00     0.109 A 
ATOM     22  N   UNL A   1      33.444  30.668  26.773  1.00  0.00    -0.176 NA
ATOM     23  C   UNL A   1      34.594  28.705  26.848  1.00  0.00     0.047 A 
BRANCH  20  24
ATOM     24  C   UNL A   1      34.456  31.841  28.627  1.00  0.00     0.141 C 
ATOM     25  C   UNL A   1      35.200  32.985  27.954  1.00  0.00     0.029 C 
ENDBRANCH  20  24
ENDBRANCH  17  19
ENDBRANCH  14  17
ENDBRANCH   9  13
ENDBRANCH   7   8
ENDBRANCH   6   7
ENDBRANCH   4   6
ENDBRANCH   3   4
ENDBRANCH   2   3
ENDBRANCH   1   2
BRANCH   1  26
ATOM     26  O   UNL A   1      34.953  20.662  24.571  1.00  0.00    -0.376 OA
BRANCH  26  27
ATOM     27  C   UNL A   1      35.448  21.284  25.758  1.00  0.00     0.188 C 
BRANCH  27  28
ATOM     28  C   UNL A   1      36.159  22.622  25.538  1.00  0.00     0.188 C 
BRANCH  28  29
ATOM     29  O   UNL A   1      37.501  22.582  25.082  1.00  0.00    -0.376 OA
BRANCH  29  30
ATOM     30  C   UNL A   1      38.553  21.964  25.825  1.00  0.00     0.202 C 
BRANCH  30  31
ATOM     31  C   UNL A   1      39.636  22.767  26.550  1.00  0.00     0.261 C 
BRANCH  31  32
ATOM     32  O   UNL A   1      39.302  24.115  26.767  1.00  0.00    -0.460 OA
BRANCH  32  33
ATOM     33  C   UNL A   1      40.355  24.928  26.997  1.00  0.00     0.338 C 
ATOM     34  O   UNL A   1      41.517  24.754  26.691  1.00  0.00    -0.246 OA
BRANCH  33  35
ATOM     35  C   UNL A   1      39.821  26.089  27.726  1.00  0.00     0.060 A 
ATOM     36  C   UNL A   1      40.113  27.350  27.214  1.00  0.00     0.016 A 
ATOM     37  C   UNL A   1      39.161  25.923  28.961  1.00  0.00     0.016 A 
ATOM     38  C   UNL A   1      39.966  28.434  28.049  1.00  0.00     0.010 A 
ATOM     39  C   UNL A   1      39.007  27.002  29.792  1.00  0.00     0.010 A 
ATOM     40  C   UNL A   1      39.521  28.216  29.358  1.00  0.00    -0.014 A 
BRANCH  40  41
ATOM     41  C   UNL A   1      39.785  29.255  30.322  1.00  0.00     0.031 A 
ATOM     42  C   UNL A   1      38.667  30.152  30.635  1.00  0.00     0.074 A 
ATOM     43  C   UNL A   1      40.993  29.351  30.905  1.00  0.00     0.049 A 
ATOM     44  N   UNL A   1      38.584  31.414  30.384  1.00  0.00    -0.248 NA
ATOM     45  C   UNL A   1      37.464  29.556  31.229  1.00  0.00     0.031 C 
ATOM     46  C   UNL A   1      42.075  28.360  30.903  1.00  0.00     0.029 A 
ATOM     47  N   UNL A   1      41.463  30.331  31.721  1.00  0.00    -0.354 N 
ATOM     48  C   UNL A   1      37.385  31.823  30.948  1.00  0.00     0.074 A 
ATOM     49  C   UNL A   1      36.676  30.626  31.332  1.00  0.00     0.031 C 
ATOM     50  C   UNL A   1      42.978  28.692  31.852  1.00  0.00     0.029 A 
ATOM     51  C   UNL A   1      42.601  29.974  32.425  1.00  0.00     0.049 A 
ATOM     52  H   UNL A   1      41.034  31.213  31.805  1.00  0.00     0.167 HD
ATOM     53  C   UNL A   1      37.166  33.120  31.282  1.00  0.00     0.031 A 
ATOM     54  C   UNL A   1      43.147  30.650  33.460  1.00  0.00     0.031 A 
ATOM     55  C   UNL A   1      38.069  34.022  30.620  1.00  0.00     0.049 A 
ATOM     56  C   UNL A   1      42.635  32.039  33.422  1.00  0.00     0.074 A 
ATOM     57  C   UNL A   1      38.353  34.322  29.304  1.00  0.00     0.029 A 
ATOM     58  N   UNL A   1      39.106  34.539  31.359  1.00  0.00    -0.354 N 
ATOM     59  N   UNL A   1      42.970  32.913  32.516  1.00  0.00    -0.248 NA
ATOM     60  C   UNL A   1      41.437  32.365  34.182  1.00  0.00     0.031 C 
ATOM     61  C   UNL A   1      39.746  34.620  29.275  1.00  0.00     0.029 A 
ATOM     62  C   UNL A   1      40.233  34.502  30.578  1.00  0.00     0.049 A 
ATOM     63  H   UNL A   1      39.049  34.875  32.283  1.00  0.00     0.167 HD
ATOM     64  C   UNL A   1      41.822  33.661  32.300  1.00  0.00     0.074 A 
ATOM     65  C   UNL A   1      40.965  33.373  33.444  1.00  0.00     0.031 C 
ATOM     66  C   UNL A   1      41.562  34.218  31.080  1.00  0.00     0.031 A 
BRANCH  53  67
ATOM     67  C   UNL A   1      36.384  33.508  32.506  1.00  0.00    -0.014 A 
ATOM     68  C   UNL A   1      35.398  34.501  32.401  1.00  0.00     0.009 A 
ATOM     69  C   UNL A   1      36.767  33.120  33.807  1.00  0.00     0.009 A 
ATOM     70  C   UNL A   1      34.854  35.101  33.543  1.00  0.00     0.001 A 
ATOM     71  C   UNL A   1      36.193  33.684  34.947  1.00  0.00     0.001 A 
ATOM     72  C   UNL A   1      35.251  34.693  34.813  1.00  0.00     0.000 A 
ENDBRANCH  53  67
BRANCH  54  73
ATOM     73  C   UNL A   1      43.887  30.099  34.611  1.00  0.00    -0.014 A 
ATOM     74  C   UNL A   1      45.135  30.620  34.977  1.00  0.00     0.009 A 
ATOM     75  C   UNL A   1      43.257  29.212  35.504  1.00  0.00     0.009 A 
ATOM     76  C   UNL A   1      45.716  30.291  36.208  1.00  0.00     0.001 A 
ATOM     77  C   UNL A   1      43.841  28.874  36.729  1.00  0.00     0.001 A 
ATOM     78  C   UNL A   1      45.064  29.427  37.086  1.00  0.00     0.000 A 
ENDBRANCH  54  73
BRANCH  66  79
ATOM     79  C   UNL A   1      42.685  34.252  30.071  1.00  0.00    -0.014 A 
ATOM     80  C   UNL A   1      43.540  35.359  29.924  1.00  0.00     0.009 A 
ATOM     81  C   UNL A   1      42.977  33.087  29.344  1.00  0.00     0.009 A 
ATOM     82  C   UNL A   1      44.626  35.316  29.044  1.00  0.00     0.001 A 
ATOM     83  C   UNL A   1      44.076  33.037  28.482  1.00  0.00     0.001 A 
ATOM     84  C   UNL A   1      44.896  34.153  28.327  1.00  0.00     0.000 A 
ENDBRANCH  66  79
ENDBRANCH  40  41
ENDBRANCH  33  35
ENDBRANCH  32  33
ENDBRANCH  31  32
ENDBRANCH  30  31
ENDBRANCH  29  30
ENDBRANCH  28  29
ENDBRANCH  27  28
ENDBRANCH  26  27
ENDBRANCH   1  26
TORSDOF 23
ENDMDL
MODEL 3
REMARK VINA RESULT:      -9.4      3.186      4.964
REMARK SMILES CCn1ccc([C@@H](C)NC(=O)c2cnn(CCC(=O)OCCOCCOCCOC(=O)c3ccc(-c4c5nc(c(-c6ccccc6)c6ccc([nH]6)c(-c6ccccc6)c6nc(c(-c7ccccc7)c7ccc4[nH]7)C=C6)C=C5)cc3)c2)n1
REMARK SMILES IDX 22 1 21 2 20 3 18 4 19 5 17 6 16 7 15 8 12 9 13 10 80 11
REMARK SMILES IDX 14 12 10 13 9 14 11 16 7 17 8 18 6 19 3 20 4 21 81 22 5 23
REMARK SMILES IDX 2 24 1 25 23 26 24 27 25 28 26 29 27 30 28 31 29 32 30 33
REMARK SMILES IDX 31 34 32 35 33 36 79 37 34 38 78 39 35 40 36 41 37 42 72 43
REMARK SMILES IDX 38 44 77 45 71 46 73 47 39 48 76 49 70 50 69 51 40 53 62 54
REMARK SMILES IDX 47 55 61 56 48 57 51 58 60 59 74 60 49 61 50 62 59 64 75 65
REMARK SMILES IDX 52 66 41 67 42 68 46 69 43 70 45 71 44 72 63 73 64 74 68 75
REMARK SMILES IDX 65 76 67 77 66 78 53 79 54 80 58 81 55 82 57 83 56 84
REMARK H PARENT 9 15 73 52 51 63
REMARK Flexibility Score: inf
ROOT
ATOM      1  C   UNL A   1      34.919  23.690  26.596  1.00  0.00     0.202 C 
ENDROOT
BRANCH   1   2
ATOM      2  C   UNL A   1      33.460  23.297  26.850  1.00  0.00     0.261 C 
BRANCH   2   3
ATOM      3  O   UNL A   1      33.196  21.940  26.448  1.00  0.00    -0.463 OA
BRANCH   3   4
ATOM      4  C   UNL A   1      32.056  21.727  25.757  1.00  0.00     0.307 C 
ATOM      5  O   UNL A   1      31.059  22.442  25.836  1.00  0.00    -0.252 OA
BRANCH   4   6
ATOM      6  C   UNL A   1      32.121  20.602  24.744  1.00  0.00     0.146 C 
BRANCH   6   7
ATOM      7  C   UNL A   1      32.972  20.757  23.494  1.00  0.00     0.156 C 
BRANCH   7   8
ATOM      8  N   UNL A   1      33.230  22.128  23.109  1.00  0.00    -0.271 N 
ATOM      9  C   UNL A   1      33.096  24.197  22.397  1.00  0.00     0.077 A 
ATOM     10  C   UNL A   1      34.329  23.916  23.006  1.00  0.00     0.149 A 
ATOM     11  C   UNL A   1      32.365  23.034  22.567  1.00  0.00     0.122 A 
ATOM     12  N   UNL A   1      34.447  22.636  23.326  1.00  0.00    -0.181 NA
BRANCH   9  13
ATOM     13  C   UNL A   1      32.697  25.420  21.746  1.00  0.00     0.254 C 
ATOM     14  N   UNL A   1      31.803  26.223  22.412  1.00  0.00    -0.344 N 
ATOM     15  H   UNL A   1      31.363  26.921  21.875  1.00  0.00     0.164 HD
ATOM     16  O   UNL A   1      33.120  25.755  20.644  1.00  0.00    -0.269 OA
BRANCH  14  17
ATOM     17  C   UNL A   1      31.426  26.165  23.828  1.00  0.00     0.130 C 
ATOM     18  C   UNL A   1      29.941  25.866  23.987  1.00  0.00     0.038 C 
BRANCH  17  19
ATOM     19  C   UNL A   1      31.853  27.435  24.504  1.00  0.00     0.084 A 
ATOM     20  N   UNL A   1      33.171  28.795  25.460  1.00  0.00    -0.273 N 
ATOM     21  C   UNL A   1      31.982  29.461  25.384  1.00  0.00     0.109 A 
ATOM     22  N   UNL A   1      33.110  27.551  24.959  1.00  0.00    -0.176 NA
ATOM     23  C   UNL A   1      31.103  28.605  24.763  1.00  0.00     0.047 A 
BRANCH  20  24
ATOM     24  C   UNL A   1      34.404  29.270  26.058  1.00  0.00     0.141 C 
ATOM     25  C   UNL A   1      34.400  29.214  27.578  1.00  0.00     0.029 C 
ENDBRANCH  20  24
ENDBRANCH  17  19
ENDBRANCH  14  17
ENDBRANCH   9  13
ENDBRANCH   7   8
ENDBRANCH   6   7
ENDBRANCH   4   6
ENDBRANCH   3   4
ENDBRANCH   2   3
ENDBRANCH   1   2
BRANCH   1  26
ATOM     26  O   UNL A   1      35.799  22.596  26.357  1.00  0.00    -0.376 OA
BRANCH  26  27
ATOM     27  C   UNL A   1      37.085  22.920  25.826  1.00  0.00     0.188 C 
BRANCH  27  28
ATOM     28  C   UNL A   1      37.842  21.744  25.204  1.00  0.00     0.188 C 
BRANCH  28  29
ATOM     29  O   UNL A   1      38.875  21.151  25.974  1.00  0.00    -0.376 OA
BRANCH  29  30
ATOM     30  C   UNL A   1      40.192  21.698  26.054  1.00  0.00     0.202 C 
BRANCH  30  31
ATOM     31  C   UNL A   1      40.802  22.198  27.366  1.00  0.00     0.261 C 
BRANCH  31  32
ATOM     32  O   UNL A   1      42.098  22.725  27.233  1.00  0.00    -0.460 OA
BRANCH  32  33
ATOM     33  C   UNL A   1      42.176  23.853  26.495  1.00  0.00     0.338 C 
ATOM     34  O   UNL A   1      42.650  23.991  25.385  1.00  0.00    -0.246 OA
BRANCH  33  35
ATOM     35  C   UNL A   1      41.579  24.919  27.315  1.00  0.00     0.060 A 
ATOM     36  C   UNL A   1      40.511  25.621  26.765  1.00  0.00     0.016 A 
ATOM     37  C   UNL A   1      42.161  25.292  28.544  1.00  0.00     0.016 A 
ATOM     38  C   UNL A   1      40.186  26.837  27.320  1.00  0.00     0.010 A 
ATOM     39  C   UNL A   1      41.835  26.501  29.102  1.00  0.00     0.010 A 
ATOM     40  C   UNL A   1      40.934  27.298  28.410  1.00  0.00    -0.014 A 
BRANCH  40  41
ATOM     41  C   UNL A   1      40.881  28.711  28.691  1.00  0.00     0.031 A 
ATOM     42  C   UNL A   1      42.066  29.493  28.321  1.00  0.00     0.074 A 
ATOM     43  C   UNL A   1      39.778  29.255  29.236  1.00  0.00     0.049 A 
ATOM     44  N   UNL A   1      42.876  30.108  29.114  1.00  0.00    -0.248 NA
ATOM     45  C   UNL A   1      42.439  29.531  26.901  1.00  0.00     0.031 C 
ATOM     46  C   UNL A   1      38.449  28.650  29.373  1.00  0.00     0.029 A 
ATOM     47  N   UNL A   1      39.597  30.523  29.691  1.00  0.00    -0.354 N 
ATOM     48  C   UNL A   1      43.771  30.767  28.287  1.00  0.00     0.074 A 
ATOM     49  C   UNL A   1      43.545  30.273  26.950  1.00  0.00     0.031 C 
ATOM     50  C   UNL A   1      37.554  29.617  29.671  1.00  0.00     0.029 A 
ATOM     51  C   UNL A   1      38.268  30.867  29.871  1.00  0.00     0.049 A 
ATOM     52  H   UNL A   1      40.342  31.140  29.874  1.00  0.00     0.167 HD
ATOM     53  C   UNL A   1      44.470  31.848  28.718  1.00  0.00     0.031 A 
ATOM     54  C   UNL A   1      37.787  32.111  30.091  1.00  0.00     0.031 A 
ATOM     55  C   UNL A   1      44.509  31.946  30.152  1.00  0.00     0.049 A 
ATOM     56  C   UNL A   1      38.903  32.957  30.572  1.00  0.00     0.074 A 
ATOM     57  C   UNL A   1      44.972  31.137  31.169  1.00  0.00     0.029 A 
ATOM     58  N   UNL A   1      43.690  32.874  30.748  1.00  0.00    -0.354 N 
ATOM     59  N   UNL A   1      39.457  32.832  31.744  1.00  0.00    -0.248 NA
ATOM     60  C   UNL A   1      39.677  33.713  29.599  1.00  0.00     0.031 C 
ATOM     61  C   UNL A   1      44.076  31.347  32.257  1.00  0.00     0.029 A 
ATOM     62  C   UNL A   1      43.126  32.285  31.851  1.00  0.00     0.049 A 
ATOM     63  H   UNL A   1      43.537  33.797  30.439  1.00  0.00     0.167 HD
ATOM     64  C   UNL A   1      40.800  33.113  31.536  1.00  0.00     0.074 A 
ATOM     65  C   UNL A   1      40.847  33.780  30.240  1.00  0.00     0.031 C 
ATOM     66  C   UNL A   1      41.769  32.526  32.298  1.00  0.00     0.031 A 
BRANCH  53  67
ATOM     67  C   UNL A   1      44.775  33.013  27.817  1.00  0.00    -0.014 A 
ATOM     68  C   UNL A   1      43.733  33.870  27.432  1.00  0.00     0.009 A 
ATOM     69  C   UNL A   1      45.997  33.137  27.124  1.00  0.00     0.009 A 
ATOM     70  C   UNL A   1      43.897  34.778  26.380  1.00  0.00     0.001 A 
ATOM     71  C   UNL A   1      46.178  34.074  26.105  1.00  0.00     0.001 A 
ATOM     72  C   UNL A   1      45.118  34.880  25.719  1.00  0.00     0.000 A 
ENDBRANCH  53  67
BRANCH  54  73
ATOM     73  C   UNL A   1      36.482  32.662  29.678  1.00  0.00    -0.014 A 
ATOM     74  C   UNL A   1      35.612  33.229  30.619  1.00  0.00     0.009 A 
ATOM     75  C   UNL A   1      36.188  32.849  28.314  1.00  0.00     0.009 A 
ATOM     76  C   UNL A   1      34.507  33.984  30.209  1.00  0.00     0.001 A 
ATOM     77  C   UNL A   1      35.078  33.593  27.903  1.00  0.00     0.001 A 
ATOM     78  C   UNL A   1      34.246  34.173  28.853  1.00  0.00     0.000 A 
ENDBRANCH  54  73
BRANCH  66  79
ATOM     79  C   UNL A   1      41.335  31.808  33.554  1.00  0.00    -0.014 A 
ATOM     80  C   UNL A   1      41.280  32.439  34.809  1.00  0.00     0.009 A 
ATOM     81  C   UNL A   1      40.838  30.500  33.447  1.00  0.00     0.009 A 
ATOM     82  C   UNL A   1      40.784  31.766  35.930  1.00  0.00     0.001 A 
ATOM     83  C   UNL A   1      40.320  29.836  34.562  1.00  0.00     0.001 A 
ATOM     84  C   UNL A   1      40.301  30.467  35.805  1.00  0.00     0.000 A 
ENDBRANCH  66  79
ENDBRANCH  40  41
ENDBRANCH  33  35
ENDBRANCH  32  33
ENDBRANCH  31  32
ENDBRANCH  30  31
ENDBRANCH  29  30
ENDBRANCH  28  29
ENDBRANCH  27  28
ENDBRANCH  26  27
ENDBRANCH   1  26
TORSDOF 23
ENDMDL
