MODEL 1
REMARK VINA RESULT:     -10.3      0.000      0.000
REMARK SMILES Cc1cc(Cl)c2c(c1)C=C(C(=O)OCCOCCOCCOC(=O)c1ccc(-c3c4nc(c(-c5ccccc5)c5ccc([nH]5)c(-c5ccccc5)c5nc(c(-c6ccccc6)c6ccc3[nH]6)C=C5)C=C4)cc1)[C@@H](C(F)(F)F)O2
REMARK SMILES IDX 18 1 17 2 16 3 15 4 14 5 13 6 11 7 12 8 10 9 1 10 2 11 3 12
REMARK SMILES IDX 8 13 4 14 7 15 5 16 6 17 9 18 78 19 73 20 74 21 75 22 76 23
REMARK SMILES IDX 77 24 19 25 20 26 21 27 22 28 23 29 24 30 25 31 26 32 72 33
REMARK SMILES IDX 27 34 71 35 28 36 29 37 30 38 65 39 31 40 70 41 64 42 66 43
REMARK SMILES IDX 32 44 69 45 63 46 62 47 33 49 55 50 40 51 54 52 41 53 44 54
REMARK SMILES IDX 53 55 67 56 42 57 43 58 52 60 68 61 45 62 34 63 35 64 39 65
REMARK SMILES IDX 36 66 38 67 37 68 56 69 57 70 61 71 58 72 60 73 59 74 46 75
REMARK SMILES IDX 47 76 51 77 48 78 50 79 49 80
REMARK H PARENT 66 48 44 59
REMARK Flexibility Score: inf
ROOT
ATOM      1  C   UNL A   1      42.043  20.925  26.461  1.00  0.00     0.188 C 
ENDROOT
BRANCH   1   2
ATOM      2  C   UNL A   1      40.698  21.592  26.104  1.00  0.00     0.188 C 
BRANCH   2   3
ATOM      3  O   UNL A   1      40.152  22.595  26.937  1.00  0.00    -0.376 OA
BRANCH   3   4
ATOM      4  C   UNL A   1      38.937  23.241  26.595  1.00  0.00     0.202 C 
BRANCH   4   5
ATOM      5  C   UNL A   1      37.872  22.598  25.693  1.00  0.00     0.261 C 
BRANCH   5   6
ATOM      6  O   UNL A   1      36.879  23.487  25.166  1.00  0.00    -0.460 OA
BRANCH   6   7
ATOM      7  C   UNL A   1      35.612  23.253  25.582  1.00  0.00     0.338 C 
ATOM      8  O   UNL A   1      35.245  22.389  26.361  1.00  0.00    -0.246 OA
BRANCH   7   9
ATOM      9  C   UNL A   1      34.721  24.316  25.075  1.00  0.00     0.087 C 
ATOM     10  C   UNL A   1      31.682  29.332  26.981  1.00  0.00     0.044 C 
ATOM     11  C   UNL A   1      32.110  28.262  26.021  1.00  0.00    -0.049 A 
ATOM     12  C   UNL A   1      31.536  28.176  24.747  1.00  0.00     0.028 A 
ATOM     13  C   UNL A   1      33.108  27.347  26.376  1.00  0.00     0.015 A 
ATOM     14  C   UNL A   1      31.952  27.190  23.849  1.00  0.00     0.084 A 
ATOM     15  C   UNL A   1      33.498  26.331  25.489  1.00  0.00     0.019 A 
ATOM     16  Cl  UNL A   1      31.191  27.127  22.298  1.00  0.00    -0.080 Cl
ATOM     17  C   UNL A   1      32.937  26.263  24.211  1.00  0.00     0.146 A 
ATOM     18  C   UNL A   1      34.436  25.310  25.925  1.00  0.00     0.027 C 
ATOM     19  O   UNL A   1      33.310  25.326  23.286  1.00  0.00    -0.474 OA
ATOM     20  C   UNL A   1      34.194  24.240  23.669  1.00  0.00     0.316 C 
BRANCH  20  21
ATOM     21  C   UNL A   1      33.482  22.910  23.386  1.00  0.00     0.430 C 
ATOM     22  F   UNL A   1      33.052  22.841  22.105  1.00  0.00    -0.167 F 
ATOM     23  F   UNL A   1      34.305  21.852  23.577  1.00  0.00    -0.167 F 
ATOM     24  F   UNL A   1      32.408  22.735  24.190  1.00  0.00    -0.167 F 
ENDBRANCH  20  21
ENDBRANCH   7   9
ENDBRANCH   6   7
ENDBRANCH   5   6
ENDBRANCH   4   5
ENDBRANCH   3   4
ENDBRANCH   2   3
ENDBRANCH   1   2
BRANCH   1  25
ATOM     25  O   UNL A   1      42.931  20.614  25.417  1.00  0.00    -0.376 OA
BRANCH  25  26
ATOM     26  C   UNL A   1      44.117  21.371  25.237  1.00  0.00     0.202 C 
BRANCH  26  27
ATOM     27  C   UNL A   1      44.291  22.576  24.286  1.00  0.00     0.261 C 
BRANCH  27  28
ATOM     28  O   UNL A   1      43.664  23.812  24.635  1.00  0.00    -0.460 OA
BRANCH  28  29
ATOM     29  C   UNL A   1      44.485  24.765  25.146  1.00  0.00     0.338 C 
ATOM     30  O   UNL A   1      45.591  25.080  24.754  1.00  0.00    -0.246 OA
BRANCH  29  31
ATOM     31  C   UNL A   1      43.739  25.528  26.166  1.00  0.00     0.060 A 
ATOM     32  C   UNL A   1      44.082  26.870  26.389  1.00  0.00     0.016 A 
ATOM     33  C   UNL A   1      42.725  24.922  26.907  1.00  0.00     0.016 A 
ATOM     34  C   UNL A   1      43.414  27.609  27.363  1.00  0.00     0.010 A 
ATOM     35  C   UNL A   1      42.078  25.656  27.906  1.00  0.00     0.010 A 
ATOM     36  C   UNL A   1      42.436  26.993  28.155  1.00  0.00    -0.014 A 
BRANCH  36  37
ATOM     37  C   UNL A   1      41.929  27.681  29.366  1.00  0.00     0.031 A 
ATOM     38  C   UNL A   1      40.659  28.479  29.252  1.00  0.00     0.074 A 
ATOM     39  C   UNL A   1      42.564  27.588  30.546  1.00  0.00     0.049 A 
ATOM     40  N   UNL A   1      40.055  29.208  30.155  1.00  0.00    -0.248 NA
ATOM     41  C   UNL A   1      39.977  28.445  27.947  1.00  0.00     0.031 C 
ATOM     42  C   UNL A   1      43.765  26.796  30.804  1.00  0.00     0.029 A 
ATOM     43  N   UNL A   1      42.280  28.176  31.754  1.00  0.00    -0.354 N 
ATOM     44  C   UNL A   1      38.928  29.723  29.527  1.00  0.00     0.074 A 
ATOM     45  C   UNL A   1      38.944  29.247  28.161  1.00  0.00     0.031 C 
ATOM     46  C   UNL A   1      44.120  26.952  32.092  1.00  0.00     0.029 A 
ATOM     47  C   UNL A   1      43.195  27.885  32.737  1.00  0.00     0.049 A 
ATOM     48  H   UNL A   1      41.495  28.751  31.903  1.00  0.00     0.167 HD
ATOM     49  C   UNL A   1      37.961  30.516  30.042  1.00  0.00     0.031 A 
ATOM     50  C   UNL A   1      43.289  28.339  34.003  1.00  0.00     0.031 A 
ATOM     51  C   UNL A   1      37.953  31.009  31.392  1.00  0.00     0.049 A 
ATOM     52  C   UNL A   1      42.260  29.311  34.521  1.00  0.00     0.074 A 
ATOM     53  C   UNL A   1      37.015  31.821  32.006  1.00  0.00     0.029 A 
ATOM     54  N   UNL A   1      38.931  30.742  32.337  1.00  0.00    -0.354 N 
ATOM     55  N   UNL A   1      41.193  29.784  33.923  1.00  0.00    -0.248 NA
ATOM     56  C   UNL A   1      42.447  29.810  35.893  1.00  0.00     0.031 C 
ATOM     57  C   UNL A   1      37.459  32.097  33.300  1.00  0.00     0.029 A 
ATOM     58  C   UNL A   1      38.636  31.398  33.519  1.00  0.00     0.049 A 
ATOM     59  H   UNL A   1      39.719  30.170  32.189  1.00  0.00     0.167 HD
ATOM     60  C   UNL A   1      40.569  30.611  34.851  1.00  0.00     0.074 A 
ATOM     61  C   UNL A   1      41.368  30.563  36.058  1.00  0.00     0.031 C 
ATOM     62  C   UNL A   1      39.437  31.344  34.714  1.00  0.00     0.031 A 
BRANCH  49  63
ATOM     63  C   UNL A   1      36.839  30.928  29.132  1.00  0.00    -0.014 A 
ATOM     64  C   UNL A   1      35.868  30.006  28.712  1.00  0.00     0.009 A 
ATOM     65  C   UNL A   1      36.715  32.271  28.741  1.00  0.00     0.009 A 
ATOM     66  C   UNL A   1      34.808  30.416  27.902  1.00  0.00     0.001 A 
ATOM     67  C   UNL A   1      35.638  32.684  27.956  1.00  0.00     0.001 A 
ATOM     68  C   UNL A   1      34.689  31.756  27.533  1.00  0.00     0.000 A 
ENDBRANCH  49  63
BRANCH  50  69
ATOM     69  C   UNL A   1      44.409  27.890  34.873  1.00  0.00    -0.014 A 
ATOM     70  C   UNL A   1      45.670  28.502  34.787  1.00  0.00     0.009 A 
ATOM     71  C   UNL A   1      44.226  26.843  35.791  1.00  0.00     0.009 A 
ATOM     72  C   UNL A   1      46.725  28.065  35.591  1.00  0.00     0.001 A 
ATOM     73  C   UNL A   1      45.276  26.429  36.615  1.00  0.00     0.001 A 
ATOM     74  C   UNL A   1      46.526  27.035  36.509  1.00  0.00     0.000 A 
ENDBRANCH  50  69
BRANCH  62  75
ATOM     75  C   UNL A   1      38.964  32.137  35.903  1.00  0.00    -0.014 A 
ATOM     76  C   UNL A   1      38.088  31.581  36.848  1.00  0.00     0.009 A 
ATOM     77  C   UNL A   1      39.470  33.429  36.123  1.00  0.00     0.009 A 
ATOM     78  C   UNL A   1      37.709  32.314  37.976  1.00  0.00     0.001 A 
ATOM     79  C   UNL A   1      39.116  34.145  37.267  1.00  0.00     0.001 A 
ATOM     80  C   UNL A   1      38.230  33.589  38.189  1.00  0.00     0.000 A 
ENDBRANCH  62  75
ENDBRANCH  36  37
ENDBRANCH  29  31
ENDBRANCH  28  29
ENDBRANCH  27  28
ENDBRANCH  26  27
ENDBRANCH  25  26
ENDBRANCH   1  25
TORSDOF 18
ENDMDL
MODEL 2
REMARK VINA RESULT:     -10.2      0.742      5.900
REMARK SMILES Cc1cc(Cl)c2c(c1)C=C(C(=O)OCCOCCOCCOC(=O)c1ccc(-c3c4nc(c(-c5ccccc5)c5ccc([nH]5)c(-c5ccccc5)c5nc(c(-c6ccccc6)c6ccc3[nH]6)C=C5)C=C4)cc1)[C@@H](C(F)(F)F)O2
REMARK SMILES IDX 18 1 17 2 16 3 15 4 14 5 13 6 11 7 12 8 10 9 1 10 2 11 3 12
REMARK SMILES IDX 8 13 4 14 7 15 5 16 6 17 9 18 78 19 73 20 74 21 75 22 76 23
REMARK SMILES IDX 77 24 19 25 20 26 21 27 22 28 23 29 24 30 25 31 26 32 72 33
REMARK SMILES IDX 27 34 71 35 28 36 29 37 30 38 65 39 31 40 70 41 64 42 66 43
REMARK SMILES IDX 32 44 69 45 63 46 62 47 33 49 55 50 40 51 54 52 41 53 44 54
REMARK SMILES IDX 53 55 67 56 42 57 43 58 52 60 68 61 45 62 34 63 35 64 39 65
REMARK SMILES IDX 36 66 38 67 37 68 56 69 57 70 61 71 58 72 60 73 59 74 46 75
REMARK SMILES IDX 47 76 51 77 48 78 50 79 49 80
REMARK H PARENT 66 48 44 59
REMARK Flexibility Score: inf
ROOT
ATOM      1  C   UNL A   1      41.948  20.494  26.514  1.00  0.00     0.188 C 
ENDROOT
BRANCH   1   2
ATOM      2  C   UNL A   1      40.427  20.530  26.257  1.00  0.00     0.188 C 
BRANCH   2   3
ATOM      3  O   UNL A   1      39.676  21.688  26.563  1.00  0.00    -0.376 OA
BRANCH   3   4
ATOM      4  C   UNL A   1      38.515  22.019  25.819  1.00  0.00     0.202 C 
BRANCH   4   5
ATOM      5  C   UNL A   1      37.799  23.374  25.944  1.00  0.00     0.261 C 
BRANCH   5   6
ATOM      6  O   UNL A   1      36.723  23.599  25.026  1.00  0.00    -0.460 OA
BRANCH   6   7
ATOM      7  C   UNL A   1      35.479  23.444  25.541  1.00  0.00     0.338 C 
ATOM      8  O   UNL A   1      35.133  22.637  26.387  1.00  0.00    -0.246 OA
BRANCH   7   9
ATOM      9  C   UNL A   1      34.600  24.521  25.042  1.00  0.00     0.087 C 
ATOM     10  C   UNL A   1      31.731  29.633  26.955  1.00  0.00     0.044 C 
ATOM     11  C   UNL A   1      32.108  28.540  25.999  1.00  0.00    -0.049 A 
ATOM     12  C   UNL A   1      31.498  28.451  24.742  1.00  0.00     0.028 A 
ATOM     13  C   UNL A   1      33.094  27.607  26.341  1.00  0.00     0.015 A 
ATOM     14  C   UNL A   1      31.867  27.442  23.847  1.00  0.00     0.084 A 
ATOM     15  C   UNL A   1      33.436  26.570  25.459  1.00  0.00     0.019 A 
ATOM     16  Cl  UNL A   1      31.065  27.376  22.318  1.00  0.00    -0.080 Cl
ATOM     17  C   UNL A   1      32.840  26.497  24.197  1.00  0.00     0.146 A 
ATOM     18  C   UNL A   1      34.361  25.534  25.885  1.00  0.00     0.027 C 
ATOM     19  O   UNL A   1      33.167  25.540  23.276  1.00  0.00    -0.474 OA
ATOM     20  C   UNL A   1      34.034  24.438  23.651  1.00  0.00     0.316 C 
BRANCH  20  21
ATOM     21  C   UNL A   1      33.284  23.122  23.407  1.00  0.00     0.430 C 
ATOM     22  F   UNL A   1      34.141  22.085  23.255  1.00  0.00    -0.167 F 
ATOM     23  F   UNL A   1      32.475  22.807  24.445  1.00  0.00    -0.167 F 
ATOM     24  F   UNL A   1      32.512  23.182  22.298  1.00  0.00    -0.167 F 
ENDBRANCH  20  21
ENDBRANCH   7   9
ENDBRANCH   6   7
ENDBRANCH   5   6
ENDBRANCH   4   5
ENDBRANCH   3   4
ENDBRANCH   2   3
ENDBRANCH   1   2
BRANCH   1  25
ATOM     25  O   UNL A   1      42.806  20.304  25.418  1.00  0.00    -0.376 OA
BRANCH  25  26
ATOM     26  C   UNL A   1      44.204  20.495  25.563  1.00  0.00     0.202 C 
BRANCH  26  27
ATOM     27  C   UNL A   1      45.040  21.620  24.913  1.00  0.00     0.261 C 
BRANCH  27  28
ATOM     28  O   UNL A   1      44.952  22.936  25.464  1.00  0.00    -0.460 OA
BRANCH  28  29
ATOM     29  C   UNL A   1      43.782  23.589  25.242  1.00  0.00     0.338 C 
ATOM     30  O   UNL A   1      42.986  23.401  24.343  1.00  0.00    -0.246 OA
BRANCH  29  31
ATOM     31  C   UNL A   1      43.504  24.460  26.401  1.00  0.00     0.060 A 
ATOM     32  C   UNL A   1      42.659  23.986  27.415  1.00  0.00     0.016 A 
ATOM     33  C   UNL A   1      44.057  25.738  26.477  1.00  0.00     0.016 A 
ATOM     34  C   UNL A   1      42.358  24.796  28.509  1.00  0.00     0.010 A 
ATOM     35  C   UNL A   1      43.727  26.561  27.558  1.00  0.00     0.010 A 
ATOM     36  C   UNL A   1      42.858  26.103  28.565  1.00  0.00    -0.014 A 
BRANCH  36  37
ATOM     37  C   UNL A   1      42.319  27.054  29.566  1.00  0.00     0.031 A 
ATOM     38  C   UNL A   1      43.051  27.204  30.871  1.00  0.00     0.074 A 
ATOM     39  C   UNL A   1      41.219  27.786  29.321  1.00  0.00     0.049 A 
ATOM     40  N   UNL A   1      42.742  27.928  31.916  1.00  0.00    -0.248 NA
ATOM     41  C   UNL A   1      44.301  26.438  31.015  1.00  0.00     0.031 C 
ATOM     42  C   UNL A   1      40.456  27.782  28.074  1.00  0.00     0.029 A 
ATOM     43  N   UNL A   1      40.550  28.677  30.124  1.00  0.00    -0.354 N 
ATOM     44  C   UNL A   1      43.753  27.701  32.841  1.00  0.00     0.074 A 
ATOM     45  C   UNL A   1      44.671  26.754  32.247  1.00  0.00     0.031 C 
ATOM     46  C   UNL A   1      39.419  28.627  28.198  1.00  0.00     0.029 A 
ATOM     47  C   UNL A   1      39.421  29.200  29.544  1.00  0.00     0.049 A 
ATOM     48  H   UNL A   1      40.852  28.918  31.029  1.00  0.00     0.167 HD
ATOM     49  C   UNL A   1      43.910  28.239  34.072  1.00  0.00     0.031 A 
ATOM     50  C   UNL A   1      38.484  30.027  30.050  1.00  0.00     0.031 A 
ATOM     51  C   UNL A   1      42.989  29.164  34.673  1.00  0.00     0.049 A 
ATOM     52  C   UNL A   1      38.621  30.527  31.466  1.00  0.00     0.074 A 
ATOM     53  C   UNL A   1      43.062  29.762  35.919  1.00  0.00     0.029 A 
ATOM     54  N   UNL A   1      41.824  29.621  34.077  1.00  0.00    -0.354 N 
ATOM     55  N   UNL A   1      39.586  30.315  32.328  1.00  0.00    -0.248 NA
ATOM     56  C   UNL A   1      37.540  31.384  31.977  1.00  0.00     0.031 C 
ATOM     57  C   UNL A   1      41.910  30.530  36.101  1.00  0.00     0.029 A 
ATOM     58  C   UNL A   1      41.155  30.469  34.940  1.00  0.00     0.049 A 
ATOM     59  H   UNL A   1      41.520  29.377  33.172  1.00  0.00     0.167 HD
ATOM     60  C   UNL A   1      39.243  31.031  33.470  1.00  0.00     0.074 A 
ATOM     61  C   UNL A   1      37.989  31.698  33.184  1.00  0.00     0.031 C 
ATOM     62  C   UNL A   1      39.907  31.127  34.647  1.00  0.00     0.031 A 
BRANCH  49  63
ATOM     63  C   UNL A   1      45.111  27.817  34.870  1.00  0.00    -0.014 A 
ATOM     64  C   UNL A   1      46.312  28.542  34.812  1.00  0.00     0.009 A 
ATOM     65  C   UNL A   1      45.021  26.719  35.739  1.00  0.00     0.009 A 
ATOM     66  C   UNL A   1      47.405  28.161  35.593  1.00  0.00     0.001 A 
ATOM     67  C   UNL A   1      46.105  26.359  36.541  1.00  0.00     0.001 A 
ATOM     68  C   UNL A   1      47.297  27.077  36.463  1.00  0.00     0.000 A 
ENDBRANCH  49  63
BRANCH  50  69
ATOM     69  C   UNL A   1      37.319  30.431  29.217  1.00  0.00    -0.014 A 
ATOM     70  C   UNL A   1      37.219  31.738  28.715  1.00  0.00     0.009 A 
ATOM     71  C   UNL A   1      36.297  29.514  28.924  1.00  0.00     0.009 A 
ATOM     72  C   UNL A   1      36.115  32.121  27.950  1.00  0.00     0.001 A 
ATOM     73  C   UNL A   1      35.209  29.891  28.134  1.00  0.00     0.001 A 
ATOM     74  C   UNL A   1      35.115  31.196  27.654  1.00  0.00     0.000 A 
ENDBRANCH  50  69
BRANCH  62  75
ATOM     75  C   UNL A   1      39.318  32.006  35.718  1.00  0.00    -0.014 A 
ATOM     76  C   UNL A   1      39.633  33.371  35.796  1.00  0.00     0.009 A 
ATOM     77  C   UNL A   1      38.370  31.476  36.609  1.00  0.00     0.009 A 
ATOM     78  C   UNL A   1      39.029  34.182  36.760  1.00  0.00     0.001 A 
ATOM     79  C   UNL A   1      37.742  32.295  37.549  1.00  0.00     0.001 A 
ATOM     80  C   UNL A   1      38.078  33.646  37.628  1.00  0.00     0.000 A 
ENDBRANCH  62  75
ENDBRANCH  36  37
ENDBRANCH  29  31
ENDBRANCH  28  29
ENDBRANCH  27  28
ENDBRANCH  26  27
ENDBRANCH  25  26
ENDBRANCH   1  25
TORSDOF 18
ENDMDL
MODEL 3
REMARK VINA RESULT:     -10.1      3.432      8.493
REMARK SMILES Cc1cc(Cl)c2c(c1)C=C(C(=O)OCCOCCOCCOC(=O)c1ccc(-c3c4nc(c(-c5ccccc5)c5ccc([nH]5)c(-c5ccccc5)c5nc(c(-c6ccccc6)c6ccc3[nH]6)C=C5)C=C4)cc1)[C@@H](C(F)(F)F)O2
REMARK SMILES IDX 18 1 17 2 16 3 15 4 14 5 13 6 11 7 12 8 10 9 1 10 2 11 3 12
REMARK SMILES IDX 8 13 4 14 7 15 5 16 6 17 9 18 78 19 73 20 74 21 75 22 76 23
REMARK SMILES IDX 77 24 19 25 20 26 21 27 22 28 23 29 24 30 25 31 26 32 72 33
REMARK SMILES IDX 27 34 71 35 28 36 29 37 30 38 65 39 31 40 70 41 64 42 66 43
REMARK SMILES IDX 32 44 69 45 63 46 62 47 33 49 55 50 40 51 54 52 41 53 44 54
REMARK SMILES IDX 53 55 67 56 42 57 43 58 52 60 68 61 45 62 34 63 35 64 39 65
REMARK SMILES IDX 36 66 38 67 37 68 56 69 57 70 61 71 58 72 60 73 59 74 46 75
REMARK SMILES IDX 47 76 51 77 48 78 50 79 49 80
REMARK H PARENT 66 48 44 59
REMARK Flexibility Score: inf
ROOT
ATOM      1  C   UNL A   1      32.872  29.644  25.996  1.00  0.00     0.188 C 
ENDROOT
BRANCH   1   2
ATOM      2  C   UNL A   1      33.090  28.956  24.632  1.00  0.00     0.188 C 
BRANCH   2   3
ATOM      3  O   UNL A   1      33.034  27.548  24.521  1.00  0.00    -0.376 OA
BRANCH   3   4
ATOM      4  C   UNL A   1      31.854  26.839  24.861  1.00  0.00     0.202 C 
BRANCH   4   5
ATOM      5  C   UNL A   1      31.780  25.853  26.037  1.00  0.00     0.261 C 
BRANCH   5   6
ATOM      6  O   UNL A   1      31.705  24.466  25.686  1.00  0.00    -0.460 OA
BRANCH   6   7
ATOM      7  C   UNL A   1      32.894  23.860  25.455  1.00  0.00     0.338 C 
ATOM      8  O   UNL A   1      33.988  24.217  25.860  1.00  0.00    -0.246 OA
BRANCH   7   9
ATOM      9  C   UNL A   1      32.668  22.577  24.758  1.00  0.00     0.087 C 
ATOM     10  C   UNL A   1      33.025  16.492  25.691  1.00  0.00     0.044 C 
ATOM     11  C   UNL A   1      32.813  17.757  24.913  1.00  0.00    -0.049 A 
ATOM     12  C   UNL A   1      32.592  17.715  23.531  1.00  0.00     0.028 A 
ATOM     13  C   UNL A   1      32.810  18.998  25.561  1.00  0.00     0.015 A 
ATOM     14  C   UNL A   1      32.376  18.895  22.814  1.00  0.00     0.084 A 
ATOM     15  C   UNL A   1      32.633  20.186  24.835  1.00  0.00     0.019 A 
ATOM     16  Cl  UNL A   1      32.126  18.777  21.107  1.00  0.00    -0.080 Cl
ATOM     17  C   UNL A   1      32.392  20.137  23.460  1.00  0.00     0.146 A 
ATOM     18  C   UNL A   1      32.767  21.469  25.503  1.00  0.00     0.027 C 
ATOM     19  O   UNL A   1      32.164  21.257  22.707  1.00  0.00    -0.474 OA
ATOM     20  C   UNL A   1      32.342  22.573  23.291  1.00  0.00     0.316 C 
BRANCH  20  21
ATOM     21  C   UNL A   1      33.385  23.337  22.462  1.00  0.00     0.430 C 
ATOM     22  F   UNL A   1      34.645  23.042  22.858  1.00  0.00    -0.167 F 
ATOM     23  F   UNL A   1      33.307  23.021  21.148  1.00  0.00    -0.167 F 
ATOM     24  F   UNL A   1      33.225  24.676  22.565  1.00  0.00    -0.167 F 
ENDBRANCH  20  21
ENDBRANCH   7   9
ENDBRANCH   6   7
ENDBRANCH   5   6
ENDBRANCH   4   5
ENDBRANCH   3   4
ENDBRANCH   2   3
ENDBRANCH   1   2
BRANCH   1  25
ATOM     25  O   UNL A   1      31.649  30.295  26.227  1.00  0.00    -0.376 OA
BRANCH  25  26
ATOM     26  C   UNL A   1      31.620  31.685  26.508  1.00  0.00     0.202 C 
BRANCH  26  27
ATOM     27  C   UNL A   1      32.454  32.412  27.585  1.00  0.00     0.261 C 
BRANCH  27  28
ATOM     28  O   UNL A   1      32.481  33.842  27.572  1.00  0.00    -0.460 OA
BRANCH  28  29
ATOM     29  C   UNL A   1      33.079  34.429  28.640  1.00  0.00     0.338 C 
ATOM     30  O   UNL A   1      32.620  35.285  29.371  1.00  0.00    -0.246 OA
BRANCH  29  31
ATOM     31  C   UNL A   1      34.342  33.717  28.920  1.00  0.00     0.060 A 
ATOM     32  C   UNL A   1      34.472  33.025  30.133  1.00  0.00     0.016 A 
ATOM     33  C   UNL A   1      35.392  33.747  28.004  1.00  0.00     0.016 A 
ATOM     34  C   UNL A   1      35.661  32.365  30.437  1.00  0.00     0.010 A 
ATOM     35  C   UNL A   1      36.596  33.112  28.325  1.00  0.00     0.010 A 
ATOM     36  C   UNL A   1      36.743  32.439  29.551  1.00  0.00    -0.014 A 
BRANCH  36  37
ATOM     37  C   UNL A   1      38.085  31.987  29.990  1.00  0.00     0.031 A 
ATOM     38  C   UNL A   1      38.589  30.662  29.489  1.00  0.00     0.074 A 
ATOM     39  C   UNL A   1      38.852  32.740  30.798  1.00  0.00     0.049 A 
ATOM     40  N   UNL A   1      39.701  30.035  29.778  1.00  0.00    -0.248 NA
ATOM     41  C   UNL A   1      37.726  29.951  28.531  1.00  0.00     0.031 C 
ATOM     42  C   UNL A   1      38.508  34.068  31.300  1.00  0.00     0.029 A 
ATOM     43  N   UNL A   1      40.087  32.481  31.341  1.00  0.00    -0.354 N 
ATOM     44  C   UNL A   1      39.667  28.857  29.043  1.00  0.00     0.074 A 
ATOM     45  C   UNL A   1      38.417  28.842  28.316  1.00  0.00     0.031 C 
ATOM     46  C   UNL A   1      39.508  34.508  32.084  1.00  0.00     0.029 A 
ATOM     47  C   UNL A   1      40.542  33.476  32.171  1.00  0.00     0.049 A 
ATOM     48  H   UNL A   1      40.598  31.661  31.152  1.00  0.00     0.167 HD
ATOM     49  C   UNL A   1      40.597  27.878  28.972  1.00  0.00     0.031 A 
ATOM     50  C   UNL A   1      41.654  33.536  32.932  1.00  0.00     0.031 A 
ATOM     51  C   UNL A   1      41.831  27.880  29.709  1.00  0.00     0.049 A 
ATOM     52  C   UNL A   1      42.623  32.382  32.922  1.00  0.00     0.074 A 
ATOM     53  C   UNL A   1      42.837  26.929  29.705  1.00  0.00     0.029 A 
ATOM     54  N   UNL A   1      42.226  28.877  30.587  1.00  0.00    -0.354 N 
ATOM     55  N   UNL A   1      42.588  31.277  32.216  1.00  0.00    -0.248 NA
ATOM     56  C   UNL A   1      43.789  32.485  33.814  1.00  0.00     0.031 C 
ATOM     57  C   UNL A   1      43.810  27.320  30.627  1.00  0.00     0.029 A 
ATOM     58  C   UNL A   1      43.446  28.549  31.153  1.00  0.00     0.049 A 
ATOM     59  H   UNL A   1      41.714  29.696  30.780  1.00  0.00     0.167 HD
ATOM     60  C   UNL A   1      43.736  30.569  32.557  1.00  0.00     0.074 A 
ATOM     61  C   UNL A   1      44.455  31.377  33.519  1.00  0.00     0.031 C 
ATOM     62  C   UNL A   1      44.154  29.360  32.111  1.00  0.00     0.031 A 
BRANCH  49  63
ATOM     63  C   UNL A   1      40.305  26.700  28.086  1.00  0.00    -0.014 A 
ATOM     64  C   UNL A   1      40.841  26.615  26.791  1.00  0.00     0.009 A 
ATOM     65  C   UNL A   1      39.536  25.633  28.575  1.00  0.00     0.009 A 
ATOM     66  C   UNL A   1      40.594  25.494  25.997  1.00  0.00     0.001 A 
ATOM     67  C   UNL A   1      39.316  24.500  27.790  1.00  0.00     0.001 A 
ATOM     68  C   UNL A   1      39.841  24.434  26.501  1.00  0.00     0.000 A 
ENDBRANCH  49  63
BRANCH  50  69
ATOM     69  C   UNL A   1      41.910  34.730  33.782  1.00  0.00    -0.014 A 
ATOM     70  C   UNL A   1      41.430  34.784  35.100  1.00  0.00     0.009 A 
ATOM     71  C   UNL A   1      42.631  35.825  33.278  1.00  0.00     0.009 A 
ATOM     72  C   UNL A   1      41.655  35.915  35.890  1.00  0.00     0.001 A 
ATOM     73  C   UNL A   1      42.879  36.942  34.081  1.00  0.00     0.001 A 
ATOM     74  C   UNL A   1      42.384  36.989  35.383  1.00  0.00     0.000 A 
ENDBRANCH  50  69
BRANCH  62  75
ATOM     75  C   UNL A   1      45.465  28.834  32.629  1.00  0.00    -0.014 A 
ATOM     76  C   UNL A   1      46.679  29.159  32.005  1.00  0.00     0.009 A 
ATOM     77  C   UNL A   1      45.492  28.070  33.808  1.00  0.00     0.009 A 
ATOM     78  C   UNL A   1      47.890  28.710  32.537  1.00  0.00     0.001 A 
ATOM     79  C   UNL A   1      46.705  27.652  34.357  1.00  0.00     0.001 A 
ATOM     80  C   UNL A   1      47.903  27.966  33.716  1.00  0.00     0.000 A 
ENDBRANCH  62  75
ENDBRANCH  36  37
ENDBRANCH  29  31
ENDBRANCH  28  29
ENDBRANCH  27  28
ENDBRANCH  26  27
ENDBRANCH  25  26
ENDBRANCH   1  25
TORSDOF 18
ENDMDL
