MODEL 1
REMARK VINA RESULT:     -11.1      0.000      0.000
REMARK SMILES O=C(OCCOCCOCCOC(=O)[C@@H]1[C@H](C(=O)Nc2ccc(Cn3cncn3)cc2)[C@@H]2C=C[C@H]1CC2)c1ccc(-c2c3nc(c(-c4ccccc4)c4ccc([nH]4)c(-c4ccccc4)c4nc(c(-c5ccccc5)c5ccc2[nH]5)C=C4)C=C3)cc1
REMARK SMILES IDX 8 1 7 2 6 3 5 4 4 5 3 6 2 7 1 8 38 9 39 10 85 11 40 12 84 13
REMARK SMILES IDX 41 14 42 15 43 16 78 17 44 18 83 19 77 20 79 21 45 22 82 23
REMARK SMILES IDX 76 24 75 25 46 27 68 28 53 29 67 30 54 31 57 32 66 33 80 34
REMARK SMILES IDX 55 35 56 36 65 38 81 39 58 40 47 41 48 42 52 43 49 44 51 45
REMARK SMILES IDX 50 46 69 47 70 48 74 49 71 50 73 51 72 52 59 53 60 54 64 55
REMARK SMILES IDX 61 56 63 57 62 58 9 59 10 60 11 61 12 62 13 63 14 64 15 65
REMARK SMILES IDX 16 66 35 67 32 68 34 69 36 70 33 71 37 72 17 73 18 74 19 75
REMARK SMILES IDX 20 77 21 78 31 79 22 80 30 81 23 82 24 83 25 84 26 85 29 86
REMARK SMILES IDX 27 87 28 88
REMARK H PARENT 79 26 57 37 19 76
REMARK Flexibility Score: inf
ROOT
ATOM      1  C   UNL A   1      37.004  22.370  24.361  1.00  0.00     0.188 C 
ENDROOT
BRANCH   1   2
ATOM      2  C   UNL A   1      37.728  21.233  25.084  1.00  0.00     0.188 C 
BRANCH   2   3
ATOM      3  O   UNL A   1      38.805  21.434  25.977  1.00  0.00    -0.376 OA
BRANCH   3   4
ATOM      4  C   UNL A   1      39.820  20.449  26.028  1.00  0.00     0.202 C 
BRANCH   4   5
ATOM      5  C   UNL A   1      40.877  20.560  27.137  1.00  0.00     0.261 C 
BRANCH   5   6
ATOM      6  O   UNL A   1      42.030  21.349  26.811  1.00  0.00    -0.460 OA
BRANCH   6   7
ATOM      7  C   UNL A   1      42.167  22.577  26.278  1.00  0.00     0.338 C 
ATOM      8  O   UNL A   1      42.768  22.650  25.195  1.00  0.00    -0.246 OA
BRANCH   7   9
ATOM      9  C   UNL A   1      41.660  23.871  26.826  1.00  0.00     0.060 A 
ATOM     10  C   UNL A   1      40.809  24.790  26.214  1.00  0.00     0.016 A 
ATOM     11  C   UNL A   1      42.204  24.225  28.082  1.00  0.00     0.016 A 
ATOM     12  C   UNL A   1      40.585  26.040  26.803  1.00  0.00     0.010 A 
ATOM     13  C   UNL A   1      41.940  25.433  28.702  1.00  0.00     0.010 A 
ATOM     14  C   UNL A   1      41.194  26.372  28.019  1.00  0.00    -0.014 A 
BRANCH  14  15
ATOM     15  C   UNL A   1      41.067  27.722  28.543  1.00  0.00     0.031 A 
ATOM     16  C   UNL A   1      42.003  28.719  27.981  1.00  0.00     0.074 A 
ATOM     17  C   UNL A   1      40.148  28.089  29.460  1.00  0.00     0.049 A 
ATOM     18  N   UNL A   1      43.088  29.148  28.532  1.00  0.00    -0.248 NA
ATOM     19  C   UNL A   1      41.776  29.217  26.621  1.00  0.00     0.031 C 
ATOM     20  C   UNL A   1      38.974  27.355  29.940  1.00  0.00     0.029 A 
ATOM     21  N   UNL A   1      40.060  29.272  30.129  1.00  0.00    -0.354 N 
ATOM     22  C   UNL A   1      43.597  30.118  27.678  1.00  0.00     0.074 A 
ATOM     23  C   UNL A   1      42.836  30.013  26.456  1.00  0.00     0.031 C 
ATOM     24  C   UNL A   1      38.189  28.184  30.667  1.00  0.00     0.029 A 
ATOM     25  C   UNL A   1      38.886  29.446  30.845  1.00  0.00     0.049 A 
ATOM     26  H   UNL A   1      40.773  29.950  30.105  1.00  0.00     0.167 HD
ATOM     27  C   UNL A   1      44.457  31.070  28.136  1.00  0.00     0.031 A 
ATOM     28  C   UNL A   1      38.517  30.555  31.534  1.00  0.00     0.031 A 
ATOM     29  C   UNL A   1      44.970  30.739  29.443  1.00  0.00     0.049 A 
ATOM     30  C   UNL A   1      39.751  31.311  31.852  1.00  0.00     0.074 A 
ATOM     31  C   UNL A   1      45.682  29.679  29.969  1.00  0.00     0.029 A 
ATOM     32  N   UNL A   1      44.403  31.381  30.521  1.00  0.00    -0.354 N 
ATOM     33  N   UNL A   1      40.646  30.890  32.698  1.00  0.00    -0.248 NA
ATOM     34  C   UNL A   1      40.209  32.320  30.911  1.00  0.00     0.031 C 
ATOM     35  C   UNL A   1      45.100  29.449  31.251  1.00  0.00     0.029 A 
ATOM     36  C   UNL A   1      44.126  30.427  31.464  1.00  0.00     0.049 A 
ATOM     37  H   UNL A   1      44.229  32.347  30.598  1.00  0.00     0.167 HD
ATOM     38  C   UNL A   1      41.861  31.221  32.118  1.00  0.00     0.074 A 
ATOM     39  C   UNL A   1      41.529  32.194  31.077  1.00  0.00     0.031 C 
ATOM     40  C   UNL A   1      42.980  30.471  32.345  1.00  0.00     0.031 A 
BRANCH  27  41
ATOM     41  C   UNL A   1      44.516  32.480  27.604  1.00  0.00    -0.014 A 
ATOM     42  C   UNL A   1      43.754  33.472  28.250  1.00  0.00     0.009 A 
ATOM     43  C   UNL A   1      45.044  32.807  26.343  1.00  0.00     0.009 A 
ATOM     44  C   UNL A   1      43.456  34.687  27.622  1.00  0.00     0.001 A 
ATOM     45  C   UNL A   1      44.784  34.037  25.730  1.00  0.00     0.001 A 
ATOM     46  C   UNL A   1      43.962  34.963  26.356  1.00  0.00     0.000 A 
ENDBRANCH  27  41
BRANCH  28  47
ATOM     47  C   UNL A   1      37.171  31.123  31.743  1.00  0.00    -0.014 A 
ATOM     48  C   UNL A   1      36.786  31.624  32.998  1.00  0.00     0.009 A 
ATOM     49  C   UNL A   1      36.366  31.443  30.635  1.00  0.00     0.009 A 
ATOM     50  C   UNL A   1      35.668  32.459  33.127  1.00  0.00     0.001 A 
ATOM     51  C   UNL A   1      35.249  32.274  30.764  1.00  0.00     0.001 A 
ATOM     52  C   UNL A   1      34.910  32.798  32.008  1.00  0.00     0.000 A 
ENDBRANCH  28  47
BRANCH  40  53
ATOM     53  C   UNL A   1      42.928  29.429  33.437  1.00  0.00    -0.014 A 
ATOM     54  C   UNL A   1      43.493  29.617  34.712  1.00  0.00     0.009 A 
ATOM     55  C   UNL A   1      42.160  28.276  33.216  1.00  0.00     0.009 A 
ATOM     56  C   UNL A   1      43.325  28.658  35.718  1.00  0.00     0.001 A 
ATOM     57  C   UNL A   1      41.972  27.331  34.227  1.00  0.00     0.001 A 
ATOM     58  C   UNL A   1      42.561  27.519  35.475  1.00  0.00     0.000 A 
ENDBRANCH  40  53
ENDBRANCH  14  15
ENDBRANCH   7   9
ENDBRANCH   6   7
ENDBRANCH   5   6
ENDBRANCH   4   5
ENDBRANCH   3   4
ENDBRANCH   2   3
ENDBRANCH   1   2
BRANCH   1  59
ATOM     59  O   UNL A   1      35.684  22.678  24.734  1.00  0.00    -0.376 OA
BRANCH  59  60
ATOM     60  C   UNL A   1      35.462  23.962  25.305  1.00  0.00     0.202 C 
BRANCH  60  61
ATOM     61  C   UNL A   1      34.464  24.921  24.622  1.00  0.00     0.261 C 
BRANCH  61  62
ATOM     62  O   UNL A   1      34.364  24.867  23.166  1.00  0.00    -0.463 OA
BRANCH  62  63
ATOM     63  C   UNL A   1      33.494  25.775  22.627  1.00  0.00     0.310 C 
ATOM     64  O   UNL A   1      33.317  25.894  21.416  1.00  0.00    -0.252 OA
BRANCH  63  65
ATOM     65  C   UNL A   1      32.843  26.756  23.611  1.00  0.00     0.119 C 
ATOM     66  C   UNL A   1      31.486  26.547  24.311  1.00  0.00     0.100 C 
ATOM     67  C   UNL A   1      32.959  28.278  23.194  1.00  0.00     0.026 C 
ATOM     68  C   UNL A   1      30.888  27.939  24.725  1.00  0.00     0.025 C 
ATOM     69  C   UNL A   1      31.658  28.863  22.664  1.00  0.00    -0.027 C 
ATOM     70  C   UNL A   1      33.157  29.077  24.508  1.00  0.00     0.009 C 
ATOM     71  C   UNL A   1      30.594  28.717  23.469  1.00  0.00    -0.027 C 
ATOM     72  C   UNL A   1      31.965  28.781  25.462  1.00  0.00     0.009 C 
BRANCH  66  73
ATOM     73  C   UNL A   1      30.358  25.646  23.807  1.00  0.00     0.228 C 
ATOM     74  O   UNL A   1      29.317  26.194  23.409  1.00  0.00    -0.274 OA
ATOM     75  N   UNL A   1      30.478  24.322  23.498  1.00  0.00    -0.326 N 
ATOM     76  H   UNL A   1      29.890  24.062  22.753  1.00  0.00     0.169 HD
BRANCH  75  77
ATOM     77  C   UNL A   1      31.234  23.235  23.975  1.00  0.00     0.041 A 
ATOM     78  C   UNL A   1      31.294  23.037  25.349  1.00  0.00     0.026 A 
ATOM     79  C   UNL A   1      32.005  22.401  23.179  1.00  0.00     0.026 A 
ATOM     80  C   UNL A   1      31.983  21.952  25.894  1.00  0.00     0.008 A 
ATOM     81  C   UNL A   1      32.693  21.305  23.698  1.00  0.00     0.008 A 
ATOM     82  C   UNL A   1      32.640  21.039  25.063  1.00  0.00    -0.026 A 
BRANCH  82  83
ATOM     83  C   UNL A   1      33.254  19.783  25.612  1.00  0.00     0.181 C 
BRANCH  83  84
ATOM     84  N   UNL A   1      33.416  18.755  24.609  1.00  0.00    -0.249 N 
ATOM     85  C   UNL A   1      34.548  18.074  24.281  1.00  0.00     0.220 A 
ATOM     86  N   UNL A   1      32.345  18.245  23.968  1.00  0.00    -0.160 NA
ATOM     87  N   UNL A   1      34.257  17.124  23.423  1.00  0.00    -0.224 NA
ATOM     88  C   UNL A   1      32.910  17.267  23.254  1.00  0.00     0.246 A 
ENDBRANCH  83  84
ENDBRANCH  82  83
ENDBRANCH  75  77
ENDBRANCH  66  73
ENDBRANCH  63  65
ENDBRANCH  62  63
ENDBRANCH  61  62
ENDBRANCH  60  61
ENDBRANCH  59  60
ENDBRANCH   1  59
TORSDOF 21
ENDMDL
MODEL 2
REMARK VINA RESULT:     -10.4      3.024      7.188
REMARK SMILES O=C(OCCOCCOCCOC(=O)[C@@H]1[C@H](C(=O)Nc2ccc(Cn3cncn3)cc2)[C@@H]2C=C[C@H]1CC2)c1ccc(-c2c3nc(c(-c4ccccc4)c4ccc([nH]4)c(-c4ccccc4)c4nc(c(-c5ccccc5)c5ccc2[nH]5)C=C4)C=C3)cc1
REMARK SMILES IDX 8 1 7 2 6 3 5 4 4 5 3 6 2 7 1 8 38 9 39 10 85 11 40 12 84 13
REMARK SMILES IDX 41 14 42 15 43 16 78 17 44 18 83 19 77 20 79 21 45 22 82 23
REMARK SMILES IDX 76 24 75 25 46 27 68 28 53 29 67 30 54 31 57 32 66 33 80 34
REMARK SMILES IDX 55 35 56 36 65 38 81 39 58 40 47 41 48 42 52 43 49 44 51 45
REMARK SMILES IDX 50 46 69 47 70 48 74 49 71 50 73 51 72 52 59 53 60 54 64 55
REMARK SMILES IDX 61 56 63 57 62 58 9 59 10 60 11 61 12 62 13 63 14 64 15 65
REMARK SMILES IDX 16 66 35 67 32 68 34 69 36 70 33 71 37 72 17 73 18 74 19 75
REMARK SMILES IDX 20 77 21 78 31 79 22 80 30 81 23 82 24 83 25 84 26 85 29 86
REMARK SMILES IDX 27 87 28 88
REMARK H PARENT 79 26 57 37 19 76
REMARK Flexibility Score: inf
ROOT
ATOM      1  C   UNL A   1      32.179  28.811  23.670  1.00  0.00     0.188 C 
ENDROOT
BRANCH   1   2
ATOM      2  C   UNL A   1      31.684  29.532  24.926  1.00  0.00     0.188 C 
BRANCH   2   3
ATOM      3  O   UNL A   1      32.252  29.349  26.207  1.00  0.00    -0.376 OA
BRANCH   3   4
ATOM      4  C   UNL A   1      33.658  29.228  26.301  1.00  0.00     0.202 C 
BRANCH   4   5
ATOM      5  C   UNL A   1      34.385  30.074  27.358  1.00  0.00     0.261 C 
BRANCH   5   6
ATOM      6  O   UNL A   1      35.404  29.387  28.100  1.00  0.00    -0.460 OA
BRANCH   6   7
ATOM      7  C   UNL A   1      36.618  29.766  28.538  1.00  0.00     0.338 C 
ATOM      8  O   UNL A   1      36.682  30.855  29.130  1.00  0.00    -0.246 OA
BRANCH   7   9
ATOM      9  C   UNL A   1      37.906  29.019  28.417  1.00  0.00     0.060 A 
ATOM     10  C   UNL A   1      38.481  28.141  29.335  1.00  0.00     0.016 A 
ATOM     11  C   UNL A   1      38.657  29.335  27.261  1.00  0.00     0.016 A 
ATOM     12  C   UNL A   1      39.784  27.672  29.135  1.00  0.00     0.010 A 
ATOM     13  C   UNL A   1      39.922  28.827  27.024  1.00  0.00     0.010 A 
ATOM     14  C   UNL A   1      40.515  28.060  28.006  1.00  0.00    -0.014 A 
BRANCH  14  15
ATOM     15  C   UNL A   1      41.914  27.682  27.888  1.00  0.00     0.031 A 
ATOM     16  C   UNL A   1      42.181  26.441  27.129  1.00  0.00     0.074 A 
ATOM     17  C   UNL A   1      42.933  28.404  28.398  1.00  0.00     0.049 A 
ATOM     18  N   UNL A   1      42.429  25.277  27.625  1.00  0.00    -0.248 NA
ATOM     19  C   UNL A   1      42.056  26.464  25.668  1.00  0.00     0.031 C 
ATOM     20  C   UNL A   1      42.924  29.767  28.933  1.00  0.00     0.029 A 
ATOM     21  N   UNL A   1      44.246  28.051  28.486  1.00  0.00    -0.354 N 
ATOM     22  C   UNL A   1      42.683  24.442  26.544  1.00  0.00     0.074 A 
ATOM     23  C   UNL A   1      42.295  25.184  25.369  1.00  0.00     0.031 C 
ATOM     24  C   UNL A   1      44.199  30.194  29.103  1.00  0.00     0.029 A 
ATOM     25  C   UNL A   1      45.098  29.081  28.853  1.00  0.00     0.049 A 
ATOM     26  H   UNL A   1      44.564  27.138  28.302  1.00  0.00     0.167 HD
ATOM     27  C   UNL A   1      43.398  23.294  26.701  1.00  0.00     0.031 A 
ATOM     28  C   UNL A   1      46.450  29.017  28.942  1.00  0.00     0.031 A 
ATOM     29  C   UNL A   1      43.544  22.944  28.093  1.00  0.00     0.049 A 
ATOM     30  C   UNL A   1      46.816  27.592  29.120  1.00  0.00     0.074 A 
ATOM     31  C   UNL A   1      42.668  22.676  29.127  1.00  0.00     0.029 A 
ATOM     32  N   UNL A   1      44.749  23.238  28.691  1.00  0.00    -0.354 N 
ATOM     33  N   UNL A   1      46.555  26.919  30.203  1.00  0.00    -0.248 NA
ATOM     34  C   UNL A   1      47.080  26.791  27.936  1.00  0.00     0.031 C 
ATOM     35  C   UNL A   1      43.245  23.306  30.268  1.00  0.00     0.029 A 
ATOM     36  C   UNL A   1      44.473  23.852  29.885  1.00  0.00     0.049 A 
ATOM     37  H   UNL A   1      45.643  23.043  28.327  1.00  0.00     0.167 HD
ATOM     38  C   UNL A   1      46.170  25.666  29.753  1.00  0.00     0.074 A 
ATOM     39  C   UNL A   1      46.617  25.611  28.361  1.00  0.00     0.031 C 
ATOM     40  C   UNL A   1      45.282  24.903  30.458  1.00  0.00     0.031 A 
BRANCH  27  41
ATOM     41  C   UNL A   1      44.309  22.716  25.648  1.00  0.00    -0.014 A 
ATOM     42  C   UNL A   1      44.278  21.326  25.424  1.00  0.00     0.009 A 
ATOM     43  C   UNL A   1      45.387  23.424  25.086  1.00  0.00     0.009 A 
ATOM     44  C   UNL A   1      45.321  20.672  24.759  1.00  0.00     0.001 A 
ATOM     45  C   UNL A   1      46.409  22.778  24.384  1.00  0.00     0.001 A 
ATOM     46  C   UNL A   1      46.392  21.397  24.250  1.00  0.00     0.000 A 
ENDBRANCH  27  41
BRANCH  28  47
ATOM     47  C   UNL A   1      47.457  30.059  28.664  1.00  0.00    -0.014 A 
ATOM     48  C   UNL A   1      47.069  31.352  28.276  1.00  0.00     0.009 A 
ATOM     49  C   UNL A   1      48.792  29.869  29.068  1.00  0.00     0.009 A 
ATOM     50  C   UNL A   1      47.971  32.424  28.341  1.00  0.00     0.001 A 
ATOM     51  C   UNL A   1      49.691  30.938  29.130  1.00  0.00     0.001 A 
ATOM     52  C   UNL A   1      49.275  32.219  28.784  1.00  0.00     0.000 A 
ENDBRANCH  28  47
BRANCH  40  53
ATOM     53  C   UNL A   1      44.927  25.341  31.859  1.00  0.00    -0.014 A 
ATOM     54  C   UNL A   1      44.079  26.428  32.138  1.00  0.00     0.009 A 
ATOM     55  C   UNL A   1      45.351  24.539  32.930  1.00  0.00     0.009 A 
ATOM     56  C   UNL A   1      43.702  26.723  33.454  1.00  0.00     0.001 A 
ATOM     57  C   UNL A   1      44.956  24.820  34.240  1.00  0.00     0.001 A 
ATOM     58  C   UNL A   1      44.138  25.916  34.502  1.00  0.00     0.000 A 
ENDBRANCH  40  53
ENDBRANCH  14  15
ENDBRANCH   7   9
ENDBRANCH   6   7
ENDBRANCH   5   6
ENDBRANCH   4   5
ENDBRANCH   3   4
ENDBRANCH   2   3
ENDBRANCH   1   2
BRANCH   1  59
ATOM     59  O   UNL A   1      31.246  28.133  22.866  1.00  0.00    -0.376 OA
BRANCH  59  60
ATOM     60  C   UNL A   1      31.762  27.155  21.971  1.00  0.00     0.202 C 
BRANCH  60  61
ATOM     61  C   UNL A   1      33.275  26.850  21.991  1.00  0.00     0.261 C 
BRANCH  61  62
ATOM     62  O   UNL A   1      33.681  25.450  22.067  1.00  0.00    -0.463 OA
BRANCH  62  63
ATOM     63  C   UNL A   1      32.762  24.628  22.659  1.00  0.00     0.310 C 
ATOM     64  O   UNL A   1      32.349  23.597  22.131  1.00  0.00    -0.252 OA
BRANCH  63  65
ATOM     65  C   UNL A   1      32.148  25.132  23.971  1.00  0.00     0.119 C 
ATOM     66  C   UNL A   1      32.931  25.436  25.264  1.00  0.00     0.100 C 
ATOM     67  C   UNL A   1      30.784  24.435  24.369  1.00  0.00     0.026 C 
ATOM     68  C   UNL A   1      31.968  25.333  26.499  1.00  0.00     0.025 C 
ATOM     69  C   UNL A   1      30.924  23.432  25.506  1.00  0.00    -0.027 C 
ATOM     70  C   UNL A   1      29.905  25.534  25.019  1.00  0.00     0.009 C 
ATOM     71  C   UNL A   1      31.506  23.904  26.619  1.00  0.00    -0.027 C 
ATOM     72  C   UNL A   1      30.670  26.142  26.229  1.00  0.00     0.009 C 
BRANCH  66  73
ATOM     73  C   UNL A   1      34.291  24.844  25.636  1.00  0.00     0.228 C 
ATOM     74  O   UNL A   1      35.202  25.635  25.932  1.00  0.00    -0.274 OA
ATOM     75  N   UNL A   1      34.531  23.534  25.937  1.00  0.00    -0.326 N 
ATOM     76  H   UNL A   1      35.239  23.435  26.613  1.00  0.00     0.169 HD
BRANCH  75  77
ATOM     77  C   UNL A   1      34.019  22.290  25.524  1.00  0.00     0.041 A 
ATOM     78  C   UNL A   1      33.641  21.383  26.507  1.00  0.00     0.026 A 
ATOM     79  C   UNL A   1      33.953  21.863  24.206  1.00  0.00     0.026 A 
ATOM     80  C   UNL A   1      33.079  20.149  26.175  1.00  0.00     0.008 A 
ATOM     81  C   UNL A   1      33.386  20.640  23.849  1.00  0.00     0.008 A 
ATOM     82  C   UNL A   1      32.891  19.793  24.836  1.00  0.00    -0.026 A 
BRANCH  82  83
ATOM     83  C   UNL A   1      32.149  18.544  24.456  1.00  0.00     0.181 C 
BRANCH  83  84
ATOM     84  N   UNL A   1      32.973  17.358  24.534  1.00  0.00    -0.249 N 
ATOM     85  C   UNL A   1      33.755  16.815  23.562  1.00  0.00     0.220 A 
ATOM     86  N   UNL A   1      33.161  16.728  25.711  1.00  0.00    -0.160 NA
ATOM     87  N   UNL A   1      34.455  15.825  24.064  1.00  0.00    -0.224 NA
ATOM     88  C   UNL A   1      34.060  15.801  25.369  1.00  0.00     0.246 A 
ENDBRANCH  83  84
ENDBRANCH  82  83
ENDBRANCH  75  77
ENDBRANCH  66  73
ENDBRANCH  63  65
ENDBRANCH  62  63
ENDBRANCH  61  62
ENDBRANCH  60  61
ENDBRANCH  59  60
ENDBRANCH   1  59
TORSDOF 21
ENDMDL
MODEL 3
REMARK VINA RESULT:     -10.2      5.590     10.388
REMARK SMILES O=C(OCCOCCOCCOC(=O)[C@@H]1[C@H](C(=O)Nc2ccc(Cn3cncn3)cc2)[C@@H]2C=C[C@H]1CC2)c1ccc(-c2c3nc(c(-c4ccccc4)c4ccc([nH]4)c(-c4ccccc4)c4nc(c(-c5ccccc5)c5ccc2[nH]5)C=C4)C=C3)cc1
REMARK SMILES IDX 8 1 7 2 6 3 5 4 4 5 3 6 2 7 1 8 38 9 39 10 85 11 40 12 84 13
REMARK SMILES IDX 41 14 42 15 43 16 78 17 44 18 83 19 77 20 79 21 45 22 82 23
REMARK SMILES IDX 76 24 75 25 46 27 68 28 53 29 67 30 54 31 57 32 66 33 80 34
REMARK SMILES IDX 55 35 56 36 65 38 81 39 58 40 47 41 48 42 52 43 49 44 51 45
REMARK SMILES IDX 50 46 69 47 70 48 74 49 71 50 73 51 72 52 59 53 60 54 64 55
REMARK SMILES IDX 61 56 63 57 62 58 9 59 10 60 11 61 12 62 13 63 14 64 15 65
REMARK SMILES IDX 16 66 35 67 32 68 34 69 36 70 33 71 37 72 17 73 18 74 19 75
REMARK SMILES IDX 20 77 21 78 31 79 22 80 30 81 23 82 24 83 25 84 26 85 29 86
REMARK SMILES IDX 27 87 28 88
REMARK H PARENT 79 26 57 37 19 76
REMARK Flexibility Score: inf
ROOT
ATOM      1  C   UNL A   1      34.830  31.544  28.022  1.00  0.00     0.188 C 
ENDROOT
BRANCH   1   2
ATOM      2  C   UNL A   1      34.926  31.863  29.516  1.00  0.00     0.188 C 
BRANCH   2   3
ATOM      3  O   UNL A   1      36.140  31.861  30.240  1.00  0.00    -0.376 OA
BRANCH   3   4
ATOM      4  C   UNL A   1      36.395  32.945  31.113  1.00  0.00     0.202 C 
BRANCH   4   5
ATOM      5  C   UNL A   1      37.622  33.825  30.830  1.00  0.00     0.261 C 
BRANCH   5   6
ATOM      6  O   UNL A   1      38.886  33.256  31.200  1.00  0.00    -0.460 OA
BRANCH   6   7
ATOM      7  C   UNL A   1      40.086  33.239  30.593  1.00  0.00     0.338 C 
ATOM      8  O   UNL A   1      40.714  32.169  30.628  1.00  0.00    -0.246 OA
BRANCH   7   9
ATOM      9  C   UNL A   1      40.750  34.356  29.855  1.00  0.00     0.060 A 
ATOM     10  C   UNL A   1      40.343  34.966  28.669  1.00  0.00     0.016 A 
ATOM     11  C   UNL A   1      41.993  34.756  30.399  1.00  0.00     0.016 A 
ATOM     12  C   UNL A   1      41.188  35.875  28.022  1.00  0.00     0.010 A 
ATOM     13  C   UNL A   1      42.808  35.699  29.799  1.00  0.00     0.010 A 
ATOM     14  C   UNL A   1      42.438  36.196  28.565  1.00  0.00    -0.014 A 
BRANCH  14  15
ATOM     15  C   UNL A   1      43.360  37.027  27.809  1.00  0.00     0.031 A 
ATOM     16  C   UNL A   1      44.663  36.408  27.485  1.00  0.00     0.074 A 
ATOM     17  C   UNL A   1      43.072  38.275  27.386  1.00  0.00     0.049 A 
ATOM     18  N   UNL A   1      45.780  36.606  28.099  1.00  0.00    -0.248 NA
ATOM     19  C   UNL A   1      44.720  35.382  26.440  1.00  0.00     0.031 C 
ATOM     20  C   UNL A   1      41.781  38.967  27.355  1.00  0.00     0.029 A 
ATOM     21  N   UNL A   1      43.918  39.184  26.826  1.00  0.00    -0.354 N 
ATOM     22  C   UNL A   1      46.736  35.874  27.407  1.00  0.00     0.074 A 
ATOM     23  C   UNL A   1      46.006  35.029  26.493  1.00  0.00     0.031 C 
ATOM     24  C   UNL A   1      41.896  40.103  26.626  1.00  0.00     0.029 A 
ATOM     25  C   UNL A   1      43.295  40.301  26.290  1.00  0.00     0.049 A 
ATOM     26  H   UNL A   1      44.894  39.058  26.803  1.00  0.00     0.167 HD
ATOM     27  C   UNL A   1      48.058  36.193  27.495  1.00  0.00     0.031 A 
ATOM     28  C   UNL A   1      43.894  41.313  25.614  1.00  0.00     0.031 A 
ATOM     29  C   UNL A   1      48.314  37.106  28.582  1.00  0.00     0.049 A 
ATOM     30  C   UNL A   1      45.323  41.322  26.005  1.00  0.00     0.074 A 
ATOM     31  C   UNL A   1      48.112  37.073  29.948  1.00  0.00     0.029 A 
ATOM     32  N   UNL A   1      48.483  38.433  28.260  1.00  0.00    -0.354 N 
ATOM     33  N   UNL A   1      45.735  41.659  27.193  1.00  0.00    -0.248 NA
ATOM     34  C   UNL A   1      46.262  40.540  25.218  1.00  0.00     0.031 C 
ATOM     35  C   UNL A   1      47.673  38.388  30.283  1.00  0.00     0.029 A 
ATOM     36  C   UNL A   1      47.709  39.164  29.123  1.00  0.00     0.049 A 
ATOM     37  H   UNL A   1      49.055  38.791  27.543  1.00  0.00     0.167 HD
ATOM     38  C   UNL A   1      46.758  40.768  27.475  1.00  0.00     0.074 A 
ATOM     39  C   UNL A   1      47.111  40.177  26.184  1.00  0.00     0.031 C 
ATOM     40  C   UNL A   1      47.030  40.388  28.759  1.00  0.00     0.031 A 
BRANCH  27  41
ATOM     41  C   UNL A   1      49.045  36.018  26.368  1.00  0.00    -0.014 A 
ATOM     42  C   UNL A   1      50.300  35.450  26.659  1.00  0.00     0.009 A 
ATOM     43  C   UNL A   1      48.909  36.647  25.118  1.00  0.00     0.009 A 
ATOM     44  C   UNL A   1      51.384  35.592  25.787  1.00  0.00     0.001 A 
ATOM     45  C   UNL A   1      49.980  36.754  24.225  1.00  0.00     0.001 A 
ATOM     46  C   UNL A   1      51.227  36.255  24.575  1.00  0.00     0.000 A 
ENDBRANCH  27  41
BRANCH  28  47
ATOM     47  C   UNL A   1      43.379  42.127  24.496  1.00  0.00    -0.014 A 
ATOM     48  C   UNL A   1      44.253  42.839  23.659  1.00  0.00     0.009 A 
ATOM     49  C   UNL A   1      42.048  41.966  24.069  1.00  0.00     0.009 A 
ATOM     50  C   UNL A   1      43.823  43.326  22.417  1.00  0.00     0.001 A 
ATOM     51  C   UNL A   1      41.619  42.454  22.831  1.00  0.00     0.001 A 
ATOM     52  C   UNL A   1      42.511  43.118  21.996  1.00  0.00     0.000 A 
ENDBRANCH  28  47
BRANCH  40  53
ATOM     53  C   UNL A   1      46.366  41.150  29.882  1.00  0.00    -0.014 A 
ATOM     54  C   UNL A   1      45.044  40.913  30.300  1.00  0.00     0.009 A 
ATOM     55  C   UNL A   1      47.150  42.039  30.632  1.00  0.00     0.009 A 
ATOM     56  C   UNL A   1      44.516  41.578  31.413  1.00  0.00     0.001 A 
ATOM     57  C   UNL A   1      46.630  42.684  31.757  1.00  0.00     0.001 A 
ATOM     58  C   UNL A   1      45.311  42.460  32.142  1.00  0.00     0.000 A 
ENDBRANCH  40  53
ENDBRANCH  14  15
ENDBRANCH   7   9
ENDBRANCH   6   7
ENDBRANCH   5   6
ENDBRANCH   4   5
ENDBRANCH   3   4
ENDBRANCH   2   3
ENDBRANCH   1   2
BRANCH   1  59
ATOM     59  O   UNL A   1      33.574  31.223  27.477  1.00  0.00    -0.376 OA
BRANCH  59  60
ATOM     60  C   UNL A   1      33.526  30.108  26.594  1.00  0.00     0.202 C 
BRANCH  60  61
ATOM     61  C   UNL A   1      33.339  28.695  27.185  1.00  0.00     0.261 C 
BRANCH  61  62
ATOM     62  O   UNL A   1      33.378  27.565  26.261  1.00  0.00    -0.463 OA
BRANCH  62  63
ATOM     63  C   UNL A   1      32.295  26.734  26.339  1.00  0.00     0.310 C 
ATOM     64  O   UNL A   1      31.169  27.130  26.635  1.00  0.00    -0.252 OA
BRANCH  63  65
ATOM     65  C   UNL A   1      32.578  25.235  26.181  1.00  0.00     0.119 C 
ATOM     66  C   UNL A   1      33.395  24.598  25.039  1.00  0.00     0.100 C 
ATOM     67  C   UNL A   1      31.343  24.296  26.492  1.00  0.00     0.026 C 
ATOM     68  C   UNL A   1      32.975  23.095  24.866  1.00  0.00     0.025 C 
ATOM     69  C   UNL A   1      30.700  23.706  25.245  1.00  0.00    -0.027 C 
ATOM     70  C   UNL A   1      31.917  23.033  27.183  1.00  0.00     0.009 C 
ATOM     71  C   UNL A   1      31.536  23.057  24.420  1.00  0.00    -0.027 C 
ATOM     72  C   UNL A   1      32.974  22.382  26.246  1.00  0.00     0.009 C 
BRANCH  66  73
ATOM     73  C   UNL A   1      33.624  25.218  23.660  1.00  0.00     0.228 C 
ATOM     74  O   UNL A   1      34.690  24.954  23.080  1.00  0.00    -0.274 OA
ATOM     75  N   UNL A   1      32.667  25.808  22.887  1.00  0.00    -0.326 N 
ATOM     76  H   UNL A   1      32.829  25.666  21.927  1.00  0.00     0.169 HD
BRANCH  75  77
ATOM     77  C   UNL A   1      31.505  26.568  23.118  1.00  0.00     0.041 A 
ATOM     78  C   UNL A   1      31.634  27.950  23.186  1.00  0.00     0.026 A 
ATOM     79  C   UNL A   1      30.252  26.033  23.379  1.00  0.00     0.026 A 
ATOM     80  C   UNL A   1      30.520  28.772  23.363  1.00  0.00     0.008 A 
ATOM     81  C   UNL A   1      29.123  26.834  23.549  1.00  0.00     0.008 A 
ATOM     82  C   UNL A   1      29.242  28.219  23.485  1.00  0.00    -0.026 A 
BRANCH  82  83
ATOM     83  C   UNL A   1      28.015  29.084  23.520  1.00  0.00     0.181 C 
BRANCH  83  84
ATOM     84  N   UNL A   1      28.098  30.209  22.615  1.00  0.00    -0.249 N 
ATOM     85  C   UNL A   1      28.299  31.519  22.922  1.00  0.00     0.220 A 
ATOM     86  N   UNL A   1      28.130  30.017  21.281  1.00  0.00    -0.160 NA
ATOM     87  N   UNL A   1      28.454  32.211  21.818  1.00  0.00    -0.224 NA
ATOM     88  C   UNL A   1      28.338  31.262  20.843  1.00  0.00     0.246 A 
ENDBRANCH  83  84
ENDBRANCH  82  83
ENDBRANCH  75  77
ENDBRANCH  66  73
ENDBRANCH  63  65
ENDBRANCH  62  63
ENDBRANCH  61  62
ENDBRANCH  60  61
ENDBRANCH  59  60
ENDBRANCH   1  59
TORSDOF 21
ENDMDL
