MODEL 1
REMARK VINA RESULT:     -11.0      0.000      0.000
REMARK SMILES COc1c(C)cccc1C(=O)NCc1ccc(C(=O)OCCOCCOCCOC(=O)c2ccc(-c3c4nc(c(-c5ccccc5)c5ccc([nH]5)c(-c5ccccc5)c5nc(c(-c6ccccc6)c6ccc3[nH]6)C=C5)C=C4)cc2)cc1
REMARK SMILES IDX 24 1 23 2 22 3 21 4 20 5 18 6 19 7 17 8 14 9 15 10 81 11
REMARK SMILES IDX 16 12 80 13 13 14 12 15 10 16 11 17 9 19 3 20 4 21 5 22 6 23
REMARK SMILES IDX 8 24 7 25 2 26 1 27 25 28 26 29 27 30 28 31 29 32 30 33
REMARK SMILES IDX 31 34 32 35 33 36 79 37 34 38 78 39 35 40 36 41 37 42 72 43
REMARK SMILES IDX 38 44 77 45 71 46 73 47 39 48 76 49 70 50 69 51 40 53 62 54
REMARK SMILES IDX 47 55 61 56 48 57 51 58 60 59 74 60 49 61 50 62 59 64 75 65
REMARK SMILES IDX 52 66 41 67 42 68 46 69 43 70 45 71 44 72 63 73 64 74 68 75
REMARK SMILES IDX 65 76 67 77 66 78 53 79 54 80 58 81 55 82 57 83 56 84
REMARK H PARENT 12 18 73 52 51 63
REMARK Flexibility Score: inf
ROOT
ATOM      1  C   UNL A   1      40.994  22.748  27.245  1.00  0.00     0.188 C 
ENDROOT
BRANCH   1   2
ATOM      2  O   UNL A   1      40.073  21.642  27.373  1.00  0.00    -0.376 OA
BRANCH   2   3
ATOM      3  C   UNL A   1      39.933  20.783  26.225  1.00  0.00     0.202 C 
BRANCH   3   4
ATOM      4  C   UNL A   1      38.588  20.927  25.267  1.00  0.00     0.261 C 
BRANCH   4   5
ATOM      5  O   UNL A   1      37.517  22.172  24.917  1.00  0.00    -0.460 OA
BRANCH   5   6
ATOM      6  C   UNL A   1      36.591  22.589  23.962  1.00  0.00     0.338 C 
ATOM      7  O   UNL A   1      36.817  22.893  22.803  1.00  0.00    -0.246 OA
BRANCH   6   8
ATOM      8  C   UNL A   1      35.168  22.948  24.159  1.00  0.00     0.060 A 
ATOM      9  C   UNL A   1      32.436  23.485  23.682  1.00  0.00    -0.029 A 
ATOM     10  C   UNL A   1      32.870  22.161  23.778  1.00  0.00     0.006 A 
ATOM     11  C   UNL A   1      33.380  24.522  23.744  1.00  0.00     0.006 A 
ATOM     12  C   UNL A   1      34.214  21.900  24.013  1.00  0.00     0.016 A 
ATOM     13  C   UNL A   1      34.743  24.255  23.960  1.00  0.00     0.016 A 
BRANCH   9  14
ATOM     14  C   UNL A   1      30.950  23.676  23.735  1.00  0.00     0.152 C 
BRANCH  14  15
ATOM     15  N   UNL A   1      30.340  23.749  25.028  1.00  0.00    -0.348 N 
ATOM     16  C   UNL A   1      30.225  24.830  25.863  1.00  0.00     0.255 C 
ATOM     17  O   UNL A   1      29.622  24.645  26.923  1.00  0.00    -0.269 OA
ATOM     18  H   UNL A   1      29.950  22.909  25.363  1.00  0.00     0.164 HD
BRANCH  16  19
ATOM     19  C   UNL A   1      30.709  26.219  25.544  1.00  0.00     0.082 A 
ATOM     20  C   UNL A   1      30.385  27.041  24.443  1.00  0.00     0.134 A 
ATOM     21  C   UNL A   1      30.886  28.363  24.360  1.00  0.00    -0.008 A 
ATOM     22  C   UNL A   1      30.443  29.324  23.290  1.00  0.00     0.048 C 
ATOM     23  C   UNL A   1      31.829  28.801  25.300  1.00  0.00     0.007 A 
ATOM     24  C   UNL A   1      31.639  26.715  26.482  1.00  0.00     0.018 A 
ATOM     25  C   UNL A   1      32.208  27.980  26.353  1.00  0.00     0.001 A 
BRANCH  20  26
ATOM     26  O   UNL A   1      29.475  26.660  23.491  1.00  0.00    -0.496 OA
ATOM     27  C   UNL A   1      28.123  26.887  23.863  1.00  0.00     0.278 C 
ENDBRANCH  20  26
ENDBRANCH  16  19
ENDBRANCH  14  15
ENDBRANCH   9  14
ENDBRANCH   6   8
ENDBRANCH   5   6
ENDBRANCH   4   5
ENDBRANCH   3   4
ENDBRANCH   2   3
ENDBRANCH   1   2
BRANCH   1  28
ATOM     28  C   UNL A   1      42.397  22.218  27.499  1.00  0.00     0.188 C 
BRANCH  28  29
ATOM     29  O   UNL A   1      43.242  23.263  27.042  1.00  0.00    -0.376 OA
BRANCH  29  30
ATOM     30  C   UNL A   1      44.286  22.890  26.171  1.00  0.00     0.202 C 
BRANCH  30  31
ATOM     31  C   UNL A   1      44.343  23.884  25.014  1.00  0.00     0.261 C 
BRANCH  31  32
ATOM     32  O   UNL A   1      43.163  24.726  25.056  1.00  0.00    -0.460 OA
BRANCH  32  33
ATOM     33  C   UNL A   1      43.408  26.074  25.082  1.00  0.00     0.338 C 
ATOM     34  O   UNL A   1      44.522  26.575  24.991  1.00  0.00    -0.246 OA
BRANCH  33  35
ATOM     35  C   UNL A   1      42.182  26.830  25.487  1.00  0.00     0.060 A 
ATOM     36  C   UNL A   1      42.168  28.199  25.718  1.00  0.00     0.016 A 
ATOM     37  C   UNL A   1      41.088  26.165  25.942  1.00  0.00     0.016 A 
ATOM     38  C   UNL A   1      41.206  28.817  26.608  1.00  0.00     0.010 A 
ATOM     39  C   UNL A   1      40.250  26.810  26.888  1.00  0.00     0.010 A 
ATOM     40  C   UNL A   1      40.266  28.125  27.388  1.00  0.00    -0.014 A 
BRANCH  40  41
ATOM     41  C   UNL A   1      39.559  28.789  28.729  1.00  0.00     0.031 A 
ATOM     42  C   UNL A   1      38.480  29.955  28.982  1.00  0.00     0.074 A 
ATOM     43  C   UNL A   1      39.939  28.317  29.947  1.00  0.00     0.049 A 
ATOM     44  N   UNL A   1      38.762  31.120  29.530  1.00  0.00    -0.248 NA
ATOM     45  C   UNL A   1      37.012  29.931  28.689  1.00  0.00     0.031 C 
ATOM     46  C   UNL A   1      39.518  28.787  31.272  1.00  0.00     0.029 A 
ATOM     47  N   UNL A   1      40.985  27.440  30.236  1.00  0.00    -0.354 N 
ATOM     48  C   UNL A   1      37.629  31.945  29.395  1.00  0.00     0.074 A 
ATOM     49  C   UNL A   1      36.618  31.197  28.733  1.00  0.00     0.031 C 
ATOM     50  C   UNL A   1      40.516  28.533  32.137  1.00  0.00     0.029 A 
ATOM     51  C   UNL A   1      41.609  27.941  31.383  1.00  0.00     0.049 A 
ATOM     52  H   UNL A   1      41.233  26.629  29.734  1.00  0.00     0.167 HD
ATOM     53  C   UNL A   1      37.418  33.149  29.990  1.00  0.00     0.031 A 
ATOM     54  C   UNL A   1      42.892  28.390  31.320  1.00  0.00     0.031 A 
ATOM     55  C   UNL A   1      38.255  33.233  31.147  1.00  0.00     0.049 A 
ATOM     56  C   UNL A   1      43.007  29.849  31.699  1.00  0.00     0.074 A 
ATOM     57  C   UNL A   1      38.076  32.644  32.388  1.00  0.00     0.029 A 
ATOM     58  N   UNL A   1      39.602  33.466  30.985  1.00  0.00    -0.354 N 
ATOM     59  N   UNL A   1      42.023  30.709  31.673  1.00  0.00    -0.248 NA
ATOM     60  C   UNL A   1      44.267  30.442  32.133  1.00  0.00     0.031 C 
ATOM     61  C   UNL A   1      39.363  32.367  32.905  1.00  0.00     0.029 A 
ATOM     62  C   UNL A   1      40.297  32.904  32.037  1.00  0.00     0.049 A 
ATOM     63  H   UNL A   1      40.007  33.959  30.234  1.00  0.00     0.167 HD
ATOM     64  C   UNL A   1      42.497  31.939  32.057  1.00  0.00     0.074 A 
ATOM     65  C   UNL A   1      43.899  31.714  32.356  1.00  0.00     0.031 C 
ATOM     66  C   UNL A   1      41.732  33.066  32.103  1.00  0.00     0.031 A 
BRANCH  53  67
ATOM     67  C   UNL A   1      36.132  33.900  29.733  1.00  0.00    -0.014 A 
ATOM     68  C   UNL A   1      35.223  34.162  30.767  1.00  0.00     0.009 A 
ATOM     69  C   UNL A   1      35.735  34.259  28.423  1.00  0.00     0.009 A 
ATOM     70  C   UNL A   1      33.937  34.656  30.500  1.00  0.00     0.001 A 
ATOM     71  C   UNL A   1      34.442  34.737  28.153  1.00  0.00     0.001 A 
ATOM     72  C   UNL A   1      33.535  34.914  29.191  1.00  0.00     0.000 A 
ENDBRANCH  53  67
BRANCH  54  73
ATOM     73  C   UNL A   1      43.798  27.657  30.369  1.00  0.00    -0.014 A 
ATOM     74  C   UNL A   1      44.074  26.290  30.624  1.00  0.00     0.009 A 
ATOM     75  C   UNL A   1      44.193  28.172  29.125  1.00  0.00     0.009 A 
ATOM     76  C   UNL A   1      44.622  25.450  29.648  1.00  0.00     0.001 A 
ATOM     77  C   UNL A   1      44.769  27.331  28.153  1.00  0.00     0.001 A 
ATOM     78  C   UNL A   1      44.971  25.973  28.409  1.00  0.00     0.000 A 
ENDBRANCH  54  73
BRANCH  66  79
ATOM     79  C   UNL A   1      42.251  34.471  32.268  1.00  0.00    -0.014 A 
ATOM     80  C   UNL A   1      42.210  35.173  33.477  1.00  0.00     0.009 A 
ATOM     81  C   UNL A   1      42.977  35.064  31.207  1.00  0.00     0.009 A 
ATOM     82  C   UNL A   1      42.814  36.427  33.605  1.00  0.00     0.001 A 
ATOM     83  C   UNL A   1      43.633  36.286  31.351  1.00  0.00     0.001 A 
ATOM     84  C   UNL A   1      43.536  36.977  32.549  1.00  0.00     0.000 A 
ENDBRANCH  66  79
ENDBRANCH  40  41
ENDBRANCH  33  35
ENDBRANCH  32  33
ENDBRANCH  31  32
ENDBRANCH  30  31
ENDBRANCH  29  30
ENDBRANCH  28  29
ENDBRANCH   1  28
TORSDOF 21
ENDMDL
MODEL 2
REMARK VINA RESULT:     -10.6      1.651      2.405
REMARK SMILES COc1c(C)cccc1C(=O)NCc1ccc(C(=O)OCCOCCOCCOC(=O)c2ccc(-c3c4nc(c(-c5ccccc5)c5ccc([nH]5)c(-c5ccccc5)c5nc(c(-c6ccccc6)c6ccc3[nH]6)C=C5)C=C4)cc2)cc1
REMARK SMILES IDX 24 1 23 2 22 3 21 4 20 5 18 6 19 7 17 8 14 9 15 10 81 11
REMARK SMILES IDX 16 12 80 13 13 14 12 15 10 16 11 17 9 19 3 20 4 21 5 22 6 23
REMARK SMILES IDX 8 24 7 25 2 26 1 27 25 28 26 29 27 30 28 31 29 32 30 33
REMARK SMILES IDX 31 34 32 35 33 36 79 37 34 38 78 39 35 40 36 41 37 42 72 43
REMARK SMILES IDX 38 44 77 45 71 46 73 47 39 48 76 49 70 50 69 51 40 53 62 54
REMARK SMILES IDX 47 55 61 56 48 57 51 58 60 59 74 60 49 61 50 62 59 64 75 65
REMARK SMILES IDX 52 66 41 67 42 68 46 69 43 70 45 71 44 72 63 73 64 74 68 75
REMARK SMILES IDX 65 76 67 77 66 78 53 79 54 80 58 81 55 82 57 83 56 84
REMARK H PARENT 12 18 73 52 51 63
REMARK Flexibility Score: inf
ROOT
ATOM      1  C   UNL A   1      41.066  23.350  27.346  1.00  0.00     0.188 C 
ENDROOT
BRANCH   1   2
ATOM      2  O   UNL A   1      40.356  22.092  27.382  1.00  0.00    -0.376 OA
BRANCH   2   3
ATOM      3  C   UNL A   1      39.950  21.544  26.114  1.00  0.00     0.202 C 
BRANCH   3   4
ATOM      4  C   UNL A   1      38.389  21.763  25.600  1.00  0.00     0.261 C 
BRANCH   4   5
ATOM      5  O   UNL A   1      37.157  22.832  25.997  1.00  0.00    -0.460 OA
BRANCH   5   6
ATOM      6  C   UNL A   1      35.778  22.898  26.189  1.00  0.00     0.338 C 
ATOM      7  O   UNL A   1      35.120  22.279  27.009  1.00  0.00    -0.246 OA
BRANCH   6   8
ATOM      8  C   UNL A   1      34.763  23.567  25.342  1.00  0.00     0.060 A 
ATOM      9  C   UNL A   1      33.456  24.753  23.136  1.00  0.00    -0.029 A 
ATOM     10  C   UNL A   1      33.515  23.361  23.234  1.00  0.00     0.006 A 
ATOM     11  C   UNL A   1      34.117  25.536  24.096  1.00  0.00     0.006 A 
ATOM     12  C   UNL A   1      34.158  22.780  24.319  1.00  0.00     0.016 A 
ATOM     13  C   UNL A   1      34.786  24.946  25.182  1.00  0.00     0.016 A 
BRANCH   9  14
ATOM     14  C   UNL A   1      32.494  25.282  22.116  1.00  0.00     0.152 C 
BRANCH  14  15
ATOM     15  N   UNL A   1      31.098  25.204  22.422  1.00  0.00    -0.348 N 
ATOM     16  C   UNL A   1      30.386  25.904  23.361  1.00  0.00     0.255 C 
ATOM     17  O   UNL A   1      29.173  25.679  23.411  1.00  0.00    -0.269 OA
ATOM     18  H   UNL A   1      30.579  24.562  21.885  1.00  0.00     0.164 HD
BRANCH  16  19
ATOM     19  C   UNL A   1      30.959  26.962  24.264  1.00  0.00     0.082 A 
ATOM     20  C   UNL A   1      31.000  26.998  25.675  1.00  0.00     0.134 A 
ATOM     21  C   UNL A   1      31.660  28.053  26.348  1.00  0.00    -0.008 A 
ATOM     22  C   UNL A   1      31.864  28.052  27.840  1.00  0.00     0.048 C 
ATOM     23  C   UNL A   1      32.143  29.144  25.612  1.00  0.00     0.007 A 
ATOM     24  C   UNL A   1      31.485  28.068  23.563  1.00  0.00     0.018 A 
ATOM     25  C   UNL A   1      32.052  29.154  24.227  1.00  0.00     0.001 A 
BRANCH  20  26
ATOM     26  O   UNL A   1      30.536  25.963  26.445  1.00  0.00    -0.496 OA
ATOM     27  C   UNL A   1      31.355  24.803  26.405  1.00  0.00     0.278 C 
ENDBRANCH  20  26
ENDBRANCH  16  19
ENDBRANCH  14  15
ENDBRANCH   9  14
ENDBRANCH   6   8
ENDBRANCH   5   6
ENDBRANCH   4   5
ENDBRANCH   3   4
ENDBRANCH   2   3
ENDBRANCH   1   2
BRANCH   1  28
ATOM     28  C   UNL A   1      42.022  23.380  28.529  1.00  0.00     0.188 C 
BRANCH  28  29
ATOM     29  O   UNL A   1      42.580  24.684  28.481  1.00  0.00    -0.376 OA
BRANCH  29  30
ATOM     30  C   UNL A   1      43.977  24.775  28.648  1.00  0.00     0.202 C 
BRANCH  30  31
ATOM     31  C   UNL A   1      44.620  25.051  27.290  1.00  0.00     0.261 C 
BRANCH  31  32
ATOM     32  O   UNL A   1      43.734  25.894  26.511  1.00  0.00    -0.460 OA
BRANCH  32  33
ATOM     33  C   UNL A   1      43.940  27.241  26.649  1.00  0.00     0.338 C 
ATOM     34  O   UNL A   1      45.030  27.755  26.872  1.00  0.00    -0.246 OA
BRANCH  33  35
ATOM     35  C   UNL A   1      42.637  27.971  26.747  1.00  0.00     0.060 A 
ATOM     36  C   UNL A   1      42.514  29.254  27.264  1.00  0.00     0.016 A 
ATOM     37  C   UNL A   1      41.465  27.298  26.612  1.00  0.00     0.016 A 
ATOM     38  C   UNL A   1      41.283  29.725  27.863  1.00  0.00     0.010 A 
ATOM     39  C   UNL A   1      40.327  27.775  27.314  1.00  0.00     0.010 A 
ATOM     40  C   UNL A   1      40.135  28.943  28.072  1.00  0.00    -0.014 A 
BRANCH  40  41
ATOM     41  C   UNL A   1      38.974  29.344  29.182  1.00  0.00     0.031 A 
ATOM     42  C   UNL A   1      37.809  30.450  29.256  1.00  0.00     0.074 A 
ATOM     43  C   UNL A   1      38.940  28.641  30.347  1.00  0.00     0.049 A 
ATOM     44  N   UNL A   1      37.818  31.484  30.072  1.00  0.00    -0.248 NA
ATOM     45  C   UNL A   1      36.535  30.499  28.471  1.00  0.00     0.031 C 
ATOM     46  C   UNL A   1      38.064  28.851  31.505  1.00  0.00     0.029 A 
ATOM     47  N   UNL A   1      39.872  27.713  30.813  1.00  0.00    -0.354 N 
ATOM     48  C   UNL A   1      36.755  32.332  29.708  1.00  0.00     0.074 A 
ATOM     49  C   UNL A   1      36.077  31.737  28.609  1.00  0.00     0.031 C 
ATOM     50  C   UNL A   1      38.717  28.424  32.600  1.00  0.00     0.029 A 
ATOM     51  C   UNL A   1      40.035  27.977  32.177  1.00  0.00     0.049 A 
ATOM     52  H   UNL A   1      40.323  27.012  30.288  1.00  0.00     0.167 HD
ATOM     53  C   UNL A   1      36.285  33.401  30.403  1.00  0.00     0.031 A 
ATOM     54  C   UNL A   1      41.235  28.416  32.648  1.00  0.00     0.031 A 
ATOM     55  C   UNL A   1      36.668  33.250  31.774  1.00  0.00     0.049 A 
ATOM     56  C   UNL A   1      41.128  29.772  33.306  1.00  0.00     0.074 A 
ATOM     57  C   UNL A   1      36.108  32.434  32.743  1.00  0.00     0.029 A 
ATOM     58  N   UNL A   1      37.973  33.496  32.135  1.00  0.00    -0.354 N 
ATOM     59  N   UNL A   1      40.165  30.632  33.100  1.00  0.00    -0.248 NA
ATOM     60  C   UNL A   1      42.127  30.257  34.253  1.00  0.00     0.031 C 
ATOM     61  C   UNL A   1      37.154  32.049  33.615  1.00  0.00     0.029 A 
ATOM     62  C   UNL A   1      38.296  32.733  33.240  1.00  0.00     0.049 A 
ATOM     63  H   UNL A   1      38.582  34.120  31.677  1.00  0.00     0.167 HD
ATOM     64  C   UNL A   1      40.408  31.759  33.844  1.00  0.00     0.074 A 
ATOM     65  C   UNL A   1      41.632  31.465  34.564  1.00  0.00     0.031 C 
ATOM     66  C   UNL A   1      39.610  32.864  33.830  1.00  0.00     0.031 A 
BRANCH  53  67
ATOM     67  C   UNL A   1      35.124  34.200  29.860  1.00  0.00    -0.014 A 
ATOM     68  C   UNL A   1      35.191  34.821  28.605  1.00  0.00     0.009 A 
ATOM     69  C   UNL A   1      33.973  34.457  30.642  1.00  0.00     0.009 A 
ATOM     70  C   UNL A   1      34.214  35.741  28.193  1.00  0.00     0.001 A 
ATOM     71  C   UNL A   1      33.004  35.391  30.239  1.00  0.00     0.001 A 
ATOM     72  C   UNL A   1      33.138  36.050  29.022  1.00  0.00     0.000 A 
ENDBRANCH  53  67
BRANCH  54  73
ATOM     73  C   UNL A   1      42.452  27.871  31.953  1.00  0.00    -0.014 A 
ATOM     74  C   UNL A   1      42.969  28.586  30.844  1.00  0.00     0.009 A 
ATOM     75  C   UNL A   1      43.243  26.837  32.476  1.00  0.00     0.009 A 
ATOM     76  C   UNL A   1      44.255  28.353  30.346  1.00  0.00     0.001 A 
ATOM     77  C   UNL A   1      44.527  26.585  31.957  1.00  0.00     0.001 A 
ATOM     78  C   UNL A   1      45.036  27.349  30.904  1.00  0.00     0.000 A 
ENDBRANCH  54  73
BRANCH  66  79
ATOM     79  C   UNL A   1      39.959  34.206  34.421  1.00  0.00    -0.014 A 
ATOM     80  C   UNL A   1      39.359  34.721  35.574  1.00  0.00     0.009 A 
ATOM     81  C   UNL A   1      41.069  34.916  33.904  1.00  0.00     0.009 A 
ATOM     82  C   UNL A   1      39.805  35.915  36.149  1.00  0.00     0.001 A 
ATOM     83  C   UNL A   1      41.555  36.074  34.511  1.00  0.00     0.001 A 
ATOM     84  C   UNL A   1      40.910  36.583  35.627  1.00  0.00     0.000 A 
ENDBRANCH  66  79
ENDBRANCH  40  41
ENDBRANCH  33  35
ENDBRANCH  32  33
ENDBRANCH  31  32
ENDBRANCH  30  31
ENDBRANCH  29  30
ENDBRANCH  28  29
ENDBRANCH   1  28
TORSDOF 21
ENDMDL
MODEL 3
REMARK VINA RESULT:     -10.4      3.409      9.155
REMARK SMILES COc1c(C)cccc1C(=O)NCc1ccc(C(=O)OCCOCCOCCOC(=O)c2ccc(-c3c4nc(c(-c5ccccc5)c5ccc([nH]5)c(-c5ccccc5)c5nc(c(-c6ccccc6)c6ccc3[nH]6)C=C5)C=C4)cc2)cc1
REMARK SMILES IDX 24 1 23 2 22 3 21 4 20 5 18 6 19 7 17 8 14 9 15 10 81 11
REMARK SMILES IDX 16 12 80 13 13 14 12 15 10 16 11 17 9 19 3 20 4 21 5 22 6 23
REMARK SMILES IDX 8 24 7 25 2 26 1 27 25 28 26 29 27 30 28 31 29 32 30 33
REMARK SMILES IDX 31 34 32 35 33 36 79 37 34 38 78 39 35 40 36 41 37 42 72 43
REMARK SMILES IDX 38 44 77 45 71 46 73 47 39 48 76 49 70 50 69 51 40 53 62 54
REMARK SMILES IDX 47 55 61 56 48 57 51 58 60 59 74 60 49 61 50 62 59 64 75 65
REMARK SMILES IDX 52 66 41 67 42 68 46 69 43 70 45 71 44 72 63 73 64 74 68 75
REMARK SMILES IDX 65 76 67 77 66 78 53 79 54 80 58 81 55 82 57 83 56 84
REMARK H PARENT 12 18 73 52 51 63
REMARK Flexibility Score: inf
ROOT
ATOM      1  C   UNL A   1      34.748  32.274  30.010  1.00  0.00     0.188 C 
ENDROOT
BRANCH   1   2
ATOM      2  O   UNL A   1      35.712  31.706  29.096  1.00  0.00    -0.376 OA
BRANCH   2   3
ATOM      3  C   UNL A   1      35.251  31.437  27.758  1.00  0.00     0.202 C 
BRANCH   3   4
ATOM      4  C   UNL A   1      34.652  29.934  27.397  1.00  0.00     0.261 C 
BRANCH   4   5
ATOM      5  O   UNL A   1      33.293  29.063  27.861  1.00  0.00    -0.460 OA
BRANCH   5   6
ATOM      6  C   UNL A   1      32.313  28.207  27.361  1.00  0.00     0.338 C 
ATOM      7  O   UNL A   1      31.258  27.907  27.896  1.00  0.00    -0.246 OA
BRANCH   6   8
ATOM      8  C   UNL A   1      32.385  27.318  26.179  1.00  0.00     0.060 A 
ATOM      9  C   UNL A   1      32.818  26.350  23.561  1.00  0.00    -0.029 A 
ATOM     10  C   UNL A   1      33.902  26.492  24.429  1.00  0.00     0.006 A 
ATOM     11  C   UNL A   1      31.545  26.767  23.980  1.00  0.00     0.006 A 
ATOM     12  C   UNL A   1      33.687  26.968  25.716  1.00  0.00     0.016 A 
ATOM     13  C   UNL A   1      31.332  27.269  25.276  1.00  0.00     0.016 A 
BRANCH   9  14
ATOM     14  C   UNL A   1      33.092  25.554  22.321  1.00  0.00     0.152 C 
BRANCH  14  15
ATOM     15  N   UNL A   1      32.400  24.311  22.168  1.00  0.00    -0.348 N 
ATOM     16  C   UNL A   1      32.607  23.126  22.827  1.00  0.00     0.255 C 
ATOM     17  O   UNL A   1      31.850  22.196  22.538  1.00  0.00    -0.269 OA
ATOM     18  H   UNL A   1      31.676  24.305  21.501  1.00  0.00     0.164 HD
BRANCH  16  19
ATOM     19  C   UNL A   1      33.627  22.912  23.912  1.00  0.00     0.082 A 
ATOM     20  C   UNL A   1      33.422  22.682  25.290  1.00  0.00     0.134 A 
ATOM     21  C   UNL A   1      34.518  22.422  26.147  1.00  0.00    -0.008 A 
ATOM     22  C   UNL A   1      34.336  22.019  27.586  1.00  0.00     0.048 C 
ATOM     23  C   UNL A   1      35.823  22.543  25.651  1.00  0.00     0.007 A 
ATOM     24  C   UNL A   1      34.958  22.995  23.452  1.00  0.00     0.018 A 
ATOM     25  C   UNL A   1      36.043  22.832  24.310  1.00  0.00     0.001 A 
BRANCH  20  26
ATOM     26  O   UNL A   1      32.168  22.562  25.831  1.00  0.00    -0.496 OA
ATOM     27  C   UNL A   1      31.640  23.779  26.340  1.00  0.00     0.278 C 
ENDBRANCH  20  26
ENDBRANCH  16  19
ENDBRANCH  14  15
ENDBRANCH   9  14
ENDBRANCH   6   8
ENDBRANCH   5   6
ENDBRANCH   4   5
ENDBRANCH   3   4
ENDBRANCH   2   3
ENDBRANCH   1   2
BRANCH   1  28
ATOM     28  C   UNL A   1      35.202  31.952  31.426  1.00  0.00     0.188 C 
BRANCH  28  29
ATOM     29  O   UNL A   1      35.486  33.224  31.989  1.00  0.00    -0.376 OA
BRANCH  29  30
ATOM     30  C   UNL A   1      36.639  33.310  32.795  1.00  0.00     0.202 C 
BRANCH  30  31
ATOM     31  C   UNL A   1      36.919  31.938  33.405  1.00  0.00     0.261 C 
BRANCH  31  32
ATOM     32  O   UNL A   1      38.167  31.430  32.870  1.00  0.00    -0.460 OA
BRANCH  32  33
ATOM     33  C   UNL A   1      38.724  30.394  33.573  1.00  0.00     0.338 C 
ATOM     34  O   UNL A   1      39.211  30.501  34.692  1.00  0.00    -0.246 OA
BRANCH  33  35
ATOM     35  C   UNL A   1      38.888  29.188  32.703  1.00  0.00     0.060 A 
ATOM     36  C   UNL A   1      40.045  28.420  32.667  1.00  0.00     0.016 A 
ATOM     37  C   UNL A   1      38.023  28.960  31.680  1.00  0.00     0.016 A 
ATOM     38  C   UNL A   1      40.419  27.651  31.499  1.00  0.00     0.010 A 
ATOM     39  C   UNL A   1      38.501  28.283  30.528  1.00  0.00     0.010 A 
ATOM     40  C   UNL A   1      39.735  27.659  30.272  1.00  0.00    -0.014 A 
BRANCH  40  41
ATOM     41  C   UNL A   1      40.448  27.195  28.852  1.00  0.00     0.031 A 
ATOM     42  C   UNL A   1      40.835  25.784  28.186  1.00  0.00     0.074 A 
ATOM     43  C   UNL A   1      40.858  28.172  27.998  1.00  0.00     0.049 A 
ATOM     44  N   UNL A   1      42.070  25.353  28.023  1.00  0.00    -0.248 NA
ATOM     45  C   UNL A   1      39.913  24.749  27.619  1.00  0.00     0.031 C 
ATOM     46  C   UNL A   1      41.573  28.022  26.726  1.00  0.00     0.029 A 
ATOM     47  N   UNL A   1      40.906  29.547  28.232  1.00  0.00    -0.354 N 
ATOM     48  C   UNL A   1      42.008  24.009  27.608  1.00  0.00     0.074 A 
ATOM     49  C   UNL A   1      40.638  23.643  27.513  1.00  0.00     0.031 C 
ATOM     50  C   UNL A   1      42.306  29.132  26.529  1.00  0.00     0.029 A 
ATOM     51  C   UNL A   1      42.113  29.993  27.685  1.00  0.00     0.049 A 
ATOM     52  H   UNL A   1      40.226  30.094  28.688  1.00  0.00     0.167 HD
ATOM     53  C   UNL A   1      43.033  23.249  27.141  1.00  0.00     0.031 A 
ATOM     54  C   UNL A   1      43.084  30.498  28.495  1.00  0.00     0.031 A 
ATOM     55  C   UNL A   1      44.056  24.123  26.654  1.00  0.00     0.049 A 
ATOM     56  C   UNL A   1      44.366  29.703  28.415  1.00  0.00     0.074 A 
ATOM     57  C   UNL A   1      44.098  24.824  25.461  1.00  0.00     0.029 A 
ATOM     58  N   UNL A   1      44.860  24.783  27.556  1.00  0.00    -0.354 N 
ATOM     59  N   UNL A   1      44.457  28.468  27.996  1.00  0.00    -0.248 NA
ATOM     60  C   UNL A   1      45.653  30.260  28.818  1.00  0.00     0.031 C 
ATOM     61  C   UNL A   1      44.810  26.021  25.708  1.00  0.00     0.029 A 
ATOM     62  C   UNL A   1      45.295  25.970  27.003  1.00  0.00     0.049 A 
ATOM     63  H   UNL A   1      45.089  24.457  28.457  1.00  0.00     0.167 HD
ATOM     64  C   UNL A   1      45.766  28.064  28.083  1.00  0.00     0.074 A 
ATOM     65  C   UNL A   1      46.476  29.227  28.580  1.00  0.00     0.031 C 
ATOM     66  C   UNL A   1      46.198  26.813  27.756  1.00  0.00     0.031 A 
BRANCH  53  67
ATOM     67  C   UNL A   1      42.782  21.816  26.734  1.00  0.00    -0.014 A 
ATOM     68  C   UNL A   1      41.871  21.010  27.430  1.00  0.00     0.009 A 
ATOM     69  C   UNL A   1      43.542  21.193  25.715  1.00  0.00     0.009 A 
ATOM     70  C   UNL A   1      41.797  19.628  27.201  1.00  0.00     0.001 A 
ATOM     71  C   UNL A   1      43.482  19.807  25.498  1.00  0.00     0.001 A 
ATOM     72  C   UNL A   1      42.623  19.020  26.258  1.00  0.00     0.000 A 
ENDBRANCH  53  67
BRANCH  54  73
ATOM     73  C   UNL A   1      42.603  31.269  29.694  1.00  0.00    -0.014 A 
ATOM     74  C   UNL A   1      42.260  32.633  29.521  1.00  0.00     0.009 A 
ATOM     75  C   UNL A   1      42.249  30.665  30.910  1.00  0.00     0.009 A 
ATOM     76  C   UNL A   1      41.507  33.334  30.471  1.00  0.00     0.001 A 
ATOM     77  C   UNL A   1      41.515  31.380  31.876  1.00  0.00     0.001 A 
ATOM     78  C   UNL A   1      41.135  32.705  31.652  1.00  0.00     0.000 A 
ENDBRANCH  54  73
BRANCH  66  79
ATOM     79  C   UNL A   1      47.557  26.244  28.069  1.00  0.00    -0.014 A 
ATOM     80  C   UNL A   1      47.979  25.918  29.361  1.00  0.00     0.009 A 
ATOM     81  C   UNL A   1      48.398  25.848  27.001  1.00  0.00     0.009 A 
ATOM     82  C   UNL A   1      49.204  25.281  29.583  1.00  0.00     0.001 A 
ATOM     83  C   UNL A   1      49.591  25.158  27.214  1.00  0.00     0.001 A 
ATOM     84  C   UNL A   1      50.002  24.889  28.511  1.00  0.00     0.000 A 
ENDBRANCH  66  79
ENDBRANCH  40  41
ENDBRANCH  33  35
ENDBRANCH  32  33
ENDBRANCH  31  32
ENDBRANCH  30  31
ENDBRANCH  29  30
ENDBRANCH  28  29
ENDBRANCH   1  28
TORSDOF 21
ENDMDL
