MODEL 1
REMARK VINA RESULT:      -9.9      0.000      0.000
REMARK SMILES CC[C@@](C)(NC(=O)/C=C/c1cccc(F)c1)C(=O)OCCOCCOCCOC(=O)c1ccc(-c2c3nc(c(-c4ccccc4)c4ccc([nH]4)c(-c4ccccc4)c4nc(c(-c5ccccc5)c5ccc2[nH]5)C=C4)C=C3)cc1
REMARK SMILES IDX 23 1 22 2 21 3 20 4 19 5 17 6 18 7 3 8 4 9 2 10 1 11 5 12
REMARK SMILES IDX 6 13 7 15 8 16 9 17 10 18 11 19 16 20 12 21 14 22 13 23
REMARK SMILES IDX 15 24 24 25 25 26 26 27 27 28 28 29 29 30 30 31 31 32 32 33
REMARK SMILES IDX 78 34 33 35 77 36 34 37 35 38 36 39 71 40 37 41 76 42 70 43
REMARK SMILES IDX 72 44 38 45 75 46 69 47 68 48 39 50 61 51 46 52 60 53 47 54
REMARK SMILES IDX 50 55 59 56 73 57 48 58 49 59 58 61 74 62 51 63 40 64 41 65
REMARK SMILES IDX 45 66 42 67 44 68 43 69 62 70 63 71 67 72 64 73 66 74 65 75
REMARK SMILES IDX 52 76 53 77 57 78 54 79 56 80 55 81
REMARK H PARENT 5 14 72 49 50 60
REMARK Flexibility Score: inf
ROOT
ATOM      1  C   UNL A   1      34.362  20.714  25.758  1.00  0.00     0.188 C 
ENDROOT
BRANCH   1   2
ATOM      2  O   UNL A   1      34.027  21.508  26.925  1.00  0.00    -0.376 OA
BRANCH   2   3
ATOM      3  C   UNL A   1      33.671  22.907  26.942  1.00  0.00     0.202 C 
BRANCH   3   4
ATOM      4  C   UNL A   1      34.617  23.982  26.153  1.00  0.00     0.261 C 
BRANCH   4   5
ATOM      5  O   UNL A   1      34.064  24.586  24.907  1.00  0.00    -0.462 OA
BRANCH   5   6
ATOM      6  C   UNL A   1      34.140  24.056  23.601  1.00  0.00     0.331 C 
ATOM      7  O   UNL A   1      35.190  23.797  23.028  1.00  0.00    -0.249 OA
BRANCH   6   8
ATOM      8  C   UNL A   1      32.654  23.829  22.924  1.00  0.00     0.135 C 
ATOM      9  C   UNL A   1      32.284  22.345  23.053  1.00  0.00     0.047 C 
BRANCH   8  10
ATOM     10  C   UNL A   1      31.328  24.641  23.193  1.00  0.00     0.037 C 
ATOM     11  C   UNL A   1      30.858  24.993  24.578  1.00  0.00     0.007 C 
ENDBRANCH   8  10
BRANCH   8  12
ATOM     12  N   UNL A   1      32.882  24.172  21.543  1.00  0.00    -0.337 N 
ATOM     13  C   UNL A   1      32.882  25.477  21.141  1.00  0.00     0.244 C 
ATOM     14  H   UNL A   1      33.041  23.458  20.883  1.00  0.00     0.164 HD
ATOM     15  O   UNL A   1      32.999  25.670  19.937  1.00  0.00    -0.270 OA
BRANCH  13  16
ATOM     16  C   UNL A   1      33.091  26.584  22.223  1.00  0.00     0.072 C 
ATOM     17  C   UNL A   1      32.685  27.785  22.720  1.00  0.00     0.014 C 
BRANCH  17  18
ATOM     18  C   UNL A   1      32.976  28.301  24.122  1.00  0.00    -0.023 A 
ATOM     19  C   UNL A   1      33.930  27.713  24.969  1.00  0.00     0.008 A 
ATOM     20  C   UNL A   1      32.248  29.368  24.678  1.00  0.00     0.047 A 
ATOM     21  C   UNL A   1      34.005  28.030  26.344  1.00  0.00     0.004 A 
ATOM     22  C   UNL A   1      32.329  29.689  26.043  1.00  0.00     0.123 A 
ATOM     23  C   UNL A   1      33.177  29.003  26.892  1.00  0.00     0.039 A 
ATOM     24  F   UNL A   1      31.538  30.648  26.547  1.00  0.00    -0.207 F 
ENDBRANCH  17  18
ENDBRANCH  13  16
ENDBRANCH   8  12
ENDBRANCH   6   8
ENDBRANCH   5   6
ENDBRANCH   4   5
ENDBRANCH   3   4
ENDBRANCH   2   3
ENDBRANCH   1   2
BRANCH   1  25
ATOM     25  C   UNL A   1      35.672  20.811  24.953  1.00  0.00     0.188 C 
BRANCH  25  26
ATOM     26  O   UNL A   1      36.815  21.385  25.547  1.00  0.00    -0.376 OA
BRANCH  26  27
ATOM     27  C   UNL A   1      38.040  20.941  25.021  1.00  0.00     0.202 C 
BRANCH  27  28
ATOM     28  C   UNL A   1      39.280  21.055  25.929  1.00  0.00     0.261 C 
BRANCH  28  29
ATOM     29  O   UNL A   1      39.385  22.228  26.769  1.00  0.00    -0.460 OA
BRANCH  29  30
ATOM     30  C   UNL A   1      40.503  22.992  26.596  1.00  0.00     0.338 C 
ATOM     31  O   UNL A   1      41.569  22.640  26.148  1.00  0.00    -0.246 OA
BRANCH  30  32
ATOM     32  C   UNL A   1      40.212  24.400  26.986  1.00  0.00     0.060 A 
ATOM     33  C   UNL A   1      40.899  25.457  26.365  1.00  0.00     0.016 A 
ATOM     34  C   UNL A   1      39.358  24.661  28.058  1.00  0.00     0.016 A 
ATOM     35  C   UNL A   1      40.767  26.770  26.845  1.00  0.00     0.010 A 
ATOM     36  C   UNL A   1      39.241  25.966  28.547  1.00  0.00     0.010 A 
ATOM     37  C   UNL A   1      39.982  27.020  27.976  1.00  0.00    -0.014 A 
BRANCH  37  38
ATOM     38  C   UNL A   1      40.124  28.271  28.772  1.00  0.00     0.031 A 
ATOM     39  C   UNL A   1      41.209  28.305  29.815  1.00  0.00     0.074 A 
ATOM     40  C   UNL A   1      39.263  29.299  28.671  1.00  0.00     0.049 A 
ATOM     41  N   UNL A   1      41.376  29.117  30.827  1.00  0.00    -0.248 NA
ATOM     42  C   UNL A   1      42.230  27.250  29.709  1.00  0.00     0.031 C 
ATOM     43  C   UNL A   1      38.213  29.433  27.667  1.00  0.00     0.029 A 
ATOM     44  N   UNL A   1      39.116  30.411  29.468  1.00  0.00    -0.354 N 
ATOM     45  C   UNL A   1      42.493  28.640  31.506  1.00  0.00     0.074 A 
ATOM     46  C   UNL A   1      42.953  27.467  30.795  1.00  0.00     0.031 C 
ATOM     47  C   UNL A   1      37.496  30.539  27.935  1.00  0.00     0.029 A 
ATOM     48  C   UNL A   1      38.003  31.156  29.162  1.00  0.00     0.049 A 
ATOM     49  H   UNL A   1      39.747  30.649  30.186  1.00  0.00     0.167 HD
ATOM     50  C   UNL A   1      43.071  29.121  32.631  1.00  0.00     0.031 A 
ATOM     51  C   UNL A   1      37.425  32.177  29.827  1.00  0.00     0.031 A 
ATOM     52  C   UNL A   1      42.589  30.272  33.348  1.00  0.00     0.049 A 
ATOM     53  C   UNL A   1      38.031  32.661  31.121  1.00  0.00     0.074 A 
ATOM     54  C   UNL A   1      43.107  30.860  34.488  1.00  0.00     0.029 A 
ATOM     55  N   UNL A   1      41.463  31.001  32.995  1.00  0.00    -0.354 N 
ATOM     56  N   UNL A   1      39.085  32.211  31.760  1.00  0.00    -0.248 NA
ATOM     57  C   UNL A   1      37.367  33.793  31.785  1.00  0.00     0.031 C 
ATOM     58  C   UNL A   1      42.252  31.900  34.865  1.00  0.00     0.029 A 
ATOM     59  C   UNL A   1      41.249  32.013  33.914  1.00  0.00     0.049 A 
ATOM     60  H   UNL A   1      40.899  30.825  32.208  1.00  0.00     0.167 HD
ATOM     61  C   UNL A   1      39.231  33.023  32.879  1.00  0.00     0.074 A 
ATOM     62  C   UNL A   1      38.157  33.994  32.832  1.00  0.00     0.031 C 
ATOM     63  C   UNL A   1      40.177  32.975  33.851  1.00  0.00     0.031 A 
BRANCH  50  64
ATOM     64  C   UNL A   1      44.235  28.347  33.192  1.00  0.00    -0.014 A 
ATOM     65  C   UNL A   1      45.479  28.303  32.541  1.00  0.00     0.009 A 
ATOM     66  C   UNL A   1      44.072  27.625  34.385  1.00  0.00     0.009 A 
ATOM     67  C   UNL A   1      46.511  27.502  33.039  1.00  0.00     0.001 A 
ATOM     68  C   UNL A   1      45.117  26.857  34.901  1.00  0.00     0.001 A 
ATOM     69  C   UNL A   1      46.330  26.782  34.219  1.00  0.00     0.000 A 
ENDBRANCH  50  64
BRANCH  51  70
ATOM     70  C   UNL A   1      36.173  32.782  29.295  1.00  0.00    -0.014 A 
ATOM     71  C   UNL A   1      36.147  34.115  28.860  1.00  0.00     0.009 A 
ATOM     72  C   UNL A   1      35.000  32.014  29.191  1.00  0.00     0.009 A 
ATOM     73  C   UNL A   1      34.976  34.666  28.332  1.00  0.00     0.001 A 
ATOM     74  C   UNL A   1      33.840  32.560  28.637  1.00  0.00     0.001 A 
ATOM     75  C   UNL A   1      33.828  33.886  28.211  1.00  0.00     0.000 A 
ENDBRANCH  51  70
BRANCH  63  76
ATOM     76  C   UNL A   1      40.140  34.035  34.920  1.00  0.00    -0.014 A 
ATOM     77  C   UNL A   1      40.726  35.295  34.731  1.00  0.00     0.009 A 
ATOM     78  C   UNL A   1      39.431  33.786  36.107  1.00  0.00     0.009 A 
ATOM     79  C   UNL A   1      40.618  36.277  35.720  1.00  0.00     0.001 A 
ATOM     80  C   UNL A   1      39.299  34.779  37.078  1.00  0.00     0.001 A 
ATOM     81  C   UNL A   1      39.898  36.021  36.887  1.00  0.00     0.000 A 
ENDBRANCH  63  76
ENDBRANCH  37  38
ENDBRANCH  30  32
ENDBRANCH  29  30
ENDBRANCH  28  29
ENDBRANCH  27  28
ENDBRANCH  26  27
ENDBRANCH  25  26
ENDBRANCH   1  25
TORSDOF 21
ENDMDL
MODEL 2
REMARK VINA RESULT:      -9.6      3.487      8.457
REMARK SMILES CC[C@@](C)(NC(=O)/C=C/c1cccc(F)c1)C(=O)OCCOCCOCCOC(=O)c1ccc(-c2c3nc(c(-c4ccccc4)c4ccc([nH]4)c(-c4ccccc4)c4nc(c(-c5ccccc5)c5ccc2[nH]5)C=C4)C=C3)cc1
REMARK SMILES IDX 23 1 22 2 21 3 20 4 19 5 17 6 18 7 3 8 4 9 2 10 1 11 5 12
REMARK SMILES IDX 6 13 7 15 8 16 9 17 10 18 11 19 16 20 12 21 14 22 13 23
REMARK SMILES IDX 15 24 24 25 25 26 26 27 27 28 28 29 29 30 30 31 31 32 32 33
REMARK SMILES IDX 78 34 33 35 77 36 34 37 35 38 36 39 71 40 37 41 76 42 70 43
REMARK SMILES IDX 72 44 38 45 75 46 69 47 68 48 39 50 61 51 46 52 60 53 47 54
REMARK SMILES IDX 50 55 59 56 73 57 48 58 49 59 58 61 74 62 51 63 40 64 41 65
REMARK SMILES IDX 45 66 42 67 44 68 43 69 62 70 63 71 67 72 64 73 66 74 65 75
REMARK SMILES IDX 52 76 53 77 57 78 54 79 56 80 55 81
REMARK H PARENT 5 14 72 49 50 60
REMARK Flexibility Score: inf
ROOT
ATOM      1  C   UNL A   1      34.948  31.667  28.269  1.00  0.00     0.188 C 
ENDROOT
BRANCH   1   2
ATOM      2  O   UNL A   1      33.731  31.115  27.706  1.00  0.00    -0.376 OA
BRANCH   2   3
ATOM      3  C   UNL A   1      33.624  29.952  26.856  1.00  0.00     0.202 C 
BRANCH   3   4
ATOM      4  C   UNL A   1      32.429  29.882  25.743  1.00  0.00     0.261 C 
BRANCH   4   5
ATOM      5  O   UNL A   1      31.802  28.551  25.504  1.00  0.00    -0.462 OA
BRANCH   5   6
ATOM      6  C   UNL A   1      31.396  28.014  24.263  1.00  0.00     0.331 C 
ATOM      7  O   UNL A   1      30.636  28.579  23.489  1.00  0.00    -0.249 OA
BRANCH   6   8
ATOM      8  C   UNL A   1      32.056  26.532  23.971  1.00  0.00     0.135 C 
ATOM      9  C   UNL A   1      33.482  26.516  24.538  1.00  0.00     0.047 C 
BRANCH   8  10
ATOM     10  C   UNL A   1      31.440  25.114  24.283  1.00  0.00     0.037 C 
ATOM     11  C   UNL A   1      31.452  24.508  25.661  1.00  0.00     0.007 C 
ENDBRANCH   8  10
BRANCH   8  12
ATOM     12  N   UNL A   1      32.087  26.480  22.531  1.00  0.00    -0.337 N 
ATOM     13  C   UNL A   1      33.014  25.715  21.882  1.00  0.00     0.244 C 
ATOM     14  H   UNL A   1      31.433  27.001  22.010  1.00  0.00     0.164 HD
ATOM     15  O   UNL A   1      33.020  25.798  20.660  1.00  0.00    -0.270 OA
BRANCH  13  16
ATOM     16  C   UNL A   1      33.717  24.571  22.679  1.00  0.00     0.072 C 
ATOM     17  C   UNL A   1      34.403  23.395  22.623  1.00  0.00     0.014 C 
BRANCH  17  18
ATOM     18  C   UNL A   1      35.266  22.826  23.741  1.00  0.00    -0.023 A 
ATOM     19  C   UNL A   1      36.621  22.502  23.569  1.00  0.00     0.008 A 
ATOM     20  C   UNL A   1      34.726  22.526  25.004  1.00  0.00     0.047 A 
ATOM     21  C   UNL A   1      37.334  21.739  24.521  1.00  0.00     0.004 A 
ATOM     22  C   UNL A   1      35.437  21.776  25.954  1.00  0.00     0.123 A 
ATOM     23  C   UNL A   1      36.728  21.346  25.709  1.00  0.00     0.039 A 
ATOM     24  F   UNL A   1      34.843  21.427  27.105  1.00  0.00    -0.207 F 
ENDBRANCH  17  18
ENDBRANCH  13  16
ENDBRANCH   8  12
ENDBRANCH   6   8
ENDBRANCH   5   6
ENDBRANCH   4   5
ENDBRANCH   3   4
ENDBRANCH   2   3
ENDBRANCH   1   2
BRANCH   1  25
ATOM     25  C   UNL A   1      35.481  33.091  28.030  1.00  0.00     0.188 C 
BRANCH  25  26
ATOM     26  O   UNL A   1      34.600  34.104  27.598  1.00  0.00    -0.376 OA
BRANCH  26  27
ATOM     27  C   UNL A   1      34.422  35.161  28.508  1.00  0.00     0.202 C 
BRANCH  27  28
ATOM     28  C   UNL A   1      32.992  35.413  29.024  1.00  0.00     0.261 C 
BRANCH  28  29
ATOM     29  O   UNL A   1      32.655  34.894  30.331  1.00  0.00    -0.460 OA
BRANCH  29  30
ATOM     30  C   UNL A   1      32.959  35.697  31.393  1.00  0.00     0.338 C 
ATOM     31  O   UNL A   1      32.457  36.759  31.676  1.00  0.00    -0.246 OA
BRANCH  30  32
ATOM     32  C   UNL A   1      33.992  35.037  32.240  1.00  0.00     0.060 A 
ATOM     33  C   UNL A   1      35.288  35.576  32.317  1.00  0.00     0.016 A 
ATOM     34  C   UNL A   1      33.711  33.813  32.848  1.00  0.00     0.016 A 
ATOM     35  C   UNL A   1      36.315  34.870  32.963  1.00  0.00     0.010 A 
ATOM     36  C   UNL A   1      34.740  33.101  33.475  1.00  0.00     0.010 A 
ATOM     37  C   UNL A   1      36.057  33.601  33.495  1.00  0.00    -0.014 A 
BRANCH  37  38
ATOM     38  C   UNL A   1      37.152  32.642  33.809  1.00  0.00     0.031 A 
ATOM     39  C   UNL A   1      37.904  32.852  35.097  1.00  0.00     0.074 A 
ATOM     40  C   UNL A   1      37.555  31.691  32.949  1.00  0.00     0.049 A 
ATOM     41  N   UNL A   1      39.059  32.374  35.483  1.00  0.00    -0.248 NA
ATOM     42  C   UNL A   1      37.267  33.756  36.068  1.00  0.00     0.031 C 
ATOM     43  C   UNL A   1      36.884  31.331  31.704  1.00  0.00     0.029 A 
ATOM     44  N   UNL A   1      38.669  30.883  32.982  1.00  0.00    -0.354 N 
ATOM     45  C   UNL A   1      39.309  32.958  36.720  1.00  0.00     0.074 A 
ATOM     46  C   UNL A   1      38.191  33.829  37.012  1.00  0.00     0.031 C 
ATOM     47  C   UNL A   1      37.624  30.407  31.065  1.00  0.00     0.029 A 
ATOM     48  C   UNL A   1      38.847  30.156  31.829  1.00  0.00     0.049 A 
ATOM     49  H   UNL A   1      39.277  30.831  33.755  1.00  0.00     0.167 HD
ATOM     50  C   UNL A   1      40.381  32.802  37.531  1.00  0.00     0.031 A 
ATOM     51  C   UNL A   1      39.900  29.423  31.413  1.00  0.00     0.031 A 
ATOM     52  C   UNL A   1      41.501  31.955  37.219  1.00  0.00     0.049 A 
ATOM     53  C   UNL A   1      41.123  29.313  32.288  1.00  0.00     0.074 A 
ATOM     54  C   UNL A   1      42.634  31.705  37.975  1.00  0.00     0.029 A 
ATOM     55  N   UNL A   1      41.634  31.230  36.045  1.00  0.00    -0.354 N 
ATOM     56  N   UNL A   1      41.357  29.864  33.455  1.00  0.00    -0.248 NA
ATOM     57  C   UNL A   1      42.228  28.480  31.787  1.00  0.00     0.031 C 
ATOM     58  C   UNL A   1      43.482  30.886  37.225  1.00  0.00     0.029 A 
ATOM     59  C   UNL A   1      42.844  30.558  36.039  1.00  0.00     0.049 A 
ATOM     60  H   UNL A   1      40.967  31.197  35.322  1.00  0.00     0.167 HD
ATOM     61  C   UNL A   1      42.616  29.419  33.845  1.00  0.00     0.074 A 
ATOM     62  C   UNL A   1      43.096  28.553  32.787  1.00  0.00     0.031 C 
ATOM     63  C   UNL A   1      43.306  29.695  34.979  1.00  0.00     0.031 A 
BRANCH  50  64
ATOM     64  C   UNL A   1      40.419  33.630  38.788  1.00  0.00    -0.014 A 
ATOM     65  C   UNL A   1      40.995  34.911  38.815  1.00  0.00     0.009 A 
ATOM     66  C   UNL A   1      39.890  33.104  39.977  1.00  0.00     0.009 A 
ATOM     67  C   UNL A   1      41.095  35.618  40.017  1.00  0.00     0.001 A 
ATOM     68  C   UNL A   1      39.957  33.828  41.169  1.00  0.00     0.001 A 
ATOM     69  C   UNL A   1      40.575  35.077  41.191  1.00  0.00     0.000 A 
ENDBRANCH  50  64
BRANCH  51  70
ATOM     70  C   UNL A   1      39.854  28.771  30.075  1.00  0.00    -0.014 A 
ATOM     71  C   UNL A   1      39.404  27.450  29.935  1.00  0.00     0.009 A 
ATOM     72  C   UNL A   1      40.232  29.481  28.923  1.00  0.00     0.009 A 
ATOM     73  C   UNL A   1      39.334  26.855  28.673  1.00  0.00     0.001 A 
ATOM     74  C   UNL A   1      40.133  28.893  27.660  1.00  0.00     0.001 A 
ATOM     75  C   UNL A   1      39.688  27.579  27.536  1.00  0.00     0.000 A 
ENDBRANCH  51  70
BRANCH  63  76
ATOM     76  C   UNL A   1      44.632  29.012  35.179  1.00  0.00    -0.014 A 
ATOM     77  C   UNL A   1      44.728  27.739  35.761  1.00  0.00     0.009 A 
ATOM     78  C   UNL A   1      45.800  29.628  34.698  1.00  0.00     0.009 A 
ATOM     79  C   UNL A   1      45.970  27.107  35.874  1.00  0.00     0.001 A 
ATOM     80  C   UNL A   1      47.033  28.980  34.783  1.00  0.00     0.001 A 
ATOM     81  C   UNL A   1      47.118  27.724  35.377  1.00  0.00     0.000 A 
ENDBRANCH  63  76
ENDBRANCH  37  38
ENDBRANCH  30  32
ENDBRANCH  29  30
ENDBRANCH  28  29
ENDBRANCH  27  28
ENDBRANCH  26  27
ENDBRANCH  25  26
ENDBRANCH   1  25
TORSDOF 21
ENDMDL
MODEL 3
REMARK VINA RESULT:      -9.5      4.414      8.168
REMARK SMILES CC[C@@](C)(NC(=O)/C=C/c1cccc(F)c1)C(=O)OCCOCCOCCOC(=O)c1ccc(-c2c3nc(c(-c4ccccc4)c4ccc([nH]4)c(-c4ccccc4)c4nc(c(-c5ccccc5)c5ccc2[nH]5)C=C4)C=C3)cc1
REMARK SMILES IDX 23 1 22 2 21 3 20 4 19 5 17 6 18 7 3 8 4 9 2 10 1 11 5 12
REMARK SMILES IDX 6 13 7 15 8 16 9 17 10 18 11 19 16 20 12 21 14 22 13 23
REMARK SMILES IDX 15 24 24 25 25 26 26 27 27 28 28 29 29 30 30 31 31 32 32 33
REMARK SMILES IDX 78 34 33 35 77 36 34 37 35 38 36 39 71 40 37 41 76 42 70 43
REMARK SMILES IDX 72 44 38 45 75 46 69 47 68 48 39 50 61 51 46 52 60 53 47 54
REMARK SMILES IDX 50 55 59 56 73 57 48 58 49 59 58 61 74 62 51 63 40 64 41 65
REMARK SMILES IDX 45 66 42 67 44 68 43 69 62 70 63 71 67 72 64 73 66 74 65 75
REMARK SMILES IDX 52 76 53 77 57 78 54 79 56 80 55 81
REMARK H PARENT 5 14 72 49 50 60
REMARK Flexibility Score: inf
ROOT
ATOM      1  C   UNL A   1      33.659  22.601  24.628  1.00  0.00     0.188 C 
ENDROOT
BRANCH   1   2
ATOM      2  O   UNL A   1      33.953  22.596  23.208  1.00  0.00    -0.376 OA
BRANCH   2   3
ATOM      3  C   UNL A   1      33.262  23.341  22.182  1.00  0.00     0.202 C 
BRANCH   3   4
ATOM      4  C   UNL A   1      32.556  24.765  22.567  1.00  0.00     0.261 C 
BRANCH   4   5
ATOM      5  O   UNL A   1      33.383  25.752  23.318  1.00  0.00    -0.462 OA
BRANCH   5   6
ATOM      6  C   UNL A   1      33.093  27.117  23.527  1.00  0.00     0.331 C 
ATOM      7  O   UNL A   1      33.174  27.975  22.659  1.00  0.00    -0.249 OA
BRANCH   6   8
ATOM      8  C   UNL A   1      32.638  27.435  25.080  1.00  0.00     0.135 C 
ATOM      9  C   UNL A   1      33.859  27.248  25.990  1.00  0.00     0.047 C 
BRANCH   8  10
ATOM     10  C   UNL A   1      31.865  28.695  25.629  1.00  0.00     0.037 C 
ATOM     11  C   UNL A   1      32.058  29.223  27.025  1.00  0.00     0.007 C 
ENDBRANCH   8  10
BRANCH   8  12
ATOM     12  N   UNL A   1      31.659  26.409  25.336  1.00  0.00    -0.337 N 
ATOM     13  C   UNL A   1      30.337  26.624  25.065  1.00  0.00     0.244 C 
ATOM     14  H   UNL A   1      31.945  25.543  25.708  1.00  0.00     0.164 HD
ATOM     15  O   UNL A   1      29.567  25.731  25.393  1.00  0.00    -0.270 OA
BRANCH  13  16
ATOM     16  C   UNL A   1      29.964  27.775  24.077  1.00  0.00     0.072 C 
ATOM     17  C   UNL A   1      29.096  28.230  23.131  1.00  0.00     0.014 C 
BRANCH  17  18
ATOM     18  C   UNL A   1      28.938  29.684  22.708  1.00  0.00    -0.023 A 
ATOM     19  C   UNL A   1      29.196  30.762  23.570  1.00  0.00     0.008 A 
ATOM     20  C   UNL A   1      28.453  30.029  21.434  1.00  0.00     0.047 A 
ATOM     21  C   UNL A   1      28.799  32.081  23.256  1.00  0.00     0.004 A 
ATOM     22  C   UNL A   1      28.067  31.342  21.119  1.00  0.00     0.123 A 
ATOM     23  C   UNL A   1      28.201  32.368  22.035  1.00  0.00     0.039 A 
ATOM     24  F   UNL A   1      27.513  31.603  19.925  1.00  0.00    -0.207 F 
ENDBRANCH  17  18
ENDBRANCH  13  16
ENDBRANCH   8  12
ENDBRANCH   6   8
ENDBRANCH   5   6
ENDBRANCH   4   5
ENDBRANCH   3   4
ENDBRANCH   2   3
ENDBRANCH   1   2
BRANCH   1  25
ATOM     25  C   UNL A   1      34.666  22.296  25.753  1.00  0.00     0.188 C 
BRANCH  25  26
ATOM     26  O   UNL A   1      35.667  21.323  25.550  1.00  0.00    -0.376 OA
BRANCH  26  27
ATOM     27  C   UNL A   1      36.911  21.831  25.138  1.00  0.00     0.202 C 
BRANCH  27  28
ATOM     28  C   UNL A   1      38.119  20.876  25.205  1.00  0.00     0.261 C 
BRANCH  28  29
ATOM     29  O   UNL A   1      39.071  21.082  26.273  1.00  0.00    -0.460 OA
BRANCH  29  30
ATOM     30  C   UNL A   1      40.271  20.444  26.138  1.00  0.00     0.338 C 
ATOM     31  O   UNL A   1      40.464  19.326  25.720  1.00  0.00    -0.246 OA
BRANCH  30  32
ATOM     32  C   UNL A   1      41.375  21.366  26.527  1.00  0.00     0.060 A 
ATOM     33  C   UNL A   1      41.837  21.390  27.853  1.00  0.00     0.016 A 
ATOM     34  C   UNL A   1      41.856  22.298  25.605  1.00  0.00     0.016 A 
ATOM     35  C   UNL A   1      42.747  22.375  28.272  1.00  0.00     0.010 A 
ATOM     36  C   UNL A   1      42.748  23.289  26.028  1.00  0.00     0.010 A 
ATOM     37  C   UNL A   1      43.161  23.364  27.373  1.00  0.00    -0.014 A 
BRANCH  37  38
ATOM     38  C   UNL A   1      43.770  24.643  27.835  1.00  0.00     0.031 A 
ATOM     39  C   UNL A   1      42.830  25.742  28.256  1.00  0.00     0.074 A 
ATOM     40  C   UNL A   1      45.092  24.879  27.780  1.00  0.00     0.049 A 
ATOM     41  N   UNL A   1      43.052  27.020  28.417  1.00  0.00    -0.248 NA
ATOM     42  C   UNL A   1      41.437  25.333  28.497  1.00  0.00     0.031 C 
ATOM     43  C   UNL A   1      46.120  23.895  27.460  1.00  0.00     0.029 A 
ATOM     44  N   UNL A   1      45.787  26.055  27.952  1.00  0.00    -0.354 N 
ATOM     45  C   UNL A   1      41.816  27.576  28.731  1.00  0.00     0.074 A 
ATOM     46  C   UNL A   1      40.853  26.497  28.728  1.00  0.00     0.031 C 
ATOM     47  C   UNL A   1      47.313  24.514  27.410  1.00  0.00     0.029 A 
ATOM     48  C   UNL A   1      47.120  25.948  27.638  1.00  0.00     0.049 A 
ATOM     49  H   UNL A   1      45.370  26.889  28.269  1.00  0.00     0.167 HD
ATOM     50  C   UNL A   1      41.506  28.870  28.979  1.00  0.00     0.031 A 
ATOM     51  C   UNL A   1      48.063  26.902  27.490  1.00  0.00     0.031 A 
ATOM     52  C   UNL A   1      42.466  29.941  28.952  1.00  0.00     0.049 A 
ATOM     53  C   UNL A   1      47.694  28.350  27.694  1.00  0.00     0.074 A 
ATOM     54  C   UNL A   1      42.268  31.287  29.206  1.00  0.00     0.029 A 
ATOM     55  N   UNL A   1      43.808  29.784  28.638  1.00  0.00    -0.354 N 
ATOM     56  N   UNL A   1      46.528  28.873  27.991  1.00  0.00    -0.248 NA
ATOM     57  C   UNL A   1      48.772  29.340  27.541  1.00  0.00     0.031 C 
ATOM     58  C   UNL A   1      43.476  31.953  28.974  1.00  0.00     0.029 A 
ATOM     59  C   UNL A   1      44.445  31.013  28.658  1.00  0.00     0.049 A 
ATOM     60  H   UNL A   1      44.244  28.926  28.431  1.00  0.00     0.167 HD
ATOM     61  C   UNL A   1      46.736  30.244  28.095  1.00  0.00     0.074 A 
ATOM     62  C   UNL A   1      48.142  30.472  27.829  1.00  0.00     0.031 C 
ATOM     63  C   UNL A   1      45.846  31.223  28.394  1.00  0.00     0.031 A 
BRANCH  50  64
ATOM     64  C   UNL A   1      40.055  29.196  29.215  1.00  0.00    -0.014 A 
ATOM     65  C   UNL A   1      39.515  29.279  30.509  1.00  0.00     0.009 A 
ATOM     66  C   UNL A   1      39.206  29.399  28.115  1.00  0.00     0.009 A 
ATOM     67  C   UNL A   1      38.146  29.495  30.692  1.00  0.00     0.001 A 
ATOM     68  C   UNL A   1      37.846  29.653  28.303  1.00  0.00     0.001 A 
ATOM     69  C   UNL A   1      37.314  29.683  29.590  1.00  0.00     0.000 A 
ENDBRANCH  50  64
BRANCH  51  70
ATOM     70  C   UNL A   1      49.442  26.513  27.085  1.00  0.00    -0.014 A 
ATOM     71  C   UNL A   1      50.404  26.173  28.047  1.00  0.00     0.009 A 
ATOM     72  C   UNL A   1      49.793  26.448  25.726  1.00  0.00     0.009 A 
ATOM     73  C   UNL A   1      51.687  25.778  27.658  1.00  0.00     0.001 A 
ATOM     74  C   UNL A   1      51.067  26.025  25.340  1.00  0.00     0.001 A 
ATOM     75  C   UNL A   1      52.014  25.694  26.307  1.00  0.00     0.000 A 
ENDBRANCH  51  70
BRANCH  63  76
ATOM     76  C   UNL A   1      46.365  32.631  28.514  1.00  0.00    -0.014 A 
ATOM     77  C   UNL A   1      46.887  33.127  29.718  1.00  0.00     0.009 A 
ATOM     78  C   UNL A   1      46.402  33.447  27.370  1.00  0.00     0.009 A 
ATOM     79  C   UNL A   1      47.418  34.419  29.776  1.00  0.00     0.001 A 
ATOM     80  C   UNL A   1      46.962  34.724  27.425  1.00  0.00     0.001 A 
ATOM     81  C   UNL A   1      47.463  35.211  28.629  1.00  0.00     0.000 A 
ENDBRANCH  63  76
ENDBRANCH  37  38
ENDBRANCH  30  32
ENDBRANCH  29  30
ENDBRANCH  28  29
ENDBRANCH  27  28
ENDBRANCH  26  27
ENDBRANCH  25  26
ENDBRANCH   1  25
TORSDOF 21
ENDMDL
