MODEL 1
REMARK VINA RESULT:      -9.8      0.000      0.000
REMARK SMILES COC(=O)c1ccccc1-c1ccc(/C=C(\C#N)C(=O)OCCOCCOCCOC(=O)c2ccc(-c3c4nc(c(-c5ccccc5)c5ccc([nH]5)c(-c5ccccc5)c5nc(c(-c6ccccc6)c6ccc3[nH]6)C=C5)C=C4)cc2)o1
REMARK SMILES IDX 25 1 24 2 23 3 22 4 21 5 19 6 20 7 16 8 15 9 14 10 11 11
REMARK SMILES IDX 12 12 81 13 13 14 10 15 5 16 6 17 7 18 9 19 8 20 3 21 4 22
REMARK SMILES IDX 2 23 1 24 17 25 18 26 26 27 27 28 28 29 29 30 30 31 31 32
REMARK SMILES IDX 32 33 33 34 34 35 80 36 35 37 79 38 36 39 37 40 38 41 73 42
REMARK SMILES IDX 39 43 78 44 72 45 74 46 40 47 77 48 71 49 70 50 41 52 63 53
REMARK SMILES IDX 48 54 62 55 49 56 52 57 61 58 75 59 50 60 51 61 60 63 76 64
REMARK SMILES IDX 53 65 42 66 43 67 47 68 44 69 46 70 45 71 64 72 65 73 69 74
REMARK SMILES IDX 66 75 68 76 67 77 54 78 55 79 59 80 56 81 58 82 57 83
REMARK H PARENT 74 51 52 62
REMARK Flexibility Score: inf
ROOT
ATOM      1  C   UNL A   1      41.667  20.083  27.478  1.00  0.00     0.188 C 
ENDROOT
BRANCH   1   2
ATOM      2  O   UNL A   1      40.401  20.712  27.323  1.00  0.00    -0.376 OA
BRANCH   2   3
ATOM      3  C   UNL A   1      39.760  20.788  26.055  1.00  0.00     0.202 C 
BRANCH   3   4
ATOM      4  C   UNL A   1      38.554  21.717  25.873  1.00  0.00     0.261 C 
BRANCH   4   5
ATOM      5  O   UNL A   1      37.817  21.464  24.669  1.00  0.00    -0.459 OA
BRANCH   5   6
ATOM      6  C   UNL A   1      36.732  20.674  24.825  1.00  0.00     0.349 C 
ATOM      7  O   UNL A   1      36.746  19.460  24.986  1.00  0.00    -0.245 OA
BRANCH   6   8
ATOM      8  C   UNL A   1      35.494  21.492  24.913  1.00  0.00     0.141 C 
ATOM      9  C   UNL A   1      35.526  22.604  24.144  1.00  0.00     0.074 C 
BRANCH   9  10
ATOM     10  C   UNL A   1      34.842  23.822  24.442  1.00  0.00     0.129 A 
ATOM     11  C   UNL A   1      33.240  25.373  24.497  1.00  0.00     0.135 A 
ATOM     12  C   UNL A   1      34.194  25.781  25.400  1.00  0.00     0.051 A 
ATOM     13  O   UNL A   1      33.621  24.198  23.926  1.00  0.00    -0.457 OA
ATOM     14  C   UNL A   1      35.215  24.802  25.359  1.00  0.00     0.051 A 
BRANCH  11  15
ATOM     15  C   UNL A   1      31.996  25.955  24.017  1.00  0.00     0.032 A 
ATOM     16  C   UNL A   1      31.869  26.486  22.719  1.00  0.00     0.071 A 
ATOM     17  C   UNL A   1      30.691  27.144  22.329  1.00  0.00     0.016 A 
ATOM     18  C   UNL A   1      29.624  27.260  23.220  1.00  0.00     0.001 A 
ATOM     19  C   UNL A   1      30.904  26.066  24.895  1.00  0.00     0.013 A 
ATOM     20  C   UNL A   1      29.729  26.718  24.499  1.00  0.00     0.001 A 
BRANCH  16  21
ATOM     21  C   UNL A   1      32.965  26.433  21.726  1.00  0.00     0.338 C 
ATOM     22  O   UNL A   1      33.823  27.294  21.628  1.00  0.00    -0.246 OA
BRANCH  21  23
ATOM     23  O   UNL A   1      32.846  25.324  20.959  1.00  0.00    -0.465 OA
ATOM     24  C   UNL A   1      32.586  25.591  19.582  1.00  0.00     0.282 C 
ENDBRANCH  21  23
ENDBRANCH  16  21
ENDBRANCH  11  15
ENDBRANCH   9  10
BRANCH   8  25
ATOM     25  C   UNL A   1      34.729  21.458  26.225  1.00  0.00     0.107 C 
ATOM     26  N   UNL A   1      34.094  21.430  27.314  1.00  0.00    -0.192 NA
ENDBRANCH   8  25
ENDBRANCH   6   8
ENDBRANCH   5   6
ENDBRANCH   4   5
ENDBRANCH   3   4
ENDBRANCH   2   3
ENDBRANCH   1   2
BRANCH   1  27
ATOM     27  C   UNL A   1      42.497  19.649  26.249  1.00  0.00     0.188 C 
BRANCH  27  28
ATOM     28  O   UNL A   1      43.562  20.500  25.938  1.00  0.00    -0.376 OA
BRANCH  28  29
ATOM     29  C   UNL A   1      43.310  21.647  25.155  1.00  0.00     0.202 C 
BRANCH  29  30
ATOM     30  C   UNL A   1      44.391  22.402  24.347  1.00  0.00     0.261 C 
BRANCH  30  31
ATOM     31  O   UNL A   1      44.342  23.836  24.274  1.00  0.00    -0.460 OA
BRANCH  31  32
ATOM     32  C   UNL A   1      45.059  24.528  25.189  1.00  0.00     0.338 C 
ATOM     33  O   UNL A   1      46.278  24.648  25.227  1.00  0.00    -0.246 OA
BRANCH  32  34
ATOM     34  C   UNL A   1      44.138  25.328  26.032  1.00  0.00     0.060 A 
ATOM     35  C   UNL A   1      44.276  26.726  26.057  1.00  0.00     0.016 A 
ATOM     36  C   UNL A   1      43.168  24.708  26.820  1.00  0.00     0.016 A 
ATOM     37  C   UNL A   1      43.484  27.498  26.912  1.00  0.00     0.010 A 
ATOM     38  C   UNL A   1      42.391  25.481  27.692  1.00  0.00     0.010 A 
ATOM     39  C   UNL A   1      42.577  26.874  27.776  1.00  0.00    -0.014 A 
BRANCH  39  40
ATOM     40  C   UNL A   1      41.997  27.635  28.915  1.00  0.00     0.031 A 
ATOM     41  C   UNL A   1      42.711  27.586  30.242  1.00  0.00     0.074 A 
ATOM     42  C   UNL A   1      40.881  28.375  28.785  1.00  0.00     0.049 A 
ATOM     43  N   UNL A   1      42.386  28.137  31.384  1.00  0.00    -0.248 NA
ATOM     44  C   UNL A   1      43.960  26.808  30.284  1.00  0.00     0.031 C 
ATOM     45  C   UNL A   1      40.116  28.552  27.555  1.00  0.00     0.029 A 
ATOM     46  N   UNL A   1      40.196  29.116  29.719  1.00  0.00    -0.354 N 
ATOM     47  C   UNL A   1      43.382  27.763  32.279  1.00  0.00     0.074 A 
ATOM     48  C   UNL A   1      44.304  26.915  31.558  1.00  0.00     0.031 C 
ATOM     49  C   UNL A   1      39.060  29.345  27.809  1.00  0.00     0.029 A 
ATOM     50  C   UNL A   1      39.056  29.704  29.227  1.00  0.00     0.049 A 
ATOM     51  H   UNL A   1      40.494  29.216  30.652  1.00  0.00     0.167 HD
ATOM     52  C   UNL A   1      43.525  28.098  33.585  1.00  0.00     0.031 A 
ATOM     53  C   UNL A   1      38.108  30.430  29.853  1.00  0.00     0.031 A 
ATOM     54  C   UNL A   1      42.602  28.926  34.314  1.00  0.00     0.049 A 
ATOM     55  C   UNL A   1      38.242  30.719  31.327  1.00  0.00     0.074 A 
ATOM     56  C   UNL A   1      42.668  29.329  35.636  1.00  0.00     0.029 A 
ATOM     57  N   UNL A   1      41.441  29.467  33.787  1.00  0.00    -0.354 N 
ATOM     58  N   UNL A   1      39.202  30.383  32.154  1.00  0.00    -0.248 NA
ATOM     59  C   UNL A   1      37.163  31.502  31.950  1.00  0.00     0.031 C 
ATOM     60  C   UNL A   1      41.514  30.063  35.927  1.00  0.00     0.029 A 
ATOM     61  C   UNL A   1      40.767  30.179  34.765  1.00  0.00     0.049 A 
ATOM     62  H   UNL A   1      41.140  29.362  32.856  1.00  0.00     0.167 HD
ATOM     63  C   UNL A   1      38.861  30.943  33.382  1.00  0.00     0.074 A 
ATOM     64  C   UNL A   1      37.614  31.650  33.188  1.00  0.00     0.031 C 
ATOM     65  C   UNL A   1      39.528  30.883  34.562  1.00  0.00     0.031 A 
BRANCH  52  66
ATOM     66  C   UNL A   1      44.709  27.530  34.318  1.00  0.00    -0.014 A 
ATOM     67  C   UNL A   1      44.690  26.227  34.842  1.00  0.00     0.009 A 
ATOM     68  C   UNL A   1      45.874  28.301  34.460  1.00  0.00     0.009 A 
ATOM     69  C   UNL A   1      45.799  25.725  35.527  1.00  0.00     0.001 A 
ATOM     70  C   UNL A   1      46.992  27.783  35.116  1.00  0.00     0.001 A 
ATOM     71  C   UNL A   1      46.950  26.501  35.659  1.00  0.00     0.000 A 
ENDBRANCH  52  66
BRANCH  53  72
ATOM     72  C   UNL A   1      36.929  30.933  29.097  1.00  0.00    -0.014 A 
ATOM     73  C   UNL A   1      35.884  30.066  28.737  1.00  0.00     0.009 A 
ATOM     74  C   UNL A   1      36.857  32.278  28.702  1.00  0.00     0.009 A 
ATOM     75  C   UNL A   1      34.808  30.531  27.976  1.00  0.00     0.001 A 
ATOM     76  C   UNL A   1      35.765  32.746  27.969  1.00  0.00     0.001 A 
ATOM     77  C   UNL A   1      34.745  31.871  27.598  1.00  0.00     0.000 A 
ENDBRANCH  53  72
BRANCH  65  78
ATOM     78  C   UNL A   1      38.955  31.648  35.725  1.00  0.00    -0.014 A 
ATOM     79  C   UNL A   1      39.195  33.020  35.898  1.00  0.00     0.009 A 
ATOM     80  C   UNL A   1      38.119  30.986  36.641  1.00  0.00     0.009 A 
ATOM     81  C   UNL A   1      38.641  33.703  36.984  1.00  0.00     0.001 A 
ATOM     82  C   UNL A   1      37.540  31.678  37.705  1.00  0.00     0.001 A 
ATOM     83  C   UNL A   1      37.810  33.033  37.883  1.00  0.00     0.000 A 
ENDBRANCH  65  78
ENDBRANCH  39  40
ENDBRANCH  32  34
ENDBRANCH  31  32
ENDBRANCH  30  31
ENDBRANCH  29  30
ENDBRANCH  28  29
ENDBRANCH  27  28
ENDBRANCH   1  27
TORSDOF 22
ENDMDL
MODEL 2
REMARK VINA RESULT:      -9.0      3.460      8.995
REMARK SMILES COC(=O)c1ccccc1-c1ccc(/C=C(\C#N)C(=O)OCCOCCOCCOC(=O)c2ccc(-c3c4nc(c(-c5ccccc5)c5ccc([nH]5)c(-c5ccccc5)c5nc(c(-c6ccccc6)c6ccc3[nH]6)C=C5)C=C4)cc2)o1
REMARK SMILES IDX 25 1 24 2 23 3 22 4 21 5 19 6 20 7 16 8 15 9 14 10 11 11
REMARK SMILES IDX 12 12 81 13 13 14 10 15 5 16 6 17 7 18 9 19 8 20 3 21 4 22
REMARK SMILES IDX 2 23 1 24 17 25 18 26 26 27 27 28 28 29 29 30 30 31 31 32
REMARK SMILES IDX 32 33 33 34 34 35 80 36 35 37 79 38 36 39 37 40 38 41 73 42
REMARK SMILES IDX 39 43 78 44 72 45 74 46 40 47 77 48 71 49 70 50 41 52 63 53
REMARK SMILES IDX 48 54 62 55 49 56 52 57 61 58 75 59 50 60 51 61 60 63 76 64
REMARK SMILES IDX 53 65 42 66 43 67 47 68 44 69 46 70 45 71 64 72 65 73 69 74
REMARK SMILES IDX 66 75 68 76 67 77 54 78 55 79 59 80 56 81 58 82 57 83
REMARK H PARENT 74 51 52 62
REMARK Flexibility Score: inf
ROOT
ATOM      1  C   UNL A   1      32.811  28.581  26.221  1.00  0.00     0.188 C 
ENDROOT
BRANCH   1   2
ATOM      2  O   UNL A   1      32.496  29.406  25.105  1.00  0.00    -0.376 OA
BRANCH   2   3
ATOM      3  C   UNL A   1      31.190  29.940  24.922  1.00  0.00     0.202 C 
BRANCH   3   4
ATOM      4  C   UNL A   1      30.423  29.633  23.630  1.00  0.00     0.261 C 
BRANCH   4   5
ATOM      5  O   UNL A   1      30.912  28.474  22.941  1.00  0.00    -0.459 OA
BRANCH   5   6
ATOM      6  C   UNL A   1      30.424  27.298  23.392  1.00  0.00     0.349 C 
ATOM      7  O   UNL A   1      29.523  27.163  24.211  1.00  0.00    -0.245 OA
BRANCH   6   8
ATOM      8  C   UNL A   1      31.034  26.159  22.659  1.00  0.00     0.141 C 
ATOM      9  C   UNL A   1      30.728  24.951  23.184  1.00  0.00     0.074 C 
BRANCH   9  10
ATOM     10  C   UNL A   1      31.570  23.798  23.127  1.00  0.00     0.129 A 
ATOM     11  C   UNL A   1      33.295  22.437  23.504  1.00  0.00     0.135 A 
ATOM     12  C   UNL A   1      32.351  21.681  22.849  1.00  0.00     0.051 A 
ATOM     13  O   UNL A   1      32.829  23.703  23.677  1.00  0.00    -0.457 OA
ATOM     14  C   UNL A   1      31.260  22.547  22.601  1.00  0.00     0.051 A 
BRANCH  11  15
ATOM     15  C   UNL A   1      34.648  22.173  23.970  1.00  0.00     0.032 A 
ATOM     16  C   UNL A   1      34.917  21.275  25.021  1.00  0.00     0.071 A 
ATOM     17  C   UNL A   1      36.221  21.132  25.522  1.00  0.00     0.016 A 
ATOM     18  C   UNL A   1      37.269  21.865  24.967  1.00  0.00     0.001 A 
ATOM     19  C   UNL A   1      35.721  22.890  23.413  1.00  0.00     0.013 A 
ATOM     20  C   UNL A   1      37.020  22.740  23.912  1.00  0.00     0.001 A 
BRANCH  16  21
ATOM     21  C   UNL A   1      33.855  20.485  25.683  1.00  0.00     0.338 C 
ATOM     22  O   UNL A   1      33.658  19.303  25.456  1.00  0.00    -0.246 OA
BRANCH  21  23
ATOM     23  O   UNL A   1      33.150  21.270  26.532  1.00  0.00    -0.465 OA
ATOM     24  C   UNL A   1      33.916  21.802  27.611  1.00  0.00     0.282 C 
ENDBRANCH  21  23
ENDBRANCH  16  21
ENDBRANCH  11  15
ENDBRANCH   9  10
BRANCH   8  25
ATOM     25  C   UNL A   1      32.365  26.407  21.969  1.00  0.00     0.107 C 
ATOM     26  N   UNL A   1      33.470  26.614  21.397  1.00  0.00    -0.192 NA
ENDBRANCH   8  25
ENDBRANCH   6   8
ENDBRANCH   5   6
ENDBRANCH   4   5
ENDBRANCH   3   4
ENDBRANCH   2   3
ENDBRANCH   1   2
BRANCH   1  27
ATOM     27  C   UNL A   1      34.238  28.554  26.814  1.00  0.00     0.188 C 
BRANCH  27  28
ATOM     28  O   UNL A   1      34.812  29.815  27.000  1.00  0.00    -0.376 OA
BRANCH  28  29
ATOM     29  C   UNL A   1      34.130  30.763  27.792  1.00  0.00     0.202 C 
BRANCH  29  30
ATOM     30  C   UNL A   1      33.560  32.096  27.254  1.00  0.00     0.261 C 
BRANCH  30  31
ATOM     31  O   UNL A   1      32.769  32.924  28.122  1.00  0.00    -0.460 OA
BRANCH  31  32
ATOM     32  C   UNL A   1      33.297  34.113  28.495  1.00  0.00     0.338 C 
ATOM     33  O   UNL A   1      32.783  35.218  28.362  1.00  0.00    -0.246 OA
BRANCH  32  34
ATOM     34  C   UNL A   1      34.512  33.876  29.310  1.00  0.00     0.060 A 
ATOM     35  C   UNL A   1      35.767  34.224  28.782  1.00  0.00     0.016 A 
ATOM     36  C   UNL A   1      34.424  33.283  30.570  1.00  0.00     0.016 A 
ATOM     37  C   UNL A   1      36.937  33.927  29.488  1.00  0.00     0.010 A 
ATOM     38  C   UNL A   1      35.598  32.966  31.267  1.00  0.00     0.010 A 
ATOM     39  C   UNL A   1      36.861  33.244  30.709  1.00  0.00    -0.014 A 
BRANCH  39  40
ATOM     40  C   UNL A   1      38.083  32.622  31.285  1.00  0.00     0.031 A 
ATOM     41  C   UNL A   1      38.632  31.384  30.621  1.00  0.00     0.074 A 
ATOM     42  C   UNL A   1      38.714  33.142  32.352  1.00  0.00     0.049 A 
ATOM     43  N   UNL A   1      39.661  30.647  30.955  1.00  0.00    -0.248 NA
ATOM     44  C   UNL A   1      37.922  30.916  29.419  1.00  0.00     0.031 C 
ATOM     45  C   UNL A   1      38.324  34.356  33.063  1.00  0.00     0.029 A 
ATOM     46  N   UNL A   1      39.827  32.697  33.027  1.00  0.00    -0.354 N 
ATOM     47  C   UNL A   1      39.714  29.625  30.013  1.00  0.00     0.074 A 
ATOM     48  C   UNL A   1      38.597  29.819  29.115  1.00  0.00     0.031 C 
ATOM     49  C   UNL A   1      39.179  34.558  34.082  1.00  0.00     0.029 A 
ATOM     50  C   UNL A   1      40.156  33.470  34.115  1.00  0.00     0.049 A 
ATOM     51  H   UNL A   1      40.338  31.901  32.757  1.00  0.00     0.167 HD
ATOM     52  C   UNL A   1      40.611  28.617  29.898  1.00  0.00     0.031 A 
ATOM     53  C   UNL A   1      41.121  33.305  35.042  1.00  0.00     0.031 A 
ATOM     54  C   UNL A   1      41.713  28.407  30.798  1.00  0.00     0.049 A 
ATOM     55  C   UNL A   1      42.057  32.127  34.945  1.00  0.00     0.074 A 
ATOM     56  C   UNL A   1      42.682  27.419  30.756  1.00  0.00     0.029 A 
ATOM     57  N   UNL A   1      41.985  29.189  31.908  1.00  0.00    -0.354 N 
ATOM     58  N   UNL A   1      42.112  31.185  34.034  1.00  0.00    -0.248 NA
ATOM     59  C   UNL A   1      43.074  31.998  35.999  1.00  0.00     0.031 C 
ATOM     60  C   UNL A   1      43.505  27.568  31.877  1.00  0.00     0.029 A 
ATOM     61  C   UNL A   1      43.092  28.691  32.575  1.00  0.00     0.049 A 
ATOM     62  H   UNL A   1      41.470  29.982  32.182  1.00  0.00     0.167 HD
ATOM     63  C   UNL A   1      43.189  30.377  34.386  1.00  0.00     0.074 A 
ATOM     64  C   UNL A   1      43.766  30.947  35.584  1.00  0.00     0.031 C 
ATOM     65  C   UNL A   1      43.662  29.268  33.765  1.00  0.00     0.031 A 
BRANCH  52  66
ATOM     66  C   UNL A   1      40.410  27.638  28.774  1.00  0.00    -0.014 A 
ATOM     67  C   UNL A   1      39.626  26.485  28.938  1.00  0.00     0.009 A 
ATOM     68  C   UNL A   1      40.990  27.891  27.520  1.00  0.00     0.009 A 
ATOM     69  C   UNL A   1      39.461  25.585  27.881  1.00  0.00     0.001 A 
ATOM     70  C   UNL A   1      40.796  27.007  26.457  1.00  0.00     0.001 A 
ATOM     71  C   UNL A   1      40.041  25.850  26.641  1.00  0.00     0.000 A 
ENDBRANCH  52  66
BRANCH  53  72
ATOM     72  C   UNL A   1      41.253  34.274  36.165  1.00  0.00    -0.014 A 
ATOM     73  C   UNL A   1      40.614  34.041  37.393  1.00  0.00     0.009 A 
ATOM     74  C   UNL A   1      41.994  35.455  36.001  1.00  0.00     0.009 A 
ATOM     75  C   UNL A   1      40.694  34.982  38.424  1.00  0.00     0.001 A 
ATOM     76  C   UNL A   1      42.098  36.379  37.043  1.00  0.00     0.001 A 
ATOM     77  C   UNL A   1      41.440  36.146  38.250  1.00  0.00     0.000 A 
ENDBRANCH  53  72
BRANCH  65  78
ATOM     78  C   UNL A   1      44.898  28.624  34.334  1.00  0.00    -0.014 A 
ATOM     79  C   UNL A   1      46.183  28.963  33.883  1.00  0.00     0.009 A 
ATOM     80  C   UNL A   1      44.771  27.692  35.379  1.00  0.00     0.009 A 
ATOM     81  C   UNL A   1      47.311  28.354  34.439  1.00  0.00     0.001 A 
ATOM     82  C   UNL A   1      45.902  27.111  35.955  1.00  0.00     0.001 A 
ATOM     83  C   UNL A   1      47.170  27.433  35.478  1.00  0.00     0.000 A 
ENDBRANCH  65  78
ENDBRANCH  39  40
ENDBRANCH  32  34
ENDBRANCH  31  32
ENDBRANCH  30  31
ENDBRANCH  29  30
ENDBRANCH  28  29
ENDBRANCH  27  28
ENDBRANCH   1  27
TORSDOF 22
ENDMDL
MODEL 3
REMARK VINA RESULT:      -8.7      6.403      9.030
REMARK SMILES COC(=O)c1ccccc1-c1ccc(/C=C(\C#N)C(=O)OCCOCCOCCOC(=O)c2ccc(-c3c4nc(c(-c5ccccc5)c5ccc([nH]5)c(-c5ccccc5)c5nc(c(-c6ccccc6)c6ccc3[nH]6)C=C5)C=C4)cc2)o1
REMARK SMILES IDX 25 1 24 2 23 3 22 4 21 5 19 6 20 7 16 8 15 9 14 10 11 11
REMARK SMILES IDX 12 12 81 13 13 14 10 15 5 16 6 17 7 18 9 19 8 20 3 21 4 22
REMARK SMILES IDX 2 23 1 24 17 25 18 26 26 27 27 28 28 29 29 30 30 31 31 32
REMARK SMILES IDX 32 33 33 34 34 35 80 36 35 37 79 38 36 39 37 40 38 41 73 42
REMARK SMILES IDX 39 43 78 44 72 45 74 46 40 47 77 48 71 49 70 50 41 52 63 53
REMARK SMILES IDX 48 54 62 55 49 56 52 57 61 58 75 59 50 60 51 61 60 63 76 64
REMARK SMILES IDX 53 65 42 66 43 67 47 68 44 69 46 70 45 71 64 72 65 73 69 74
REMARK SMILES IDX 66 75 68 76 67 77 54 78 55 79 59 80 56 81 58 82 57 83
REMARK H PARENT 74 51 52 62
REMARK Flexibility Score: inf
ROOT
ATOM      1  C   UNL A   1      40.143  23.299  27.261  1.00  0.00     0.188 C 
ENDROOT
BRANCH   1   2
ATOM      2  O   UNL A   1      38.743  23.201  27.028  1.00  0.00    -0.376 OA
BRANCH   2   3
ATOM      3  C   UNL A   1      38.105  23.963  26.009  1.00  0.00     0.202 C 
BRANCH   3   4
ATOM      4  C   UNL A   1      36.650  23.655  25.636  1.00  0.00     0.261 C 
BRANCH   4   5
ATOM      5  O   UNL A   1      36.144  22.463  26.252  1.00  0.00    -0.459 OA
BRANCH   5   6
ATOM      6  C   UNL A   1      35.352  21.708  25.460  1.00  0.00     0.349 C 
ATOM      7  O   UNL A   1      35.711  20.740  24.800  1.00  0.00    -0.245 OA
BRANCH   6   8
ATOM      8  C   UNL A   1      33.931  22.120  25.592  1.00  0.00     0.141 C 
ATOM      9  C   UNL A   1      33.496  22.896  24.573  1.00  0.00     0.074 C 
BRANCH   9  10
ATOM     10  C   UNL A   1      32.481  23.896  24.684  1.00  0.00     0.129 A 
ATOM     11  C   UNL A   1      31.511  25.875  25.021  1.00  0.00     0.135 A 
ATOM     12  C   UNL A   1      30.537  25.061  24.491  1.00  0.00     0.051 A 
ATOM     13  O   UNL A   1      32.677  25.184  25.133  1.00  0.00    -0.457 OA
ATOM     14  C   UNL A   1      31.150  23.802  24.286  1.00  0.00     0.051 A 
BRANCH  11  15
ATOM     15  C   UNL A   1      31.517  27.244  25.513  1.00  0.00     0.032 A 
ATOM     16  C   UNL A   1      31.565  28.353  24.646  1.00  0.00     0.071 A 
ATOM     17  C   UNL A   1      31.687  29.655  25.156  1.00  0.00     0.016 A 
ATOM     18  C   UNL A   1      31.742  29.866  26.534  1.00  0.00     0.001 A 
ATOM     19  C   UNL A   1      31.557  27.478  26.898  1.00  0.00     0.013 A 
ATOM     20  C   UNL A   1      31.673  28.779  27.403  1.00  0.00     0.001 A 
BRANCH  16  21
ATOM     21  C   UNL A   1      31.545  28.211  23.172  1.00  0.00     0.338 C 
ATOM     22  O   UNL A   1      30.518  28.197  22.515  1.00  0.00    -0.246 OA
BRANCH  21  23
ATOM     23  O   UNL A   1      32.806  28.079  22.699  1.00  0.00    -0.465 OA
ATOM     24  C   UNL A   1      33.822  28.446  23.630  1.00  0.00     0.282 C 
ENDBRANCH  21  23
ENDBRANCH  16  21
ENDBRANCH  11  15
ENDBRANCH   9  10
BRANCH   8  25
ATOM     25  C   UNL A   1      33.379  22.278  26.999  1.00  0.00     0.107 C 
ATOM     26  N   UNL A   1      32.920  22.410  28.166  1.00  0.00    -0.192 NA
ENDBRANCH   8  25
ENDBRANCH   6   8
ENDBRANCH   5   6
ENDBRANCH   4   5
ENDBRANCH   3   4
ENDBRANCH   2   3
ENDBRANCH   1   2
BRANCH   1  27
ATOM     27  C   UNL A   1      40.938  22.108  27.844  1.00  0.00     0.188 C 
BRANCH  27  28
ATOM     28  O   UNL A   1      41.019  20.996  27.000  1.00  0.00    -0.376 OA
BRANCH  28  29
ATOM     29  C   UNL A   1      42.291  20.470  26.689  1.00  0.00     0.202 C 
BRANCH  29  30
ATOM     30  C   UNL A   1      43.359  21.216  25.856  1.00  0.00     0.261 C 
BRANCH  30  31
ATOM     31  O   UNL A   1      43.874  22.470  26.333  1.00  0.00    -0.460 OA
BRANCH  31  32
ATOM     32  C   UNL A   1      45.216  22.640  26.306  1.00  0.00     0.338 C 
ATOM     33  O   UNL A   1      46.060  21.782  26.076  1.00  0.00    -0.246 OA
BRANCH  32  34
ATOM     34  C   UNL A   1      45.529  24.088  26.373  1.00  0.00     0.060 A 
ATOM     35  C   UNL A   1      45.307  24.887  25.239  1.00  0.00     0.016 A 
ATOM     36  C   UNL A   1      46.070  24.650  27.530  1.00  0.00     0.016 A 
ATOM     37  C   UNL A   1      45.679  26.235  25.243  1.00  0.00     0.010 A 
ATOM     38  C   UNL A   1      46.461  25.995  27.524  1.00  0.00     0.010 A 
ATOM     39  C   UNL A   1      46.311  26.782  26.366  1.00  0.00    -0.014 A 
BRANCH  39  40
ATOM     40  C   UNL A   1      47.016  28.087  26.256  1.00  0.00     0.031 A 
ATOM     41  C   UNL A   1      48.501  28.075  25.993  1.00  0.00     0.074 A 
ATOM     42  C   UNL A   1      46.367  29.261  26.360  1.00  0.00     0.049 A 
ATOM     43  N   UNL A   1      49.336  29.078  25.888  1.00  0.00    -0.248 NA
ATOM     44  C   UNL A   1      49.124  26.752  25.826  1.00  0.00     0.031 C 
ATOM     45  C   UNL A   1      44.930  29.423  26.566  1.00  0.00     0.029 A 
ATOM     46  N   UNL A   1      46.848  30.547  26.308  1.00  0.00    -0.354 N 
ATOM     47  C   UNL A   1      50.582  28.506  25.656  1.00  0.00     0.074 A 
ATOM     48  C   UNL A   1      50.399  27.071  25.666  1.00  0.00     0.031 C 
ATOM     49  C   UNL A   1      44.645  30.736  26.632  1.00  0.00     0.029 A 
ATOM     50  C   UNL A   1      45.883  31.505  26.506  1.00  0.00     0.049 A 
ATOM     51  H   UNL A   1      47.795  30.762  26.146  1.00  0.00     0.167 HD
ATOM     52  C   UNL A   1      51.774  29.115  25.446  1.00  0.00     0.031 A 
ATOM     53  C   UNL A   1      45.990  32.846  26.598  1.00  0.00     0.031 A 
ATOM     54  C   UNL A   1      51.968  30.540  25.454  1.00  0.00     0.049 A 
ATOM     55  C   UNL A   1      47.341  33.499  26.447  1.00  0.00     0.074 A 
ATOM     56  C   UNL A   1      53.136  31.251  25.240  1.00  0.00     0.029 A 
ATOM     57  N   UNL A   1      50.971  31.470  25.697  1.00  0.00    -0.354 N 
ATOM     58  N   UNL A   1      48.505  32.949  26.201  1.00  0.00    -0.248 NA
ATOM     59  C   UNL A   1      47.388  34.964  26.575  1.00  0.00     0.031 C 
ATOM     60  C   UNL A   1      52.858  32.610  25.417  1.00  0.00     0.029 A 
ATOM     61  C   UNL A   1      51.502  32.749  25.667  1.00  0.00     0.049 A 
ATOM     62  H   UNL A   1      50.026  31.255  25.867  1.00  0.00     0.167 HD
ATOM     63  C   UNL A   1      49.412  34.000  26.108  1.00  0.00     0.074 A 
ATOM     64  C   UNL A   1      48.661  35.220  26.312  1.00  0.00     0.031 C 
ATOM     65  C   UNL A   1      50.746  33.958  25.866  1.00  0.00     0.031 A 
BRANCH  52  66
ATOM     66  C   UNL A   1      52.973  28.232  25.231  1.00  0.00    -0.014 A 
ATOM     67  C   UNL A   1      53.816  27.870  26.294  1.00  0.00     0.009 A 
ATOM     68  C   UNL A   1      53.245  27.729  23.949  1.00  0.00     0.009 A 
ATOM     69  C   UNL A   1      54.929  27.056  26.068  1.00  0.00     0.001 A 
ATOM     70  C   UNL A   1      54.338  26.889  23.732  1.00  0.00     0.001 A 
ATOM     71  C   UNL A   1      55.186  26.562  24.789  1.00  0.00     0.000 A 
ENDBRANCH  52  66
BRANCH  53  72
ATOM     72  C   UNL A   1      44.783  33.677  26.858  1.00  0.00    -0.014 A 
ATOM     73  C   UNL A   1      44.086  34.282  25.800  1.00  0.00     0.009 A 
ATOM     74  C   UNL A   1      44.339  33.895  28.172  1.00  0.00     0.009 A 
ATOM     75  C   UNL A   1      42.987  35.108  26.054  1.00  0.00     0.001 A 
ATOM     76  C   UNL A   1      43.223  34.696  28.421  1.00  0.00     0.001 A 
ATOM     77  C   UNL A   1      42.553  35.309  27.364  1.00  0.00     0.000 A 
ENDBRANCH  53  72
BRANCH  65  78
ATOM     78  C   UNL A   1      51.476  35.269  25.752  1.00  0.00    -0.014 A 
ATOM     79  C   UNL A   1      52.052  35.894  26.868  1.00  0.00     0.009 A 
ATOM     80  C   UNL A   1      51.628  35.866  24.488  1.00  0.00     0.009 A 
ATOM     81  C   UNL A   1      52.731  37.108  26.727  1.00  0.00     0.001 A 
ATOM     82  C   UNL A   1      52.335  37.061  24.346  1.00  0.00     0.001 A 
ATOM     83  C   UNL A   1      52.876  37.686  25.466  1.00  0.00     0.000 A 
ENDBRANCH  65  78
ENDBRANCH  39  40
ENDBRANCH  32  34
ENDBRANCH  31  32
ENDBRANCH  30  31
ENDBRANCH  29  30
ENDBRANCH  28  29
ENDBRANCH  27  28
ENDBRANCH   1  27
TORSDOF 22
ENDMDL
