MODEL 1
REMARK VINA RESULT:      -7.5      0.000      0.000
REMARK SMILES CCC(CC)COc1cc2c(cc1Cl)C=C(C(=O)OCCOCCOCCOC(=O)c1ccc(-c3c4nc(c(-c5ccccc5)c5ccc([nH]5)c(-c5ccccc5)c5nc(c(-c6ccccc6)c6ccc3[nH]6)C=C5)C=C4)cc1)[C@@H](C(F)(F)F)O2
REMARK SMILES IDX 23 1 22 2 21 3 20 4 19 5 17 6 18 7 16 8 8 9 9 10 13 11 10 12
REMARK SMILES IDX 12 13 14 14 11 15 84 16 15 17 79 18 7 19 6 20 3 21 2 22 1 23
REMARK SMILES IDX 4 24 5 25 80 26 81 27 82 28 83 29 24 30 25 31 26 32 27 33
REMARK SMILES IDX 28 34 29 35 30 36 31 37 32 38 78 39 33 40 77 41 34 42 35 43
REMARK SMILES IDX 36 44 71 45 37 46 76 47 70 48 72 49 38 50 75 51 69 52 68 53
REMARK SMILES IDX 39 55 61 56 46 57 60 58 47 59 50 60 59 61 73 62 48 63 49 64
REMARK SMILES IDX 58 66 74 67 51 68 40 69 41 70 45 71 42 72 44 73 43 74 62 75
REMARK SMILES IDX 63 76 67 77 64 78 66 79 65 80 52 81 53 82 57 83 54 84 56 85
REMARK SMILES IDX 55 86
REMARK H PARENT 72 54 50 65
REMARK Flexibility Score: inf
ROOT
ATOM      1  C   UNL A   1      33.305  35.021  30.399  1.00  0.00     0.188 C 
ENDROOT
BRANCH   1   2
ATOM      2  O   UNL A   1      34.380  34.677  31.241  1.00  0.00    -0.376 OA
BRANCH   2   3
ATOM      3  C   UNL A   1      34.197  34.491  32.635  1.00  0.00     0.202 C 
BRANCH   3   4
ATOM      4  C   UNL A   1      34.940  35.246  33.753  1.00  0.00     0.261 C 
BRANCH   4   5
ATOM      5  O   UNL A   1      36.298  34.873  34.005  1.00  0.00    -0.460 OA
BRANCH   5   6
ATOM      6  C   UNL A   1      36.445  33.908  34.941  1.00  0.00     0.338 C 
ATOM      7  O   UNL A   1      35.633  33.606  35.803  1.00  0.00    -0.246 OA
BRANCH   6   8
ATOM      8  C   UNL A   1      37.664  33.118  34.693  1.00  0.00     0.087 C 
ATOM      9  C   UNL A   1      40.647  29.341  33.370  1.00  0.00     0.141 A 
ATOM     10  C   UNL A   1      40.898  30.549  34.038  1.00  0.00     0.095 A 
ATOM     11  C   UNL A   1      39.341  29.031  32.975  1.00  0.00     0.083 A 
ATOM     12  C   UNL A   1      39.855  31.467  34.223  1.00  0.00     0.131 A 
ATOM     13  C   UNL A   1      38.354  30.009  33.008  1.00  0.00     0.036 A 
ATOM     14  Cl  UNL A   1      38.860  27.449  32.484  1.00  0.00    -0.080 Cl
ATOM     15  C   UNL A   1      38.616  31.228  33.626  1.00  0.00     0.019 A 
ATOM     16  O   UNL A   1      40.082  32.581  34.993  1.00  0.00    -0.475 OA
ATOM     17  C   UNL A   1      37.547  32.196  33.733  1.00  0.00     0.027 C 
ATOM     18  C   UNL A   1      38.901  33.270  35.535  1.00  0.00     0.316 C 
BRANCH   9  19
ATOM     19  O   UNL A   1      41.653  28.424  33.204  1.00  0.00    -0.492 OA
BRANCH  19  20
ATOM     20  C   UNL A   1      42.441  28.177  34.396  1.00  0.00     0.233 C 
BRANCH  20  21
ATOM     21  C   UNL A   1      43.964  28.411  34.196  1.00  0.00     0.026 C 
BRANCH  21  22
ATOM     22  C   UNL A   1      44.579  29.192  35.382  1.00  0.00     0.003 C 
ATOM     23  C   UNL A   1      45.766  30.056  34.979  1.00  0.00     0.004 C 
ENDBRANCH  21  22
BRANCH  21  24
ATOM     24  C   UNL A   1      44.743  27.106  33.910  1.00  0.00     0.003 C 
ATOM     25  C   UNL A   1      44.074  26.128  32.957  1.00  0.00     0.004 C 
ENDBRANCH  21  24
ENDBRANCH  20  21
ENDBRANCH  19  20
ENDBRANCH   9  19
BRANCH  18  26
ATOM     26  C   UNL A   1      38.618  32.847  36.984  1.00  0.00     0.430 C 
ATOM     27  F   UNL A   1      37.774  31.792  37.045  1.00  0.00    -0.167 F 
ATOM     28  F   UNL A   1      39.760  32.473  37.611  1.00  0.00    -0.167 F 
ATOM     29  F   UNL A   1      38.074  33.850  37.710  1.00  0.00    -0.167 F 
ENDBRANCH  18  26
ENDBRANCH   6   8
ENDBRANCH   5   6
ENDBRANCH   4   5
ENDBRANCH   3   4
ENDBRANCH   2   3
ENDBRANCH   1   2
BRANCH   1  30
ATOM     30  C   UNL A   1      33.619  35.772  29.090  1.00  0.00     0.188 C 
BRANCH  30  31
ATOM     31  O   UNL A   1      34.080  35.066  27.958  1.00  0.00    -0.376 OA
BRANCH  31  32
ATOM     32  C   UNL A   1      33.731  33.700  27.783  1.00  0.00     0.202 C 
BRANCH  32  33
ATOM     33  C   UNL A   1      34.683  32.523  28.071  1.00  0.00     0.261 C 
BRANCH  33  34
ATOM     34  O   UNL A   1      34.085  31.257  28.367  1.00  0.00    -0.460 OA
BRANCH  34  35
ATOM     35  C   UNL A   1      34.534  30.211  27.622  1.00  0.00     0.338 C 
ATOM     36  O   UNL A   1      33.991  29.696  26.669  1.00  0.00    -0.246 OA
BRANCH  35  37
ATOM     37  C   UNL A   1      35.923  29.915  28.031  1.00  0.00     0.060 A 
ATOM     38  C   UNL A   1      36.211  29.556  29.346  1.00  0.00     0.016 A 
ATOM     39  C   UNL A   1      36.945  29.999  27.074  1.00  0.00     0.016 A 
ATOM     40  C   UNL A   1      37.529  29.261  29.699  1.00  0.00     0.010 A 
ATOM     41  C   UNL A   1      38.266  29.717  27.433  1.00  0.00     0.010 A 
ATOM     42  C   UNL A   1      38.562  29.323  28.745  1.00  0.00    -0.014 A 
BRANCH  42  43
ATOM     43  C   UNL A   1      39.911  28.812  29.096  1.00  0.00     0.031 A 
ATOM     44  C   UNL A   1      40.348  27.418  28.767  1.00  0.00     0.074 A 
ATOM     45  C   UNL A   1      40.761  29.656  29.713  1.00  0.00     0.049 A 
ATOM     46  N   UNL A   1      41.540  26.889  28.884  1.00  0.00    -0.248 NA
ATOM     47  C   UNL A   1      39.327  26.498  28.245  1.00  0.00     0.031 C 
ATOM     48  C   UNL A   1      40.433  31.027  30.108  1.00  0.00     0.029 A 
ATOM     49  N   UNL A   1      42.071  29.502  30.088  1.00  0.00    -0.354 N 
ATOM     50  C   UNL A   1      41.424  25.583  28.427  1.00  0.00     0.074 A 
ATOM     51  C   UNL A   1      40.032  25.383  28.082  1.00  0.00     0.031 C 
ATOM     52  C   UNL A   1      41.526  31.605  30.623  1.00  0.00     0.029 A 
ATOM     53  C   UNL A   1      42.623  30.639  30.628  1.00  0.00     0.049 A 
ATOM     54  H   UNL A   1      42.569  28.659  29.982  1.00  0.00     0.167 HD
ATOM     55  C   UNL A   1      42.397  24.652  28.290  1.00  0.00     0.031 A 
ATOM     56  C   UNL A   1      43.872  30.891  31.066  1.00  0.00     0.031 A 
ATOM     57  C   UNL A   1      43.777  24.858  28.659  1.00  0.00     0.049 A 
ATOM     58  C   UNL A   1      44.923  29.824  30.943  1.00  0.00     0.074 A 
ATOM     59  C   UNL A   1      44.841  23.981  28.515  1.00  0.00     0.029 A 
ATOM     60  N   UNL A   1      44.285  26.003  29.252  1.00  0.00    -0.354 N 
ATOM     61  N   UNL A   1      44.821  28.625  30.421  1.00  0.00    -0.248 NA
ATOM     62  C   UNL A   1      46.264  30.145  31.451  1.00  0.00     0.031 C 
ATOM     63  C   UNL A   1      45.968  24.560  29.097  1.00  0.00     0.029 A 
ATOM     64  C   UNL A   1      45.635  25.839  29.518  1.00  0.00     0.049 A 
ATOM     65  H   UNL A   1      43.764  26.814  29.454  1.00  0.00     0.167 HD
ATOM     66  C   UNL A   1      46.086  28.060  30.513  1.00  0.00     0.074 A 
ATOM     67  C   UNL A   1      46.945  29.054  31.122  1.00  0.00     0.031 C 
ATOM     68  C   UNL A   1      46.493  26.827  30.123  1.00  0.00     0.031 A 
BRANCH  55  69
ATOM     69  C   UNL A   1      42.033  23.314  27.702  1.00  0.00    -0.014 A 
ATOM     70  C   UNL A   1      41.694  23.214  26.342  1.00  0.00     0.009 A 
ATOM     71  C   UNL A   1      41.885  22.183  28.520  1.00  0.00     0.009 A 
ATOM     72  C   UNL A   1      41.191  22.019  25.820  1.00  0.00     0.001 A 
ATOM     73  C   UNL A   1      41.413  20.980  27.988  1.00  0.00     0.001 A 
ATOM     74  C   UNL A   1      41.054  20.904  26.643  1.00  0.00     0.000 A 
ENDBRANCH  55  69
BRANCH  56  75
ATOM     75  C   UNL A   1      44.193  32.238  31.611  1.00  0.00    -0.014 A 
ATOM     76  C   UNL A   1      44.695  33.247  30.771  1.00  0.00     0.009 A 
ATOM     77  C   UNL A   1      44.059  32.506  32.982  1.00  0.00     0.009 A 
ATOM     78  C   UNL A   1      45.085  34.480  31.296  1.00  0.00     0.001 A 
ATOM     79  C   UNL A   1      44.415  33.755  33.498  1.00  0.00     0.001 A 
ATOM     80  C   UNL A   1      44.940  34.735  32.657  1.00  0.00     0.000 A 
ENDBRANCH  56  75
BRANCH  68  81
ATOM     81  C   UNL A   1      47.939  26.456  30.323  1.00  0.00    -0.014 A 
ATOM     82  C   UNL A   1      48.348  25.876  31.536  1.00  0.00     0.009 A 
ATOM     83  C   UNL A   1      48.916  26.793  29.373  1.00  0.00     0.009 A 
ATOM     84  C   UNL A   1      49.702  25.670  31.807  1.00  0.00     0.001 A 
ATOM     85  C   UNL A   1      50.268  26.551  29.632  1.00  0.00     0.001 A 
ATOM     86  C   UNL A   1      50.661  26.005  30.853  1.00  0.00     0.000 A 
ENDBRANCH  68  81
ENDBRANCH  42  43
ENDBRANCH  35  37
ENDBRANCH  34  35
ENDBRANCH  33  34
ENDBRANCH  32  33
ENDBRANCH  31  32
ENDBRANCH  30  31
ENDBRANCH   1  30
TORSDOF 23
ENDMDL
MODEL 2
REMARK VINA RESULT:      -6.8      3.396      6.716
REMARK SMILES CCC(CC)COc1cc2c(cc1Cl)C=C(C(=O)OCCOCCOCCOC(=O)c1ccc(-c3c4nc(c(-c5ccccc5)c5ccc([nH]5)c(-c5ccccc5)c5nc(c(-c6ccccc6)c6ccc3[nH]6)C=C5)C=C4)cc1)[C@@H](C(F)(F)F)O2
REMARK SMILES IDX 23 1 22 2 21 3 20 4 19 5 17 6 18 7 16 8 8 9 9 10 13 11 10 12
REMARK SMILES IDX 12 13 14 14 11 15 84 16 15 17 79 18 7 19 6 20 3 21 2 22 1 23
REMARK SMILES IDX 4 24 5 25 80 26 81 27 82 28 83 29 24 30 25 31 26 32 27 33
REMARK SMILES IDX 28 34 29 35 30 36 31 37 32 38 78 39 33 40 77 41 34 42 35 43
REMARK SMILES IDX 36 44 71 45 37 46 76 47 70 48 72 49 38 50 75 51 69 52 68 53
REMARK SMILES IDX 39 55 61 56 46 57 60 58 47 59 50 60 59 61 73 62 48 63 49 64
REMARK SMILES IDX 58 66 74 67 51 68 40 69 41 70 45 71 42 72 44 73 43 74 62 75
REMARK SMILES IDX 63 76 67 77 64 78 66 79 65 80 52 81 53 82 57 83 54 84 56 85
REMARK SMILES IDX 55 86
REMARK H PARENT 72 54 50 65
REMARK Flexibility Score: inf
ROOT
ATOM      1  C   UNL A   1      35.765  33.295  31.974  1.00  0.00     0.188 C 
ENDROOT
BRANCH   1   2
ATOM      2  O   UNL A   1      36.271  31.982  31.933  1.00  0.00    -0.376 OA
BRANCH   2   3
ATOM      3  C   UNL A   1      37.120  31.550  30.882  1.00  0.00     0.202 C 
BRANCH   3   4
ATOM      4  C   UNL A   1      36.730  30.592  29.741  1.00  0.00     0.261 C 
BRANCH   4   5
ATOM      5  O   UNL A   1      37.794  29.996  28.993  1.00  0.00    -0.460 OA
BRANCH   5   6
ATOM      6  C   UNL A   1      38.308  28.877  29.552  1.00  0.00     0.338 C 
ATOM      7  O   UNL A   1      38.066  28.451  30.671  1.00  0.00    -0.246 OA
BRANCH   6   8
ATOM      8  C   UNL A   1      39.090  28.111  28.568  1.00  0.00     0.087 C 
ATOM      9  C   UNL A   1      41.407  24.303  26.318  1.00  0.00     0.141 A 
ATOM     10  C   UNL A   1      41.407  25.684  26.070  1.00  0.00     0.095 A 
ATOM     11  C   UNL A   1      40.664  23.796  27.391  1.00  0.00     0.083 A 
ATOM     12  C   UNL A   1      40.596  26.526  26.843  1.00  0.00     0.131 A 
ATOM     13  C   UNL A   1      39.739  24.606  28.039  1.00  0.00     0.036 A 
ATOM     14  Cl  UNL A   1      40.873  22.198  28.004  1.00  0.00    -0.080 Cl
ATOM     15  C   UNL A   1      39.702  25.968  27.759  1.00  0.00     0.019 A 
ATOM     16  O   UNL A   1      40.707  27.885  26.680  1.00  0.00    -0.475 OA
ATOM     17  C   UNL A   1      38.797  26.808  28.512  1.00  0.00     0.027 C 
ATOM     18  C   UNL A   1      40.207  28.733  27.773  1.00  0.00     0.316 C 
BRANCH   9  19
ATOM     19  O   UNL A   1      42.213  23.471  25.585  1.00  0.00    -0.492 OA
BRANCH  19  20
ATOM     20  C   UNL A   1      43.194  22.745  26.369  1.00  0.00     0.233 C 
BRANCH  20  21
ATOM     21  C   UNL A   1      44.640  23.294  26.223  1.00  0.00     0.026 C 
BRANCH  21  22
ATOM     22  C   UNL A   1      44.789  24.169  24.956  1.00  0.00     0.003 C 
ATOM     23  C   UNL A   1      45.134  25.619  25.267  1.00  0.00     0.004 C 
ENDBRANCH  21  22
BRANCH  21  24
ATOM     24  C   UNL A   1      45.135  24.034  27.487  1.00  0.00     0.003 C 
ATOM     25  C   UNL A   1      44.111  24.210  28.598  1.00  0.00     0.004 C 
ENDBRANCH  21  24
ENDBRANCH  20  21
ENDBRANCH  19  20
ENDBRANCH   9  19
BRANCH  18  26
ATOM     26  C   UNL A   1      41.343  29.179  28.704  1.00  0.00     0.430 C 
ATOM     27  F   UNL A   1      41.357  28.472  29.857  1.00  0.00    -0.167 F 
ATOM     28  F   UNL A   1      42.551  28.995  28.116  1.00  0.00    -0.167 F 
ATOM     29  F   UNL A   1      41.252  30.489  29.028  1.00  0.00    -0.167 F 
ENDBRANCH  18  26
ENDBRANCH   6   8
ENDBRANCH   5   6
ENDBRANCH   4   5
ENDBRANCH   3   4
ENDBRANCH   2   3
ENDBRANCH   1   2
BRANCH   1  30
ATOM     30  C   UNL A   1      36.681  34.410  32.519  1.00  0.00     0.188 C 
BRANCH  30  31
ATOM     31  O   UNL A   1      37.835  34.083  33.263  1.00  0.00    -0.376 OA
BRANCH  31  32
ATOM     32  C   UNL A   1      37.888  34.368  34.653  1.00  0.00     0.202 C 
BRANCH  32  33
ATOM     33  C   UNL A   1      37.368  33.418  35.749  1.00  0.00     0.261 C 
BRANCH  33  34
ATOM     34  O   UNL A   1      37.185  32.045  35.389  1.00  0.00    -0.460 OA
BRANCH  34  35
ATOM     35  C   UNL A   1      38.068  31.173  35.947  1.00  0.00     0.338 C 
ATOM     36  O   UNL A   1      37.911  30.492  36.937  1.00  0.00    -0.246 OA
BRANCH  35  37
ATOM     37  C   UNL A   1      39.212  31.019  35.023  1.00  0.00     0.060 A 
ATOM     38  C   UNL A   1      40.484  31.448  35.396  1.00  0.00     0.016 A 
ATOM     39  C   UNL A   1      38.996  30.433  33.766  1.00  0.00     0.016 A 
ATOM     40  C   UNL A   1      41.550  31.271  34.512  1.00  0.00     0.010 A 
ATOM     41  C   UNL A   1      40.062  30.270  32.878  1.00  0.00     0.010 A 
ATOM     42  C   UNL A   1      41.352  30.668  33.255  1.00  0.00    -0.014 A 
BRANCH  42  43
ATOM     43  C   UNL A   1      42.528  30.311  32.424  1.00  0.00     0.031 A 
ATOM     44  C   UNL A   1      43.246  29.005  32.574  1.00  0.00     0.074 A 
ATOM     45  C   UNL A   1      42.932  31.198  31.494  1.00  0.00     0.049 A 
ATOM     46  N   UNL A   1      44.192  28.504  31.820  1.00  0.00    -0.248 NA
ATOM     47  C   UNL A   1      42.863  28.153  33.709  1.00  0.00     0.031 C 
ATOM     48  C   UNL A   1      42.326  32.513  31.279  1.00  0.00     0.029 A 
ATOM     49  N   UNL A   1      43.920  31.123  30.545  1.00  0.00    -0.354 N 
ATOM     50  C   UNL A   1      44.503  27.268  32.369  1.00  0.00     0.074 A 
ATOM     51  C   UNL A   1      43.682  27.117  33.553  1.00  0.00     0.031 C 
ATOM     52  C   UNL A   1      42.920  33.100  30.231  1.00  0.00     0.029 A 
ATOM     53  C   UNL A   1      43.971  32.222  29.720  1.00  0.00     0.049 A 
ATOM     54  H   UNL A   1      44.533  30.358  30.462  1.00  0.00     0.167 HD
ATOM     55  C   UNL A   1      45.376  26.340  31.910  1.00  0.00     0.031 A 
ATOM     56  C   UNL A   1      44.758  32.494  28.662  1.00  0.00     0.031 A 
ATOM     57  C   UNL A   1      46.204  26.512  30.741  1.00  0.00     0.049 A 
ATOM     58  C   UNL A   1      45.751  31.464  28.200  1.00  0.00     0.074 A 
ATOM     59  C   UNL A   1      47.088  25.605  30.179  1.00  0.00     0.029 A 
ATOM     60  N   UNL A   1      46.266  27.659  29.965  1.00  0.00    -0.354 N 
ATOM     61  N   UNL A   1      45.967  30.260  28.673  1.00  0.00    -0.248 NA
ATOM     62  C   UNL A   1      46.597  31.819  27.052  1.00  0.00     0.031 C 
ATOM     63  C   UNL A   1      47.745  26.231  29.120  1.00  0.00     0.029 A 
ATOM     64  C   UNL A   1      47.202  27.497  28.957  1.00  0.00     0.049 A 
ATOM     65  H   UNL A   1      45.724  28.468  30.109  1.00  0.00     0.167 HD
ATOM     66  C   UNL A   1      46.950  29.704  27.865  1.00  0.00     0.074 A 
ATOM     67  C   UNL A   1      47.276  30.695  26.860  1.00  0.00     0.031 C 
ATOM     68  C   UNL A   1      47.527  28.481  27.954  1.00  0.00     0.031 A 
BRANCH  55  69
ATOM     69  C   UNL A   1      45.489  25.033  32.650  1.00  0.00    -0.014 A 
ATOM     70  C   UNL A   1      44.529  24.027  32.450  1.00  0.00     0.009 A 
ATOM     71  C   UNL A   1      46.459  24.851  33.648  1.00  0.00     0.009 A 
ATOM     72  C   UNL A   1      44.522  22.881  33.248  1.00  0.00     0.001 A 
ATOM     73  C   UNL A   1      46.469  23.689  34.424  1.00  0.00     0.001 A 
ATOM     74  C   UNL A   1      45.493  22.712  34.233  1.00  0.00     0.000 A 
ENDBRANCH  55  69
BRANCH  56  75
ATOM     75  C   UNL A   1      44.589  33.786  27.944  1.00  0.00    -0.014 A 
ATOM     76  C   UNL A   1      43.695  33.891  26.864  1.00  0.00     0.009 A 
ATOM     77  C   UNL A   1      45.362  34.905  28.291  1.00  0.00     0.009 A 
ATOM     78  C   UNL A   1      43.602  35.074  26.129  1.00  0.00     0.001 A 
ATOM     79  C   UNL A   1      45.239  36.099  27.576  1.00  0.00     0.001 A 
ATOM     80  C   UNL A   1      44.370  36.178  26.489  1.00  0.00     0.000 A 
ENDBRANCH  56  75
BRANCH  68  81
ATOM     81  C   UNL A   1      48.573  28.109  26.936  1.00  0.00    -0.014 A 
ATOM     82  C   UNL A   1      49.915  28.467  27.153  1.00  0.00     0.009 A 
ATOM     83  C   UNL A   1      48.222  27.523  25.710  1.00  0.00     0.009 A 
ATOM     84  C   UNL A   1      50.874  28.276  26.157  1.00  0.00     0.001 A 
ATOM     85  C   UNL A   1      49.191  27.299  24.729  1.00  0.00     0.001 A 
ATOM     86  C   UNL A   1      50.512  27.690  24.947  1.00  0.00     0.000 A 
ENDBRANCH  68  81
ENDBRANCH  42  43
ENDBRANCH  35  37
ENDBRANCH  34  35
ENDBRANCH  33  34
ENDBRANCH  32  33
ENDBRANCH  31  32
ENDBRANCH  30  31
ENDBRANCH   1  30
TORSDOF 23
ENDMDL
MODEL 3
REMARK VINA RESULT:      -6.8      5.114      8.636
REMARK SMILES CCC(CC)COc1cc2c(cc1Cl)C=C(C(=O)OCCOCCOCCOC(=O)c1ccc(-c3c4nc(c(-c5ccccc5)c5ccc([nH]5)c(-c5ccccc5)c5nc(c(-c6ccccc6)c6ccc3[nH]6)C=C5)C=C4)cc1)[C@@H](C(F)(F)F)O2
REMARK SMILES IDX 23 1 22 2 21 3 20 4 19 5 17 6 18 7 16 8 8 9 9 10 13 11 10 12
REMARK SMILES IDX 12 13 14 14 11 15 84 16 15 17 79 18 7 19 6 20 3 21 2 22 1 23
REMARK SMILES IDX 4 24 5 25 80 26 81 27 82 28 83 29 24 30 25 31 26 32 27 33
REMARK SMILES IDX 28 34 29 35 30 36 31 37 32 38 78 39 33 40 77 41 34 42 35 43
REMARK SMILES IDX 36 44 71 45 37 46 76 47 70 48 72 49 38 50 75 51 69 52 68 53
REMARK SMILES IDX 39 55 61 56 46 57 60 58 47 59 50 60 59 61 73 62 48 63 49 64
REMARK SMILES IDX 58 66 74 67 51 68 40 69 41 70 45 71 42 72 44 73 43 74 62 75
REMARK SMILES IDX 63 76 67 77 64 78 66 79 65 80 52 81 53 82 57 83 54 84 56 85
REMARK SMILES IDX 55 86
REMARK H PARENT 72 54 50 65
REMARK Flexibility Score: inf
ROOT
ATOM      1  C   UNL A   1      32.995  32.619  27.311  1.00  0.00     0.188 C 
ENDROOT
BRANCH   1   2
ATOM      2  O   UNL A   1      31.700  32.243  26.906  1.00  0.00    -0.376 OA
BRANCH   2   3
ATOM      3  C   UNL A   1      31.473  31.057  26.162  1.00  0.00     0.202 C 
BRANCH   3   4
ATOM      4  C   UNL A   1      31.869  29.631  26.591  1.00  0.00     0.261 C 
BRANCH   4   5
ATOM      5  O   UNL A   1      32.306  28.735  25.565  1.00  0.00    -0.460 OA
BRANCH   5   6
ATOM      6  C   UNL A   1      31.303  28.137  24.884  1.00  0.00     0.338 C 
ATOM      7  O   UNL A   1      30.353  28.696  24.357  1.00  0.00    -0.246 OA
BRANCH   6   8
ATOM      8  C   UNL A   1      31.578  26.703  24.697  1.00  0.00     0.087 C 
ATOM      9  C   UNL A   1      33.924  22.297  24.806  1.00  0.00     0.141 A 
ATOM     10  C   UNL A   1      32.749  22.723  24.166  1.00  0.00     0.095 A 
ATOM     11  C   UNL A   1      34.664  23.211  25.566  1.00  0.00     0.083 A 
ATOM     12  C   UNL A   1      32.287  24.031  24.368  1.00  0.00     0.131 A 
ATOM     13  C   UNL A   1      34.116  24.444  25.897  1.00  0.00     0.036 A 
ATOM     14  Cl  UNL A   1      36.280  22.906  26.086  1.00  0.00    -0.080 Cl
ATOM     15  C   UNL A   1      32.925  24.849  25.302  1.00  0.00     0.019 A 
ATOM     16  O   UNL A   1      31.215  24.475  23.633  1.00  0.00    -0.475 OA
ATOM     17  C   UNL A   1      32.420  26.174  25.589  1.00  0.00     0.027 C 
ATOM     18  C   UNL A   1      31.037  25.931  23.524  1.00  0.00     0.316 C 
BRANCH   9  19
ATOM     19  O   UNL A   1      34.400  21.029  24.598  1.00  0.00    -0.492 OA
BRANCH  19  20
ATOM     20  C   UNL A   1      33.778  20.012  25.425  1.00  0.00     0.233 C 
BRANCH  20  21
ATOM     21  C   UNL A   1      33.351  18.743  24.638  1.00  0.00     0.026 C 
BRANCH  21  22
ATOM     22  C   UNL A   1      32.358  19.087  23.502  1.00  0.00     0.003 C 
ATOM     23  C   UNL A   1      32.387  18.084  22.357  1.00  0.00     0.004 C 
ENDBRANCH  21  22
BRANCH  21  24
ATOM     24  C   UNL A   1      34.553  17.923  24.114  1.00  0.00     0.003 C 
ATOM     25  C   UNL A   1      34.787  16.582  24.790  1.00  0.00     0.004 C 
ENDBRANCH  21  24
ENDBRANCH  20  21
ENDBRANCH  19  20
ENDBRANCH   9  19
BRANCH  18  26
ATOM     26  C   UNL A   1      31.620  26.473  22.211  1.00  0.00     0.430 C 
ATOM     27  F   UNL A   1      32.886  26.923  22.370  1.00  0.00    -0.167 F 
ATOM     28  F   UNL A   1      31.664  25.503  21.264  1.00  0.00    -0.167 F 
ATOM     29  F   UNL A   1      30.884  27.489  21.708  1.00  0.00    -0.167 F 
ENDBRANCH  18  26
ENDBRANCH   6   8
ENDBRANCH   5   6
ENDBRANCH   4   5
ENDBRANCH   3   4
ENDBRANCH   2   3
ENDBRANCH   1   2
BRANCH   1  30
ATOM     30  C   UNL A   1      33.137  33.816  28.272  1.00  0.00     0.188 C 
BRANCH  30  31
ATOM     31  O   UNL A   1      34.367  34.500  28.379  1.00  0.00    -0.376 OA
BRANCH  31  32
ATOM     32  C   UNL A   1      35.586  33.772  28.374  1.00  0.00     0.202 C 
BRANCH  32  33
ATOM     33  C   UNL A   1      35.720  32.311  28.845  1.00  0.00     0.261 C 
BRANCH  33  34
ATOM     34  O   UNL A   1      36.225  31.364  27.899  1.00  0.00    -0.460 OA
BRANCH  34  35
ATOM     35  C   UNL A   1      36.070  30.057  28.243  1.00  0.00     0.338 C 
ATOM     36  O   UNL A   1      35.045  29.410  28.249  1.00  0.00    -0.246 OA
BRANCH  35  37
ATOM     37  C   UNL A   1      37.412  29.463  28.419  1.00  0.00     0.060 A 
ATOM     38  C   UNL A   1      38.395  29.637  27.446  1.00  0.00     0.016 A 
ATOM     39  C   UNL A   1      37.681  28.723  29.580  1.00  0.00     0.016 A 
ATOM     40  C   UNL A   1      39.660  29.082  27.648  1.00  0.00     0.010 A 
ATOM     41  C   UNL A   1      38.944  28.157  29.773  1.00  0.00     0.010 A 
ATOM     42  C   UNL A   1      39.950  28.353  28.817  1.00  0.00    -0.014 A 
BRANCH  42  43
ATOM     43  C   UNL A   1      41.351  27.951  29.097  1.00  0.00     0.031 A 
ATOM     44  C   UNL A   1      42.027  26.842  28.352  1.00  0.00     0.074 A 
ATOM     45  C   UNL A   1      42.024  28.637  30.042  1.00  0.00     0.049 A 
ATOM     46  N   UNL A   1      43.286  26.483  28.393  1.00  0.00    -0.248 NA
ATOM     47  C   UNL A   1      41.195  26.028  27.454  1.00  0.00     0.031 C 
ATOM     48  C   UNL A   1      41.456  29.717  30.850  1.00  0.00     0.029 A 
ATOM     49  N   UNL A   1      43.326  28.551  30.462  1.00  0.00    -0.354 N 
ATOM     50  C   UNL A   1      43.408  25.421  27.507  1.00  0.00     0.074 A 
ATOM     51  C   UNL A   1      42.083  25.156  26.986  1.00  0.00     0.031 C 
ATOM     52  C   UNL A   1      42.417  30.227  31.632  1.00  0.00     0.029 A 
ATOM     53  C   UNL A   1      43.659  29.490  31.409  1.00  0.00     0.049 A 
ATOM     54  H   UNL A   1      43.962  27.881  30.121  1.00  0.00     0.167 HD
ATOM     55  C   UNL A   1      44.528  24.748  27.152  1.00  0.00     0.031 A 
ATOM     56  C   UNL A   1      44.831  29.748  32.021  1.00  0.00     0.031 A 
ATOM     57  C   UNL A   1      45.839  25.007  27.696  1.00  0.00     0.049 A 
ATOM     58  C   UNL A   1      46.050  28.956  31.640  1.00  0.00     0.074 A 
ATOM     59  C   UNL A   1      47.039  24.400  27.361  1.00  0.00     0.029 A 
ATOM     60  N   UNL A   1      46.125  25.930  28.690  1.00  0.00    -0.354 N 
ATOM     61  N   UNL A   1      46.169  28.017  30.732  1.00  0.00    -0.248 NA
ATOM     62  C   UNL A   1      47.298  29.267  32.350  1.00  0.00     0.031 C 
ATOM     63  C   UNL A   1      48.031  24.893  28.209  1.00  0.00     0.029 A 
ATOM     64  C   UNL A   1      47.473  25.878  29.009  1.00  0.00     0.049 A 
ATOM     65  H   UNL A   1      45.468  26.532  29.108  1.00  0.00     0.167 HD
ATOM     66  C   UNL A   1      47.507  27.646  30.742  1.00  0.00     0.074 A 
ATOM     67  C   UNL A   1      48.164  28.473  31.733  1.00  0.00     0.031 C 
ATOM     68  C   UNL A   1      48.129  26.702  29.994  1.00  0.00     0.031 A 
BRANCH  55  69
ATOM     69  C   UNL A   1      44.415  23.666  26.110  1.00  0.00    -0.014 A 
ATOM     70  C   UNL A   1      44.283  22.323  26.502  1.00  0.00     0.009 A 
ATOM     71  C   UNL A   1      44.584  23.958  24.748  1.00  0.00     0.009 A 
ATOM     72  C   UNL A   1      44.347  21.296  25.558  1.00  0.00     0.001 A 
ATOM     73  C   UNL A   1      44.616  22.930  23.801  1.00  0.00     0.001 A 
ATOM     74  C   UNL A   1      44.511  21.601  24.208  1.00  0.00     0.000 A 
ENDBRANCH  55  69
BRANCH  56  75
ATOM     75  C   UNL A   1      44.900  30.847  33.022  1.00  0.00    -0.014 A 
ATOM     76  C   UNL A   1      44.620  30.597  34.376  1.00  0.00     0.009 A 
ATOM     77  C   UNL A   1      45.185  32.162  32.624  1.00  0.00     0.009 A 
ATOM     78  C   UNL A   1      44.592  31.641  35.302  1.00  0.00     0.001 A 
ATOM     79  C   UNL A   1      45.193  33.199  33.560  1.00  0.00     0.001 A 
ATOM     80  C   UNL A   1      44.883  32.941  34.894  1.00  0.00     0.000 A 
ENDBRANCH  56  75
BRANCH  68  81
ATOM     81  C   UNL A   1      49.609  26.496  30.189  1.00  0.00    -0.014 A 
ATOM     82  C   UNL A   1      50.064  25.583  31.156  1.00  0.00     0.009 A 
ATOM     83  C   UNL A   1      50.550  27.291  29.516  1.00  0.00     0.009 A 
ATOM     84  C   UNL A   1      51.422  25.490  31.466  1.00  0.00     0.001 A 
ATOM     85  C   UNL A   1      51.912  27.170  29.802  1.00  0.00     0.001 A 
ATOM     86  C   UNL A   1      52.345  26.282  30.787  1.00  0.00     0.000 A 
ENDBRANCH  68  81
ENDBRANCH  42  43
ENDBRANCH  35  37
ENDBRANCH  34  35
ENDBRANCH  33  34
ENDBRANCH  32  33
ENDBRANCH  31  32
ENDBRANCH  30  31
ENDBRANCH   1  30
TORSDOF 23
ENDMDL
