MODEL 1
REMARK VINA RESULT:     -11.0      0.000      0.000
REMARK SMILES COc1ccccc1[C@@H]1C[N@@H+](Cc2cn3cc(C)ccc3n2)C[C@H]1C(=O)OCCOCCOCCOC(=O)c1ccc(-c2c3nc(c(-c4ccccc4)c4ccc([nH]4)c(-c4ccccc4)c4nc(c(-c5ccccc5)c5ccc2[nH]5)C=C4)C=C3)cc1
REMARK SMILES IDX 31 1 30 2 29 3 28 4 27 5 25 6 26 7 24 8 9 9 10 10 11 11
REMARK SMILES IDX 23 12 8 14 3 15 4 16 5 17 7 18 6 19 2 20 1 21 12 22 13 23
REMARK SMILES IDX 14 24 22 25 15 26 21 27 16 28 20 29 17 30 19 31 18 32 32 33
REMARK SMILES IDX 33 34 34 35 35 36 36 37 37 38 38 39 39 40 40 41 86 42 41 43
REMARK SMILES IDX 85 44 42 45 43 46 44 47 79 48 45 49 84 50 78 51 80 52 46 53
REMARK SMILES IDX 83 54 77 55 76 56 47 58 69 59 54 60 68 61 55 62 58 63 67 64
REMARK SMILES IDX 81 65 56 66 57 67 66 69 82 70 59 71 48 72 49 73 53 74 50 75
REMARK SMILES IDX 52 76 51 77 70 78 71 79 75 80 72 81 74 82 73 83 60 84 61 85
REMARK SMILES IDX 65 86 62 87 64 88 63 89
REMARK H PARENT 11 13 80 57 58 68
REMARK Flexibility Score: inf
ROOT
ATOM      1  C   UNL A   1      34.767  31.187  27.896  1.00  0.00     0.188 C 
ENDROOT
BRANCH   1   2
ATOM      2  O   UNL A   1      33.530  30.593  27.524  1.00  0.00    -0.376 OA
BRANCH   2   3
ATOM      3  C   UNL A   1      33.549  29.590  26.509  1.00  0.00     0.202 C 
BRANCH   3   4
ATOM      4  C   UNL A   1      34.088  28.199  26.879  1.00  0.00     0.261 C 
BRANCH   4   5
ATOM      5  O   UNL A   1      33.874  27.161  25.888  1.00  0.00    -0.463 OA
BRANCH   5   6
ATOM      6  C   UNL A   1      33.130  27.523  24.820  1.00  0.00     0.315 C 
ATOM      7  O   UNL A   1      33.599  28.101  23.837  1.00  0.00    -0.252 OA
BRANCH   6   8
ATOM      8  C   UNL A   1      31.633  27.255  24.870  1.00  0.00     0.167 C 
ATOM      9  C   UNL A   1      30.586  27.493  23.774  1.00  0.00     0.098 C 
ATOM     10  C   UNL A   1      29.563  26.365  24.003  1.00  0.00     0.272 C 
ATOM     11  N   UNL A   1      30.308  25.233  24.541  1.00  0.00    -0.329 N 
ATOM     12  C   UNL A   1      31.477  25.775  25.241  1.00  0.00     0.278 C 
ATOM     13  H   UNL A   1      29.711  24.728  25.196  1.00  0.00     0.348 HD
BRANCH   9  14
ATOM     14  C   UNL A   1      29.792  28.792  23.539  1.00  0.00     0.004 A 
ATOM     15  C   UNL A   1      29.959  30.101  24.029  1.00  0.00     0.122 A 
ATOM     16  C   UNL A   1      28.989  31.088  23.705  1.00  0.00     0.047 A 
ATOM     17  C   UNL A   1      27.840  30.820  22.972  1.00  0.00     0.004 A 
ATOM     18  C   UNL A   1      28.579  28.551  22.812  1.00  0.00     0.008 A 
ATOM     19  C   UNL A   1      27.626  29.533  22.534  1.00  0.00     0.001 A 
BRANCH  15  20
ATOM     20  O   UNL A   1      30.842  30.703  24.869  1.00  0.00    -0.496 OA
ATOM     21  C   UNL A   1      30.648  31.891  25.583  1.00  0.00     0.278 C 
ENDBRANCH  15  20
ENDBRANCH   9  14
BRANCH  11  22
ATOM     22  C   UNL A   1      30.627  24.174  23.571  1.00  0.00     0.321 C 
BRANCH  22  23
ATOM     23  C   UNL A   1      31.978  23.540  23.727  1.00  0.00     0.114 A 
ATOM     24  C   UNL A   1      32.323  22.448  24.501  1.00  0.00     0.122 A 
ATOM     25  N   UNL A   1      33.096  24.047  23.095  1.00  0.00    -0.228 NA
ATOM     26  N   UNL A   1      33.672  22.280  24.341  1.00  0.00    -0.306 N 
ATOM     27  C   UNL A   1      34.101  23.291  23.490  1.00  0.00     0.137 A 
ATOM     28  C   UNL A   1      34.510  21.308  24.881  1.00  0.00     0.096 A 
ATOM     29  C   UNL A   1      35.496  23.344  23.210  1.00  0.00     0.048 A 
ATOM     30  C   UNL A   1      35.832  21.349  24.615  1.00  0.00    -0.034 A 
ATOM     31  C   UNL A   1      36.329  22.443  23.771  1.00  0.00     0.009 A 
ATOM     32  C   UNL A   1      36.788  20.267  25.019  1.00  0.00     0.046 C 
ENDBRANCH  22  23
ENDBRANCH  11  22
ENDBRANCH   6   8
ENDBRANCH   5   6
ENDBRANCH   4   5
ENDBRANCH   3   4
ENDBRANCH   2   3
ENDBRANCH   1   2
BRANCH   1  33
ATOM     33  C   UNL A   1      34.837  32.716  28.000  1.00  0.00     0.188 C 
BRANCH  33  34
ATOM     34  O   UNL A   1      33.632  33.339  28.403  1.00  0.00    -0.376 OA
BRANCH  34  35
ATOM     35  C   UNL A   1      33.582  34.749  28.387  1.00  0.00     0.202 C 
BRANCH  35  36
ATOM     36  C   UNL A   1      33.290  35.345  29.750  1.00  0.00     0.261 C 
BRANCH  36  37
ATOM     37  O   UNL A   1      33.692  34.468  30.779  1.00  0.00    -0.460 OA
BRANCH  37  38
ATOM     38  C   UNL A   1      33.243  34.785  32.001  1.00  0.00     0.338 C 
ATOM     39  O   UNL A   1      32.200  35.369  32.300  1.00  0.00    -0.246 OA
BRANCH  38  40
ATOM     40  C   UNL A   1      34.248  34.349  32.959  1.00  0.00     0.060 A 
ATOM     41  C   UNL A   1      35.231  35.289  33.261  1.00  0.00     0.016 A 
ATOM     42  C   UNL A   1      34.441  32.967  33.074  1.00  0.00     0.016 A 
ATOM     43  C   UNL A   1      36.520  34.845  33.311  1.00  0.00     0.010 A 
ATOM     44  C   UNL A   1      35.728  32.529  33.047  1.00  0.00     0.010 A 
ATOM     45  C   UNL A   1      36.734  33.491  33.057  1.00  0.00    -0.014 A 
BRANCH  45  46
ATOM     46  C   UNL A   1      38.074  33.084  32.749  1.00  0.00     0.031 A 
ATOM     47  C   UNL A   1      38.973  33.142  33.906  1.00  0.00     0.074 A 
ATOM     48  C   UNL A   1      38.377  32.576  31.543  1.00  0.00     0.049 A 
ATOM     49  N   UNL A   1      40.031  33.863  34.045  1.00  0.00    -0.248 NA
ATOM     50  C   UNL A   1      38.551  32.418  35.116  1.00  0.00     0.031 C 
ATOM     51  C   UNL A   1      37.455  32.181  30.472  1.00  0.00     0.029 A 
ATOM     52  N   UNL A   1      39.581  32.143  31.099  1.00  0.00    -0.354 N 
ATOM     53  C   UNL A   1      40.511  33.545  35.306  1.00  0.00     0.074 A 
ATOM     54  C   UNL A   1      39.471  32.820  35.987  1.00  0.00     0.031 C 
ATOM     55  C   UNL A   1      38.101  31.331  29.643  1.00  0.00     0.029 A 
ATOM     56  C   UNL A   1      39.486  31.215  30.076  1.00  0.00     0.049 A 
ATOM     57  H   UNL A   1      40.438  32.456  31.468  1.00  0.00     0.167 HD
ATOM     58  C   UNL A   1      41.831  33.641  35.605  1.00  0.00     0.031 A 
ATOM     59  C   UNL A   1      40.449  30.329  29.725  1.00  0.00     0.031 A 
ATOM     60  C   UNL A   1      42.544  34.477  34.677  1.00  0.00     0.049 A 
ATOM     61  C   UNL A   1      41.729  30.785  30.332  1.00  0.00     0.074 A 
ATOM     62  C   UNL A   1      42.399  35.785  34.256  1.00  0.00     0.029 A 
ATOM     63  N   UNL A   1      43.332  33.859  33.734  1.00  0.00    -0.354 N 
ATOM     64  N   UNL A   1      42.371  31.854  29.955  1.00  0.00    -0.248 NA
ATOM     65  C   UNL A   1      42.074  30.295  31.661  1.00  0.00     0.031 C 
ATOM     66  C   UNL A   1      42.707  35.763  32.865  1.00  0.00     0.029 A 
ATOM     67  C   UNL A   1      43.061  34.455  32.528  1.00  0.00     0.049 A 
ATOM     68  H   UNL A   1      43.970  33.128  33.894  1.00  0.00     0.167 HD
ATOM     69  C   UNL A   1      42.868  32.408  31.129  1.00  0.00     0.074 A 
ATOM     70  C   UNL A   1      42.754  31.349  32.126  1.00  0.00     0.031 C 
ATOM     71  C   UNL A   1      43.048  33.758  31.259  1.00  0.00     0.031 A 
BRANCH  58  72
ATOM     72  C   UNL A   1      42.504  32.641  36.498  1.00  0.00    -0.014 A 
ATOM     73  C   UNL A   1      43.186  33.095  37.633  1.00  0.00     0.009 A 
ATOM     74  C   UNL A   1      42.706  31.294  36.125  1.00  0.00     0.009 A 
ATOM     75  C   UNL A   1      44.051  32.252  38.338  1.00  0.00     0.001 A 
ATOM     76  C   UNL A   1      43.527  30.436  36.854  1.00  0.00     0.001 A 
ATOM     77  C   UNL A   1      44.221  30.925  37.949  1.00  0.00     0.000 A 
ENDBRANCH  58  72
BRANCH  59  78
ATOM     78  C   UNL A   1      40.260  28.973  29.167  1.00  0.00    -0.014 A 
ATOM     79  C   UNL A   1      39.652  27.967  29.930  1.00  0.00     0.009 A 
ATOM     80  C   UNL A   1      40.479  28.710  27.800  1.00  0.00     0.009 A 
ATOM     81  C   UNL A   1      39.263  26.755  29.344  1.00  0.00     0.001 A 
ATOM     82  C   UNL A   1      40.108  27.496  27.217  1.00  0.00     0.001 A 
ATOM     83  C   UNL A   1      39.487  26.522  27.988  1.00  0.00     0.000 A 
ENDBRANCH  59  78
BRANCH  71  84
ATOM     84  C   UNL A   1      42.916  34.619  30.023  1.00  0.00    -0.014 A 
ATOM     85  C   UNL A   1      41.672  34.988  29.482  1.00  0.00     0.009 A 
ATOM     86  C   UNL A   1      44.071  35.211  29.489  1.00  0.00     0.009 A 
ATOM     87  C   UNL A   1      41.588  35.890  28.417  1.00  0.00     0.001 A 
ATOM     88  C   UNL A   1      43.986  36.131  28.440  1.00  0.00     0.001 A 
ATOM     89  C   UNL A   1      42.746  36.465  27.899  1.00  0.00     0.000 A 
ENDBRANCH  71  84
ENDBRANCH  45  46
ENDBRANCH  38  40
ENDBRANCH  37  38
ENDBRANCH  36  37
ENDBRANCH  35  36
ENDBRANCH  34  35
ENDBRANCH  33  34
ENDBRANCH   1  33
TORSDOF 21
ENDMDL
MODEL 2
REMARK VINA RESULT:     -10.5      3.693      6.871
REMARK SMILES COc1ccccc1[C@@H]1C[N@@H+](Cc2cn3cc(C)ccc3n2)C[C@H]1C(=O)OCCOCCOCCOC(=O)c1ccc(-c2c3nc(c(-c4ccccc4)c4ccc([nH]4)c(-c4ccccc4)c4nc(c(-c5ccccc5)c5ccc2[nH]5)C=C4)C=C3)cc1
REMARK SMILES IDX 31 1 30 2 29 3 28 4 27 5 25 6 26 7 24 8 9 9 10 10 11 11
REMARK SMILES IDX 23 12 8 14 3 15 4 16 5 17 7 18 6 19 2 20 1 21 12 22 13 23
REMARK SMILES IDX 14 24 22 25 15 26 21 27 16 28 20 29 17 30 19 31 18 32 32 33
REMARK SMILES IDX 33 34 34 35 35 36 36 37 37 38 38 39 39 40 40 41 86 42 41 43
REMARK SMILES IDX 85 44 42 45 43 46 44 47 79 48 45 49 84 50 78 51 80 52 46 53
REMARK SMILES IDX 83 54 77 55 76 56 47 58 69 59 54 60 68 61 55 62 58 63 67 64
REMARK SMILES IDX 81 65 56 66 57 67 66 69 82 70 59 71 48 72 49 73 53 74 50 75
REMARK SMILES IDX 52 76 51 77 70 78 71 79 75 80 72 81 74 82 73 83 60 84 61 85
REMARK SMILES IDX 65 86 62 87 64 88 63 89
REMARK H PARENT 11 13 80 57 58 68
REMARK Flexibility Score: inf
ROOT
ATOM      1  C   UNL A   1      33.835  29.407  26.029  1.00  0.00     0.188 C 
ENDROOT
BRANCH   1   2
ATOM      2  O   UNL A   1      33.296  28.545  25.035  1.00  0.00    -0.376 OA
BRANCH   2   3
ATOM      3  C   UNL A   1      33.543  28.866  23.667  1.00  0.00     0.202 C 
BRANCH   3   4
ATOM      4  C   UNL A   1      33.746  27.704  22.680  1.00  0.00     0.261 C 
BRANCH   4   5
ATOM      5  O   UNL A   1      33.668  26.375  23.255  1.00  0.00    -0.463 OA
BRANCH   5   6
ATOM      6  C   UNL A   1      33.357  25.385  22.390  1.00  0.00     0.315 C 
ATOM      7  O   UNL A   1      33.677  25.405  21.200  1.00  0.00    -0.252 OA
BRANCH   6   8
ATOM      8  C   UNL A   1      32.519  24.224  22.907  1.00  0.00     0.167 C 
ATOM      9  C   UNL A   1      32.641  23.484  24.245  1.00  0.00     0.098 C 
ATOM     10  C   UNL A   1      31.190  23.085  24.569  1.00  0.00     0.272 C 
ATOM     11  N   UNL A   1      30.339  24.120  23.994  1.00  0.00    -0.329 N 
ATOM     12  C   UNL A   1      31.061  24.693  22.854  1.00  0.00     0.278 C 
ATOM     13  H   UNL A   1      29.468  23.690  23.677  1.00  0.00     0.348 HD
BRANCH   9  14
ATOM     14  C   UNL A   1      33.529  22.258  24.531  1.00  0.00     0.004 A 
ATOM     15  C   UNL A   1      34.913  22.125  24.750  1.00  0.00     0.122 A 
ATOM     16  C   UNL A   1      35.468  20.825  24.894  1.00  0.00     0.047 A 
ATOM     17  C   UNL A   1      34.724  19.658  24.772  1.00  0.00     0.004 A 
ATOM     18  C   UNL A   1      32.804  21.028  24.383  1.00  0.00     0.008 A 
ATOM     19  C   UNL A   1      33.380  19.762  24.499  1.00  0.00     0.001 A 
BRANCH  15  20
ATOM     20  O   UNL A   1      35.962  22.988  24.786  1.00  0.00    -0.496 OA
ATOM     21  C   UNL A   1      36.122  24.083  25.644  1.00  0.00     0.278 C 
ENDBRANCH  15  20
ENDBRANCH   9  14
BRANCH  11  22
ATOM     22  C   UNL A   1      29.831  25.118  24.949  1.00  0.00     0.321 C 
BRANCH  22  23
ATOM     23  C   UNL A   1      29.440  26.439  24.355  1.00  0.00     0.114 A 
ATOM     24  C   UNL A   1      30.238  27.547  24.140  1.00  0.00     0.122 A 
ATOM     25  N   UNL A   1      28.141  26.707  23.972  1.00  0.00    -0.228 NA
ATOM     26  N   UNL A   1      29.418  28.509  23.616  1.00  0.00    -0.306 N 
ATOM     27  C   UNL A   1      28.145  27.957  23.551  1.00  0.00     0.137 A 
ATOM     28  C   UNL A   1      29.728  29.801  23.198  1.00  0.00     0.096 A 
ATOM     29  C   UNL A   1      27.103  28.800  23.071  1.00  0.00     0.048 A 
ATOM     30  C   UNL A   1      28.747  30.604  22.738  1.00  0.00    -0.034 A 
ATOM     31  C   UNL A   1      27.378  30.072  22.716  1.00  0.00     0.009 A 
ATOM     32  C   UNL A   1      29.002  31.948  22.124  1.00  0.00     0.046 C 
ENDBRANCH  22  23
ENDBRANCH  11  22
ENDBRANCH   6   8
ENDBRANCH   5   6
ENDBRANCH   4   5
ENDBRANCH   3   4
ENDBRANCH   2   3
ENDBRANCH   1   2
BRANCH   1  33
ATOM     33  C   UNL A   1      32.923  30.482  26.632  1.00  0.00     0.188 C 
BRANCH  33  34
ATOM     34  O   UNL A   1      33.362  31.008  27.870  1.00  0.00    -0.376 OA
BRANCH  34  35
ATOM     35  C   UNL A   1      33.652  32.387  27.935  1.00  0.00     0.202 C 
BRANCH  35  36
ATOM     36  C   UNL A   1      35.140  32.680  27.912  1.00  0.00     0.261 C 
BRANCH  36  37
ATOM     37  O   UNL A   1      35.800  32.012  28.966  1.00  0.00    -0.460 OA
BRANCH  37  38
ATOM     38  C   UNL A   1      36.611  31.016  28.585  1.00  0.00     0.338 C 
ATOM     39  O   UNL A   1      36.674  30.466  27.484  1.00  0.00    -0.246 OA
BRANCH  38  40
ATOM     40  C   UNL A   1      37.410  30.641  29.742  1.00  0.00     0.060 A 
ATOM     41  C   UNL A   1      38.608  31.337  29.889  1.00  0.00     0.016 A 
ATOM     42  C   UNL A   1      37.195  29.357  30.258  1.00  0.00     0.016 A 
ATOM     43  C   UNL A   1      39.713  30.607  30.218  1.00  0.00     0.010 A 
ATOM     44  C   UNL A   1      38.303  28.611  30.512  1.00  0.00     0.010 A 
ATOM     45  C   UNL A   1      39.541  29.233  30.377  1.00  0.00    -0.014 A 
BRANCH  45  46
ATOM     46  C   UNL A   1      40.719  28.417  30.361  1.00  0.00     0.031 A 
ATOM     47  C   UNL A   1      41.355  28.297  31.677  1.00  0.00     0.074 A 
ATOM     48  C   UNL A   1      41.071  27.742  29.254  1.00  0.00     0.049 A 
ATOM     49  N   UNL A   1      42.539  28.675  32.017  1.00  0.00    -0.248 NA
ATOM     50  C   UNL A   1      40.507  27.838  32.788  1.00  0.00     0.031 C 
ATOM     51  C   UNL A   1      40.294  27.556  28.024  1.00  0.00     0.029 A 
ATOM     52  N   UNL A   1      42.141  26.930  29.077  1.00  0.00    -0.354 N 
ATOM     53  C   UNL A   1      42.648  28.334  33.356  1.00  0.00     0.074 A 
ATOM     54  C   UNL A   1      41.323  28.016  33.822  1.00  0.00     0.031 C 
ATOM     55  C   UNL A   1      40.786  26.483  27.364  1.00  0.00     0.029 A 
ATOM     56  C   UNL A   1      41.957  25.993  28.076  1.00  0.00     0.049 A 
ATOM     57  H   UNL A   1      42.967  27.000  29.608  1.00  0.00     0.167 HD
ATOM     58  C   UNL A   1      43.849  28.052  33.919  1.00  0.00     0.031 A 
ATOM     59  C   UNL A   1      42.644  24.831  27.950  1.00  0.00     0.031 A 
ATOM     60  C   UNL A   1      44.950  28.552  33.140  1.00  0.00     0.049 A 
ATOM     61  C   UNL A   1      43.862  24.929  28.797  1.00  0.00     0.074 A 
ATOM     62  C   UNL A   1      45.303  29.804  32.671  1.00  0.00     0.029 A 
ATOM     63  N   UNL A   1      45.670  27.649  32.393  1.00  0.00    -0.354 N 
ATOM     64  N   UNL A   1      44.865  25.719  28.539  1.00  0.00    -0.248 NA
ATOM     65  C   UNL A   1      43.779  24.471  30.179  1.00  0.00     0.031 C 
ATOM     66  C   UNL A   1      45.847  29.574  31.375  1.00  0.00     0.029 A 
ATOM     67  C   UNL A   1      45.832  28.196  31.145  1.00  0.00     0.049 A 
ATOM     68  H   UNL A   1      46.005  26.776  32.696  1.00  0.00     0.167 HD
ATOM     69  C   UNL A   1      45.279  26.194  29.778  1.00  0.00     0.074 A 
ATOM     70  C   UNL A   1      44.652  25.305  30.753  1.00  0.00     0.031 C 
ATOM     71  C   UNL A   1      45.842  27.432  29.915  1.00  0.00     0.031 A 
BRANCH  58  72
ATOM     72  C   UNL A   1      43.994  26.973  34.951  1.00  0.00    -0.014 A 
ATOM     73  C   UNL A   1      43.691  25.653  34.600  1.00  0.00     0.009 A 
ATOM     74  C   UNL A   1      44.176  27.246  36.324  1.00  0.00     0.009 A 
ATOM     75  C   UNL A   1      43.543  24.664  35.579  1.00  0.00     0.001 A 
ATOM     76  C   UNL A   1      44.081  26.253  37.299  1.00  0.00     0.001 A 
ATOM     77  C   UNL A   1      43.737  24.965  36.925  1.00  0.00     0.000 A 
ENDBRANCH  58  72
BRANCH  59  78
ATOM     78  C   UNL A   1      42.150  23.553  27.392  1.00  0.00    -0.014 A 
ATOM     79  C   UNL A   1      42.781  22.968  26.286  1.00  0.00     0.009 A 
ATOM     80  C   UNL A   1      41.186  22.784  28.074  1.00  0.00     0.009 A 
ATOM     81  C   UNL A   1      42.472  21.660  25.890  1.00  0.00     0.001 A 
ATOM     82  C   UNL A   1      40.865  21.486  27.672  1.00  0.00     0.001 A 
ATOM     83  C   UNL A   1      41.518  20.918  26.586  1.00  0.00     0.000 A 
ENDBRANCH  59  78
BRANCH  71  84
ATOM     84  C   UNL A   1      46.223  28.186  28.661  1.00  0.00    -0.014 A 
ATOM     85  C   UNL A   1      47.507  28.119  28.094  1.00  0.00     0.009 A 
ATOM     86  C   UNL A   1      45.215  28.846  27.940  1.00  0.00     0.009 A 
ATOM     87  C   UNL A   1      47.785  28.726  26.865  1.00  0.00     0.001 A 
ATOM     88  C   UNL A   1      45.486  29.432  26.701  1.00  0.00     0.001 A 
ATOM     89  C   UNL A   1      46.772  29.378  26.166  1.00  0.00     0.000 A 
ENDBRANCH  71  84
ENDBRANCH  45  46
ENDBRANCH  38  40
ENDBRANCH  37  38
ENDBRANCH  36  37
ENDBRANCH  35  36
ENDBRANCH  34  35
ENDBRANCH  33  34
ENDBRANCH   1  33
TORSDOF 21
ENDMDL
MODEL 3
REMARK VINA RESULT:     -10.5      4.490      9.876
REMARK SMILES COc1ccccc1[C@@H]1C[N@@H+](Cc2cn3cc(C)ccc3n2)C[C@H]1C(=O)OCCOCCOCCOC(=O)c1ccc(-c2c3nc(c(-c4ccccc4)c4ccc([nH]4)c(-c4ccccc4)c4nc(c(-c5ccccc5)c5ccc2[nH]5)C=C4)C=C3)cc1
REMARK SMILES IDX 31 1 30 2 29 3 28 4 27 5 25 6 26 7 24 8 9 9 10 10 11 11
REMARK SMILES IDX 23 12 8 14 3 15 4 16 5 17 7 18 6 19 2 20 1 21 12 22 13 23
REMARK SMILES IDX 14 24 22 25 15 26 21 27 16 28 20 29 17 30 19 31 18 32 32 33
REMARK SMILES IDX 33 34 34 35 35 36 36 37 37 38 38 39 39 40 40 41 86 42 41 43
REMARK SMILES IDX 85 44 42 45 43 46 44 47 79 48 45 49 84 50 78 51 80 52 46 53
REMARK SMILES IDX 83 54 77 55 76 56 47 58 69 59 54 60 68 61 55 62 58 63 67 64
REMARK SMILES IDX 81 65 56 66 57 67 66 69 82 70 59 71 48 72 49 73 53 74 50 75
REMARK SMILES IDX 52 76 51 77 70 78 71 79 75 80 72 81 74 82 73 83 60 84 61 85
REMARK SMILES IDX 65 86 62 87 64 88 63 89
REMARK H PARENT 11 13 80 57 58 68
REMARK Flexibility Score: inf
ROOT
ATOM      1  C   UNL A   1      33.759  21.873  23.857  1.00  0.00     0.188 C 
ENDROOT
BRANCH   1   2
ATOM      2  O   UNL A   1      33.122  23.126  23.647  1.00  0.00    -0.376 OA
BRANCH   2   3
ATOM      3  C   UNL A   1      33.464  23.861  22.472  1.00  0.00     0.202 C 
BRANCH   3   4
ATOM      4  C   UNL A   1      32.996  25.322  22.374  1.00  0.00     0.261 C 
BRANCH   4   5
ATOM      5  O   UNL A   1      33.976  26.319  22.762  1.00  0.00    -0.463 OA
BRANCH   5   6
ATOM      6  C   UNL A   1      33.479  27.542  23.051  1.00  0.00     0.315 C 
ATOM      7  O   UNL A   1      33.705  28.540  22.365  1.00  0.00    -0.252 OA
BRANCH   6   8
ATOM      8  C   UNL A   1      32.651  27.693  24.319  1.00  0.00     0.167 C 
ATOM      9  C   UNL A   1      32.750  26.889  25.621  1.00  0.00     0.098 C 
ATOM     10  C   UNL A   1      32.368  27.913  26.706  1.00  0.00     0.272 C 
ATOM     11  N   UNL A   1      32.807  29.215  26.219  1.00  0.00    -0.329 N 
ATOM     12  C   UNL A   1      32.799  29.156  24.753  1.00  0.00     0.278 C 
ATOM     13  H   UNL A   1      32.152  29.926  26.544  1.00  0.00     0.348 HD
BRANCH   9  14
ATOM     14  C   UNL A   1      32.004  25.580  25.944  1.00  0.00     0.004 A 
ATOM     15  C   UNL A   1      30.641  25.233  25.885  1.00  0.00     0.122 A 
ATOM     16  C   UNL A   1      30.235  23.951  26.347  1.00  0.00     0.047 A 
ATOM     17  C   UNL A   1      31.106  23.031  26.915  1.00  0.00     0.004 A 
ATOM     18  C   UNL A   1      32.864  24.614  26.563  1.00  0.00     0.008 A 
ATOM     19  C   UNL A   1      32.434  23.373  27.038  1.00  0.00     0.001 A 
BRANCH  15  20
ATOM     20  O   UNL A   1      29.501  25.888  25.543  1.00  0.00    -0.496 OA
ATOM     21  C   UNL A   1      29.220  26.506  24.318  1.00  0.00     0.278 C 
ENDBRANCH  15  20
ENDBRANCH   9  14
BRANCH  11  22
ATOM     22  C   UNL A   1      34.069  29.708  26.793  1.00  0.00     0.321 C 
BRANCH  22  23
ATOM     23  C   UNL A   1      33.966  30.982  27.578  1.00  0.00     0.114 A 
ATOM     24  C   UNL A   1      33.336  32.159  27.216  1.00  0.00     0.122 A 
ATOM     25  N   UNL A   1      34.568  31.126  28.813  1.00  0.00    -0.228 NA
ATOM     26  N   UNL A   1      33.552  33.036  28.244  1.00  0.00    -0.306 N 
ATOM     27  C   UNL A   1      34.325  32.368  29.185  1.00  0.00     0.137 A 
ATOM     28  C   UNL A   1      33.108  34.348  28.391  1.00  0.00     0.096 A 
ATOM     29  C   UNL A   1      34.715  33.107  30.337  1.00  0.00     0.048 A 
ATOM     30  C   UNL A   1      33.470  35.053  29.482  1.00  0.00    -0.034 A 
ATOM     31  C   UNL A   1      34.341  34.396  30.467  1.00  0.00     0.009 A 
ATOM     32  C   UNL A   1      32.921  36.410  29.807  1.00  0.00     0.046 C 
ENDBRANCH  22  23
ENDBRANCH  11  22
ENDBRANCH   6   8
ENDBRANCH   5   6
ENDBRANCH   4   5
ENDBRANCH   3   4
ENDBRANCH   2   3
ENDBRANCH   1   2
BRANCH   1  33
ATOM     33  C   UNL A   1      34.985  21.825  24.777  1.00  0.00     0.188 C 
BRANCH  33  34
ATOM     34  O   UNL A   1      35.540  23.089  25.093  1.00  0.00    -0.376 OA
BRANCH  34  35
ATOM     35  C   UNL A   1      36.939  23.174  25.249  1.00  0.00     0.202 C 
BRANCH  35  36
ATOM     36  C   UNL A   1      37.587  21.829  25.513  1.00  0.00     0.261 C 
BRANCH  36  37
ATOM     37  O   UNL A   1      38.957  21.981  25.814  1.00  0.00    -0.460 OA
BRANCH  37  38
ATOM     38  C   UNL A   1      39.662  20.842  25.835  1.00  0.00     0.338 C 
ATOM     39  O   UNL A   1      39.311  19.724  25.455  1.00  0.00    -0.246 OA
BRANCH  38  40
ATOM     40  C   UNL A   1      40.949  21.139  26.445  1.00  0.00     0.060 A 
ATOM     41  C   UNL A   1      40.996  21.007  27.832  1.00  0.00     0.016 A 
ATOM     42  C   UNL A   1      41.802  21.980  25.721  1.00  0.00     0.016 A 
ATOM     43  C   UNL A   1      41.633  21.994  28.527  1.00  0.00     0.010 A 
ATOM     44  C   UNL A   1      42.373  23.005  26.409  1.00  0.00     0.010 A 
ATOM     45  C   UNL A   1      42.178  23.041  27.787  1.00  0.00    -0.014 A 
BRANCH  45  46
ATOM     46  C   UNL A   1      42.519  24.239  28.496  1.00  0.00     0.031 A 
ATOM     47  C   UNL A   1      41.639  25.368  28.176  1.00  0.00     0.074 A 
ATOM     48  C   UNL A   1      43.467  24.227  29.448  1.00  0.00     0.049 A 
ATOM     49  N   UNL A   1      41.965  26.493  27.641  1.00  0.00    -0.248 NA
ATOM     50  C   UNL A   1      40.192  25.150  28.332  1.00  0.00     0.031 C 
ATOM     51  C   UNL A   1      44.135  23.064  30.042  1.00  0.00     0.029 A 
ATOM     52  N   UNL A   1      43.898  25.262  30.208  1.00  0.00    -0.354 N 
ATOM     53  C   UNL A   1      40.776  27.202  27.559  1.00  0.00     0.074 A 
ATOM     54  C   UNL A   1      39.708  26.269  27.803  1.00  0.00     0.031 C 
ATOM     55  C   UNL A   1      44.664  23.434  31.230  1.00  0.00     0.029 A 
ATOM     56  C   UNL A   1      44.452  24.863  31.412  1.00  0.00     0.049 A 
ATOM     57  H   UNL A   1      43.826  26.204  29.931  1.00  0.00     0.167 HD
ATOM     58  C   UNL A   1      40.758  28.558  27.584  1.00  0.00     0.031 A 
ATOM     59  C   UNL A   1      44.585  25.641  32.513  1.00  0.00     0.031 A 
ATOM     60  C   UNL A   1      42.040  29.130  27.273  1.00  0.00     0.049 A 
ATOM     61  C   UNL A   1      44.421  27.058  32.091  1.00  0.00     0.074 A 
ATOM     62  C   UNL A   1      42.905  29.020  26.200  1.00  0.00     0.029 A 
ATOM     63  N   UNL A   1      42.786  29.636  28.312  1.00  0.00    -0.354 N 
ATOM     64  N   UNL A   1      45.281  27.701  31.354  1.00  0.00    -0.248 NA
ATOM     65  C   UNL A   1      43.082  27.634  32.118  1.00  0.00     0.031 C 
ATOM     66  C   UNL A   1      44.209  29.018  26.774  1.00  0.00     0.029 A 
ATOM     67  C   UNL A   1      44.067  29.168  28.155  1.00  0.00     0.049 A 
ATOM     68  H   UNL A   1      42.462  30.222  29.032  1.00  0.00     0.167 HD
ATOM     69  C   UNL A   1      44.512  28.489  30.506  1.00  0.00     0.074 A 
ATOM     70  C   UNL A   1      43.178  28.493  31.098  1.00  0.00     0.031 C 
ATOM     71  C   UNL A   1      44.946  28.817  29.250  1.00  0.00     0.031 A 
BRANCH  58  72
ATOM     72  C   UNL A   1      39.671  29.311  28.292  1.00  0.00    -0.014 A 
ATOM     73  C   UNL A   1      38.534  29.699  27.573  1.00  0.00     0.009 A 
ATOM     74  C   UNL A   1      39.838  29.872  29.577  1.00  0.00     0.009 A 
ATOM     75  C   UNL A   1      37.631  30.628  28.101  1.00  0.00     0.001 A 
ATOM     76  C   UNL A   1      38.914  30.758  30.128  1.00  0.00     0.001 A 
ATOM     77  C   UNL A   1      37.821  31.156  29.376  1.00  0.00     0.000 A 
ENDBRANCH  58  72
BRANCH  59  78
ATOM     78  C   UNL A   1      44.536  25.211  33.927  1.00  0.00    -0.014 A 
ATOM     79  C   UNL A   1      45.270  25.895  34.906  1.00  0.00     0.009 A 
ATOM     80  C   UNL A   1      43.598  24.255  34.367  1.00  0.00     0.009 A 
ATOM     81  C   UNL A   1      45.060  25.645  36.269  1.00  0.00     0.001 A 
ATOM     82  C   UNL A   1      43.398  23.993  35.724  1.00  0.00     0.001 A 
ATOM     83  C   UNL A   1      44.121  24.699  36.677  1.00  0.00     0.000 A 
ENDBRANCH  59  78
BRANCH  71  84
ATOM     84  C   UNL A   1      46.379  28.503  28.885  1.00  0.00    -0.014 A 
ATOM     85  C   UNL A   1      47.450  29.357  29.204  1.00  0.00     0.009 A 
ATOM     86  C   UNL A   1      46.678  27.238  28.356  1.00  0.00     0.009 A 
ATOM     87  C   UNL A   1      48.773  28.974  28.965  1.00  0.00     0.001 A 
ATOM     88  C   UNL A   1      48.001  26.845  28.140  1.00  0.00     0.001 A 
ATOM     89  C   UNL A   1      49.048  27.715  28.437  1.00  0.00     0.000 A 
ENDBRANCH  71  84
ENDBRANCH  45  46
ENDBRANCH  38  40
ENDBRANCH  37  38
ENDBRANCH  36  37
ENDBRANCH  35  36
ENDBRANCH  34  35
ENDBRANCH  33  34
ENDBRANCH   1  33
TORSDOF 21
ENDMDL
