MODEL 1
REMARK VINA RESULT:     -10.8      0.000      0.000
REMARK SMILES CN1C(=O)[C@@H]2CC=CC[C@]2(C(=O)OCCOCCOCCOC(=O)c2ccc(-c3c4nc(c(-c5ccccc5)c5ccc([nH]5)c(-c5ccccc5)c5nc(c(-c6ccccc6)c6ccc3[nH]6)C=C5)C=C4)cc2)[C@H]1c1ccccc1
REMARK SMILES IDX 18 1 17 2 16 3 15 4 14 5 13 6 11 7 12 8 10 9 1 10 2 11 3 12
REMARK SMILES IDX 73 13 4 14 5 15 6 16 9 17 7 18 8 19 74 20 75 21 79 22 76 23
REMARK SMILES IDX 78 24 77 25 19 26 20 27 21 28 22 29 23 30 24 31 25 32 26 33
REMARK SMILES IDX 72 34 27 35 71 36 28 37 29 38 30 39 65 40 31 41 70 42 64 43
REMARK SMILES IDX 66 44 32 45 69 46 63 47 62 48 33 50 55 51 40 52 54 53 41 54
REMARK SMILES IDX 44 55 53 56 67 57 42 58 43 59 52 61 68 62 45 63 34 64 35 65
REMARK SMILES IDX 39 66 36 67 38 68 37 69 56 70 57 71 61 72 58 73 60 74 59 75
REMARK SMILES IDX 46 76 47 77 51 78 48 79 50 80 49 81
REMARK H PARENT 66 49 44 60
REMARK Flexibility Score: inf
ROOT
ATOM      1  C   UNL A   1      41.392  21.093  26.478  1.00  0.00     0.188 C 
ENDROOT
BRANCH   1   2
ATOM      2  C   UNL A   1      39.883  21.016  26.129  1.00  0.00     0.188 C 
BRANCH   2   3
ATOM      3  O   UNL A   1      39.162  22.255  26.171  1.00  0.00    -0.376 OA
BRANCH   3   4
ATOM      4  C   UNL A   1      37.842  22.210  25.639  1.00  0.00     0.202 C 
BRANCH   4   5
ATOM      5  C   UNL A   1      37.174  23.595  25.706  1.00  0.00     0.261 C 
BRANCH   5   6
ATOM      6  O   UNL A   1      35.779  23.459  25.394  1.00  0.00    -0.463 OA
BRANCH   6   7
ATOM      7  C   UNL A   1      35.264  23.424  24.106  1.00  0.00     0.315 C 
ATOM      8  O   UNL A   1      35.879  23.662  23.083  1.00  0.00    -0.251 OA
BRANCH   7   9
ATOM      9  C   UNL A   1      33.826  22.828  24.241  1.00  0.00     0.108 C 
ATOM     10  C   UNL A   1      30.800  24.823  25.524  1.00  0.00     0.147 C 
ATOM     11  N   UNL A   1      31.737  23.932  24.859  1.00  0.00    -0.337 N 
ATOM     12  C   UNL A   1      31.480  23.348  23.646  1.00  0.00     0.227 C 
ATOM     13  C   UNL A   1      33.147  23.976  25.125  1.00  0.00     0.133 C 
ATOM     14  O   UNL A   1      30.412  23.414  23.054  1.00  0.00    -0.275 OA
ATOM     15  C   UNL A   1      32.724  22.604  23.144  1.00  0.00     0.102 C 
ATOM     16  C   UNL A   1      32.158  21.163  22.882  1.00  0.00     0.041 C 
ATOM     17  C   UNL A   1      34.383  21.421  24.604  1.00  0.00     0.049 C 
ATOM     18  C   UNL A   1      32.553  20.059  23.805  1.00  0.00    -0.030 C 
ATOM     19  C   UNL A   1      33.564  20.203  24.650  1.00  0.00    -0.030 C 
BRANCH  13  20
ATOM     20  C   UNL A   1      33.652  25.407  24.717  1.00  0.00    -0.024 A 
ATOM     21  C   UNL A   1      34.029  26.344  25.705  1.00  0.00     0.006 A 
ATOM     22  C   UNL A   1      33.486  25.864  23.401  1.00  0.00     0.006 A 
ATOM     23  C   UNL A   1      34.015  27.711  25.433  1.00  0.00     0.000 A 
ATOM     24  C   UNL A   1      33.505  27.238  23.127  1.00  0.00     0.000 A 
ATOM     25  C   UNL A   1      33.717  28.160  24.153  1.00  0.00     0.000 A 
ENDBRANCH  13  20
ENDBRANCH   7   9
ENDBRANCH   6   7
ENDBRANCH   5   6
ENDBRANCH   4   5
ENDBRANCH   3   4
ENDBRANCH   2   3
ENDBRANCH   1   2
BRANCH   1  26
ATOM     26  O   UNL A   1      42.330  21.259  25.425  1.00  0.00    -0.376 OA
BRANCH  26  27
ATOM     27  C   UNL A   1      43.562  20.568  25.531  1.00  0.00     0.202 C 
BRANCH  27  28
ATOM     28  C   UNL A   1      44.877  21.352  25.354  1.00  0.00     0.261 C 
BRANCH  28  29
ATOM     29  O   UNL A   1      44.970  22.576  26.114  1.00  0.00    -0.460 OA
BRANCH  29  30
ATOM     30  C   UNL A   1      44.623  23.711  25.455  1.00  0.00     0.338 C 
ATOM     31  O   UNL A   1      44.735  23.918  24.250  1.00  0.00    -0.246 OA
BRANCH  30  32
ATOM     32  C   UNL A   1      43.882  24.629  26.353  1.00  0.00     0.060 A 
ATOM     33  C   UNL A   1      44.178  25.999  26.296  1.00  0.00     0.016 A 
ATOM     34  C   UNL A   1      42.928  24.166  27.261  1.00  0.00     0.016 A 
ATOM     35  C   UNL A   1      43.536  26.902  27.152  1.00  0.00     0.010 A 
ATOM     36  C   UNL A   1      42.293  25.072  28.126  1.00  0.00     0.010 A 
ATOM     37  C   UNL A   1      42.600  26.445  28.087  1.00  0.00    -0.014 A 
BRANCH  37  38
ATOM     38  C   UNL A   1      42.064  27.367  29.125  1.00  0.00     0.031 A 
ATOM     39  C   UNL A   1      42.789  27.475  30.439  1.00  0.00     0.074 A 
ATOM     40  C   UNL A   1      40.960  28.110  28.921  1.00  0.00     0.049 A 
ATOM     41  N   UNL A   1      42.471  28.155  31.511  1.00  0.00    -0.248 NA
ATOM     42  C   UNL A   1      44.039  26.709  30.557  1.00  0.00     0.031 C 
ATOM     43  C   UNL A   1      40.185  28.163  27.685  1.00  0.00     0.029 A 
ATOM     44  N   UNL A   1      40.293  28.964  29.772  1.00  0.00    -0.354 N 
ATOM     45  C   UNL A   1      43.477  27.894  32.433  1.00  0.00     0.074 A 
ATOM     46  C   UNL A   1      44.402  26.978  31.802  1.00  0.00     0.031 C 
ATOM     47  C   UNL A   1      39.145  29.000  27.857  1.00  0.00     0.029 A 
ATOM     48  C   UNL A   1      39.152  29.506  29.229  1.00  0.00     0.049 A 
ATOM     49  H   UNL A   1      40.606  29.168  30.682  1.00  0.00     0.167 HD
ATOM     50  C   UNL A   1      43.620  28.369  33.694  1.00  0.00     0.031 A 
ATOM     51  C   UNL A   1      38.204  30.291  29.782  1.00  0.00     0.031 A 
ATOM     52  C   UNL A   1      42.693  29.255  34.345  1.00  0.00     0.049 A 
ATOM     53  C   UNL A   1      38.324  30.709  31.228  1.00  0.00     0.074 A 
ATOM     54  C   UNL A   1      42.765  29.787  35.623  1.00  0.00     0.029 A 
ATOM     55  N   UNL A   1      41.519  29.726  33.782  1.00  0.00    -0.354 N 
ATOM     56  N   UNL A   1      39.290  30.475  32.082  1.00  0.00    -0.248 NA
ATOM     57  C   UNL A   1      37.213  31.500  31.786  1.00  0.00     0.031 C 
ATOM     58  C   UNL A   1      41.599  30.523  35.857  1.00  0.00     0.029 A 
ATOM     59  C   UNL A   1      40.837  30.509  34.700  1.00  0.00     0.049 A 
ATOM     60  H   UNL A   1      41.215  29.535  32.866  1.00  0.00     0.167 HD
ATOM     61  C   UNL A   1      38.917  31.108  33.264  1.00  0.00     0.074 A 
ATOM     62  C   UNL A   1      37.646  31.753  33.013  1.00  0.00     0.031 C 
ATOM     63  C   UNL A   1      39.573  31.150  34.450  1.00  0.00     0.031 A 
BRANCH  50  64
ATOM     64  C   UNL A   1      44.810  27.891  34.477  1.00  0.00    -0.014 A 
ATOM     65  C   UNL A   1      44.763  26.709  35.232  1.00  0.00     0.009 A 
ATOM     66  C   UNL A   1      46.008  28.622  34.432  1.00  0.00     0.009 A 
ATOM     67  C   UNL A   1      45.882  26.287  35.953  1.00  0.00     0.001 A 
ATOM     68  C   UNL A   1      47.134  28.181  35.129  1.00  0.00     0.001 A 
ATOM     69  C   UNL A   1      47.066  27.021  35.897  1.00  0.00     0.000 A 
ENDBRANCH  50  64
BRANCH  51  70
ATOM     70  C   UNL A   1      37.013  30.706  28.990  1.00  0.00    -0.014 A 
ATOM     71  C   UNL A   1      36.843  32.041  28.590  1.00  0.00     0.009 A 
ATOM     72  C   UNL A   1      36.007  29.776  28.679  1.00  0.00     0.009 A 
ATOM     73  C   UNL A   1      35.682  32.441  27.922  1.00  0.00     0.001 A 
ATOM     74  C   UNL A   1      34.863  30.171  27.982  1.00  0.00     0.001 A 
ATOM     75  C   UNL A   1      34.696  31.505  27.615  1.00  0.00     0.000 A 
ENDBRANCH  51  70
BRANCH  63  76
ATOM     76  C   UNL A   1      38.952  31.945  35.569  1.00  0.00    -0.014 A 
ATOM     77  C   UNL A   1      38.174  31.329  36.562  1.00  0.00     0.009 A 
ATOM     78  C   UNL A   1      39.202  33.324  35.664  1.00  0.00     0.009 A 
ATOM     79  C   UNL A   1      37.639  32.082  37.610  1.00  0.00     0.001 A 
ATOM     80  C   UNL A   1      38.692  34.068  36.730  1.00  0.00     0.001 A 
ATOM     81  C   UNL A   1      37.904  33.448  37.697  1.00  0.00     0.000 A 
ENDBRANCH  63  76
ENDBRANCH  37  38
ENDBRANCH  30  32
ENDBRANCH  29  30
ENDBRANCH  28  29
ENDBRANCH  27  28
ENDBRANCH  26  27
ENDBRANCH   1  26
TORSDOF 18
ENDMDL
MODEL 2
REMARK VINA RESULT:     -10.6      3.533      7.223
REMARK SMILES CN1C(=O)[C@@H]2CC=CC[C@]2(C(=O)OCCOCCOCCOC(=O)c2ccc(-c3c4nc(c(-c5ccccc5)c5ccc([nH]5)c(-c5ccccc5)c5nc(c(-c6ccccc6)c6ccc3[nH]6)C=C5)C=C4)cc2)[C@H]1c1ccccc1
REMARK SMILES IDX 18 1 17 2 16 3 15 4 14 5 13 6 11 7 12 8 10 9 1 10 2 11 3 12
REMARK SMILES IDX 73 13 4 14 5 15 6 16 9 17 7 18 8 19 74 20 75 21 79 22 76 23
REMARK SMILES IDX 78 24 77 25 19 26 20 27 21 28 22 29 23 30 24 31 25 32 26 33
REMARK SMILES IDX 72 34 27 35 71 36 28 37 29 38 30 39 65 40 31 41 70 42 64 43
REMARK SMILES IDX 66 44 32 45 69 46 63 47 62 48 33 50 55 51 40 52 54 53 41 54
REMARK SMILES IDX 44 55 53 56 67 57 42 58 43 59 52 61 68 62 45 63 34 64 35 65
REMARK SMILES IDX 39 66 36 67 38 68 37 69 56 70 57 71 61 72 58 73 60 74 59 75
REMARK SMILES IDX 46 76 47 77 51 78 48 79 50 80 49 81
REMARK H PARENT 66 49 44 60
REMARK Flexibility Score: inf
ROOT
ATOM      1  C   UNL A   1      37.360  21.524  24.445  1.00  0.00     0.188 C 
ENDROOT
BRANCH   1   2
ATOM      2  C   UNL A   1      37.262  22.690  25.464  1.00  0.00     0.188 C 
BRANCH   2   3
ATOM      3  O   UNL A   1      35.937  23.071  25.860  1.00  0.00    -0.376 OA
BRANCH   3   4
ATOM      4  C   UNL A   1      35.157  22.038  26.452  1.00  0.00     0.202 C 
BRANCH   4   5
ATOM      5  C   UNL A   1      34.061  22.626  27.358  1.00  0.00     0.261 C 
BRANCH   5   6
ATOM      6  O   UNL A   1      33.581  23.849  26.782  1.00  0.00    -0.463 OA
BRANCH   6   7
ATOM      7  C   UNL A   1      32.264  24.075  26.406  1.00  0.00     0.315 C 
ATOM      8  O   UNL A   1      31.330  24.281  27.159  1.00  0.00    -0.251 OA
BRANCH   7   9
ATOM      9  C   UNL A   1      32.285  24.207  24.849  1.00  0.00     0.108 C 
ATOM     10  C   UNL A   1      31.781  27.530  22.982  1.00  0.00     0.147 C 
ATOM     11  N   UNL A   1      32.162  26.210  23.457  1.00  0.00    -0.337 N 
ATOM     12  C   UNL A   1      33.313  25.578  23.062  1.00  0.00     0.227 C 
ATOM     13  C   UNL A   1      31.682  25.682  24.702  1.00  0.00     0.133 C 
ATOM     14  O   UNL A   1      34.073  25.990  22.198  1.00  0.00    -0.275 OA
ATOM     15  C   UNL A   1      33.505  24.284  23.863  1.00  0.00     0.102 C 
ATOM     16  C   UNL A   1      33.662  23.216  22.722  1.00  0.00     0.041 C 
ATOM     17  C   UNL A   1      31.654  22.796  24.666  1.00  0.00     0.049 C 
ATOM     18  C   UNL A   1      32.550  22.249  22.489  1.00  0.00    -0.030 C 
ATOM     19  C   UNL A   1      31.580  22.094  23.378  1.00  0.00    -0.030 C 
BRANCH  13  20
ATOM     20  C   UNL A   1      32.189  26.640  25.840  1.00  0.00    -0.024 A 
ATOM     21  C   UNL A   1      31.269  27.335  26.656  1.00  0.00     0.006 A 
ATOM     22  C   UNL A   1      33.538  27.023  25.889  1.00  0.00     0.006 A 
ATOM     23  C   UNL A   1      31.643  28.505  27.315  1.00  0.00     0.000 A 
ATOM     24  C   UNL A   1      33.914  28.182  26.580  1.00  0.00     0.000 A 
ATOM     25  C   UNL A   1      32.957  28.949  27.247  1.00  0.00     0.000 A 
ENDBRANCH  13  20
ENDBRANCH   7   9
ENDBRANCH   6   7
ENDBRANCH   5   6
ENDBRANCH   4   5
ENDBRANCH   3   4
ENDBRANCH   2   3
ENDBRANCH   1   2
BRANCH   1  26
ATOM     26  O   UNL A   1      37.224  20.192  24.914  1.00  0.00    -0.376 OA
BRANCH  26  27
ATOM     27  C   UNL A   1      38.405  19.424  25.058  1.00  0.00     0.202 C 
BRANCH  27  28
ATOM     28  C   UNL A   1      39.681  20.107  25.587  1.00  0.00     0.261 C 
BRANCH  28  29
ATOM     29  O   UNL A   1      40.721  19.208  26.028  1.00  0.00    -0.460 OA
BRANCH  29  30
ATOM     30  C   UNL A   1      41.995  19.644  25.852  1.00  0.00     0.338 C 
ATOM     31  O   UNL A   1      42.862  19.107  25.168  1.00  0.00    -0.246 OA
BRANCH  30  32
ATOM     32  C   UNL A   1      42.169  20.996  26.436  1.00  0.00     0.060 A 
ATOM     33  C   UNL A   1      42.603  22.033  25.597  1.00  0.00     0.016 A 
ATOM     34  C   UNL A   1      41.940  21.251  27.790  1.00  0.00     0.016 A 
ATOM     35  C   UNL A   1      42.822  23.317  26.110  1.00  0.00     0.010 A 
ATOM     36  C   UNL A   1      42.171  22.538  28.303  1.00  0.00     0.010 A 
ATOM     37  C   UNL A   1      42.625  23.578  27.471  1.00  0.00    -0.014 A 
BRANCH  37  38
ATOM     38  C   UNL A   1      43.043  24.882  28.054  1.00  0.00     0.031 A 
ATOM     39  C   UNL A   1      41.993  25.928  28.311  1.00  0.00     0.074 A 
ATOM     40  C   UNL A   1      44.326  25.150  28.362  1.00  0.00     0.049 A 
ATOM     41  N   UNL A   1      42.129  27.155  28.745  1.00  0.00    -0.248 NA
ATOM     42  C   UNL A   1      40.601  25.533  28.040  1.00  0.00     0.031 C 
ATOM     43  C   UNL A   1      45.445  24.222  28.230  1.00  0.00     0.029 A 
ATOM     44  N   UNL A   1      44.902  26.302  28.849  1.00  0.00    -0.354 N 
ATOM     45  C   UNL A   1      40.845  27.682  28.792  1.00  0.00     0.074 A 
ATOM     46  C   UNL A   1      39.947  26.649  28.323  1.00  0.00     0.031 C 
ATOM     47  C   UNL A   1      46.575  24.842  28.620  1.00  0.00     0.029 A 
ATOM     48  C   UNL A   1      46.268  26.224  28.984  1.00  0.00     0.049 A 
ATOM     49  H   UNL A   1      44.383  27.106  29.080  1.00  0.00     0.167 HD
ATOM     50  C   UNL A   1      40.445  28.915  29.185  1.00  0.00     0.031 A 
ATOM     51  C   UNL A   1      47.171  27.165  29.329  1.00  0.00     0.031 A 
ATOM     52  C   UNL A   1      41.328  29.962  29.624  1.00  0.00     0.049 A 
ATOM     53  C   UNL A   1      46.712  28.568  29.647  1.00  0.00     0.074 A 
ATOM     54  C   UNL A   1      41.003  31.241  30.043  1.00  0.00     0.029 A 
ATOM     55  N   UNL A   1      42.708  29.861  29.683  1.00  0.00    -0.354 N 
ATOM     56  N   UNL A   1      45.493  29.048  29.710  1.00  0.00    -0.248 NA
ATOM     57  C   UNL A   1      47.759  29.562  29.938  1.00  0.00     0.031 C 
ATOM     58  C   UNL A   1      42.192  31.937  30.290  1.00  0.00     0.029 A 
ATOM     59  C   UNL A   1      43.253  31.068  30.093  1.00  0.00     0.049 A 
ATOM     60  H   UNL A   1      43.225  29.052  29.468  1.00  0.00     0.167 HD
ATOM     61  C   UNL A   1      45.627  30.384  30.071  1.00  0.00     0.074 A 
ATOM     62  C   UNL A   1      47.043  30.637  30.232  1.00  0.00     0.031 C 
ATOM     63  C   UNL A   1      44.661  31.318  30.253  1.00  0.00     0.031 A 
BRANCH  50  64
ATOM     64  C   UNL A   1      38.974  29.217  29.108  1.00  0.00    -0.014 A 
ATOM     65  C   UNL A   1      38.390  29.716  27.933  1.00  0.00     0.009 A 
ATOM     66  C   UNL A   1      38.157  28.968  30.222  1.00  0.00     0.009 A 
ATOM     67  C   UNL A   1      37.022  29.991  27.888  1.00  0.00     0.001 A 
ATOM     68  C   UNL A   1      36.785  29.215  30.163  1.00  0.00     0.001 A 
ATOM     69  C   UNL A   1      36.221  29.737  29.000  1.00  0.00     0.000 A 
ENDBRANCH  50  64
BRANCH  51  70
ATOM     70  C   UNL A   1      48.625  26.843  29.348  1.00  0.00    -0.014 A 
ATOM     71  C   UNL A   1      49.412  27.001  28.195  1.00  0.00     0.009 A 
ATOM     72  C   UNL A   1      49.223  26.320  30.506  1.00  0.00     0.009 A 
ATOM     73  C   UNL A   1      50.756  26.616  28.194  1.00  0.00     0.001 A 
ATOM     74  C   UNL A   1      50.575  25.968  30.513  1.00  0.00     0.001 A 
ATOM     75  C   UNL A   1      51.337  26.104  29.354  1.00  0.00     0.000 A 
ENDBRANCH  51  70
BRANCH  63  76
ATOM     76  C   UNL A   1      45.087  32.698  30.680  1.00  0.00    -0.014 A 
ATOM     77  C   UNL A   1      45.283  33.019  32.032  1.00  0.00     0.009 A 
ATOM     78  C   UNL A   1      45.356  33.674  29.707  1.00  0.00     0.009 A 
ATOM     79  C   UNL A   1      45.714  34.296  32.401  1.00  0.00     0.001 A 
ATOM     80  C   UNL A   1      45.816  34.940  30.076  1.00  0.00     0.001 A 
ATOM     81  C   UNL A   1      45.987  35.252  31.423  1.00  0.00     0.000 A 
ENDBRANCH  63  76
ENDBRANCH  37  38
ENDBRANCH  30  32
ENDBRANCH  29  30
ENDBRANCH  28  29
ENDBRANCH  27  28
ENDBRANCH  26  27
ENDBRANCH   1  26
TORSDOF 18
ENDMDL
MODEL 3
REMARK VINA RESULT:     -10.4      4.049      9.016
REMARK SMILES CN1C(=O)[C@@H]2CC=CC[C@]2(C(=O)OCCOCCOCCOC(=O)c2ccc(-c3c4nc(c(-c5ccccc5)c5ccc([nH]5)c(-c5ccccc5)c5nc(c(-c6ccccc6)c6ccc3[nH]6)C=C5)C=C4)cc2)[C@H]1c1ccccc1
REMARK SMILES IDX 18 1 17 2 16 3 15 4 14 5 13 6 11 7 12 8 10 9 1 10 2 11 3 12
REMARK SMILES IDX 73 13 4 14 5 15 6 16 9 17 7 18 8 19 74 20 75 21 79 22 76 23
REMARK SMILES IDX 78 24 77 25 19 26 20 27 21 28 22 29 23 30 24 31 25 32 26 33
REMARK SMILES IDX 72 34 27 35 71 36 28 37 29 38 30 39 65 40 31 41 70 42 64 43
REMARK SMILES IDX 66 44 32 45 69 46 63 47 62 48 33 50 55 51 40 52 54 53 41 54
REMARK SMILES IDX 44 55 53 56 67 57 42 58 43 59 52 61 68 62 45 63 34 64 35 65
REMARK SMILES IDX 39 66 36 67 38 68 37 69 56 70 57 71 61 72 58 73 60 74 59 75
REMARK SMILES IDX 46 76 47 77 51 78 48 79 50 80 49 81
REMARK H PARENT 66 49 44 60
REMARK Flexibility Score: inf
ROOT
ATOM      1  C   UNL A   1      33.766  30.928  27.202  1.00  0.00     0.188 C 
ENDROOT
BRANCH   1   2
ATOM      2  C   UNL A   1      32.437  30.388  26.611  1.00  0.00     0.188 C 
BRANCH   2   3
ATOM      3  O   UNL A   1      32.556  29.317  25.665  1.00  0.00    -0.376 OA
BRANCH   3   4
ATOM      4  C   UNL A   1      33.882  29.033  25.230  1.00  0.00     0.202 C 
BRANCH   4   5
ATOM      5  C   UNL A   1      33.880  28.422  23.818  1.00  0.00     0.261 C 
BRANCH   5   6
ATOM      6  O   UNL A   1      34.054  27.001  23.921  1.00  0.00    -0.463 OA
BRANCH   6   7
ATOM      7  C   UNL A   1      33.440  26.074  23.091  1.00  0.00     0.315 C 
ATOM      8  O   UNL A   1      33.819  25.744  21.982  1.00  0.00    -0.251 OA
BRANCH   7   9
ATOM      9  C   UNL A   1      32.310  25.419  23.949  1.00  0.00     0.108 C 
ATOM     10  C   UNL A   1      32.584  21.922  25.526  1.00  0.00     0.147 C 
ATOM     11  N   UNL A   1      32.319  23.311  25.182  1.00  0.00    -0.337 N 
ATOM     12  C   UNL A   1      31.984  24.260  26.112  1.00  0.00     0.227 C 
ATOM     13  C   UNL A   1      32.854  23.914  23.995  1.00  0.00     0.133 C 
ATOM     14  O   UNL A   1      31.760  24.030  27.292  1.00  0.00    -0.275 OA
ATOM     15  C   UNL A   1      31.934  25.646  25.457  1.00  0.00     0.102 C 
ATOM     16  C   UNL A   1      30.492  26.135  25.841  1.00  0.00     0.041 C 
ATOM     17  C   UNL A   1      31.197  26.103  23.105  1.00  0.00     0.049 C 
ATOM     18  C   UNL A   1      29.452  26.206  24.775  1.00  0.00    -0.030 C 
ATOM     19  C   UNL A   1      29.780  26.136  23.493  1.00  0.00    -0.030 C 
BRANCH  13  20
ATOM     20  C   UNL A   1      34.420  23.858  24.109  1.00  0.00    -0.024 A 
ATOM     21  C   UNL A   1      35.183  23.131  23.169  1.00  0.00     0.006 A 
ATOM     22  C   UNL A   1      35.056  24.299  25.280  1.00  0.00     0.006 A 
ATOM     23  C   UNL A   1      36.459  22.670  23.490  1.00  0.00     0.000 A 
ATOM     24  C   UNL A   1      36.351  23.858  25.582  1.00  0.00     0.000 A 
ATOM     25  C   UNL A   1      37.028  23.003  24.712  1.00  0.00     0.000 A 
ENDBRANCH  13  20
ENDBRANCH   7   9
ENDBRANCH   6   7
ENDBRANCH   5   6
ENDBRANCH   4   5
ENDBRANCH   3   4
ENDBRANCH   2   3
ENDBRANCH   1   2
BRANCH   1  26
ATOM     26  O   UNL A   1      33.717  31.752  28.357  1.00  0.00    -0.376 OA
BRANCH  26  27
ATOM     27  C   UNL A   1      33.988  33.132  28.189  1.00  0.00     0.202 C 
BRANCH  27  28
ATOM     28  C   UNL A   1      34.316  33.986  29.429  1.00  0.00     0.261 C 
BRANCH  28  29
ATOM     29  O   UNL A   1      35.593  33.713  30.042  1.00  0.00    -0.460 OA
BRANCH  29  30
ATOM     30  C   UNL A   1      35.644  32.620  30.845  1.00  0.00     0.338 C 
ATOM     31  O   UNL A   1      34.785  32.262  31.647  1.00  0.00    -0.246 OA
BRANCH  30  32
ATOM     32  C   UNL A   1      36.802  31.765  30.490  1.00  0.00     0.060 A 
ATOM     33  C   UNL A   1      37.490  31.113  31.523  1.00  0.00     0.016 A 
ATOM     34  C   UNL A   1      37.234  31.616  29.170  1.00  0.00     0.016 A 
ATOM     35  C   UNL A   1      38.615  30.328  31.244  1.00  0.00     0.010 A 
ATOM     36  C   UNL A   1      38.370  30.837  28.894  1.00  0.00     0.010 A 
ATOM     37  C   UNL A   1      39.076  30.196  29.928  1.00  0.00    -0.014 A 
BRANCH  37  38
ATOM     38  C   UNL A   1      40.377  29.529  29.652  1.00  0.00     0.031 A 
ATOM     39  C   UNL A   1      41.642  30.336  29.763  1.00  0.00     0.074 A 
ATOM     40  C   UNL A   1      40.457  28.228  29.313  1.00  0.00     0.049 A 
ATOM     41  N   UNL A   1      42.876  29.989  29.503  1.00  0.00    -0.248 NA
ATOM     42  C   UNL A   1      41.488  31.724  30.229  1.00  0.00     0.031 C 
ATOM     43  C   UNL A   1      39.332  27.301  29.225  1.00  0.00     0.029 A 
ATOM     44  N   UNL A   1      41.550  27.463  28.972  1.00  0.00    -0.354 N 
ATOM     45  C   UNL A   1      43.646  31.115  29.766  1.00  0.00     0.074 A 
ATOM     46  C   UNL A   1      42.738  32.161  30.185  1.00  0.00     0.031 C 
ATOM     47  C   UNL A   1      39.791  26.093  28.847  1.00  0.00     0.029 A 
ATOM     48  C   UNL A   1      41.234  26.172  28.621  1.00  0.00     0.049 A 
ATOM     49  H   UNL A   1      42.471  27.809  28.979  1.00  0.00     0.167 HD
ATOM     50  C   UNL A   1      44.989  31.271  29.666  1.00  0.00     0.031 A 
ATOM     51  C   UNL A   1      42.010  25.178  28.141  1.00  0.00     0.031 A 
ATOM     52  C   UNL A   1      45.900  30.251  29.222  1.00  0.00     0.049 A 
ATOM     53  C   UNL A   1      43.485  25.413  27.924  1.00  0.00     0.074 A 
ATOM     54  C   UNL A   1      47.278  30.326  29.094  1.00  0.00     0.029 A 
ATOM     55  N   UNL A   1      45.530  28.980  28.815  1.00  0.00    -0.354 N 
ATOM     56  N   UNL A   1      44.205  26.474  28.197  1.00  0.00    -0.248 NA
ATOM     57  C   UNL A   1      44.254  24.309  27.324  1.00  0.00     0.031 C 
ATOM     58  C   UNL A   1      47.733  29.123  28.544  1.00  0.00     0.029 A 
ATOM     59  C   UNL A   1      46.647  28.275  28.397  1.00  0.00     0.049 A 
ATOM     60  H   UNL A   1      44.611  28.629  28.823  1.00  0.00     0.167 HD
ATOM     61  C   UNL A   1      45.509  26.156  27.830  1.00  0.00     0.074 A 
ATOM     62  C   UNL A   1      45.487  24.798  27.330  1.00  0.00     0.031 C 
ATOM     63  C   UNL A   1      46.624  26.924  27.901  1.00  0.00     0.031 A 
BRANCH  50  64
ATOM     64  C   UNL A   1      45.550  32.625  29.999  1.00  0.00    -0.014 A 
ATOM     65  C   UNL A   1      45.976  32.941  31.299  1.00  0.00     0.009 A 
ATOM     66  C   UNL A   1      45.681  33.588  28.987  1.00  0.00     0.009 A 
ATOM     67  C   UNL A   1      46.492  34.207  31.583  1.00  0.00     0.001 A 
ATOM     68  C   UNL A   1      46.225  34.842  29.268  1.00  0.00     0.001 A 
ATOM     69  C   UNL A   1      46.620  35.154  30.568  1.00  0.00     0.000 A 
ENDBRANCH  50  64
BRANCH  51  70
ATOM     70  C   UNL A   1      41.411  23.864  27.776  1.00  0.00    -0.014 A 
ATOM     71  C   UNL A   1      41.695  22.710  28.523  1.00  0.00     0.009 A 
ATOM     72  C   UNL A   1      40.595  23.746  26.639  1.00  0.00     0.009 A 
ATOM     73  C   UNL A   1      41.200  21.465  28.125  1.00  0.00     0.001 A 
ATOM     74  C   UNL A   1      40.072  22.507  26.262  1.00  0.00     0.001 A 
ATOM     75  C   UNL A   1      40.385  21.365  26.998  1.00  0.00     0.000 A 
ENDBRANCH  51  70
BRANCH  63  76
ATOM     76  C   UNL A   1      47.928  26.312  27.460  1.00  0.00    -0.014 A 
ATOM     77  C   UNL A   1      48.461  26.561  26.186  1.00  0.00     0.009 A 
ATOM     78  C   UNL A   1      48.665  25.525  28.359  1.00  0.00     0.009 A 
ATOM     79  C   UNL A   1      49.691  26.012  25.813  1.00  0.00     0.001 A 
ATOM     80  C   UNL A   1      49.908  25.003  27.996  1.00  0.00     0.001 A 
ATOM     81  C   UNL A   1      50.416  25.240  26.720  1.00  0.00     0.000 A 
ENDBRANCH  63  76
ENDBRANCH  37  38
ENDBRANCH  30  32
ENDBRANCH  29  30
ENDBRANCH  28  29
ENDBRANCH  27  28
ENDBRANCH  26  27
ENDBRANCH   1  26
TORSDOF 18
ENDMDL
