MODEL 1
REMARK VINA RESULT:      -7.4      0.000      0.000
REMARK SMILES CC(=O)Nc1ccc(/C(=C\c2ccc(S(C)(=O)=O)cc2)C(=O)OCCOCCOCCOC(=O)c2ccc(-c3c4nc(c(-c5ccccc5)c5ccc([nH]5)c(-c5ccccc5)c5nc(c(-c6ccccc6)c6ccc3[nH]6)C=C5)C=C4)cc2)cc1
REMARK SMILES IDX 27 1 26 2 25 3 24 4 23 5 21 6 22 7 9 8 10 9 8 10 5 11 6 12
REMARK SMILES IDX 84 13 7 14 83 15 4 16 1 17 2 18 3 19 11 21 12 22 20 23 13 24
REMARK SMILES IDX 19 25 14 26 15 27 16 28 17 29 18 30 28 31 29 32 30 33 31 34
REMARK SMILES IDX 32 35 33 36 34 37 35 38 36 39 82 40 37 41 81 42 38 43 39 44
REMARK SMILES IDX 40 45 75 46 41 47 80 48 74 49 76 50 42 51 79 52 73 53 72 54
REMARK SMILES IDX 43 56 65 57 50 58 64 59 51 60 54 61 63 62 77 63 52 64 53 65
REMARK SMILES IDX 62 67 78 68 55 69 44 70 45 71 49 72 46 73 48 74 47 75 66 76
REMARK SMILES IDX 67 77 71 78 68 79 70 80 69 81 56 82 57 83 61 84 58 85 60 86
REMARK SMILES IDX 59 87
REMARK H PARENT 4 20 76 55 54 66
REMARK Flexibility Score: inf
ROOT
ATOM      1  C   UNL A   1      35.807  30.661  27.660  1.00  0.00     0.188 C 
ENDROOT
BRANCH   1   2
ATOM      2  O   UNL A   1      36.996  30.437  28.378  1.00  0.00    -0.376 OA
BRANCH   2   3
ATOM      3  C   UNL A   1      38.011  29.598  27.853  1.00  0.00     0.202 C 
BRANCH   3   4
ATOM      4  C   UNL A   1      39.345  29.255  28.546  1.00  0.00     0.261 C 
BRANCH   4   5
ATOM      5  O   UNL A   1      40.236  28.370  27.863  1.00  0.00    -0.460 OA
BRANCH   5   6
ATOM      6  C   UNL A   1      40.984  27.537  28.642  1.00  0.00     0.338 C 
ATOM      7  O   UNL A   1      40.673  27.141  29.754  1.00  0.00    -0.246 OA
BRANCH   6   8
ATOM      8  C   UNL A   1      42.197  27.045  27.897  1.00  0.00     0.067 C 
ATOM      9  C   UNL A   1      43.184  27.962  27.717  1.00  0.00     0.024 C 
BRANCH   8  10
ATOM     10  C   UNL A   1      42.231  25.629  27.405  1.00  0.00    -0.011 A 
ATOM     11  C   UNL A   1      42.607  22.969  26.431  1.00  0.00     0.041 A 
ATOM     12  C   UNL A   1      42.525  23.234  27.796  1.00  0.00     0.027 A 
ATOM     13  C   UNL A   1      42.402  24.023  25.547  1.00  0.00     0.027 A 
ATOM     14  C   UNL A   1      42.321  24.535  28.273  1.00  0.00     0.011 A 
ATOM     15  C   UNL A   1      42.212  25.334  26.031  1.00  0.00     0.011 A 
BRANCH  11  16
ATOM     16  N   UNL A   1      42.781  21.627  26.063  1.00  0.00    -0.326 N 
ATOM     17  C   UNL A   1      45.115  21.565  25.218  1.00  0.00     0.114 C 
ATOM     18  C   UNL A   1      43.757  20.958  25.385  1.00  0.00     0.221 C 
ATOM     19  O   UNL A   1      43.539  19.795  25.035  1.00  0.00    -0.275 OA
ATOM     20  H   UNL A   1      42.044  21.044  26.358  1.00  0.00     0.169 HD
ENDBRANCH  11  16
ENDBRANCH   8  10
BRANCH   9  21
ATOM     21  C   UNL A   1      44.511  27.721  27.129  1.00  0.00    -0.025 A 
ATOM     22  C   UNL A   1      45.201  26.582  27.566  1.00  0.00     0.009 A 
ATOM     23  C   UNL A   1      45.013  28.468  26.055  1.00  0.00     0.009 A 
ATOM     24  C   UNL A   1      46.296  26.106  26.849  1.00  0.00     0.021 A 
ATOM     25  C   UNL A   1      46.110  27.991  25.328  1.00  0.00     0.021 A 
ATOM     26  C   UNL A   1      46.717  26.791  25.708  1.00  0.00     0.067 A 
BRANCH  26  27
ATOM     27  S   UNL A   1      47.895  26.002  24.633  1.00  0.00     0.175 S 
ATOM     28  C   UNL A   1      48.196  27.195  23.361  1.00  0.00     0.163 C 
ATOM     29  O   UNL A   1      49.114  25.841  25.402  1.00  0.00    -0.224 OA
ATOM     30  O   UNL A   1      47.243  24.856  24.029  1.00  0.00    -0.224 OA
ENDBRANCH  26  27
ENDBRANCH   9  21
ENDBRANCH   6   8
ENDBRANCH   5   6
ENDBRANCH   4   5
ENDBRANCH   3   4
ENDBRANCH   2   3
ENDBRANCH   1   2
BRANCH   1  31
ATOM     31  C   UNL A   1      34.732  31.577  28.276  1.00  0.00     0.188 C 
BRANCH  31  32
ATOM     32  O   UNL A   1      34.764  31.885  29.654  1.00  0.00    -0.376 OA
BRANCH  32  33
ATOM     33  C   UNL A   1      34.506  33.215  30.073  1.00  0.00     0.202 C 
BRANCH  33  34
ATOM     34  C   UNL A   1      34.659  33.675  31.535  1.00  0.00     0.261 C 
BRANCH  34  35
ATOM     35  O   UNL A   1      35.993  33.909  32.009  1.00  0.00    -0.460 OA
BRANCH  35  36
ATOM     36  C   UNL A   1      36.344  33.244  33.135  1.00  0.00     0.338 C 
ATOM     37  O   UNL A   1      35.702  33.153  34.176  1.00  0.00    -0.246 OA
BRANCH  36  38
ATOM     38  C   UNL A   1      37.566  32.461  32.884  1.00  0.00     0.060 A 
ATOM     39  C   UNL A   1      38.724  32.773  33.607  1.00  0.00     0.016 A 
ATOM     40  C   UNL A   1      37.588  31.457  31.915  1.00  0.00     0.016 A 
ATOM     41  C   UNL A   1      39.904  32.069  33.368  1.00  0.00     0.010 A 
ATOM     42  C   UNL A   1      38.784  30.772  31.659  1.00  0.00     0.010 A 
ATOM     43  C   UNL A   1      39.952  31.080  32.375  1.00  0.00    -0.014 A 
BRANCH  43  44
ATOM     44  C   UNL A   1      41.254  30.467  32.010  1.00  0.00     0.031 A 
ATOM     45  C   UNL A   1      42.105  31.128  30.959  1.00  0.00     0.074 A 
ATOM     46  C   UNL A   1      41.723  29.388  32.663  1.00  0.00     0.049 A 
ATOM     47  N   UNL A   1      43.285  30.783  30.513  1.00  0.00    -0.248 NA
ATOM     48  C   UNL A   1      41.551  32.339  30.335  1.00  0.00     0.031 C 
ATOM     49  C   UNL A   1      41.052  28.716  33.775  1.00  0.00     0.029 A 
ATOM     50  N   UNL A   1      42.918  28.719  32.539  1.00  0.00    -0.354 N 
ATOM     51  C   UNL A   1      43.599  31.708  29.524  1.00  0.00     0.074 A 
ATOM     52  C   UNL A   1      42.492  32.638  29.451  1.00  0.00     0.031 C 
ATOM     53  C   UNL A   1      41.877  27.780  34.277  1.00  0.00     0.029 A 
ATOM     54  C   UNL A   1      43.102  27.735  33.479  1.00  0.00     0.049 A 
ATOM     55  H   UNL A   1      43.580  28.927  31.840  1.00  0.00     0.167 HD
ATOM     56  C   UNL A   1      44.695  31.762  28.730  1.00  0.00     0.031 A 
ATOM     57  C   UNL A   1      44.137  26.890  33.670  1.00  0.00     0.031 A 
ATOM     58  C   UNL A   1      45.797  30.838  28.789  1.00  0.00     0.049 A 
ATOM     59  C   UNL A   1      45.320  26.939  32.733  1.00  0.00     0.074 A 
ATOM     60  C   UNL A   1      46.934  30.804  28.000  1.00  0.00     0.029 A 
ATOM     61  N   UNL A   1      45.900  29.786  29.684  1.00  0.00    -0.354 N 
ATOM     62  N   UNL A   1      45.585  27.793  31.774  1.00  0.00    -0.248 NA
ATOM     63  C   UNL A   1      46.338  25.888  32.895  1.00  0.00     0.031 C 
ATOM     64  C   UNL A   1      47.690  29.687  28.368  1.00  0.00     0.029 A 
ATOM     65  C   UNL A   1      47.060  29.069  29.436  1.00  0.00     0.049 A 
ATOM     66  H   UNL A   1      45.246  29.577  30.390  1.00  0.00     0.167 HD
ATOM     67  C   UNL A   1      46.797  27.385  31.227  1.00  0.00     0.074 A 
ATOM     68  C   UNL A   1      47.234  26.232  31.982  1.00  0.00     0.031 C 
ATOM     69  C   UNL A   1      47.481  27.911  30.180  1.00  0.00     0.031 A 
BRANCH  56  70
ATOM     70  C   UNL A   1      44.719  32.814  27.656  1.00  0.00    -0.014 A 
ATOM     71  C   UNL A   1      45.293  34.076  27.864  1.00  0.00     0.009 A 
ATOM     72  C   UNL A   1      44.190  32.508  26.390  1.00  0.00     0.009 A 
ATOM     73  C   UNL A   1      45.311  35.020  26.833  1.00  0.00     0.001 A 
ATOM     74  C   UNL A   1      44.237  33.441  25.356  1.00  0.00     0.001 A 
ATOM     75  C   UNL A   1      44.790  34.699  25.580  1.00  0.00     0.000 A 
ENDBRANCH  56  70
BRANCH  57  76
ATOM     76  C   UNL A   1      44.095  25.873  34.759  1.00  0.00    -0.014 A 
ATOM     77  C   UNL A   1      43.503  24.616  34.550  1.00  0.00     0.009 A 
ATOM     78  C   UNL A   1      44.592  26.177  36.037  1.00  0.00     0.009 A 
ATOM     79  C   UNL A   1      43.383  23.704  35.601  1.00  0.00     0.001 A 
ATOM     80  C   UNL A   1      44.508  25.247  37.075  1.00  0.00     0.001 A 
ATOM     81  C   UNL A   1      43.891  24.017  36.861  1.00  0.00     0.000 A 
ENDBRANCH  57  76
BRANCH  69  82
ATOM     82  C   UNL A   1      48.770  27.243  29.780  1.00  0.00    -0.014 A 
ATOM     83  C   UNL A   1      50.013  27.771  30.166  1.00  0.00     0.009 A 
ATOM     84  C   UNL A   1      48.743  26.043  29.051  1.00  0.00     0.009 A 
ATOM     85  C   UNL A   1      51.200  27.130  29.802  1.00  0.00     0.001 A 
ATOM     86  C   UNL A   1      49.930  25.388  28.716  1.00  0.00     0.001 A 
ATOM     87  C   UNL A   1      51.157  25.937  29.083  1.00  0.00     0.000 A 
ENDBRANCH  69  82
ENDBRANCH  43  44
ENDBRANCH  36  38
ENDBRANCH  35  36
ENDBRANCH  34  35
ENDBRANCH  33  34
ENDBRANCH  32  33
ENDBRANCH  31  32
ENDBRANCH   1  31
TORSDOF 21
ENDMDL
MODEL 2
REMARK VINA RESULT:      -7.3      1.661      3.364
REMARK SMILES CC(=O)Nc1ccc(/C(=C\c2ccc(S(C)(=O)=O)cc2)C(=O)OCCOCCOCCOC(=O)c2ccc(-c3c4nc(c(-c5ccccc5)c5ccc([nH]5)c(-c5ccccc5)c5nc(c(-c6ccccc6)c6ccc3[nH]6)C=C5)C=C4)cc2)cc1
REMARK SMILES IDX 27 1 26 2 25 3 24 4 23 5 21 6 22 7 9 8 10 9 8 10 5 11 6 12
REMARK SMILES IDX 84 13 7 14 83 15 4 16 1 17 2 18 3 19 11 21 12 22 20 23 13 24
REMARK SMILES IDX 19 25 14 26 15 27 16 28 17 29 18 30 28 31 29 32 30 33 31 34
REMARK SMILES IDX 32 35 33 36 34 37 35 38 36 39 82 40 37 41 81 42 38 43 39 44
REMARK SMILES IDX 40 45 75 46 41 47 80 48 74 49 76 50 42 51 79 52 73 53 72 54
REMARK SMILES IDX 43 56 65 57 50 58 64 59 51 60 54 61 63 62 77 63 52 64 53 65
REMARK SMILES IDX 62 67 78 68 55 69 44 70 45 71 49 72 46 73 48 74 47 75 66 76
REMARK SMILES IDX 67 77 71 78 68 79 70 80 69 81 56 82 57 83 61 84 58 85 60 86
REMARK SMILES IDX 59 87
REMARK H PARENT 4 20 76 55 54 66
REMARK Flexibility Score: inf
ROOT
ATOM      1  C   UNL A   1      35.784  30.346  28.529  1.00  0.00     0.188 C 
ENDROOT
BRANCH   1   2
ATOM      2  O   UNL A   1      36.647  29.687  29.425  1.00  0.00    -0.376 OA
BRANCH   2   3
ATOM      3  C   UNL A   1      37.782  28.984  28.950  1.00  0.00     0.202 C 
BRANCH   3   4
ATOM      4  C   UNL A   1      38.449  27.778  29.642  1.00  0.00     0.261 C 
BRANCH   4   5
ATOM      5  O   UNL A   1      39.312  26.957  28.852  1.00  0.00    -0.460 OA
BRANCH   5   6
ATOM      6  C   UNL A   1      40.650  27.202  28.954  1.00  0.00     0.338 C 
ATOM      7  O   UNL A   1      41.157  28.073  29.643  1.00  0.00    -0.246 OA
BRANCH   6   8
ATOM      8  C   UNL A   1      41.448  26.163  28.211  1.00  0.00     0.067 C 
ATOM      9  C   UNL A   1      41.050  24.877  28.397  1.00  0.00     0.024 C 
BRANCH   8  10
ATOM     10  C   UNL A   1      42.599  26.598  27.355  1.00  0.00    -0.011 A 
ATOM     11  C   UNL A   1      44.620  27.340  25.475  1.00  0.00     0.041 A 
ATOM     12  C   UNL A   1      43.755  28.288  26.019  1.00  0.00     0.027 A 
ATOM     13  C   UNL A   1      44.538  26.035  25.946  1.00  0.00     0.027 A 
ATOM     14  C   UNL A   1      42.778  27.927  26.956  1.00  0.00     0.011 A 
ATOM     15  C   UNL A   1      43.543  25.672  26.878  1.00  0.00     0.011 A 
BRANCH  11  16
ATOM     16  N   UNL A   1      45.581  27.816  24.571  1.00  0.00    -0.326 N 
ATOM     17  C   UNL A   1      47.417  26.156  24.766  1.00  0.00     0.114 C 
ATOM     18  C   UNL A   1      46.876  27.476  24.313  1.00  0.00     0.221 C 
ATOM     19  O   UNL A   1      47.544  28.215  23.585  1.00  0.00    -0.275 OA
ATOM     20  H   UNL A   1      45.251  28.549  24.002  1.00  0.00     0.169 HD
ENDBRANCH  11  16
ENDBRANCH   8  10
BRANCH   9  21
ATOM     21  C   UNL A   1      41.575  23.687  27.710  1.00  0.00    -0.025 A 
ATOM     22  C   UNL A   1      42.390  22.830  28.461  1.00  0.00     0.009 A 
ATOM     23  C   UNL A   1      41.155  23.302  26.430  1.00  0.00     0.009 A 
ATOM     24  C   UNL A   1      42.665  21.542  28.005  1.00  0.00     0.021 A 
ATOM     25  C   UNL A   1      41.423  22.008  25.969  1.00  0.00     0.021 A 
ATOM     26  C   UNL A   1      42.142  21.125  26.780  1.00  0.00     0.067 A 
BRANCH  26  27
ATOM     27  S   UNL A   1      42.226  19.396  26.369  1.00  0.00     0.175 S 
ATOM     28  C   UNL A   1      43.548  19.286  25.198  1.00  0.00     0.163 C 
ATOM     29  O   UNL A   1      42.631  18.703  27.577  1.00  0.00    -0.224 OA
ATOM     30  O   UNL A   1      40.993  19.044  25.691  1.00  0.00    -0.224 OA
ENDBRANCH  26  27
ENDBRANCH   9  21
ENDBRANCH   6   8
ENDBRANCH   5   6
ENDBRANCH   4   5
ENDBRANCH   3   4
ENDBRANCH   2   3
ENDBRANCH   1   2
BRANCH   1  31
ATOM     31  C   UNL A   1      35.209  31.719  28.930  1.00  0.00     0.188 C 
BRANCH  31  32
ATOM     32  O   UNL A   1      35.171  32.106  30.287  1.00  0.00    -0.376 OA
BRANCH  32  33
ATOM     33  C   UNL A   1      35.209  33.485  30.616  1.00  0.00     0.202 C 
BRANCH  33  34
ATOM     34  C   UNL A   1      35.284  33.996  32.067  1.00  0.00     0.261 C 
BRANCH  34  35
ATOM     35  O   UNL A   1      36.592  34.138  32.641  1.00  0.00    -0.460 OA
BRANCH  35  36
ATOM     36  C   UNL A   1      36.888  33.284  33.650  1.00  0.00     0.338 C 
ATOM     37  O   UNL A   1      36.243  33.092  34.675  1.00  0.00    -0.246 OA
BRANCH  36  38
ATOM     38  C   UNL A   1      38.039  32.449  33.266  1.00  0.00     0.060 A 
ATOM     39  C   UNL A   1      39.267  32.663  33.903  1.00  0.00     0.016 A 
ATOM     40  C   UNL A   1      37.925  31.491  32.257  1.00  0.00     0.016 A 
ATOM     41  C   UNL A   1      40.381  31.908  33.539  1.00  0.00     0.010 A 
ATOM     42  C   UNL A   1      39.054  30.755  31.874  1.00  0.00     0.010 A 
ATOM     43  C   UNL A   1      40.292  30.966  32.504  1.00  0.00    -0.014 A 
BRANCH  43  44
ATOM     44  C   UNL A   1      41.523  30.301  32.007  1.00  0.00     0.031 A 
ATOM     45  C   UNL A   1      42.302  30.943  30.892  1.00  0.00     0.074 A 
ATOM     46  C   UNL A   1      41.999  29.188  32.595  1.00  0.00     0.049 A 
ATOM     47  N   UNL A   1      43.418  30.554  30.330  1.00  0.00    -0.248 NA
ATOM     48  C   UNL A   1      41.752  32.191  30.343  1.00  0.00     0.031 C 
ATOM     49  C   UNL A   1      41.403  28.524  33.755  1.00  0.00     0.029 A 
ATOM     50  N   UNL A   1      43.143  28.467  32.347  1.00  0.00    -0.354 N 
ATOM     51  C   UNL A   1      43.681  31.483  29.331  1.00  0.00     0.074 A 
ATOM     52  C   UNL A   1      42.620  32.465  29.379  1.00  0.00     0.031 C 
ATOM     53  C   UNL A   1      42.225  27.540  34.160  1.00  0.00     0.029 A 
ATOM     54  C   UNL A   1      43.367  27.455  33.249  1.00  0.00     0.049 A 
ATOM     55  H   UNL A   1      43.746  28.658  31.592  1.00  0.00     0.167 HD
ATOM     56  C   UNL A   1      44.700  31.503  28.438  1.00  0.00     0.031 A 
ATOM     57  C   UNL A   1      44.373  26.559  33.327  1.00  0.00     0.031 A 
ATOM     58  C   UNL A   1      45.757  30.528  28.378  1.00  0.00     0.049 A 
ATOM     59  C   UNL A   1      45.465  26.574  32.284  1.00  0.00     0.074 A 
ATOM     60  C   UNL A   1      46.812  30.458  27.484  1.00  0.00     0.029 A 
ATOM     61  N   UNL A   1      45.892  29.453  29.241  1.00  0.00    -0.354 N 
ATOM     62  N   UNL A   1      45.679  27.434  31.318  1.00  0.00    -0.248 NA
ATOM     63  C   UNL A   1      46.440  25.473  32.331  1.00  0.00     0.031 C 
ATOM     64  C   UNL A   1      47.544  29.299  27.760  1.00  0.00     0.029 A 
ATOM     65  C   UNL A   1      46.988  28.689  28.872  1.00  0.00     0.049 A 
ATOM     66  H   UNL A   1      45.298  29.261  30.002  1.00  0.00     0.167 HD
ATOM     67  C   UNL A   1      46.813  26.982  30.652  1.00  0.00     0.074 A 
ATOM     68  C   UNL A   1      47.263  25.794  31.344  1.00  0.00     0.031 C 
ATOM     69  C   UNL A   1      47.420  27.497  29.554  1.00  0.00     0.031 A 
BRANCH  56  70
ATOM     70  C   UNL A   1      44.674  32.575  27.384  1.00  0.00    -0.014 A 
ATOM     71  C   UNL A   1      45.381  33.777  27.529  1.00  0.00     0.009 A 
ATOM     72  C   UNL A   1      43.955  32.347  26.198  1.00  0.00     0.009 A 
ATOM     73  C   UNL A   1      45.345  34.741  26.517  1.00  0.00     0.001 A 
ATOM     74  C   UNL A   1      43.947  33.298  25.178  1.00  0.00     0.001 A 
ATOM     75  C   UNL A   1      44.635  34.498  25.342  1.00  0.00     0.000 A 
ENDBRANCH  56  70
BRANCH  57  76
ATOM     76  C   UNL A   1      44.384  25.523  34.399  1.00  0.00    -0.014 A 
ATOM     77  C   UNL A   1      43.763  24.278  34.204  1.00  0.00     0.009 A 
ATOM     78  C   UNL A   1      44.964  25.796  35.648  1.00  0.00     0.009 A 
ATOM     79  C   UNL A   1      43.695  23.348  35.244  1.00  0.00     0.001 A 
ATOM     80  C   UNL A   1      44.931  24.848  36.673  1.00  0.00     0.001 A 
ATOM     81  C   UNL A   1      44.285  23.631  36.475  1.00  0.00     0.000 A 
ENDBRANCH  57  76
BRANCH  69  82
ATOM     82  C   UNL A   1      48.633  26.778  29.023  1.00  0.00    -0.014 A 
ATOM     83  C   UNL A   1      48.514  25.774  28.049  1.00  0.00     0.009 A 
ATOM     84  C   UNL A   1      49.915  27.143  29.462  1.00  0.00     0.009 A 
ATOM     85  C   UNL A   1      49.649  25.128  27.552  1.00  0.00     0.001 A 
ATOM     86  C   UNL A   1      51.050  26.519  28.941  1.00  0.00     0.001 A 
ATOM     87  C   UNL A   1      50.916  25.505  27.995  1.00  0.00     0.000 A 
ENDBRANCH  69  82
ENDBRANCH  43  44
ENDBRANCH  36  38
ENDBRANCH  35  36
ENDBRANCH  34  35
ENDBRANCH  33  34
ENDBRANCH  32  33
ENDBRANCH  31  32
ENDBRANCH   1  31
TORSDOF 21
ENDMDL
MODEL 3
REMARK VINA RESULT:      -7.3      1.788      2.337
REMARK SMILES CC(=O)Nc1ccc(/C(=C\c2ccc(S(C)(=O)=O)cc2)C(=O)OCCOCCOCCOC(=O)c2ccc(-c3c4nc(c(-c5ccccc5)c5ccc([nH]5)c(-c5ccccc5)c5nc(c(-c6ccccc6)c6ccc3[nH]6)C=C5)C=C4)cc2)cc1
REMARK SMILES IDX 27 1 26 2 25 3 24 4 23 5 21 6 22 7 9 8 10 9 8 10 5 11 6 12
REMARK SMILES IDX 84 13 7 14 83 15 4 16 1 17 2 18 3 19 11 21 12 22 20 23 13 24
REMARK SMILES IDX 19 25 14 26 15 27 16 28 17 29 18 30 28 31 29 32 30 33 31 34
REMARK SMILES IDX 32 35 33 36 34 37 35 38 36 39 82 40 37 41 81 42 38 43 39 44
REMARK SMILES IDX 40 45 75 46 41 47 80 48 74 49 76 50 42 51 79 52 73 53 72 54
REMARK SMILES IDX 43 56 65 57 50 58 64 59 51 60 54 61 63 62 77 63 52 64 53 65
REMARK SMILES IDX 62 67 78 68 55 69 44 70 45 71 49 72 46 73 48 74 47 75 66 76
REMARK SMILES IDX 67 77 71 78 68 79 70 80 69 81 56 82 57 83 61 84 58 85 60 86
REMARK SMILES IDX 59 87
REMARK H PARENT 4 20 76 55 54 66
REMARK Flexibility Score: inf
ROOT
ATOM      1  C   UNL A   1      36.418  31.541  28.366  1.00  0.00     0.188 C 
ENDROOT
BRANCH   1   2
ATOM      2  O   UNL A   1      37.281  30.777  29.173  1.00  0.00    -0.376 OA
BRANCH   2   3
ATOM      3  C   UNL A   1      38.526  30.323  28.673  1.00  0.00     0.202 C 
BRANCH   3   4
ATOM      4  C   UNL A   1      39.517  29.408  29.420  1.00  0.00     0.261 C 
BRANCH   4   5
ATOM      5  O   UNL A   1      40.295  28.499  28.639  1.00  0.00    -0.460 OA
BRANCH   5   6
ATOM      6  C   UNL A   1      41.084  27.624  29.326  1.00  0.00     0.338 C 
ATOM      7  O   UNL A   1      41.215  27.595  30.540  1.00  0.00    -0.246 OA
BRANCH   6   8
ATOM      8  C   UNL A   1      41.677  26.592  28.404  1.00  0.00     0.067 C 
ATOM      9  C   UNL A   1      42.981  26.785  28.071  1.00  0.00     0.024 C 
BRANCH   8  10
ATOM     10  C   UNL A   1      40.818  25.464  27.916  1.00  0.00    -0.011 A 
ATOM     11  C   UNL A   1      39.353  23.320  26.722  1.00  0.00     0.041 A 
ATOM     12  C   UNL A   1      40.378  23.075  27.633  1.00  0.00     0.027 A 
ATOM     13  C   UNL A   1      38.994  24.642  26.482  1.00  0.00     0.027 A 
ATOM     14  C   UNL A   1      41.083  24.127  28.233  1.00  0.00     0.011 A 
ATOM     15  C   UNL A   1      39.715  25.697  27.077  1.00  0.00     0.011 A 
BRANCH  11  16
ATOM     16  N   UNL A   1      38.692  22.195  26.206  1.00  0.00    -0.326 N 
ATOM     17  C   UNL A   1      36.984  23.180  24.698  1.00  0.00     0.114 C 
ATOM     18  C   UNL A   1      37.562  22.030  25.462  1.00  0.00     0.221 C 
ATOM     19  O   UNL A   1      37.111  20.890  25.323  1.00  0.00    -0.275 OA
ATOM     20  H   UNL A   1      39.139  21.346  26.427  1.00  0.00     0.169 HD
ENDBRANCH  11  16
ENDBRANCH   8  10
BRANCH   9  21
ATOM     21  C   UNL A   1      43.832  25.877  27.286  1.00  0.00    -0.025 A 
ATOM     22  C   UNL A   1      44.402  24.794  27.968  1.00  0.00     0.009 A 
ATOM     23  C   UNL A   1      43.942  25.955  25.891  1.00  0.00     0.009 A 
ATOM     24  C   UNL A   1      44.946  23.725  27.260  1.00  0.00     0.021 A 
ATOM     25  C   UNL A   1      44.483  24.883  25.174  1.00  0.00     0.021 A 
ATOM     26  C   UNL A   1      44.944  23.757  25.864  1.00  0.00     0.067 A 
BRANCH  26  27
ATOM     27  S   UNL A   1      45.339  22.264  24.982  1.00  0.00     0.175 S 
ATOM     28  C   UNL A   1      44.564  22.468  23.404  1.00  0.00     0.163 C 
ATOM     29  O   UNL A   1      46.777  22.268  24.785  1.00  0.00    -0.224 OA
ATOM     30  O   UNL A   1      44.688  21.163  25.664  1.00  0.00    -0.224 OA
ENDBRANCH  26  27
ENDBRANCH   9  21
ENDBRANCH   6   8
ENDBRANCH   5   6
ENDBRANCH   4   5
ENDBRANCH   3   4
ENDBRANCH   2   3
ENDBRANCH   1   2
BRANCH   1  31
ATOM     31  C   UNL A   1      35.674  32.733  28.999  1.00  0.00     0.188 C 
BRANCH  31  32
ATOM     32  O   UNL A   1      35.543  32.827  30.401  1.00  0.00    -0.376 OA
BRANCH  32  33
ATOM     33  C   UNL A   1      35.290  34.092  30.991  1.00  0.00     0.202 C 
BRANCH  33  34
ATOM     34  C   UNL A   1      35.449  34.358  32.500  1.00  0.00     0.261 C 
BRANCH  34  35
ATOM     35  O   UNL A   1      36.765  34.684  32.969  1.00  0.00    -0.460 OA
BRANCH  35  36
ATOM     36  C   UNL A   1      37.206  33.969  34.031  1.00  0.00     0.338 C 
ATOM     37  O   UNL A   1      36.717  33.928  35.156  1.00  0.00    -0.246 OA
BRANCH  36  38
ATOM     38  C   UNL A   1      38.291  33.069  33.603  1.00  0.00     0.060 A 
ATOM     39  C   UNL A   1      39.603  33.368  33.988  1.00  0.00     0.016 A 
ATOM     40  C   UNL A   1      38.028  31.963  32.792  1.00  0.00     0.016 A 
ATOM     41  C   UNL A   1      40.654  32.551  33.571  1.00  0.00     0.010 A 
ATOM     42  C   UNL A   1      39.090  31.162  32.353  1.00  0.00     0.010 A 
ATOM     43  C   UNL A   1      40.410  31.456  32.730  1.00  0.00    -0.014 A 
BRANCH  43  44
ATOM     44  C   UNL A   1      41.553  30.706  32.151  1.00  0.00     0.031 A 
ATOM     45  C   UNL A   1      42.304  31.298  30.989  1.00  0.00     0.074 A 
ATOM     46  C   UNL A   1      41.982  29.555  32.702  1.00  0.00     0.049 A 
ATOM     47  N   UNL A   1      43.349  30.831  30.354  1.00  0.00    -0.248 NA
ATOM     48  C   UNL A   1      41.814  32.588  30.482  1.00  0.00     0.031 C 
ATOM     49  C   UNL A   1      41.414  28.928  33.895  1.00  0.00     0.029 A 
ATOM     50  N   UNL A   1      43.050  28.753  32.377  1.00  0.00    -0.354 N 
ATOM     51  C   UNL A   1      43.615  31.746  29.343  1.00  0.00     0.074 A 
ATOM     52  C   UNL A   1      42.636  32.805  29.464  1.00  0.00     0.031 C 
ATOM     53  C   UNL A   1      42.185  27.882  34.243  1.00  0.00     0.029 A 
ATOM     54  C   UNL A   1      43.255  27.719  33.258  1.00  0.00     0.049 A 
ATOM     55  H   UNL A   1      43.614  28.905  31.584  1.00  0.00     0.167 HD
ATOM     56  C   UNL A   1      44.572  31.698  28.385  1.00  0.00     0.031 A 
ATOM     57  C   UNL A   1      44.195  26.751  33.267  1.00  0.00     0.031 A 
ATOM     58  C   UNL A   1      45.546  30.647  28.252  1.00  0.00     0.049 A 
ATOM     59  C   UNL A   1      45.214  26.692  32.155  1.00  0.00     0.074 A 
ATOM     60  C   UNL A   1      46.533  30.507  27.291  1.00  0.00     0.029 A 
ATOM     61  N   UNL A   1      45.657  29.558  29.100  1.00  0.00    -0.354 N 
ATOM     62  N   UNL A   1      45.428  27.543  31.180  1.00  0.00    -0.248 NA
ATOM     63  C   UNL A   1      46.105  25.521  32.133  1.00  0.00     0.031 C 
ATOM     64  C   UNL A   1      47.193  29.294  27.514  1.00  0.00     0.029 A 
ATOM     65  C   UNL A   1      46.666  28.718  28.658  1.00  0.00     0.049 A 
ATOM     66  H   UNL A   1      45.101  29.404  29.898  1.00  0.00     0.167 HD
ATOM     67  C   UNL A   1      46.480  27.013  30.439  1.00  0.00     0.074 A 
ATOM     68  C   UNL A   1      46.884  25.789  31.095  1.00  0.00     0.031 C 
ATOM     69  C   UNL A   1      47.051  27.491  29.305  1.00  0.00     0.031 A 
BRANCH  56  70
ATOM     70  C   UNL A   1      44.558  32.778  27.339  1.00  0.00    -0.014 A 
ATOM     71  C   UNL A   1      45.109  34.046  27.573  1.00  0.00     0.009 A 
ATOM     72  C   UNL A   1      44.016  32.494  26.074  1.00  0.00     0.009 A 
ATOM     73  C   UNL A   1      45.092  35.017  26.567  1.00  0.00     0.001 A 
ATOM     74  C   UNL A   1      44.028  33.455  25.064  1.00  0.00     0.001 A 
ATOM     75  C   UNL A   1      44.559  34.718  25.314  1.00  0.00     0.000 A 
ENDBRANCH  56  70
BRANCH  57  76
ATOM     76  C   UNL A   1      44.197  25.707  34.332  1.00  0.00    -0.014 A 
ATOM     77  C   UNL A   1      45.064  25.802  35.433  1.00  0.00     0.009 A 
ATOM     78  C   UNL A   1      43.375  24.574  34.220  1.00  0.00     0.009 A 
ATOM     79  C   UNL A   1      45.128  24.775  36.378  1.00  0.00     0.001 A 
ATOM     80  C   UNL A   1      43.411  23.568  35.188  1.00  0.00     0.001 A 
ATOM     81  C   UNL A   1      44.297  23.662  36.258  1.00  0.00     0.000 A 
ENDBRANCH  57  76
BRANCH  69  82
ATOM     82  C   UNL A   1      48.169  26.688  28.693  1.00  0.00    -0.014 A 
ATOM     83  C   UNL A   1      47.938  25.835  27.602  1.00  0.00     0.009 A 
ATOM     84  C   UNL A   1      49.479  26.824  29.179  1.00  0.00     0.009 A 
ATOM     85  C   UNL A   1      48.989  25.110  27.033  1.00  0.00     0.001 A 
ATOM     86  C   UNL A   1      50.533  26.123  28.588  1.00  0.00     0.001 A 
ATOM     87  C   UNL A   1      50.286  25.260  27.523  1.00  0.00     0.000 A 
ENDBRANCH  69  82
ENDBRANCH  43  44
ENDBRANCH  36  38
ENDBRANCH  35  36
ENDBRANCH  34  35
ENDBRANCH  33  34
ENDBRANCH  32  33
ENDBRANCH  31  32
ENDBRANCH   1  31
TORSDOF 21
ENDMDL
