MODEL 1
REMARK VINA RESULT:      -9.0      0.000      0.000
REMARK SMILES CS(=O)(=O)c1ccc(-c2cc(Cl)cnc2-c2ccc(C(=O)OCCOCCOCCOC(=O)c3ccc(-c4c5nc(c(-c6ccccc6)c6ccc([nH]6)c(-c6ccccc6)c6nc(c(-c7ccccc7)c7ccc4[nH]7)C=C6)C=C5)cc3)nc2)cc1
REMARK SMILES IDX 26 1 25 2 24 3 23 4 22 5 20 6 21 7 19 8 16 9 17 10 83 11
REMARK SMILES IDX 18 12 82 13 15 14 9 15 10 16 11 17 14 18 12 19 13 20 8 21
REMARK SMILES IDX 5 22 6 23 85 24 7 25 84 26 2 27 1 28 3 29 4 30 27 31 28 32
REMARK SMILES IDX 29 33 30 34 31 35 32 36 33 37 34 38 35 39 81 40 36 41 80 42
REMARK SMILES IDX 37 43 38 44 39 45 74 46 40 47 79 48 73 49 75 50 41 51 78 52
REMARK SMILES IDX 72 53 71 54 42 56 64 57 49 58 63 59 50 60 53 61 62 62 76 63
REMARK SMILES IDX 51 64 52 65 61 67 77 68 54 69 43 70 44 71 48 72 45 73 47 74
REMARK SMILES IDX 46 75 65 76 66 77 70 78 67 79 69 80 68 81 55 82 56 83 60 84
REMARK SMILES IDX 57 85 59 86 58 87
REMARK H PARENT 75 55 53 66
REMARK Flexibility Score: inf
ROOT
ATOM      1  C   UNL A   1      34.097  34.670  32.065  1.00  0.00     0.188 C 
ENDROOT
BRANCH   1   2
ATOM      2  O   UNL A   1      33.843  33.275  32.185  1.00  0.00    -0.376 OA
BRANCH   2   3
ATOM      3  C   UNL A   1      34.913  32.384  32.492  1.00  0.00     0.202 C 
BRANCH   3   4
ATOM      4  C   UNL A   1      36.125  32.897  33.283  1.00  0.00     0.261 C 
BRANCH   4   5
ATOM      5  O   UNL A   1      37.270  33.162  32.460  1.00  0.00    -0.459 OA
BRANCH   5   6
ATOM      6  C   UNL A   1      38.011  34.241  32.822  1.00  0.00     0.356 C 
ATOM      7  O   UNL A   1      37.801  34.987  33.763  1.00  0.00    -0.244 OA
BRANCH   6   8
ATOM      8  C   UNL A   1      39.214  34.328  31.950  1.00  0.00     0.148 A 
ATOM      9  C   UNL A   1      41.385  34.131  30.289  1.00  0.00     0.019 A 
ATOM     10  C   UNL A   1      41.570  34.478  31.636  1.00  0.00     0.014 A 
ATOM     11  C   UNL A   1      40.077  34.046  29.826  1.00  0.00     0.122 A 
ATOM     12  C   UNL A   1      40.471  34.572  32.488  1.00  0.00     0.037 A 
ATOM     13  N   UNL A   1      38.990  34.123  30.625  1.00  0.00    -0.249 NA
BRANCH   9  14
ATOM     14  C   UNL A   1      42.485  33.596  29.479  1.00  0.00     0.080 A 
ATOM     15  C   UNL A   1      43.213  34.444  28.606  1.00  0.00     0.010 A 
ATOM     16  C   UNL A   1      44.258  33.870  27.872  1.00  0.00     0.033 A 
ATOM     17  C   UNL A   1      44.557  32.521  28.039  1.00  0.00     0.060 A 
ATOM     18  N   UNL A   1      42.775  32.284  29.666  1.00  0.00    -0.254 NA
ATOM     19  Cl  UNL A   1      45.837  31.800  27.155  1.00  0.00    -0.083 Cl
ATOM     20  C   UNL A   1      43.803  31.780  28.938  1.00  0.00     0.132 A 
BRANCH  15  21
ATOM     21  C   UNL A   1      42.895  35.879  28.471  1.00  0.00    -0.016 A 
ATOM     22  C   UNL A   1      42.546  38.633  28.041  1.00  0.00     0.067 A 
ATOM     23  C   UNL A   1      42.001  37.723  27.138  1.00  0.00     0.021 A 
ATOM     24  C   UNL A   1      43.223  38.188  29.179  1.00  0.00     0.021 A 
ATOM     25  C   UNL A   1      42.167  36.355  27.362  1.00  0.00     0.010 A 
ATOM     26  C   UNL A   1      43.397  36.816  29.387  1.00  0.00     0.010 A 
BRANCH  22  27
ATOM     27  S   UNL A   1      42.324  40.373  27.755  1.00  0.00     0.175 S 
ATOM     28  C   UNL A   1      41.137  40.443  26.437  1.00  0.00     0.163 C 
ATOM     29  O   UNL A   1      43.578  40.896  27.245  1.00  0.00    -0.224 OA
ATOM     30  O   UNL A   1      41.718  40.927  28.950  1.00  0.00    -0.224 OA
ENDBRANCH  22  27
ENDBRANCH  15  21
ENDBRANCH   9  14
ENDBRANCH   6   8
ENDBRANCH   5   6
ENDBRANCH   4   5
ENDBRANCH   3   4
ENDBRANCH   2   3
ENDBRANCH   1   2
BRANCH   1  31
ATOM     31  C   UNL A   1      33.068  35.573  31.350  1.00  0.00     0.188 C 
BRANCH  31  32
ATOM     32  O   UNL A   1      32.773  35.189  30.029  1.00  0.00    -0.376 OA
BRANCH  32  33
ATOM     33  C   UNL A   1      33.833  34.894  29.134  1.00  0.00     0.202 C 
BRANCH  33  34
ATOM     34  C   UNL A   1      33.963  33.590  28.316  1.00  0.00     0.261 C 
BRANCH  34  35
ATOM     35  O   UNL A   1      34.717  32.507  28.872  1.00  0.00    -0.460 OA
BRANCH  35  36
ATOM     36  C   UNL A   1      34.629  31.316  28.235  1.00  0.00     0.338 C 
ATOM     37  O   UNL A   1      33.788  30.968  27.428  1.00  0.00    -0.246 OA
BRANCH  36  38
ATOM     38  C   UNL A   1      35.845  30.539  28.549  1.00  0.00     0.060 A 
ATOM     39  C   UNL A   1      35.929  29.885  29.786  1.00  0.00     0.016 A 
ATOM     40  C   UNL A   1      36.900  30.474  27.638  1.00  0.00     0.016 A 
ATOM     41  C   UNL A   1      37.085  29.179  30.123  1.00  0.00     0.010 A 
ATOM     42  C   UNL A   1      38.065  29.784  27.986  1.00  0.00     0.010 A 
ATOM     43  C   UNL A   1      38.172  29.155  29.240  1.00  0.00    -0.014 A 
BRANCH  43  44
ATOM     44  C   UNL A   1      39.480  28.619  29.689  1.00  0.00     0.031 A 
ATOM     45  C   UNL A   1      40.242  29.370  30.747  1.00  0.00     0.074 A 
ATOM     46  C   UNL A   1      39.985  27.484  29.174  1.00  0.00     0.049 A 
ATOM     47  N   UNL A   1      41.423  29.124  31.252  1.00  0.00    -0.248 NA
ATOM     48  C   UNL A   1      39.581  30.560  31.307  1.00  0.00     0.031 C 
ATOM     49  C   UNL A   1      39.328  26.638  28.180  1.00  0.00     0.029 A 
ATOM     50  N   UNL A   1      41.181  26.855  29.418  1.00  0.00    -0.354 N 
ATOM     51  C   UNL A   1      41.651  30.130  32.182  1.00  0.00     0.074 A 
ATOM     52  C   UNL A   1      40.499  31.006  32.151  1.00  0.00     0.031 C 
ATOM     53  C   UNL A   1      40.137  25.604  27.889  1.00  0.00     0.029 A 
ATOM     54  C   UNL A   1      41.380  25.736  28.648  1.00  0.00     0.049 A 
ATOM     55  H   UNL A   1      41.834  27.177  30.081  1.00  0.00     0.167 HD
ATOM     56  C   UNL A   1      42.721  30.310  32.992  1.00  0.00     0.031 A 
ATOM     57  C   UNL A   1      42.451  24.925  28.550  1.00  0.00     0.031 A 
ATOM     58  C   UNL A   1      43.877  29.454  33.010  1.00  0.00     0.049 A 
ATOM     59  C   UNL A   1      43.668  25.199  29.397  1.00  0.00     0.074 A 
ATOM     60  C   UNL A   1      45.006  29.549  33.805  1.00  0.00     0.029 A 
ATOM     61  N   UNL A   1      44.056  28.354  32.187  1.00  0.00    -0.354 N 
ATOM     62  N   UNL A   1      43.860  26.136  30.293  1.00  0.00    -0.248 NA
ATOM     63  C   UNL A   1      44.814  24.293  29.220  1.00  0.00     0.031 C 
ATOM     64  C   UNL A   1      45.895  28.539  33.421  1.00  0.00     0.029 A 
ATOM     65  C   UNL A   1      45.291  27.778  32.432  1.00  0.00     0.049 A 
ATOM     66  H   UNL A   1      43.403  28.031  31.525  1.00  0.00     0.167 HD
ATOM     67  C   UNL A   1      45.134  25.915  30.808  1.00  0.00     0.074 A 
ATOM     68  C   UNL A   1      45.661  24.748  30.134  1.00  0.00     0.031 C 
ATOM     69  C   UNL A   1      45.804  26.616  31.755  1.00  0.00     0.031 A 
BRANCH  56  70
ATOM     70  C   UNL A   1      42.705  31.509  33.898  1.00  0.00    -0.014 A 
ATOM     71  C   UNL A   1      43.565  32.598  33.688  1.00  0.00     0.009 A 
ATOM     72  C   UNL A   1      41.793  31.561  34.965  1.00  0.00     0.009 A 
ATOM     73  C   UNL A   1      43.536  33.698  34.548  1.00  0.00     0.001 A 
ATOM     74  C   UNL A   1      41.745  32.674  35.805  1.00  0.00     0.001 A 
ATOM     75  C   UNL A   1      42.624  33.737  35.602  1.00  0.00     0.000 A 
ENDBRANCH  56  70
BRANCH  57  76
ATOM     76  C   UNL A   1      42.443  23.785  27.595  1.00  0.00    -0.014 A 
ATOM     77  C   UNL A   1      42.859  23.959  26.267  1.00  0.00     0.009 A 
ATOM     78  C   UNL A   1      41.988  22.521  28.003  1.00  0.00     0.009 A 
ATOM     79  C   UNL A   1      42.794  22.898  25.360  1.00  0.00     0.001 A 
ATOM     80  C   UNL A   1      41.952  21.455  27.102  1.00  0.00     0.001 A 
ATOM     81  C   UNL A   1      42.346  21.647  25.779  1.00  0.00     0.000 A 
ENDBRANCH  57  76
BRANCH  69  82
ATOM     82  C   UNL A   1      47.167  26.116  32.153  1.00  0.00    -0.014 A 
ATOM     83  C   UNL A   1      47.346  25.287  33.270  1.00  0.00     0.009 A 
ATOM     84  C   UNL A   1      48.283  26.448  31.366  1.00  0.00     0.009 A 
ATOM     85  C   UNL A   1      48.620  24.826  33.610  1.00  0.00     0.001 A 
ATOM     86  C   UNL A   1      49.550  25.961  31.691  1.00  0.00     0.001 A 
ATOM     87  C   UNL A   1      49.719  25.159  32.818  1.00  0.00     0.000 A 
ENDBRANCH  69  82
ENDBRANCH  43  44
ENDBRANCH  36  38
ENDBRANCH  35  36
ENDBRANCH  34  35
ENDBRANCH  33  34
ENDBRANCH  32  33
ENDBRANCH  31  32
ENDBRANCH   1  31
TORSDOF 20
ENDMDL
MODEL 2
REMARK VINA RESULT:      -8.6      6.377     11.287
REMARK SMILES CS(=O)(=O)c1ccc(-c2cc(Cl)cnc2-c2ccc(C(=O)OCCOCCOCCOC(=O)c3ccc(-c4c5nc(c(-c6ccccc6)c6ccc([nH]6)c(-c6ccccc6)c6nc(c(-c7ccccc7)c7ccc4[nH]7)C=C6)C=C5)cc3)nc2)cc1
REMARK SMILES IDX 26 1 25 2 24 3 23 4 22 5 20 6 21 7 19 8 16 9 17 10 83 11
REMARK SMILES IDX 18 12 82 13 15 14 9 15 10 16 11 17 14 18 12 19 13 20 8 21
REMARK SMILES IDX 5 22 6 23 85 24 7 25 84 26 2 27 1 28 3 29 4 30 27 31 28 32
REMARK SMILES IDX 29 33 30 34 31 35 32 36 33 37 34 38 35 39 81 40 36 41 80 42
REMARK SMILES IDX 37 43 38 44 39 45 74 46 40 47 79 48 73 49 75 50 41 51 78 52
REMARK SMILES IDX 72 53 71 54 42 56 64 57 49 58 63 59 50 60 53 61 62 62 76 63
REMARK SMILES IDX 51 64 52 65 61 67 77 68 54 69 43 70 44 71 48 72 45 73 47 74
REMARK SMILES IDX 46 75 65 76 66 77 70 78 67 79 69 80 68 81 55 82 56 83 60 84
REMARK SMILES IDX 57 85 59 86 58 87
REMARK H PARENT 75 55 53 66
REMARK Flexibility Score: inf
ROOT
ATOM      1  C   UNL A   1      37.395  20.973  25.179  1.00  0.00     0.188 C 
ENDROOT
BRANCH   1   2
ATOM      2  O   UNL A   1      36.097  21.501  24.932  1.00  0.00    -0.376 OA
BRANCH   2   3
ATOM      3  C   UNL A   1      34.944  20.743  25.290  1.00  0.00     0.202 C 
BRANCH   3   4
ATOM      4  C   UNL A   1      33.612  21.461  25.551  1.00  0.00     0.261 C 
BRANCH   4   5
ATOM      5  O   UNL A   1      33.772  22.753  26.156  1.00  0.00    -0.459 OA
BRANCH   5   6
ATOM      6  C   UNL A   1      32.671  23.246  26.779  1.00  0.00     0.356 C 
ATOM      7  O   UNL A   1      32.054  22.724  27.692  1.00  0.00    -0.244 OA
BRANCH   6   8
ATOM      8  C   UNL A   1      32.373  24.605  26.250  1.00  0.00     0.148 A 
ATOM      9  C   UNL A   1      31.510  26.966  25.158  1.00  0.00     0.019 A 
ATOM     10  C   UNL A   1      32.651  26.335  24.638  1.00  0.00     0.014 A 
ATOM     11  C   UNL A   1      30.954  26.426  26.312  1.00  0.00     0.122 A 
ATOM     12  C   UNL A   1      33.090  25.130  25.183  1.00  0.00     0.037 A 
ATOM     13  N   UNL A   1      31.348  25.256  26.862  1.00  0.00    -0.249 NA
BRANCH   9  14
ATOM     14  C   UNL A   1      30.761  27.957  24.377  1.00  0.00     0.080 A 
ATOM     15  C   UNL A   1      30.971  29.344  24.587  1.00  0.00     0.010 A 
ATOM     16  C   UNL A   1      30.232  30.234  23.800  1.00  0.00     0.033 A 
ATOM     17  C   UNL A   1      29.354  29.739  22.841  1.00  0.00     0.060 A 
ATOM     18  N   UNL A   1      29.922  27.459  23.436  1.00  0.00    -0.254 NA
ATOM     19  Cl  UNL A   1      28.444  30.814  21.861  1.00  0.00    -0.083 Cl
ATOM     20  C   UNL A   1      29.237  28.365  22.693  1.00  0.00     0.132 A 
BRANCH  15  21
ATOM     21  C   UNL A   1      31.933  29.842  25.590  1.00  0.00    -0.016 A 
ATOM     22  C   UNL A   1      33.841  31.008  27.290  1.00  0.00     0.067 A 
ATOM     23  C   UNL A   1      32.530  31.476  27.308  1.00  0.00     0.021 A 
ATOM     24  C   UNL A   1      34.204  29.937  26.470  1.00  0.00     0.021 A 
ATOM     25  C   UNL A   1      31.582  30.886  26.470  1.00  0.00     0.010 A 
ATOM     26  C   UNL A   1      33.252  29.362  25.623  1.00  0.00     0.010 A 
BRANCH  22  27
ATOM     27  S   UNL A   1      35.041  31.757  28.367  1.00  0.00     0.175 S 
ATOM     28  C   UNL A   1      36.124  30.419  28.798  1.00  0.00     0.163 C 
ATOM     29  O   UNL A   1      34.348  32.167  29.575  1.00  0.00    -0.224 OA
ATOM     30  O   UNL A   1      35.786  32.715  27.574  1.00  0.00    -0.224 OA
ENDBRANCH  22  27
ENDBRANCH  15  21
ENDBRANCH   9  14
ENDBRANCH   6   8
ENDBRANCH   5   6
ENDBRANCH   4   5
ENDBRANCH   3   4
ENDBRANCH   2   3
ENDBRANCH   1   2
BRANCH   1  31
ATOM     31  C   UNL A   1      38.539  21.925  25.591  1.00  0.00     0.188 C 
BRANCH  31  32
ATOM     32  O   UNL A   1      39.530  21.333  26.395  1.00  0.00    -0.376 OA
BRANCH  32  33
ATOM     33  C   UNL A   1      40.884  21.723  26.236  1.00  0.00     0.202 C 
BRANCH  33  34
ATOM     34  C   UNL A   1      41.724  22.458  27.303  1.00  0.00     0.261 C 
BRANCH  34  35
ATOM     35  O   UNL A   1      41.234  23.698  27.824  1.00  0.00    -0.460 OA
BRANCH  35  36
ATOM     36  C   UNL A   1      41.056  24.702  26.934  1.00  0.00     0.338 C 
ATOM     37  O   UNL A   1      40.021  25.032  26.388  1.00  0.00    -0.246 OA
BRANCH  36  38
ATOM     38  C   UNL A   1      42.316  25.469  26.853  1.00  0.00     0.060 A 
ATOM     39  C   UNL A   1      42.985  25.800  28.039  1.00  0.00     0.016 A 
ATOM     40  C   UNL A   1      42.821  25.874  25.616  1.00  0.00     0.016 A 
ATOM     41  C   UNL A   1      44.155  26.559  27.990  1.00  0.00     0.010 A 
ATOM     42  C   UNL A   1      43.981  26.652  25.570  1.00  0.00     0.010 A 
ATOM     43  C   UNL A   1      44.638  27.020  26.758  1.00  0.00    -0.014 A 
BRANCH  43  44
ATOM     44  C   UNL A   1      45.731  28.021  26.719  1.00  0.00     0.031 A 
ATOM     45  C   UNL A   1      45.374  29.481  26.780  1.00  0.00     0.074 A 
ATOM     46  C   UNL A   1      47.020  27.648  26.634  1.00  0.00     0.049 A 
ATOM     47  N   UNL A   1      46.151  30.531  26.706  1.00  0.00    -0.248 NA
ATOM     48  C   UNL A   1      43.945  29.798  26.947  1.00  0.00     0.031 C 
ATOM     49  C   UNL A   1      47.504  26.269  26.615  1.00  0.00     0.029 A 
ATOM     50  N   UNL A   1      48.160  28.408  26.540  1.00  0.00    -0.354 N 
ATOM     51  C   UNL A   1      45.308  31.630  26.808  1.00  0.00     0.074 A 
ATOM     52  C   UNL A   1      43.958  31.122  26.921  1.00  0.00     0.031 C 
ATOM     53  C   UNL A   1      48.844  26.281  26.502  1.00  0.00     0.029 A 
ATOM     54  C   UNL A   1      49.307  27.665  26.406  1.00  0.00     0.049 A 
ATOM     55  H   UNL A   1      48.155  29.392  26.566  1.00  0.00     0.167 HD
ATOM     56  C   UNL A   1      45.627  32.946  26.809  1.00  0.00     0.031 A 
ATOM     57  C   UNL A   1      50.580  28.057  26.206  1.00  0.00     0.031 A 
ATOM     58  C   UNL A   1      46.965  33.456  26.676  1.00  0.00     0.049 A 
ATOM     59  C   UNL A   1      50.898  29.527  26.120  1.00  0.00     0.074 A 
ATOM     60  C   UNL A   1      47.390  34.773  26.679  1.00  0.00     0.029 A 
ATOM     61  N   UNL A   1      48.094  32.671  26.502  1.00  0.00    -0.354 N 
ATOM     62  N   UNL A   1      50.098  30.558  26.247  1.00  0.00    -0.248 NA
ATOM     63  C   UNL A   1      52.303  29.887  25.871  1.00  0.00     0.031 C 
ATOM     64  C   UNL A   1      48.770  34.787  26.448  1.00  0.00     0.029 A 
ATOM     65  C   UNL A   1      49.212  33.477  26.366  1.00  0.00     0.049 A 
ATOM     66  H   UNL A   1      48.100  31.687  26.479  1.00  0.00     0.167 HD
ATOM     67  C   UNL A   1      50.904  31.684  26.123  1.00  0.00     0.074 A 
ATOM     68  C   UNL A   1      52.257  31.211  25.925  1.00  0.00     0.031 C 
ATOM     69  C   UNL A   1      50.554  32.993  26.170  1.00  0.00     0.031 A 
BRANCH  56  70
ATOM     70  C   UNL A   1      44.496  33.929  26.920  1.00  0.00    -0.014 A 
ATOM     71  C   UNL A   1      43.859  34.444  25.779  1.00  0.00     0.009 A 
ATOM     72  C   UNL A   1      44.040  34.325  28.188  1.00  0.00     0.009 A 
ATOM     73  C   UNL A   1      42.814  35.361  25.907  1.00  0.00     0.001 A 
ATOM     74  C   UNL A   1      42.976  35.219  28.313  1.00  0.00     0.001 A 
ATOM     75  C   UNL A   1      42.370  35.744  27.172  1.00  0.00     0.000 A 
ENDBRANCH  56  70
BRANCH  57  76
ATOM     76  C   UNL A   1      51.658  27.045  26.044  1.00  0.00    -0.014 A 
ATOM     77  C   UNL A   1      51.931  26.483  24.788  1.00  0.00     0.009 A 
ATOM     78  C   UNL A   1      52.400  26.614  27.155  1.00  0.00     0.009 A 
ATOM     79  C   UNL A   1      52.906  25.491  24.653  1.00  0.00     0.001 A 
ATOM     80  C   UNL A   1      53.394  25.644  27.012  1.00  0.00     0.001 A 
ATOM     81  C   UNL A   1      53.639  25.076  25.763  1.00  0.00     0.000 A 
ENDBRANCH  57  76
BRANCH  69  82
ATOM     82  C   UNL A   1      51.656  34.010  26.049  1.00  0.00    -0.014 A 
ATOM     83  C   UNL A   1      52.215  34.341  24.806  1.00  0.00     0.009 A 
ATOM     84  C   UNL A   1      52.110  34.680  27.198  1.00  0.00     0.009 A 
ATOM     85  C   UNL A   1      53.229  35.299  24.719  1.00  0.00     0.001 A 
ATOM     86  C   UNL A   1      53.101  35.658  27.105  1.00  0.00     0.001 A 
ATOM     87  C   UNL A   1      53.666  35.959  25.867  1.00  0.00     0.000 A 
ENDBRANCH  69  82
ENDBRANCH  43  44
ENDBRANCH  36  38
ENDBRANCH  35  36
ENDBRANCH  34  35
ENDBRANCH  33  34
ENDBRANCH  32  33
ENDBRANCH  31  32
ENDBRANCH   1  31
TORSDOF 20
ENDMDL
MODEL 3
REMARK VINA RESULT:      -8.5      6.607     12.410
REMARK SMILES CS(=O)(=O)c1ccc(-c2cc(Cl)cnc2-c2ccc(C(=O)OCCOCCOCCOC(=O)c3ccc(-c4c5nc(c(-c6ccccc6)c6ccc([nH]6)c(-c6ccccc6)c6nc(c(-c7ccccc7)c7ccc4[nH]7)C=C6)C=C5)cc3)nc2)cc1
REMARK SMILES IDX 26 1 25 2 24 3 23 4 22 5 20 6 21 7 19 8 16 9 17 10 83 11
REMARK SMILES IDX 18 12 82 13 15 14 9 15 10 16 11 17 14 18 12 19 13 20 8 21
REMARK SMILES IDX 5 22 6 23 85 24 7 25 84 26 2 27 1 28 3 29 4 30 27 31 28 32
REMARK SMILES IDX 29 33 30 34 31 35 32 36 33 37 34 38 35 39 81 40 36 41 80 42
REMARK SMILES IDX 37 43 38 44 39 45 74 46 40 47 79 48 73 49 75 50 41 51 78 52
REMARK SMILES IDX 72 53 71 54 42 56 64 57 49 58 63 59 50 60 53 61 62 62 76 63
REMARK SMILES IDX 51 64 52 65 61 67 77 68 54 69 43 70 44 71 48 72 45 73 47 74
REMARK SMILES IDX 46 75 65 76 66 77 70 78 67 79 69 80 68 81 55 82 56 83 60 84
REMARK SMILES IDX 57 85 59 86 58 87
REMARK H PARENT 75 55 53 66
REMARK Flexibility Score: inf
ROOT
ATOM      1  C   UNL A   1      38.147  21.148  25.378  1.00  0.00     0.188 C 
ENDROOT
BRANCH   1   2
ATOM      2  O   UNL A   1      36.913  21.855  25.412  1.00  0.00    -0.376 OA
BRANCH   2   3
ATOM      3  C   UNL A   1      35.688  21.137  25.537  1.00  0.00     0.202 C 
BRANCH   3   4
ATOM      4  C   UNL A   1      34.634  21.603  26.551  1.00  0.00     0.261 C 
BRANCH   4   5
ATOM      5  O   UNL A   1      33.642  22.470  25.982  1.00  0.00    -0.459 OA
BRANCH   5   6
ATOM      6  C   UNL A   1      32.854  23.120  26.877  1.00  0.00     0.356 C 
ATOM      7  O   UNL A   1      32.528  22.726  27.984  1.00  0.00    -0.244 OA
BRANCH   6   8
ATOM      8  C   UNL A   1      32.518  24.470  26.348  1.00  0.00     0.148 A 
ATOM      9  C   UNL A   1      31.594  26.803  25.244  1.00  0.00     0.019 A 
ATOM     10  C   UNL A   1      32.773  26.220  24.754  1.00  0.00     0.014 A 
ATOM     11  C   UNL A   1      31.027  26.234  26.380  1.00  0.00     0.122 A 
ATOM     12  C   UNL A   1      33.243  25.030  25.304  1.00  0.00     0.037 A 
ATOM     13  N   UNL A   1      31.451  25.077  26.934  1.00  0.00    -0.249 NA
BRANCH   9  14
ATOM     14  C   UNL A   1      30.829  27.770  24.449  1.00  0.00     0.080 A 
ATOM     15  C   UNL A   1      31.023  29.162  24.631  1.00  0.00     0.010 A 
ATOM     16  C   UNL A   1      30.269  30.028  23.831  1.00  0.00     0.033 A 
ATOM     17  C   UNL A   1      29.393  29.504  22.886  1.00  0.00     0.060 A 
ATOM     18  N   UNL A   1      29.992  27.243  23.521  1.00  0.00    -0.254 NA
ATOM     19  Cl  UNL A   1      28.464  30.548  21.890  1.00  0.00    -0.083 Cl
ATOM     20  C   UNL A   1      29.292  28.126  22.764  1.00  0.00     0.132 A 
BRANCH  15  21
ATOM     21  C   UNL A   1      31.983  29.692  25.620  1.00  0.00    -0.016 A 
ATOM     22  C   UNL A   1      33.892  30.907  27.284  1.00  0.00     0.067 A 
ATOM     23  C   UNL A   1      32.587  31.392  27.270  1.00  0.00     0.021 A 
ATOM     24  C   UNL A   1      34.248  29.796  26.515  1.00  0.00     0.021 A 
ATOM     25  C   UNL A   1      31.638  30.777  26.450  1.00  0.00     0.010 A 
ATOM     26  C   UNL A   1      33.295  29.197  25.685  1.00  0.00     0.010 A 
BRANCH  22  27
ATOM     27  S   UNL A   1      35.093  31.687  28.338  1.00  0.00     0.175 S 
ATOM     28  C   UNL A   1      36.250  30.391  28.701  1.00  0.00     0.163 C 
ATOM     29  O   UNL A   1      34.423  32.038  29.577  1.00  0.00    -0.224 OA
ATOM     30  O   UNL A   1      35.765  32.695  27.543  1.00  0.00    -0.224 OA
ENDBRANCH  22  27
ENDBRANCH  15  21
ENDBRANCH   9  14
ENDBRANCH   6   8
ENDBRANCH   5   6
ENDBRANCH   4   5
ENDBRANCH   3   4
ENDBRANCH   2   3
ENDBRANCH   1   2
BRANCH   1  31
ATOM     31  C   UNL A   1      39.377  21.726  26.113  1.00  0.00     0.188 C 
BRANCH  31  32
ATOM     32  O   UNL A   1      40.201  20.760  26.719  1.00  0.00    -0.376 OA
BRANCH  32  33
ATOM     33  C   UNL A   1      41.595  20.771  26.461  1.00  0.00     0.202 C 
BRANCH  33  34
ATOM     34  C   UNL A   1      42.389  21.989  25.940  1.00  0.00     0.261 C 
BRANCH  34  35
ATOM     35  O   UNL A   1      43.255  22.678  26.848  1.00  0.00    -0.460 OA
BRANCH  35  36
ATOM     36  C   UNL A   1      42.794  23.842  27.362  1.00  0.00     0.338 C 
ATOM     37  O   UNL A   1      41.804  24.007  28.049  1.00  0.00    -0.246 OA
BRANCH  36  38
ATOM     38  C   UNL A   1      43.799  24.891  27.094  1.00  0.00     0.060 A 
ATOM     39  C   UNL A   1      44.590  25.357  28.153  1.00  0.00     0.016 A 
ATOM     40  C   UNL A   1      43.944  25.421  25.811  1.00  0.00     0.016 A 
ATOM     41  C   UNL A   1      45.518  26.376  27.932  1.00  0.00     0.010 A 
ATOM     42  C   UNL A   1      44.860  26.456  25.597  1.00  0.00     0.010 A 
ATOM     43  C   UNL A   1      45.631  26.956  26.662  1.00  0.00    -0.014 A 
BRANCH  43  44
ATOM     44  C   UNL A   1      46.431  28.191  26.480  1.00  0.00     0.031 A 
ATOM     45  C   UNL A   1      47.908  28.063  26.227  1.00  0.00     0.074 A 
ATOM     46  C   UNL A   1      45.861  29.408  26.531  1.00  0.00     0.049 A 
ATOM     47  N   UNL A   1      48.813  28.997  26.092  1.00  0.00    -0.248 NA
ATOM     48  C   UNL A   1      48.434  26.692  26.112  1.00  0.00     0.031 C 
ATOM     49  C   UNL A   1      44.436  29.670  26.721  1.00  0.00     0.029 A 
ATOM     50  N   UNL A   1      46.425  30.656  26.434  1.00  0.00    -0.354 N 
ATOM     51  C   UNL A   1      50.014  28.331  25.887  1.00  0.00     0.074 A 
ATOM     52  C   UNL A   1      49.729  26.914  25.942  1.00  0.00     0.031 C 
ATOM     53  C   UNL A   1      44.239  31.000  26.740  1.00  0.00     0.029 A 
ATOM     54  C   UNL A   1      45.525  31.680  26.599  1.00  0.00     0.049 A 
ATOM     55  H   UNL A   1      47.384  30.803  26.264  1.00  0.00     0.167 HD
ATOM     56  C   UNL A   1      51.245  28.851  25.669  1.00  0.00     0.031 A 
ATOM     57  C   UNL A   1      45.722  33.012  26.653  1.00  0.00     0.031 A 
ATOM     58  C   UNL A   1      51.537  30.259  25.635  1.00  0.00     0.049 A 
ATOM     59  C   UNL A   1      47.116  33.563  26.498  1.00  0.00     0.074 A 
ATOM     60  C   UNL A   1      52.752  30.882  25.409  1.00  0.00     0.029 A 
ATOM     61  N   UNL A   1      50.604  31.262  25.846  1.00  0.00    -0.354 N 
ATOM     62  N   UNL A   1      48.239  32.925  26.275  1.00  0.00    -0.248 NA
ATOM     63  C   UNL A   1      47.264  35.023  26.597  1.00  0.00     0.031 C 
ATOM     64  C   UNL A   1      52.565  32.262  25.541  1.00  0.00     0.029 A 
ATOM     65  C   UNL A   1      51.222  32.500  25.786  1.00  0.00     0.049 A 
ATOM     66  H   UNL A   1      49.646  31.116  26.014  1.00  0.00     0.167 HD
ATOM     67  C   UNL A   1      49.221  33.906  26.177  1.00  0.00     0.074 A 
ATOM     68  C   UNL A   1      48.558  35.180  26.350  1.00  0.00     0.031 C 
ATOM     69  C   UNL A   1      50.551  33.762  25.960  1.00  0.00     0.031 A 
BRANCH  56  70
ATOM     70  C   UNL A   1      52.380  27.881  25.491  1.00  0.00    -0.014 A 
ATOM     71  C   UNL A   1      52.742  27.403  24.222  1.00  0.00     0.009 A 
ATOM     72  C   UNL A   1      53.119  27.462  26.610  1.00  0.00     0.009 A 
ATOM     73  C   UNL A   1      53.796  26.497  24.082  1.00  0.00     0.001 A 
ATOM     74  C   UNL A   1      54.190  26.581  26.464  1.00  0.00     0.001 A 
ATOM     75  C   UNL A   1      54.522  26.091  25.201  1.00  0.00     0.000 A 
ENDBRANCH  56  70
BRANCH  57  76
ATOM     76  C   UNL A   1      44.575  33.928  26.890  1.00  0.00    -0.014 A 
ATOM     77  C   UNL A   1      44.137  34.209  28.193  1.00  0.00     0.009 A 
ATOM     78  C   UNL A   1      43.891  34.504  25.807  1.00  0.00     0.009 A 
ATOM     79  C   UNL A   1      43.023  35.025  28.405  1.00  0.00     0.001 A 
ATOM     80  C   UNL A   1      42.796  35.344  26.023  1.00  0.00     0.001 A 
ATOM     81  C   UNL A   1      42.357  35.595  27.322  1.00  0.00     0.000 A 
ENDBRANCH  57  76
BRANCH  69  82
ATOM     82  C   UNL A   1      51.376  35.016  25.854  1.00  0.00    -0.014 A 
ATOM     83  C   UNL A   1      51.530  35.692  24.635  1.00  0.00     0.009 A 
ATOM     84  C   UNL A   1      51.972  35.552  27.008  1.00  0.00     0.009 A 
ATOM     85  C   UNL A   1      52.291  36.862  24.566  1.00  0.00     0.001 A 
ATOM     86  C   UNL A   1      52.706  36.736  26.943  1.00  0.00     0.001 A 
ATOM     87  C   UNL A   1      52.873  37.385  25.721  1.00  0.00     0.000 A 
ENDBRANCH  69  82
ENDBRANCH  43  44
ENDBRANCH  36  38
ENDBRANCH  35  36
ENDBRANCH  34  35
ENDBRANCH  33  34
ENDBRANCH  32  33
ENDBRANCH  31  32
ENDBRANCH   1  31
TORSDOF 20
ENDMDL
