MODEL 1
REMARK VINA RESULT:      -8.2      0.000      0.000
REMARK SMILES NS(=O)(=O)c1ccc(-n2nc(C(=O)NCCCCCCCCCCC(=O)OCCOCCOCCOC(=O)c3ccc(-c4c5nc(c(-c6ccccc6)c6ccc([nH]6)c(-c6ccccc6)c6nc(c(-c7ccccc7)c7ccc4[nH]7)C=C6)C=C5)cc3)cc2-c2ccccc2)cc1
REMARK SMILES IDX 24 1 23 2 22 3 21 4 20 5 19 6 18 7 17 8 16 9 15 10 14 11
REMARK SMILES IDX 12 12 13 13 11 15 9 16 10 17 88 18 87 19 8 20 5 21 6 22
REMARK SMILES IDX 96 23 7 24 95 25 2 26 3 27 4 28 1 29 89 32 90 33 94 34 91 35
REMARK SMILES IDX 93 36 92 37 25 38 26 39 27 40 28 41 29 42 30 43 31 44 32 45
REMARK SMILES IDX 33 46 34 47 35 48 36 49 37 50 38 51 39 52 40 53 86 54 41 55
REMARK SMILES IDX 85 56 42 57 43 58 44 59 79 60 45 61 84 62 78 63 80 64 46 65
REMARK SMILES IDX 83 66 77 67 76 68 47 70 69 71 54 72 68 73 55 74 58 75 67 76
REMARK SMILES IDX 81 77 56 78 57 79 66 81 82 82 59 83 48 84 49 85 53 86 50 87
REMARK SMILES IDX 52 88 51 89 70 90 71 91 75 92 72 93 74 94 73 95 60 96 61 97
REMARK SMILES IDX 65 98 62 99 64 100 63 101
REMARK H PARENT 14 14 1 30 1 31 80 69 58 80
REMARK Flexibility Score: inf
ROOT
ATOM      1  C   UNL A   1      29.919  29.812  22.432  1.00  0.00     0.123 C 
ENDROOT
BRANCH   1   2
ATOM      2  C   UNL A   1      30.184  28.304  22.478  1.00  0.00     0.012 C 
BRANCH   2   3
ATOM      3  C   UNL A   1      29.184  27.496  23.306  1.00  0.00     0.001 C 
BRANCH   3   4
ATOM      4  C   UNL A   1      29.851  26.387  24.118  1.00  0.00     0.000 C 
BRANCH   4   5
ATOM      5  C   UNL A   1      31.370  26.371  23.935  1.00  0.00     0.000 C 
BRANCH   5   6
ATOM      6  C   UNL A   1      32.121  26.454  25.268  1.00  0.00     0.000 C 
BRANCH   6   7
ATOM      7  C   UNL A   1      32.224  25.097  25.973  1.00  0.00     0.000 C 
BRANCH   7   8
ATOM      8  C   UNL A   1      33.231  24.149  25.307  1.00  0.00     0.002 C 
BRANCH   8   9
ATOM      9  C   UNL A   1      34.596  24.155  26.001  1.00  0.00     0.021 C 
BRANCH   9  10
ATOM     10  C   UNL A   1      35.715  23.886  24.997  1.00  0.00     0.116 C 
BRANCH  10  11
ATOM     11  N   UNL A   1      35.944  22.466  24.916  1.00  0.00    -0.351 N 
ATOM     12  C   UNL A   1      37.047  21.701  25.201  1.00  0.00     0.271 C 
ATOM     13  O   UNL A   1      36.961  20.504  24.912  1.00  0.00    -0.267 OA
ATOM     14  H   UNL A   1      35.167  21.950  24.599  1.00  0.00     0.163 HD
BRANCH  12  15
ATOM     15  C   UNL A   1      38.223  22.275  25.884  1.00  0.00     0.151 A 
ATOM     16  N   UNL A   1      39.367  23.841  26.804  1.00  0.00    -0.232 N 
ATOM     17  N   UNL A   1      38.106  23.453  26.525  1.00  0.00    -0.162 NA
ATOM     18  C   UNL A   1      40.296  22.868  26.488  1.00  0.00     0.075 A 
ATOM     19  C   UNL A   1      39.551  21.805  26.025  1.00  0.00     0.065 A 
BRANCH  16  20
ATOM     20  C   UNL A   1      39.601  25.092  27.410  1.00  0.00     0.065 A 
ATOM     21  C   UNL A   1      40.272  27.403  28.768  1.00  0.00     0.082 A 
ATOM     22  C   UNL A   1      40.794  27.182  27.490  1.00  0.00     0.024 A 
ATOM     23  C   UNL A   1      39.373  26.503  29.350  1.00  0.00     0.024 A 
ATOM     24  C   UNL A   1      40.470  26.011  26.812  1.00  0.00     0.030 A 
ATOM     25  C   UNL A   1      39.010  25.354  28.652  1.00  0.00     0.030 A 
BRANCH  21  26
ATOM     26  S   UNL A   1      40.817  28.816  29.675  1.00  0.00     0.238 S 
ATOM     27  O   UNL A   1      42.259  28.883  29.639  1.00  0.00    -0.207 OA
ATOM     28  O   UNL A   1      40.053  28.907  30.896  1.00  0.00    -0.207 OA
BRANCH  26  29
ATOM     29  N   UNL A   1      40.297  30.083  28.697  1.00  0.00    -0.225 NA
ATOM     30  H   UNL A   1      39.285  30.175  28.768  1.00  0.00     0.137 HD
ATOM     31  H   UNL A   1      40.554  29.892  27.729  1.00  0.00     0.137 HD
ENDBRANCH  26  29
ENDBRANCH  21  26
ENDBRANCH  16  20
BRANCH  18  32
ATOM     32  C   UNL A   1      41.731  22.926  26.737  1.00  0.00     0.000 A 
ATOM     33  C   UNL A   1      42.636  23.019  25.674  1.00  0.00     0.010 A 
ATOM     34  C   UNL A   1      42.212  22.897  28.052  1.00  0.00     0.010 A 
ATOM     35  C   UNL A   1      44.008  23.066  25.925  1.00  0.00     0.001 A 
ATOM     36  C   UNL A   1      43.585  22.939  28.300  1.00  0.00     0.001 A 
ATOM     37  C   UNL A   1      44.481  23.021  27.235  1.00  0.00     0.000 A 
ENDBRANCH  18  32
ENDBRANCH  12  15
ENDBRANCH  10  11
ENDBRANCH   9  10
ENDBRANCH   8   9
ENDBRANCH   7   8
ENDBRANCH   6   7
ENDBRANCH   5   6
ENDBRANCH   4   5
ENDBRANCH   3   4
ENDBRANCH   2   3
ENDBRANCH   1   2
BRANCH   1  38
ATOM     38  C   UNL A   1      29.538  30.509  23.729  1.00  0.00     0.305 C 
ATOM     39  O   UNL A   1      28.469  31.090  23.872  1.00  0.00    -0.252 OA
BRANCH  38  40
ATOM     40  O   UNL A   1      30.532  30.482  24.646  1.00  0.00    -0.463 OA
BRANCH  40  41
ATOM     41  C   UNL A   1      30.712  31.625  25.491  1.00  0.00     0.261 C 
BRANCH  41  42
ATOM     42  C   UNL A   1      31.767  31.366  26.574  1.00  0.00     0.202 C 
BRANCH  42  43
ATOM     43  O   UNL A   1      32.152  32.504  27.348  1.00  0.00    -0.376 OA
BRANCH  43  44
ATOM     44  C   UNL A   1      33.298  32.350  28.193  1.00  0.00     0.188 C 
BRANCH  44  45
ATOM     45  C   UNL A   1      34.631  32.225  27.448  1.00  0.00     0.188 C 
BRANCH  45  46
ATOM     46  O   UNL A   1      35.493  33.323  27.697  1.00  0.00    -0.376 OA
BRANCH  46  47
ATOM     47  C   UNL A   1      36.838  33.167  28.132  1.00  0.00     0.202 C 
BRANCH  47  48
ATOM     48  C   UNL A   1      37.406  33.673  29.463  1.00  0.00     0.261 C 
BRANCH  48  49
ATOM     49  O   UNL A   1      38.770  33.418  29.723  1.00  0.00    -0.460 OA
BRANCH  49  50
ATOM     50  C   UNL A   1      39.431  34.253  30.544  1.00  0.00     0.338 C 
ATOM     51  O   UNL A   1      39.089  34.635  31.648  1.00  0.00    -0.246 OA
BRANCH  50  52
ATOM     52  C   UNL A   1      40.673  34.614  29.834  1.00  0.00     0.060 A 
ATOM     53  C   UNL A   1      41.769  35.007  30.597  1.00  0.00     0.016 A 
ATOM     54  C   UNL A   1      40.691  34.702  28.427  1.00  0.00     0.016 A 
ATOM     55  C   UNL A   1      42.771  35.719  29.972  1.00  0.00     0.010 A 
ATOM     56  C   UNL A   1      41.683  35.416  27.805  1.00  0.00     0.010 A 
ATOM     57  C   UNL A   1      42.651  36.005  28.605  1.00  0.00    -0.014 A 
BRANCH  57  58
ATOM     58  C   UNL A   1      43.569  36.954  28.020  1.00  0.00     0.031 A 
ATOM     59  C   UNL A   1      44.908  36.404  27.771  1.00  0.00     0.074 A 
ATOM     60  C   UNL A   1      43.206  38.214  27.713  1.00  0.00     0.049 A 
ATOM     61  N   UNL A   1      45.967  36.621  28.473  1.00  0.00    -0.248 NA
ATOM     62  C   UNL A   1      45.059  35.371  26.737  1.00  0.00     0.031 C 
ATOM     63  C   UNL A   1      41.850  38.774  27.680  1.00  0.00     0.029 A 
ATOM     64  N   UNL A   1      43.979  39.246  27.277  1.00  0.00    -0.354 N 
ATOM     65  C   UNL A   1      46.979  35.923  27.833  1.00  0.00     0.074 A 
ATOM     66  C   UNL A   1      46.338  35.030  26.902  1.00  0.00     0.031 C 
ATOM     67  C   UNL A   1      41.876  39.967  27.042  1.00  0.00     0.029 A 
ATOM     68  C   UNL A   1      43.260  40.318  26.767  1.00  0.00     0.049 A 
ATOM     69  H   UNL A   1      44.963  39.233  27.318  1.00  0.00     0.167 HD
ATOM     70  C   UNL A   1      48.264  36.358  27.906  1.00  0.00     0.031 A 
ATOM     71  C   UNL A   1      43.770  41.405  26.143  1.00  0.00     0.031 A 
ATOM     72  C   UNL A   1      48.422  37.379  28.911  1.00  0.00     0.049 A 
ATOM     73  C   UNL A   1      45.181  41.543  26.557  1.00  0.00     0.074 A 
ATOM     74  C   UNL A   1      48.465  37.434  30.285  1.00  0.00     0.029 A 
ATOM     75  N   UNL A   1      48.176  38.649  28.454  1.00  0.00    -0.354 N 
ATOM     76  N   UNL A   1      45.535  41.872  27.765  1.00  0.00    -0.248 NA
ATOM     77  C   UNL A   1      46.240  40.982  25.728  1.00  0.00     0.031 C 
ATOM     78  C   UNL A   1      48.024  38.745  30.638  1.00  0.00     0.029 A 
ATOM     79  C   UNL A   1      47.754  39.461  29.473  1.00  0.00     0.049 A 
ATOM     80  H   UNL A   1      48.287  38.938  27.520  1.00  0.00     0.167 HD
ATOM     81  C   UNL A   1      46.696  41.156  27.987  1.00  0.00     0.074 A 
ATOM     82  C   UNL A   1      47.178  40.790  26.662  1.00  0.00     0.031 C 
ATOM     83  C   UNL A   1      46.980  40.659  29.225  1.00  0.00     0.031 A 
BRANCH  70  84
ATOM     84  C   UNL A   1      49.233  36.265  26.755  1.00  0.00    -0.014 A 
ATOM     85  C   UNL A   1      50.601  36.455  27.018  1.00  0.00     0.009 A 
ATOM     86  C   UNL A   1      48.834  36.307  25.405  1.00  0.00     0.009 A 
ATOM     87  C   UNL A   1      51.508  36.729  25.987  1.00  0.00     0.001 A 
ATOM     88  C   UNL A   1      49.743  36.544  24.371  1.00  0.00     0.001 A 
ATOM     89  C   UNL A   1      51.077  36.778  24.666  1.00  0.00     0.000 A 
ENDBRANCH  70  84
BRANCH  71  90
ATOM     90  C   UNL A   1      43.185  42.243  25.080  1.00  0.00    -0.014 A 
ATOM     91  C   UNL A   1      43.859  43.381  24.609  1.00  0.00     0.009 A 
ATOM     92  C   UNL A   1      42.105  41.755  24.325  1.00  0.00     0.009 A 
ATOM     93  C   UNL A   1      43.496  43.978  23.394  1.00  0.00     0.001 A 
ATOM     94  C   UNL A   1      41.743  42.351  23.112  1.00  0.00     0.001 A 
ATOM     95  C   UNL A   1      42.451  43.452  22.639  1.00  0.00     0.000 A 
ENDBRANCH  71  90
BRANCH  83  96
ATOM     96  C   UNL A   1      46.275  41.289  30.394  1.00  0.00    -0.014 A 
ATOM     97  C   UNL A   1      45.045  40.834  30.898  1.00  0.00     0.009 A 
ATOM     98  C   UNL A   1      46.921  42.344  31.055  1.00  0.00     0.009 A 
ATOM     99  C   UNL A   1      44.466  41.442  32.016  1.00  0.00     0.001 A 
ATOM    100  C   UNL A   1      46.354  42.935  32.184  1.00  0.00     0.001 A 
ATOM    101  C   UNL A   1      45.124  42.490  32.661  1.00  0.00     0.000 A 
ENDBRANCH  83  96
ENDBRANCH  57  58
ENDBRANCH  50  52
ENDBRANCH  49  50
ENDBRANCH  48  49
ENDBRANCH  47  48
ENDBRANCH  46  47
ENDBRANCH  45  46
ENDBRANCH  44  45
ENDBRANCH  43  44
ENDBRANCH  42  43
ENDBRANCH  41  42
ENDBRANCH  40  41
ENDBRANCH  38  40
ENDBRANCH   1  38
TORSDOF 32
ENDMDL
MODEL 2
REMARK VINA RESULT:      -7.9      5.630     12.005
REMARK SMILES NS(=O)(=O)c1ccc(-n2nc(C(=O)NCCCCCCCCCCC(=O)OCCOCCOCCOC(=O)c3ccc(-c4c5nc(c(-c6ccccc6)c6ccc([nH]6)c(-c6ccccc6)c6nc(c(-c7ccccc7)c7ccc4[nH]7)C=C6)C=C5)cc3)cc2-c2ccccc2)cc1
REMARK SMILES IDX 24 1 23 2 22 3 21 4 20 5 19 6 18 7 17 8 16 9 15 10 14 11
REMARK SMILES IDX 12 12 13 13 11 15 9 16 10 17 88 18 87 19 8 20 5 21 6 22
REMARK SMILES IDX 96 23 7 24 95 25 2 26 3 27 4 28 1 29 89 32 90 33 94 34 91 35
REMARK SMILES IDX 93 36 92 37 25 38 26 39 27 40 28 41 29 42 30 43 31 44 32 45
REMARK SMILES IDX 33 46 34 47 35 48 36 49 37 50 38 51 39 52 40 53 86 54 41 55
REMARK SMILES IDX 85 56 42 57 43 58 44 59 79 60 45 61 84 62 78 63 80 64 46 65
REMARK SMILES IDX 83 66 77 67 76 68 47 70 69 71 54 72 68 73 55 74 58 75 67 76
REMARK SMILES IDX 81 77 56 78 57 79 66 81 82 82 59 83 48 84 49 85 53 86 50 87
REMARK SMILES IDX 52 88 51 89 70 90 71 91 75 92 72 93 74 94 73 95 60 96 61 97
REMARK SMILES IDX 65 98 62 99 64 100 63 101
REMARK H PARENT 14 14 1 30 1 31 80 69 58 80
REMARK Flexibility Score: inf
ROOT
ATOM      1  C   UNL A   1      45.239  34.651  28.346  1.00  0.00     0.123 C 
ENDROOT
BRANCH   1   2
ATOM      2  C   UNL A   1      44.288  33.494  28.667  1.00  0.00     0.012 C 
BRANCH   2   3
ATOM      3  C   UNL A   1      44.595  32.183  27.942  1.00  0.00     0.001 C 
BRANCH   3   4
ATOM      4  C   UNL A   1      43.397  31.649  27.159  1.00  0.00     0.000 C 
BRANCH   4   5
ATOM      5  C   UNL A   1      43.072  30.198  27.519  1.00  0.00     0.000 C 
BRANCH   5   6
ATOM      6  C   UNL A   1      43.298  29.239  26.346  1.00  0.00     0.000 C 
BRANCH   6   7
ATOM      7  C   UNL A   1      42.465  27.957  26.463  1.00  0.00     0.000 C 
BRANCH   7   8
ATOM      8  C   UNL A   1      42.478  27.114  25.180  1.00  0.00     0.002 C 
BRANCH   8   9
ATOM      9  C   UNL A   1      42.377  25.612  25.458  1.00  0.00     0.021 C 
BRANCH   9  10
ATOM     10  C   UNL A   1      43.546  25.142  26.321  1.00  0.00     0.116 C 
BRANCH  10  11
ATOM     11  N   UNL A   1      44.698  24.937  25.481  1.00  0.00    -0.351 N 
ATOM     12  C   UNL A   1      45.961  25.474  25.515  1.00  0.00     0.271 C 
ATOM     13  O   UNL A   1      46.697  25.178  24.571  1.00  0.00    -0.267 OA
ATOM     14  H   UNL A   1      44.554  24.294  24.749  1.00  0.00     0.163 HD
BRANCH  12  15
ATOM     15  C   UNL A   1      46.417  26.287  26.660  1.00  0.00     0.151 A 
ATOM     16  N   UNL A   1      47.331  26.613  28.574  1.00  0.00    -0.232 N 
ATOM     17  N   UNL A   1      47.319  25.775  27.518  1.00  0.00    -0.162 NA
ATOM     18  C   UNL A   1      46.562  27.740  28.358  1.00  0.00     0.075 A 
ATOM     19  C   UNL A   1      46.083  27.600  27.073  1.00  0.00     0.065 A 
BRANCH  16  20
ATOM     20  C   UNL A   1      48.124  26.314  29.701  1.00  0.00     0.065 A 
ATOM     21  C   UNL A   1      49.673  26.028  31.971  1.00  0.00     0.082 A 
ATOM     22  C   UNL A   1      48.306  25.744  32.034  1.00  0.00     0.024 A 
ATOM     23  C   UNL A   1      50.282  26.401  30.768  1.00  0.00     0.024 A 
ATOM     24  C   UNL A   1      47.522  25.904  30.896  1.00  0.00     0.030 A 
ATOM     25  C   UNL A   1      49.508  26.514  29.617  1.00  0.00     0.030 A 
BRANCH  21  26
ATOM     26  S   UNL A   1      50.621  25.971  33.459  1.00  0.00     0.238 S 
ATOM     27  O   UNL A   1      50.165  27.005  34.359  1.00  0.00    -0.207 OA
ATOM     28  O   UNL A   1      52.010  25.779  33.117  1.00  0.00    -0.207 OA
BRANCH  26  29
ATOM     29  N   UNL A   1      50.101  24.528  34.152  1.00  0.00    -0.225 NA
ATOM     30  H   UNL A   1      50.644  24.340  34.993  1.00  0.00     0.137 HD
ATOM     31  H   UNL A   1      50.229  23.766  33.486  1.00  0.00     0.137 HD
ENDBRANCH  26  29
ENDBRANCH  21  26
ENDBRANCH  16  20
BRANCH  18  32
ATOM     32  C   UNL A   1      46.423  28.881  29.254  1.00  0.00     0.000 A 
ATOM     33  C   UNL A   1      45.257  29.058  30.007  1.00  0.00     0.010 A 
ATOM     34  C   UNL A   1      47.469  29.805  29.373  1.00  0.00     0.010 A 
ATOM     35  C   UNL A   1      45.132  30.159  30.856  1.00  0.00     0.001 A 
ATOM     36  C   UNL A   1      47.339  30.907  30.220  1.00  0.00     0.001 A 
ATOM     37  C   UNL A   1      46.170  31.084  30.959  1.00  0.00     0.000 A 
ENDBRANCH  18  32
ENDBRANCH  12  15
ENDBRANCH  10  11
ENDBRANCH   9  10
ENDBRANCH   8   9
ENDBRANCH   7   8
ENDBRANCH   6   7
ENDBRANCH   5   6
ENDBRANCH   4   5
ENDBRANCH   3   4
ENDBRANCH   2   3
ENDBRANCH   1   2
BRANCH   1  38
ATOM     38  C   UNL A   1      44.948  35.492  27.113  1.00  0.00     0.305 C 
ATOM     39  O   UNL A   1      45.286  35.145  25.987  1.00  0.00    -0.252 OA
BRANCH  38  40
ATOM     40  O   UNL A   1      44.366  36.675  27.416  1.00  0.00    -0.463 OA
BRANCH  40  41
ATOM     41  C   UNL A   1      42.961  36.691  27.698  1.00  0.00     0.261 C 
BRANCH  41  42
ATOM     42  C   UNL A   1      42.261  37.871  27.013  1.00  0.00     0.202 C 
BRANCH  42  43
ATOM     43  O   UNL A   1      41.669  38.833  27.890  1.00  0.00    -0.376 OA
BRANCH  43  44
ATOM     44  C   UNL A   1      41.956  40.210  27.622  1.00  0.00     0.188 C 
BRANCH  44  45
ATOM     45  C   UNL A   1      43.235  40.453  26.814  1.00  0.00     0.188 C 
BRANCH  45  46
ATOM     46  O   UNL A   1      44.306  40.907  27.624  1.00  0.00    -0.376 OA
BRANCH  46  47
ATOM     47  C   UNL A   1      44.909  40.104  28.631  1.00  0.00     0.202 C 
BRANCH  47  48
ATOM     48  C   UNL A   1      44.907  40.411  30.134  1.00  0.00     0.261 C 
BRANCH  48  49
ATOM     49  O   UNL A   1      45.036  39.318  31.017  1.00  0.00    -0.460 OA
BRANCH  49  50
ATOM     50  C   UNL A   1      44.241  39.274  32.100  1.00  0.00     0.338 C 
ATOM     51  O   UNL A   1      43.799  40.214  32.737  1.00  0.00    -0.246 OA
BRANCH  50  52
ATOM     52  C   UNL A   1      44.000  37.843  32.364  1.00  0.00     0.060 A 
ATOM     53  C   UNL A   1      44.247  36.940  31.333  1.00  0.00     0.016 A 
ATOM     54  C   UNL A   1      43.394  37.432  33.569  1.00  0.00     0.016 A 
ATOM     55  C   UNL A   1      43.661  35.694  31.411  1.00  0.00     0.010 A 
ATOM     56  C   UNL A   1      42.804  36.195  33.644  1.00  0.00     0.010 A 
ATOM     57  C   UNL A   1      42.857  35.388  32.518  1.00  0.00    -0.014 A 
BRANCH  57  58
ATOM     58  C   UNL A   1      42.054  34.188  32.471  1.00  0.00     0.031 A 
ATOM     59  C   UNL A   1      40.908  34.280  31.557  1.00  0.00     0.074 A 
ATOM     60  C   UNL A   1      42.358  33.089  33.186  1.00  0.00     0.049 A 
ATOM     61  N   UNL A   1      39.675  34.453  31.891  1.00  0.00    -0.248 NA
ATOM     62  C   UNL A   1      41.169  34.358  30.114  1.00  0.00     0.031 C 
ATOM     63  C   UNL A   1      43.601  32.807  33.915  1.00  0.00     0.029 A 
ATOM     64  N   UNL A   1      41.641  31.942  33.340  1.00  0.00    -0.354 N 
ATOM     65  C   UNL A   1      38.968  34.438  30.699  1.00  0.00     0.074 A 
ATOM     66  C   UNL A   1      39.939  34.571  29.643  1.00  0.00     0.031 C 
ATOM     67  C   UNL A   1      43.637  31.495  34.244  1.00  0.00     0.029 A 
ATOM     68  C   UNL A   1      42.362  30.891  33.891  1.00  0.00     0.049 A 
ATOM     69  H   UNL A   1      40.694  31.863  33.082  1.00  0.00     0.167 HD
ATOM     70  C   UNL A   1      37.679  34.010  30.672  1.00  0.00     0.031 A 
ATOM     71  C   UNL A   1      41.945  29.612  34.023  1.00  0.00     0.031 A 
ATOM     72  C   UNL A   1      37.133  33.885  32.000  1.00  0.00     0.049 A 
ATOM     73  C   UNL A   1      40.468  29.613  34.004  1.00  0.00     0.074 A 
ATOM     74  C   UNL A   1      36.690  34.738  32.985  1.00  0.00     0.029 A 
ATOM     75  N   UNL A   1      37.368  32.666  32.584  1.00  0.00    -0.354 N 
ATOM     76  N   UNL A   1      39.748  30.116  34.965  1.00  0.00    -0.248 NA
ATOM     77  C   UNL A   1      39.756  29.367  32.756  1.00  0.00     0.031 C 
ATOM     78  C   UNL A   1      36.873  34.041  34.217  1.00  0.00     0.029 A 
ATOM     79  C   UNL A   1      37.392  32.775  33.949  1.00  0.00     0.049 A 
ATOM     80  H   UNL A   1      37.502  31.827  32.089  1.00  0.00     0.167 HD
ATOM     81  C   UNL A   1      38.653  30.661  34.322  1.00  0.00     0.074 A 
ATOM     82  C   UNL A   1      38.614  30.011  33.018  1.00  0.00     0.031 C 
ATOM     83  C   UNL A   1      38.077  31.809  34.780  1.00  0.00     0.031 A 
BRANCH  70  84
ATOM     84  C   UNL A   1      37.098  33.213  29.531  1.00  0.00    -0.014 A 
ATOM     85  C   UNL A   1      35.911  33.674  28.933  1.00  0.00     0.009 A 
ATOM     86  C   UNL A   1      37.488  31.894  29.235  1.00  0.00     0.009 A 
ATOM     87  C   UNL A   1      35.131  32.836  28.128  1.00  0.00     0.001 A 
ATOM     88  C   UNL A   1      36.731  31.067  28.402  1.00  0.00     0.001 A 
ATOM     89  C   UNL A   1      35.539  31.531  27.867  1.00  0.00     0.000 A 
ENDBRANCH  70  84
BRANCH  71  90
ATOM     90  C   UNL A   1      42.721  28.358  33.996  1.00  0.00    -0.014 A 
ATOM     91  C   UNL A   1      43.204  27.837  32.785  1.00  0.00     0.009 A 
ATOM     92  C   UNL A   1      43.237  27.833  35.193  1.00  0.00     0.009 A 
ATOM     93  C   UNL A   1      44.209  26.861  32.774  1.00  0.00     0.001 A 
ATOM     94  C   UNL A   1      44.241  26.859  35.182  1.00  0.00     0.001 A 
ATOM     95  C   UNL A   1      44.739  26.387  33.972  1.00  0.00     0.000 A 
ENDBRANCH  71  90
BRANCH  83  96
ATOM     96  C   UNL A   1      38.345  32.185  36.211  1.00  0.00    -0.014 A 
ATOM     97  C   UNL A   1      39.474  32.913  36.626  1.00  0.00     0.009 A 
ATOM     98  C   UNL A   1      37.379  31.846  37.169  1.00  0.00     0.009 A 
ATOM     99  C   UNL A   1      39.639  33.265  37.969  1.00  0.00     0.001 A 
ATOM    100  C   UNL A   1      37.533  32.217  38.504  1.00  0.00     0.001 A 
ATOM    101  C   UNL A   1      38.666  32.920  38.906  1.00  0.00     0.000 A 
ENDBRANCH  83  96
ENDBRANCH  57  58
ENDBRANCH  50  52
ENDBRANCH  49  50
ENDBRANCH  48  49
ENDBRANCH  47  48
ENDBRANCH  46  47
ENDBRANCH  45  46
ENDBRANCH  44  45
ENDBRANCH  43  44
ENDBRANCH  42  43
ENDBRANCH  41  42
ENDBRANCH  40  41
ENDBRANCH  38  40
ENDBRANCH   1  38
TORSDOF 32
ENDMDL
MODEL 3
REMARK VINA RESULT:      -7.9      5.861     12.223
REMARK SMILES NS(=O)(=O)c1ccc(-n2nc(C(=O)NCCCCCCCCCCC(=O)OCCOCCOCCOC(=O)c3ccc(-c4c5nc(c(-c6ccccc6)c6ccc([nH]6)c(-c6ccccc6)c6nc(c(-c7ccccc7)c7ccc4[nH]7)C=C6)C=C5)cc3)cc2-c2ccccc2)cc1
REMARK SMILES IDX 24 1 23 2 22 3 21 4 20 5 19 6 18 7 17 8 16 9 15 10 14 11
REMARK SMILES IDX 12 12 13 13 11 15 9 16 10 17 88 18 87 19 8 20 5 21 6 22
REMARK SMILES IDX 96 23 7 24 95 25 2 26 3 27 4 28 1 29 89 32 90 33 94 34 91 35
REMARK SMILES IDX 93 36 92 37 25 38 26 39 27 40 28 41 29 42 30 43 31 44 32 45
REMARK SMILES IDX 33 46 34 47 35 48 36 49 37 50 38 51 39 52 40 53 86 54 41 55
REMARK SMILES IDX 85 56 42 57 43 58 44 59 79 60 45 61 84 62 78 63 80 64 46 65
REMARK SMILES IDX 83 66 77 67 76 68 47 70 69 71 54 72 68 73 55 74 58 75 67 76
REMARK SMILES IDX 81 77 56 78 57 79 66 81 82 82 59 83 48 84 49 85 53 86 50 87
REMARK SMILES IDX 52 88 51 89 70 90 71 91 75 92 72 93 74 94 73 95 60 96 61 97
REMARK SMILES IDX 65 98 62 99 64 100 63 101
REMARK H PARENT 14 14 1 30 1 31 80 69 58 80
REMARK Flexibility Score: inf
ROOT
ATOM      1  C   UNL A   1      48.938  28.667  31.372  1.00  0.00     0.123 C 
ENDROOT
BRANCH   1   2
ATOM      2  C   UNL A   1      48.281  28.458  32.740  1.00  0.00     0.012 C 
BRANCH   2   3
ATOM      3  C   UNL A   1      47.142  27.438  32.763  1.00  0.00     0.001 C 
BRANCH   3   4
ATOM      4  C   UNL A   1      45.770  28.091  32.919  1.00  0.00     0.000 C 
BRANCH   4   5
ATOM      5  C   UNL A   1      44.686  27.354  32.130  1.00  0.00     0.000 C 
BRANCH   5   6
ATOM      6  C   UNL A   1      45.042  25.885  31.877  1.00  0.00     0.000 C 
BRANCH   6   7
ATOM      7  C   UNL A   1      44.177  25.248  30.784  1.00  0.00     0.000 C 
BRANCH   7   8
ATOM      8  C   UNL A   1      44.061  23.724  30.922  1.00  0.00     0.002 C 
BRANCH   8   9
ATOM      9  C   UNL A   1      44.109  23.002  29.573  1.00  0.00     0.021 C 
BRANCH   9  10
ATOM     10  C   UNL A   1      45.018  23.743  28.595  1.00  0.00     0.116 C 
BRANCH  10  11
ATOM     11  N   UNL A   1      44.426  23.707  27.282  1.00  0.00    -0.351 N 
ATOM     12  C   UNL A   1      43.487  24.508  26.681  1.00  0.00     0.271 C 
ATOM     13  O   UNL A   1      43.098  24.139  25.570  1.00  0.00    -0.267 OA
ATOM     14  H   UNL A   1      44.755  22.975  26.712  1.00  0.00     0.163 HD
BRANCH  12  15
ATOM     15  C   UNL A   1      43.044  25.770  27.305  1.00  0.00     0.151 A 
ATOM     16  N   UNL A   1      41.618  27.285  27.831  1.00  0.00    -0.232 N 
ATOM     17  N   UNL A   1      41.731  25.979  27.515  1.00  0.00    -0.162 NA
ATOM     18  C   UNL A   1      42.848  27.898  27.975  1.00  0.00     0.075 A 
ATOM     19  C   UNL A   1      43.769  26.893  27.774  1.00  0.00     0.065 A 
BRANCH  16  20
ATOM     20  C   UNL A   1      40.344  27.853  28.034  1.00  0.00     0.065 A 
ATOM     21  C   UNL A   1      37.985  29.169  28.615  1.00  0.00     0.082 A 
ATOM     22  C   UNL A   1      38.636  29.430  27.406  1.00  0.00     0.024 A 
ATOM     23  C   UNL A   1      38.474  28.214  29.512  1.00  0.00     0.024 A 
ATOM     24  C   UNL A   1      39.833  28.781  27.120  1.00  0.00     0.030 A 
ATOM     25  C   UNL A   1      39.646  27.527  29.205  1.00  0.00     0.030 A 
BRANCH  21  26
ATOM     26  S   UNL A   1      36.554  30.116  29.030  1.00  0.00     0.238 S 
ATOM     27  O   UNL A   1      35.499  29.831  28.084  1.00  0.00    -0.207 OA
ATOM     28  O   UNL A   1      36.966  31.456  29.370  1.00  0.00    -0.207 OA
BRANCH  26  29
ATOM     29  N   UNL A   1      36.058  29.394  30.467  1.00  0.00    -0.225 NA
ATOM     30  H   UNL A   1      35.393  30.003  30.941  1.00  0.00     0.137 HD
ATOM     31  H   UNL A   1      36.868  29.240  31.066  1.00  0.00     0.137 HD
ENDBRANCH  26  29
ENDBRANCH  21  26
ENDBRANCH  16  20
BRANCH  18  32
ATOM     32  C   UNL A   1      43.089  29.273  28.394  1.00  0.00     0.000 A 
ATOM     33  C   UNL A   1      42.391  29.821  29.476  1.00  0.00     0.010 A 
ATOM     34  C   UNL A   1      44.033  30.054  27.715  1.00  0.00     0.010 A 
ATOM     35  C   UNL A   1      42.623  31.142  29.862  1.00  0.00     0.001 A 
ATOM     36  C   UNL A   1      44.260  31.375  28.101  1.00  0.00     0.001 A 
ATOM     37  C   UNL A   1      43.553  31.919  29.173  1.00  0.00     0.000 A 
ENDBRANCH  18  32
ENDBRANCH  12  15
ENDBRANCH  10  11
ENDBRANCH   9  10
ENDBRANCH   8   9
ENDBRANCH   7   8
ENDBRANCH   6   7
ENDBRANCH   5   6
ENDBRANCH   4   5
ENDBRANCH   3   4
ENDBRANCH   2   3
ENDBRANCH   1   2
BRANCH   1  38
ATOM     38  C   UNL A   1      49.056  27.465  30.447  1.00  0.00     0.305 C 
ATOM     39  O   UNL A   1      49.920  26.608  30.592  1.00  0.00    -0.252 OA
BRANCH  38  40
ATOM     40  O   UNL A   1      48.171  27.506  29.425  1.00  0.00    -0.463 OA
BRANCH  40  41
ATOM     41  C   UNL A   1      48.670  27.712  28.098  1.00  0.00     0.261 C 
BRANCH  41  42
ATOM     42  C   UNL A   1      48.160  29.030  27.502  1.00  0.00     0.202 C 
BRANCH  42  43
ATOM     43  O   UNL A   1      49.086  29.733  26.670  1.00  0.00    -0.376 OA
BRANCH  43  44
ATOM     44  C   UNL A   1      49.563  30.991  27.159  1.00  0.00     0.188 C 
BRANCH  44  45
ATOM     45  C   UNL A   1      48.682  31.637  28.233  1.00  0.00     0.188 C 
BRANCH  45  46
ATOM     46  O   UNL A   1      49.357  32.665  28.938  1.00  0.00    -0.376 OA
BRANCH  46  47
ATOM     47  C   UNL A   1      48.742  33.902  29.278  1.00  0.00     0.202 C 
BRANCH  47  48
ATOM     48  C   UNL A   1      47.276  34.268  29.015  1.00  0.00     0.261 C 
BRANCH  48  49
ATOM     49  O   UNL A   1      46.685  35.223  29.868  1.00  0.00    -0.460 OA
BRANCH  49  50
ATOM     50  C   UNL A   1      45.631  35.923  29.413  1.00  0.00     0.338 C 
ATOM     51  O   UNL A   1      45.522  36.486  28.339  1.00  0.00    -0.246 OA
BRANCH  50  52
ATOM     52  C   UNL A   1      44.618  35.867  30.483  1.00  0.00     0.060 A 
ATOM     53  C   UNL A   1      45.041  36.079  31.793  1.00  0.00     0.016 A 
ATOM     54  C   UNL A   1      43.299  35.459  30.196  1.00  0.00     0.016 A 
ATOM     55  C   UNL A   1      44.225  35.640  32.815  1.00  0.00     0.010 A 
ATOM     56  C   UNL A   1      42.490  35.016  31.212  1.00  0.00     0.010 A 
ATOM     57  C   UNL A   1      43.012  35.014  32.496  1.00  0.00    -0.014 A 
BRANCH  57  58
ATOM     58  C   UNL A   1      42.291  34.341  33.551  1.00  0.00     0.031 A 
ATOM     59  C   UNL A   1      42.467  32.883  33.549  1.00  0.00     0.074 A 
ATOM     60  C   UNL A   1      41.551  35.007  34.458  1.00  0.00     0.049 A 
ATOM     61  N   UNL A   1      41.614  32.010  33.136  1.00  0.00    -0.248 NA
ATOM     62  C   UNL A   1      43.790  32.338  33.883  1.00  0.00     0.031 C 
ATOM     63  C   UNL A   1      41.519  36.455  34.702  1.00  0.00     0.029 A 
ATOM     64  N   UNL A   1      40.727  34.512  35.421  1.00  0.00    -0.354 N 
ATOM     65  C   UNL A   1      42.209  30.779  33.366  1.00  0.00     0.074 A 
ATOM     66  C   UNL A   1      43.599  31.041  33.640  1.00  0.00     0.031 C 
ATOM     67  C   UNL A   1      40.893  36.695  35.876  1.00  0.00     0.029 A 
ATOM     68  C   UNL A   1      40.349  35.443  36.379  1.00  0.00     0.049 A 
ATOM     69  H   UNL A   1      40.427  33.574  35.439  1.00  0.00     0.167 HD
ATOM     70  C   UNL A   1      41.445  29.684  33.614  1.00  0.00     0.031 A 
ATOM     71  C   UNL A   1      39.657  35.194  37.514  1.00  0.00     0.031 A 
ATOM     72  C   UNL A   1      40.056  29.928  33.317  1.00  0.00     0.049 A 
ATOM     73  C   UNL A   1      38.915  33.931  37.324  1.00  0.00     0.074 A 
ATOM     74  C   UNL A   1      39.279  30.050  32.188  1.00  0.00     0.029 A 
ATOM     75  N   UNL A   1      39.352  30.469  34.363  1.00  0.00    -0.354 N 
ATOM     76  N   UNL A   1      37.914  33.816  36.499  1.00  0.00    -0.248 NA
ATOM     77  C   UNL A   1      39.486  32.674  37.789  1.00  0.00     0.031 C 
ATOM     78  C   UNL A   1      38.177  30.877  32.559  1.00  0.00     0.029 A 
ATOM     79  C   UNL A   1      38.294  31.209  33.908  1.00  0.00     0.049 A 
ATOM     80  H   UNL A   1      39.578  30.343  35.312  1.00  0.00     0.167 HD
ATOM     81  C   UNL A   1      38.029  32.533  36.001  1.00  0.00     0.074 A 
ATOM     82  C   UNL A   1      38.874  31.827  36.955  1.00  0.00     0.031 C 
ATOM     83  C   UNL A   1      37.695  32.256  34.708  1.00  0.00     0.031 A 
BRANCH  70  84
ATOM     84  C   UNL A   1      41.838  28.608  34.595  1.00  0.00    -0.014 A 
ATOM     85  C   UNL A   1      42.488  28.993  35.781  1.00  0.00     0.009 A 
ATOM     86  C   UNL A   1      41.875  27.240  34.265  1.00  0.00     0.009 A 
ATOM     87  C   UNL A   1      43.185  28.063  36.562  1.00  0.00     0.001 A 
ATOM     88  C   UNL A   1      42.538  26.304  35.061  1.00  0.00     0.001 A 
ATOM     89  C   UNL A   1      43.213  26.720  36.198  1.00  0.00     0.000 A 
ENDBRANCH  70  84
BRANCH  71  90
ATOM     90  C   UNL A   1      39.716  35.871  38.823  1.00  0.00    -0.014 A 
ATOM     91  C   UNL A   1      40.618  35.450  39.811  1.00  0.00     0.009 A 
ATOM     92  C   UNL A   1      39.090  37.119  38.989  1.00  0.00     0.009 A 
ATOM     93  C   UNL A   1      40.924  36.274  40.903  1.00  0.00     0.001 A 
ATOM     94  C   UNL A   1      39.395  37.942  40.078  1.00  0.00     0.001 A 
ATOM     95  C   UNL A   1      40.326  37.526  41.024  1.00  0.00     0.000 A 
ENDBRANCH  71  90
BRANCH  83  96
ATOM     96  C   UNL A   1      36.785  33.231  34.013  1.00  0.00    -0.014 A 
ATOM     97  C   UNL A   1      37.247  34.308  33.236  1.00  0.00     0.009 A 
ATOM     98  C   UNL A   1      35.403  33.006  34.091  1.00  0.00     0.009 A 
ATOM     99  C   UNL A   1      36.344  35.152  32.583  1.00  0.00     0.001 A 
ATOM    100  C   UNL A   1      34.504  33.835  33.420  1.00  0.00     0.001 A 
ATOM    101  C   UNL A   1      34.973  34.912  32.672  1.00  0.00     0.000 A 
ENDBRANCH  83  96
ENDBRANCH  57  58
ENDBRANCH  50  52
ENDBRANCH  49  50
ENDBRANCH  48  49
ENDBRANCH  47  48
ENDBRANCH  46  47
ENDBRANCH  45  46
ENDBRANCH  44  45
ENDBRANCH  43  44
ENDBRANCH  42  43
ENDBRANCH  41  42
ENDBRANCH  40  41
ENDBRANCH  38  40
ENDBRANCH   1  38
TORSDOF 32
ENDMDL
