MODEL 1
REMARK VINA RESULT:     -10.3      0.000      0.000
REMARK SMILES CC(=O)c1c[nH]c(C(=O)N[C@H]2C=C[C@H](C(=O)OCCOCCOCCOC(=O)c3ccc(-c4c5nc(c(-c6ccccc6)c6ccc([nH]6)c(-c6ccccc6)c6nc(c(-c7ccccc7)c7ccc4[nH]7)C=C6)C=C5)cc3)C2)c1
REMARK SMILES IDX 21 1 20 2 19 3 18 4 17 5 15 6 16 7 14 8 11 9 12 10 77 11
REMARK SMILES IDX 13 12 10 13 8 14 9 15 7 17 4 18 5 19 78 20 6 21 2 23 1 24
REMARK SMILES IDX 3 25 22 26 23 27 24 28 25 29 26 30 27 31 28 32 29 33 30 34
REMARK SMILES IDX 76 35 31 36 75 37 32 38 33 39 34 40 69 41 35 42 74 43 68 44
REMARK SMILES IDX 70 45 36 46 73 47 67 48 66 49 37 51 59 52 44 53 58 54 45 55
REMARK SMILES IDX 48 56 57 57 71 58 46 59 47 60 56 62 72 63 49 64 38 65 39 66
REMARK SMILES IDX 43 67 40 68 42 69 41 70 60 71 61 72 65 73 62 74 64 75 63 76
REMARK SMILES IDX 50 77 51 78 55 79 52 80 54 81 53 82
REMARK H PARENT 10 16 6 22 70 50 48 61
REMARK Flexibility Score: inf
ROOT
ATOM      1  C   UNL A   1      42.165  19.040  26.701  1.00  0.00     0.188 C 
ENDROOT
BRANCH   1   2
ATOM      2  O   UNL A   1      41.413  19.533  25.598  1.00  0.00    -0.376 OA
BRANCH   2   3
ATOM      3  C   UNL A   1      40.056  19.926  25.780  1.00  0.00     0.202 C 
BRANCH   3   4
ATOM      4  C   UNL A   1      39.695  21.346  26.262  1.00  0.00     0.261 C 
BRANCH   4   5
ATOM      5  O   UNL A   1      38.459  21.850  25.746  1.00  0.00    -0.463 OA
BRANCH   5   6
ATOM      6  C   UNL A   1      38.202  23.173  25.921  1.00  0.00     0.312 C 
ATOM      7  O   UNL A   1      38.930  23.969  26.496  1.00  0.00    -0.252 OA
BRANCH   6   8
ATOM      8  C   UNL A   1      36.893  23.530  25.232  1.00  0.00     0.124 C 
ATOM      9  C   UNL A   1      34.950  22.150  25.701  1.00  0.00     0.106 C 
ATOM     10  C   UNL A   1      35.486  21.878  24.340  1.00  0.00    -0.006 C 
ATOM     11  C   UNL A   1      35.691  23.396  26.187  1.00  0.00     0.048 C 
ATOM     12  C   UNL A   1      36.581  22.606  24.097  1.00  0.00    -0.014 C 
BRANCH   9  13
ATOM     13  N   UNL A   1      33.507  22.175  25.722  1.00  0.00    -0.345 N 
ATOM     14  C   UNL A   1      32.470  21.365  25.331  1.00  0.00     0.268 C 
ATOM     15  O   UNL A   1      31.354  21.825  25.475  1.00  0.00    -0.268 OA
ATOM     16  H   UNL A   1      33.173  23.005  26.133  1.00  0.00     0.164 HD
BRANCH  14  17
ATOM     17  C   UNL A   1      32.657  20.066  24.714  1.00  0.00     0.105 A 
ATOM     18  C   UNL A   1      33.266  17.993  23.957  1.00  0.00     0.035 A 
ATOM     19  C   UNL A   1      32.506  18.607  22.984  1.00  0.00     0.094 A 
ATOM     20  C   UNL A   1      33.255  18.878  25.075  1.00  0.00     0.045 A 
ATOM     21  N   UNL A   1      32.101  19.823  23.468  1.00  0.00    -0.356 N 
ATOM     22  H   UNL A   1      31.495  20.440  22.996  1.00  0.00     0.166 HD
BRANCH  18  23
ATOM     23  C   UNL A   1      33.965  16.711  23.884  1.00  0.00     0.161 C 
ATOM     24  C   UNL A   1      34.183  15.936  25.157  1.00  0.00     0.093 C 
ATOM     25  O   UNL A   1      34.290  16.233  22.796  1.00  0.00    -0.294 OA
ENDBRANCH  18  23
ENDBRANCH  14  17
ENDBRANCH   9  13
ENDBRANCH   6   8
ENDBRANCH   5   6
ENDBRANCH   4   5
ENDBRANCH   3   4
ENDBRANCH   2   3
ENDBRANCH   1   2
BRANCH   1  26
ATOM     26  C   UNL A   1      43.379  18.117  26.470  1.00  0.00     0.188 C 
BRANCH  26  27
ATOM     27  O   UNL A   1      43.969  18.259  25.191  1.00  0.00    -0.376 OA
BRANCH  27  28
ATOM     28  C   UNL A   1      45.059  19.161  25.057  1.00  0.00     0.202 C 
BRANCH  28  29
ATOM     29  C   UNL A   1      44.834  20.411  24.193  1.00  0.00     0.261 C 
BRANCH  29  30
ATOM     30  O   UNL A   1      44.143  21.484  24.825  1.00  0.00    -0.460 OA
BRANCH  30  31
ATOM     31  C   UNL A   1      44.445  22.688  24.316  1.00  0.00     0.338 C 
ATOM     32  O   UNL A   1      45.280  22.960  23.460  1.00  0.00    -0.246 OA
BRANCH  31  33
ATOM     33  C   UNL A   1      43.669  23.711  24.990  1.00  0.00     0.060 A 
ATOM     34  C   UNL A   1      44.100  25.034  24.863  1.00  0.00     0.016 A 
ATOM     35  C   UNL A   1      42.831  23.273  26.019  1.00  0.00     0.016 A 
ATOM     36  C   UNL A   1      43.827  25.902  25.894  1.00  0.00     0.010 A 
ATOM     37  C   UNL A   1      42.608  24.124  27.073  1.00  0.00     0.010 A 
ATOM     38  C   UNL A   1      43.155  25.414  27.022  1.00  0.00    -0.014 A 
BRANCH  38  39
ATOM     39  C   UNL A   1      42.931  26.332  28.137  1.00  0.00     0.031 A 
ATOM     40  C   UNL A   1      43.929  26.074  29.255  1.00  0.00     0.074 A 
ATOM     41  C   UNL A   1      41.879  27.193  28.003  1.00  0.00     0.049 A 
ATOM     42  N   UNL A   1      43.847  26.401  30.502  1.00  0.00    -0.248 NA
ATOM     43  C   UNL A   1      45.173  25.299  28.978  1.00  0.00     0.031 C 
ATOM     44  C   UNL A   1      41.019  27.294  26.798  1.00  0.00     0.029 A 
ATOM     45  N   UNL A   1      41.307  28.141  28.825  1.00  0.00    -0.354 N 
ATOM     46  C   UNL A   1      45.069  26.056  31.106  1.00  0.00     0.074 A 
ATOM     47  C   UNL A   1      45.808  25.292  30.149  1.00  0.00     0.031 C 
ATOM     48  C   UNL A   1      40.012  28.171  26.996  1.00  0.00     0.029 A 
ATOM     49  C   UNL A   1      40.127  28.748  28.321  1.00  0.00     0.049 A 
ATOM     50  H   UNL A   1      41.689  28.380  29.700  1.00  0.00     0.167 HD
ATOM     51  C   UNL A   1      45.452  26.558  32.310  1.00  0.00     0.031 A 
ATOM     52  C   UNL A   1      39.284  29.633  28.934  1.00  0.00     0.031 A 
ATOM     53  C   UNL A   1      44.386  27.295  32.900  1.00  0.00     0.049 A 
ATOM     54  C   UNL A   1      39.940  30.028  30.187  1.00  0.00     0.074 A 
ATOM     55  C   UNL A   1      43.165  26.909  33.393  1.00  0.00     0.029 A 
ATOM     56  N   UNL A   1      44.363  28.643  32.637  1.00  0.00    -0.354 N 
ATOM     57  N   UNL A   1      40.961  30.823  30.266  1.00  0.00    -0.248 NA
ATOM     58  C   UNL A   1      39.457  29.471  31.456  1.00  0.00     0.031 C 
ATOM     59  C   UNL A   1      42.301  27.937  32.964  1.00  0.00     0.029 A 
ATOM     60  C   UNL A   1      43.053  28.986  32.424  1.00  0.00     0.049 A 
ATOM     61  H   UNL A   1      45.139  29.248  32.608  1.00  0.00     0.167 HD
ATOM     62  C   UNL A   1      41.473  30.507  31.499  1.00  0.00     0.074 A 
ATOM     63  C   UNL A   1      40.371  29.984  32.278  1.00  0.00     0.031 C 
ATOM     64  C   UNL A   1      42.776  30.132  31.590  1.00  0.00     0.031 A 
BRANCH  51  65
ATOM     65  C   UNL A   1      46.820  26.684  32.904  1.00  0.00    -0.014 A 
ATOM     66  C   UNL A   1      46.989  26.232  34.232  1.00  0.00     0.009 A 
ATOM     67  C   UNL A   1      47.819  27.503  32.368  1.00  0.00     0.009 A 
ATOM     68  C   UNL A   1      48.039  26.683  35.030  1.00  0.00     0.001 A 
ATOM     69  C   UNL A   1      48.899  27.922  33.155  1.00  0.00     0.001 A 
ATOM     70  C   UNL A   1      48.986  27.545  34.493  1.00  0.00     0.000 A 
ENDBRANCH  51  65
BRANCH  52  71
ATOM     71  C   UNL A   1      37.929  30.250  28.698  1.00  0.00    -0.014 A 
ATOM     72  C   UNL A   1      37.607  31.602  28.814  1.00  0.00     0.009 A 
ATOM     73  C   UNL A   1      36.875  29.409  28.239  1.00  0.00     0.009 A 
ATOM     74  C   UNL A   1      36.340  32.086  28.417  1.00  0.00     0.001 A 
ATOM     75  C   UNL A   1      35.638  29.885  27.802  1.00  0.00     0.001 A 
ATOM     76  C   UNL A   1      35.373  31.236  27.881  1.00  0.00     0.000 A 
ENDBRANCH  52  71
BRANCH  64  77
ATOM     77  C   UNL A   1      43.671  30.648  30.470  1.00  0.00    -0.014 A 
ATOM     78  C   UNL A   1      44.043  32.003  30.435  1.00  0.00     0.009 A 
ATOM     79  C   UNL A   1      44.047  29.857  29.370  1.00  0.00     0.009 A 
ATOM     80  C   UNL A   1      44.722  32.549  29.338  1.00  0.00     0.001 A 
ATOM     81  C   UNL A   1      44.730  30.397  28.269  1.00  0.00     0.001 A 
ATOM     82  C   UNL A   1      45.062  31.748  28.251  1.00  0.00     0.000 A 
ENDBRANCH  64  77
ENDBRANCH  38  39
ENDBRANCH  31  33
ENDBRANCH  30  31
ENDBRANCH  29  30
ENDBRANCH  28  29
ENDBRANCH  27  28
ENDBRANCH  26  27
ENDBRANCH   1  26
TORSDOF 20
ENDMDL
MODEL 2
REMARK VINA RESULT:     -10.2      3.615      8.244
REMARK SMILES CC(=O)c1c[nH]c(C(=O)N[C@H]2C=C[C@H](C(=O)OCCOCCOCCOC(=O)c3ccc(-c4c5nc(c(-c6ccccc6)c6ccc([nH]6)c(-c6ccccc6)c6nc(c(-c7ccccc7)c7ccc4[nH]7)C=C6)C=C5)cc3)C2)c1
REMARK SMILES IDX 21 1 20 2 19 3 18 4 17 5 15 6 16 7 14 8 11 9 12 10 77 11
REMARK SMILES IDX 13 12 10 13 8 14 9 15 7 17 4 18 5 19 78 20 6 21 2 23 1 24
REMARK SMILES IDX 3 25 22 26 23 27 24 28 25 29 26 30 27 31 28 32 29 33 30 34
REMARK SMILES IDX 76 35 31 36 75 37 32 38 33 39 34 40 69 41 35 42 74 43 68 44
REMARK SMILES IDX 70 45 36 46 73 47 67 48 66 49 37 51 59 52 44 53 58 54 45 55
REMARK SMILES IDX 48 56 57 57 71 58 46 59 47 60 56 62 72 63 49 64 38 65 39 66
REMARK SMILES IDX 43 67 40 68 42 69 41 70 60 71 61 72 65 73 62 74 64 75 63 76
REMARK SMILES IDX 50 77 51 78 55 79 52 80 54 81 53 82
REMARK H PARENT 10 16 6 22 70 50 48 61
REMARK Flexibility Score: inf
ROOT
ATOM      1  C   UNL A   1      33.905  28.350  25.739  1.00  0.00     0.188 C 
ENDROOT
BRANCH   1   2
ATOM      2  O   UNL A   1      32.914  28.744  24.797  1.00  0.00    -0.376 OA
BRANCH   2   3
ATOM      3  C   UNL A   1      33.275  28.973  23.438  1.00  0.00     0.202 C 
BRANCH   3   4
ATOM      4  C   UNL A   1      33.234  27.835  22.399  1.00  0.00     0.261 C 
BRANCH   4   5
ATOM      5  O   UNL A   1      33.695  26.571  22.885  1.00  0.00    -0.463 OA
BRANCH   5   6
ATOM      6  C   UNL A   1      33.465  25.480  22.108  1.00  0.00     0.312 C 
ATOM      7  O   UNL A   1      33.252  25.496  20.904  1.00  0.00    -0.252 OA
BRANCH   6   8
ATOM      8  C   UNL A   1      33.578  24.221  22.955  1.00  0.00     0.124 C 
ATOM      9  C   UNL A   1      33.658  24.480  25.369  1.00  0.00     0.106 C 
ATOM     10  C   UNL A   1      34.995  24.123  24.823  1.00  0.00    -0.006 C 
ATOM     11  C   UNL A   1      32.682  24.293  24.207  1.00  0.00     0.048 C 
ATOM     12  C   UNL A   1      34.961  24.022  23.490  1.00  0.00    -0.014 C 
BRANCH   9  13
ATOM     13  N   UNL A   1      33.372  23.789  26.604  1.00  0.00    -0.345 N 
ATOM     14  C   UNL A   1      33.182  22.497  27.025  1.00  0.00     0.268 C 
ATOM     15  O   UNL A   1      32.876  22.359  28.194  1.00  0.00    -0.268 OA
ATOM     16  H   UNL A   1      33.292  24.422  27.354  1.00  0.00     0.164 HD
BRANCH  14  17
ATOM     17  C   UNL A   1      33.263  21.347  26.145  1.00  0.00     0.105 A 
ATOM     18  C   UNL A   1      33.039  19.449  24.885  1.00  0.00     0.035 A 
ATOM     19  C   UNL A   1      34.383  19.682  25.089  1.00  0.00     0.094 A 
ATOM     20  C   UNL A   1      32.360  20.563  25.459  1.00  0.00     0.045 A 
ATOM     21  N   UNL A   1      34.508  20.849  25.797  1.00  0.00    -0.356 N 
ATOM     22  H   UNL A   1      35.366  21.275  26.025  1.00  0.00     0.166 HD
BRANCH  18  23
ATOM     23  C   UNL A   1      32.409  18.302  24.234  1.00  0.00     0.161 C 
ATOM     24  C   UNL A   1      32.501  18.185  22.735  1.00  0.00     0.093 C 
ATOM     25  O   UNL A   1      31.892  17.405  24.901  1.00  0.00    -0.294 OA
ENDBRANCH  18  23
ENDBRANCH  14  17
ENDBRANCH   9  13
ENDBRANCH   6   8
ENDBRANCH   5   6
ENDBRANCH   4   5
ENDBRANCH   3   4
ENDBRANCH   2   3
ENDBRANCH   1   2
BRANCH   1  26
ATOM     26  C   UNL A   1      34.007  29.053  27.108  1.00  0.00     0.188 C 
BRANCH  26  27
ATOM     27  O   UNL A   1      33.757  30.445  27.053  1.00  0.00    -0.376 OA
BRANCH  27  28
ATOM     28  C   UNL A   1      34.446  31.282  27.973  1.00  0.00     0.202 C 
BRANCH  28  29
ATOM     29  C   UNL A   1      35.980  31.274  27.916  1.00  0.00     0.261 C 
BRANCH  29  30
ATOM     30  O   UNL A   1      36.628  30.365  28.799  1.00  0.00    -0.460 OA
BRANCH  30  31
ATOM     31  C   UNL A   1      37.930  30.631  28.981  1.00  0.00     0.338 C 
ATOM     32  O   UNL A   1      38.444  31.684  29.345  1.00  0.00    -0.246 OA
BRANCH  31  33
ATOM     33  C   UNL A   1      38.722  29.477  28.603  1.00  0.00     0.060 A 
ATOM     34  C   UNL A   1      39.461  28.846  29.607  1.00  0.00     0.016 A 
ATOM     35  C   UNL A   1      39.009  29.345  27.242  1.00  0.00     0.016 A 
ATOM     36  C   UNL A   1      40.625  28.208  29.247  1.00  0.00     0.010 A 
ATOM     37  C   UNL A   1      40.199  28.756  26.889  1.00  0.00     0.010 A 
ATOM     38  C   UNL A   1      41.019  28.242  27.903  1.00  0.00    -0.014 A 
BRANCH  38  39
ATOM     39  C   UNL A   1      42.291  27.617  27.547  1.00  0.00     0.031 A 
ATOM     40  C   UNL A   1      43.352  28.671  27.273  1.00  0.00     0.074 A 
ATOM     41  C   UNL A   1      42.291  26.252  27.479  1.00  0.00     0.049 A 
ATOM     42  N   UNL A   1      44.452  28.556  26.606  1.00  0.00    -0.248 NA
ATOM     43  C   UNL A   1      43.152  30.069  27.755  1.00  0.00     0.031 C 
ATOM     44  C   UNL A   1      41.126  25.391  27.805  1.00  0.00     0.029 A 
ATOM     45  N   UNL A   1      43.233  25.310  27.126  1.00  0.00    -0.354 N 
ATOM     46  C   UNL A   1      45.151  29.769  26.742  1.00  0.00     0.074 A 
ATOM     47  C   UNL A   1      44.264  30.696  27.372  1.00  0.00     0.031 C 
ATOM     48  C   UNL A   1      41.403  24.093  27.561  1.00  0.00     0.029 A 
ATOM     49  C   UNL A   1      42.768  23.970  27.088  1.00  0.00     0.049 A 
ATOM     50  H   UNL A   1      44.164  25.550  26.914  1.00  0.00     0.167 HD
ATOM     51  C   UNL A   1      46.477  29.879  26.458  1.00  0.00     0.031 A 
ATOM     52  C   UNL A   1      43.423  22.841  26.679  1.00  0.00     0.031 A 
ATOM     53  C   UNL A   1      46.955  28.679  25.860  1.00  0.00     0.049 A 
ATOM     54  C   UNL A   1      44.822  23.231  26.465  1.00  0.00     0.074 A 
ATOM     55  C   UNL A   1      46.695  28.089  24.649  1.00  0.00     0.029 A 
ATOM     56  N   UNL A   1      47.481  27.742  26.716  1.00  0.00    -0.354 N 
ATOM     57  N   UNL A   1      45.672  23.477  27.413  1.00  0.00    -0.248 NA
ATOM     58  C   UNL A   1      45.318  23.402  25.094  1.00  0.00     0.031 C 
ATOM     59  C   UNL A   1      46.626  26.716  24.963  1.00  0.00     0.029 A 
ATOM     60  C   UNL A   1      47.048  26.516  26.281  1.00  0.00     0.049 A 
ATOM     61  H   UNL A   1      48.060  27.918  27.493  1.00  0.00     0.167 HD
ATOM     62  C   UNL A   1      46.619  24.224  26.759  1.00  0.00     0.074 A 
ATOM     63  C   UNL A   1      46.544  23.849  25.362  1.00  0.00     0.031 C 
ATOM     64  C   UNL A   1      46.940  25.450  27.249  1.00  0.00     0.031 A 
BRANCH  51  65
ATOM     65  C   UNL A   1      47.476  30.889  26.929  1.00  0.00    -0.014 A 
ATOM     66  C   UNL A   1      47.162  32.250  26.719  1.00  0.00     0.009 A 
ATOM     67  C   UNL A   1      48.803  30.571  27.240  1.00  0.00     0.009 A 
ATOM     68  C   UNL A   1      48.152  33.233  26.691  1.00  0.00     0.001 A 
ATOM     69  C   UNL A   1      49.790  31.564  27.256  1.00  0.00     0.001 A 
ATOM     70  C   UNL A   1      49.471  32.883  26.943  1.00  0.00     0.000 A 
ENDBRANCH  51  65
BRANCH  52  71
ATOM     71  C   UNL A   1      43.106  21.399  26.376  1.00  0.00    -0.014 A 
ATOM     72  C   UNL A   1      43.756  20.590  25.444  1.00  0.00     0.009 A 
ATOM     73  C   UNL A   1      42.102  20.751  27.152  1.00  0.00     0.009 A 
ATOM     74  C   UNL A   1      43.474  19.208  25.357  1.00  0.00     0.001 A 
ATOM     75  C   UNL A   1      41.851  19.380  27.105  1.00  0.00     0.001 A 
ATOM     76  C   UNL A   1      42.551  18.599  26.208  1.00  0.00     0.000 A 
ENDBRANCH  52  71
BRANCH  64  77
ATOM     77  C   UNL A   1      46.679  25.632  28.739  1.00  0.00    -0.014 A 
ATOM     78  C   UNL A   1      45.376  25.886  29.199  1.00  0.00     0.009 A 
ATOM     79  C   UNL A   1      47.713  25.695  29.692  1.00  0.00     0.009 A 
ATOM     80  C   UNL A   1      45.121  26.223  30.535  1.00  0.00     0.001 A 
ATOM     81  C   UNL A   1      47.464  26.030  31.032  1.00  0.00     0.001 A 
ATOM     82  C   UNL A   1      46.166  26.301  31.452  1.00  0.00     0.000 A 
ENDBRANCH  64  77
ENDBRANCH  38  39
ENDBRANCH  31  33
ENDBRANCH  30  31
ENDBRANCH  29  30
ENDBRANCH  28  29
ENDBRANCH  27  28
ENDBRANCH  26  27
ENDBRANCH   1  26
TORSDOF 20
ENDMDL
MODEL 3
REMARK VINA RESULT:     -10.2      3.563      8.790
REMARK SMILES CC(=O)c1c[nH]c(C(=O)N[C@H]2C=C[C@H](C(=O)OCCOCCOCCOC(=O)c3ccc(-c4c5nc(c(-c6ccccc6)c6ccc([nH]6)c(-c6ccccc6)c6nc(c(-c7ccccc7)c7ccc4[nH]7)C=C6)C=C5)cc3)C2)c1
REMARK SMILES IDX 21 1 20 2 19 3 18 4 17 5 15 6 16 7 14 8 11 9 12 10 77 11
REMARK SMILES IDX 13 12 10 13 8 14 9 15 7 17 4 18 5 19 78 20 6 21 2 23 1 24
REMARK SMILES IDX 3 25 22 26 23 27 24 28 25 29 26 30 27 31 28 32 29 33 30 34
REMARK SMILES IDX 76 35 31 36 75 37 32 38 33 39 34 40 69 41 35 42 74 43 68 44
REMARK SMILES IDX 70 45 36 46 73 47 67 48 66 49 37 51 59 52 44 53 58 54 45 55
REMARK SMILES IDX 48 56 57 57 71 58 46 59 47 60 56 62 72 63 49 64 38 65 39 66
REMARK SMILES IDX 43 67 40 68 42 69 41 70 60 71 61 72 65 73 62 74 64 75 63 76
REMARK SMILES IDX 50 77 51 78 55 79 52 80 54 81 53 82
REMARK H PARENT 10 16 6 22 70 50 48 61
REMARK Flexibility Score: inf
ROOT
ATOM      1  C   UNL A   1      34.456  33.393  28.134  1.00  0.00     0.188 C 
ENDROOT
BRANCH   1   2
ATOM      2  O   UNL A   1      34.585  32.064  27.642  1.00  0.00    -0.376 OA
BRANCH   2   3
ATOM      3  C   UNL A   1      33.579  31.098  27.928  1.00  0.00     0.202 C 
BRANCH   3   4
ATOM      4  C   UNL A   1      32.949  30.245  26.809  1.00  0.00     0.261 C 
BRANCH   4   5
ATOM      5  O   UNL A   1      33.367  28.877  26.800  1.00  0.00    -0.463 OA
BRANCH   5   6
ATOM      6  C   UNL A   1      32.436  27.937  27.109  1.00  0.00     0.312 C 
ATOM      7  O   UNL A   1      31.606  28.024  28.004  1.00  0.00    -0.252 OA
BRANCH   6   8
ATOM      8  C   UNL A   1      32.538  26.779  26.127  1.00  0.00     0.124 C 
ATOM      9  C   UNL A   1      32.220  27.262  23.768  1.00  0.00     0.106 C 
ATOM     10  C   UNL A   1      31.039  26.556  24.335  1.00  0.00    -0.006 C 
ATOM     11  C   UNL A   1      33.298  27.181  24.849  1.00  0.00     0.048 C 
ATOM     12  C   UNL A   1      31.195  26.328  25.643  1.00  0.00    -0.014 C 
BRANCH   9  13
ATOM     13  N   UNL A   1      32.556  26.785  22.447  1.00  0.00    -0.345 N 
ATOM     14  C   UNL A   1      32.960  25.611  21.862  1.00  0.00     0.268 C 
ATOM     15  O   UNL A   1      33.215  25.669  20.675  1.00  0.00    -0.268 OA
ATOM     16  H   UNL A   1      32.469  27.502  21.779  1.00  0.00     0.164 HD
BRANCH  14  17
ATOM     17  C   UNL A   1      33.152  24.375  22.597  1.00  0.00     0.105 A 
ATOM     18  C   UNL A   1      33.813  22.547  23.807  1.00  0.00     0.035 A 
ATOM     19  C   UNL A   1      32.765  22.175  22.991  1.00  0.00     0.094 A 
ATOM     20  C   UNL A   1      33.967  23.953  23.625  1.00  0.00     0.045 A 
ATOM     21  N   UNL A   1      32.341  23.288  22.313  1.00  0.00    -0.356 N 
ATOM     22  H   UNL A   1      31.564  23.312  21.707  1.00  0.00     0.166 HD
BRANCH  18  23
ATOM     23  C   UNL A   1      34.629  21.699  24.674  1.00  0.00     0.161 C 
ATOM     24  C   UNL A   1      34.336  20.222  24.717  1.00  0.00     0.093 C 
ATOM     25  O   UNL A   1      35.589  22.165  25.289  1.00  0.00    -0.294 OA
ENDBRANCH  18  23
ENDBRANCH  14  17
ENDBRANCH   9  13
ENDBRANCH   6   8
ENDBRANCH   5   6
ENDBRANCH   4   5
ENDBRANCH   3   4
ENDBRANCH   2   3
ENDBRANCH   1   2
BRANCH   1  26
ATOM     26  C   UNL A   1      34.693  33.702  29.627  1.00  0.00     0.188 C 
BRANCH  26  27
ATOM     27  O   UNL A   1      35.791  33.004  30.185  1.00  0.00    -0.376 OA
BRANCH  27  28
ATOM     28  C   UNL A   1      37.100  33.430  29.832  1.00  0.00     0.202 C 
BRANCH  28  29
ATOM     29  C   UNL A   1      38.101  32.345  29.407  1.00  0.00     0.261 C 
BRANCH  29  30
ATOM     30  O   UNL A   1      37.535  31.175  28.825  1.00  0.00    -0.460 OA
BRANCH  30  31
ATOM     31  C   UNL A   1      37.516  30.121  29.655  1.00  0.00     0.338 C 
ATOM     32  O   UNL A   1      36.947  30.018  30.737  1.00  0.00    -0.246 OA
BRANCH  31  33
ATOM     33  C   UNL A   1      38.363  29.068  29.127  1.00  0.00     0.060 A 
ATOM     34  C   UNL A   1      39.157  28.364  30.036  1.00  0.00     0.016 A 
ATOM     35  C   UNL A   1      38.627  29.119  27.756  1.00  0.00     0.016 A 
ATOM     36  C   UNL A   1      40.347  27.843  29.583  1.00  0.00     0.010 A 
ATOM     37  C   UNL A   1      39.840  28.647  27.317  1.00  0.00     0.010 A 
ATOM     38  C   UNL A   1      40.709  28.062  28.247  1.00  0.00    -0.014 A 
BRANCH  38  39
ATOM     39  C   UNL A   1      42.006  27.559  27.799  1.00  0.00     0.031 A 
ATOM     40  C   UNL A   1      42.980  28.706  27.575  1.00  0.00     0.074 A 
ATOM     41  C   UNL A   1      42.097  26.208  27.622  1.00  0.00     0.049 A 
ATOM     42  N   UNL A   1      44.059  28.722  26.865  1.00  0.00    -0.248 NA
ATOM     43  C   UNL A   1      42.705  30.043  28.176  1.00  0.00     0.031 C 
ATOM     44  C   UNL A   1      41.008  25.243  27.916  1.00  0.00     0.029 A 
ATOM     45  N   UNL A   1      43.087  25.366  27.161  1.00  0.00    -0.354 N 
ATOM     46  C   UNL A   1      44.678  29.967  27.074  1.00  0.00     0.074 A 
ATOM     47  C   UNL A   1      43.755  30.776  27.807  1.00  0.00     0.031 C 
ATOM     48  C   UNL A   1      41.364  23.991  27.559  1.00  0.00     0.029 A 
ATOM     49  C   UNL A   1      42.714  24.004  27.031  1.00  0.00     0.049 A 
ATOM     50  H   UNL A   1      43.990  25.688  26.938  1.00  0.00     0.167 HD
ATOM     51  C   UNL A   1      45.981  30.194  26.756  1.00  0.00     0.031 A 
ATOM     52  C   UNL A   1      43.428  22.960  26.510  1.00  0.00     0.031 A 
ATOM     53  C   UNL A   1      46.516  29.082  26.047  1.00  0.00     0.049 A 
ATOM     54  C   UNL A   1      44.788  23.464  26.281  1.00  0.00     0.074 A 
ATOM     55  C   UNL A   1      46.249  28.571  24.801  1.00  0.00     0.029 A 
ATOM     56  N   UNL A   1      47.139  28.120  26.806  1.00  0.00    -0.354 N 
ATOM     57  N   UNL A   1      45.656  23.696  27.217  1.00  0.00    -0.248 NA
ATOM     58  C   UNL A   1      45.216  23.777  24.912  1.00  0.00     0.031 C 
ATOM     59  C   UNL A   1      46.287  27.177  25.006  1.00  0.00     0.029 A 
ATOM     60  C   UNL A   1      46.774  26.904  26.289  1.00  0.00     0.049 A 
ATOM     61  H   UNL A   1      47.734  28.276  27.574  1.00  0.00     0.167 HD
ATOM     62  C   UNL A   1      46.523  24.557  26.593  1.00  0.00     0.074 A 
ATOM     63  C   UNL A   1      46.418  24.289  25.175  1.00  0.00     0.031 C 
ATOM     64  C   UNL A   1      46.777  25.761  27.170  1.00  0.00     0.031 A 
BRANCH  51  65
ATOM     65  C   UNL A   1      46.926  31.233  27.272  1.00  0.00    -0.014 A 
ATOM     66  C   UNL A   1      47.420  31.058  28.584  1.00  0.00     0.009 A 
ATOM     67  C   UNL A   1      47.076  32.495  26.687  1.00  0.00     0.009 A 
ATOM     68  C   UNL A   1      47.922  32.128  29.325  1.00  0.00     0.001 A 
ATOM     69  C   UNL A   1      47.621  33.560  27.415  1.00  0.00     0.001 A 
ATOM     70  C   UNL A   1      48.004  33.385  28.743  1.00  0.00     0.000 A 
ENDBRANCH  51  65
BRANCH  52  71
ATOM     71  C   UNL A   1      43.199  21.527  26.102  1.00  0.00    -0.014 A 
ATOM     72  C   UNL A   1      44.141  20.671  25.532  1.00  0.00     0.009 A 
ATOM     73  C   UNL A   1      41.932  20.940  26.383  1.00  0.00     0.009 A 
ATOM     74  C   UNL A   1      43.857  19.301  25.336  1.00  0.00     0.001 A 
ATOM     75  C   UNL A   1      41.658  19.580  26.235  1.00  0.00     0.001 A 
ATOM     76  C   UNL A   1      42.632  18.751  25.718  1.00  0.00     0.000 A 
ENDBRANCH  52  71
BRANCH  64  77
ATOM     77  C   UNL A   1      46.564  25.807  28.678  1.00  0.00    -0.014 A 
ATOM     78  C   UNL A   1      45.327  26.222  29.201  1.00  0.00     0.009 A 
ATOM     79  C   UNL A   1      47.600  25.580  29.602  1.00  0.00     0.009 A 
ATOM     80  C   UNL A   1      45.146  26.437  30.573  1.00  0.00     0.001 A 
ATOM     81  C   UNL A   1      47.424  25.791  30.978  1.00  0.00     0.001 A 
ATOM     82  C   UNL A   1      46.196  26.227  31.463  1.00  0.00     0.000 A 
ENDBRANCH  64  77
ENDBRANCH  38  39
ENDBRANCH  31  33
ENDBRANCH  30  31
ENDBRANCH  29  30
ENDBRANCH  28  29
ENDBRANCH  27  28
ENDBRANCH  26  27
ENDBRANCH   1  26
TORSDOF 20
ENDMDL
