MODEL 1
REMARK VINA RESULT:      -8.7      0.000      0.000
REMARK SMILES CCc1cccc(-c2ccc([C@@H](C)C(=O)OCCOCCOCCOC(=O)c3ccc(-c4c5nc(c(-c6ccccc6)c6ccc([nH]6)c(-c6ccccc6)c6nc(c(-c7ccccc7)c7ccc4[nH]7)C=C6)C=C5)cc3)cc2)c1
REMARK SMILES IDX 20 1 19 2 18 3 17 4 16 5 14 6 15 7 12 8 13 9 11 10 8 11 9 12
REMARK SMILES IDX 77 13 10 14 76 15 7 16 3 17 4 18 78 19 5 20 6 21 2 22 1 23
REMARK SMILES IDX 21 24 22 25 23 26 24 27 25 28 26 29 27 30 28 31 29 32 75 33
REMARK SMILES IDX 30 34 74 35 31 36 32 37 33 38 68 39 34 40 73 41 67 42 69 43
REMARK SMILES IDX 35 44 72 45 66 46 65 47 36 49 58 50 43 51 57 52 44 53 47 54
REMARK SMILES IDX 56 55 70 56 45 57 46 58 55 60 71 61 48 62 37 63 38 64 42 65
REMARK SMILES IDX 39 66 41 67 40 68 59 69 60 70 64 71 61 72 63 73 62 74 49 75
REMARK SMILES IDX 50 76 54 77 51 78 53 79 52 80
REMARK H PARENT 69 48 47 59
REMARK Flexibility Score: inf
ROOT
ATOM      1  C   UNL A   1      33.272  37.229  30.102  1.00  0.00     0.188 C 
ENDROOT
BRANCH   1   2
ATOM      2  O   UNL A   1      32.681  36.707  31.286  1.00  0.00    -0.376 OA
BRANCH   2   3
ATOM      3  C   UNL A   1      33.502  36.043  32.241  1.00  0.00     0.202 C 
BRANCH   3   4
ATOM      4  C   UNL A   1      33.662  34.519  32.128  1.00  0.00     0.261 C 
BRANCH   4   5
ATOM      5  O   UNL A   1      34.617  33.917  33.033  1.00  0.00    -0.463 OA
BRANCH   5   6
ATOM      6  C   UNL A   1      35.916  34.280  32.875  1.00  0.00     0.313 C 
ATOM      7  O   UNL A   1      36.384  35.317  33.343  1.00  0.00    -0.252 OA
BRANCH   6   8
ATOM      8  C   UNL A   1      36.807  33.312  32.087  1.00  0.00     0.126 C 
ATOM      9  C   UNL A   1      37.160  32.131  32.990  1.00  0.00     0.025 C 
BRANCH   8  10
ATOM     10  C   UNL A   1      38.045  33.797  31.334  1.00  0.00    -0.034 A 
ATOM     11  C   UNL A   1      40.308  34.692  29.817  1.00  0.00    -0.018 A 
ATOM     12  C   UNL A   1      40.311  34.694  31.223  1.00  0.00     0.009 A 
ATOM     13  C   UNL A   1      39.152  34.224  29.181  1.00  0.00     0.009 A 
ATOM     14  C   UNL A   1      39.207  34.246  31.972  1.00  0.00     0.005 A 
ATOM     15  C   UNL A   1      38.046  33.778  29.923  1.00  0.00     0.005 A 
BRANCH  11  16
ATOM     16  C   UNL A   1      41.501  35.109  29.046  1.00  0.00    -0.018 A 
ATOM     17  C   UNL A   1      42.847  36.817  27.888  1.00  0.00    -0.048 A 
ATOM     18  C   UNL A   1      43.782  35.830  27.548  1.00  0.00     0.004 A 
ATOM     19  C   UNL A   1      41.707  36.441  28.630  1.00  0.00     0.012 A 
ATOM     20  C   UNL A   1      43.596  34.508  27.944  1.00  0.00     0.001 A 
ATOM     21  C   UNL A   1      42.467  34.155  28.684  1.00  0.00     0.009 A 
BRANCH  17  22
ATOM     22  C   UNL A   1      43.061  38.226  27.379  1.00  0.00     0.032 C 
ATOM     23  C   UNL A   1      41.825  38.906  26.808  1.00  0.00     0.009 C 
ENDBRANCH  17  22
ENDBRANCH  11  16
ENDBRANCH   8  10
ENDBRANCH   6   8
ENDBRANCH   5   6
ENDBRANCH   4   5
ENDBRANCH   3   4
ENDBRANCH   2   3
ENDBRANCH   1   2
BRANCH   1  24
ATOM     24  C   UNL A   1      33.460  36.312  28.885  1.00  0.00     0.188 C 
BRANCH  24  25
ATOM     25  O   UNL A   1      32.652  35.156  28.903  1.00  0.00    -0.376 OA
BRANCH  25  26
ATOM     26  C   UNL A   1      33.143  34.026  28.212  1.00  0.00     0.202 C 
BRANCH  26  27
ATOM     27  C   UNL A   1      34.544  33.572  28.639  1.00  0.00     0.261 C 
BRANCH  27  28
ATOM     28  O   UNL A   1      34.639  32.231  29.158  1.00  0.00    -0.460 OA
BRANCH  28  29
ATOM     29  C   UNL A   1      34.682  31.221  28.257  1.00  0.00     0.338 C 
ATOM     30  O   UNL A   1      33.938  31.045  27.315  1.00  0.00    -0.246 OA
BRANCH  29  31
ATOM     31  C   UNL A   1      35.936  30.463  28.491  1.00  0.00     0.060 A 
ATOM     32  C   UNL A   1      36.178  29.911  29.757  1.00  0.00     0.016 A 
ATOM     33  C   UNL A   1      36.867  30.299  27.464  1.00  0.00     0.016 A 
ATOM     34  C   UNL A   1      37.366  29.218  30.006  1.00  0.00     0.010 A 
ATOM     35  C   UNL A   1      38.064  29.624  27.721  1.00  0.00     0.010 A 
ATOM     36  C   UNL A   1      38.335  29.105  29.000  1.00  0.00    -0.014 A 
BRANCH  36  37
ATOM     37  C   UNL A   1      39.701  28.616  29.318  1.00  0.00     0.031 A 
ATOM     38  C   UNL A   1      40.627  29.524  30.082  1.00  0.00     0.074 A 
ATOM     39  C   UNL A   1      40.127  27.399  28.933  1.00  0.00     0.049 A 
ATOM     40  N   UNL A   1      41.887  29.358  30.393  1.00  0.00    -0.248 NA
ATOM     41  C   UNL A   1      40.051  30.793  30.556  1.00  0.00     0.031 C 
ATOM     42  C   UNL A   1      39.324  26.400  28.234  1.00  0.00     0.029 A 
ATOM     43  N   UNL A   1      41.359  26.807  29.072  1.00  0.00    -0.354 N 
ATOM     44  C   UNL A   1      42.257  30.505  31.086  1.00  0.00     0.074 A 
ATOM     45  C   UNL A   1      41.098  31.370  31.124  1.00  0.00     0.031 C 
ATOM     46  C   UNL A   1      40.090  25.320  27.992  1.00  0.00     0.029 A 
ATOM     47  C   UNL A   1      41.445  25.569  28.482  1.00  0.00     0.049 A 
ATOM     48  H   UNL A   1      42.110  27.230  29.548  1.00  0.00     0.167 HD
ATOM     49  C   UNL A   1      43.452  30.813  31.644  1.00  0.00     0.031 A 
ATOM     50  C   UNL A   1      42.501  24.746  28.329  1.00  0.00     0.031 A 
ATOM     51  C   UNL A   1      44.615  29.966  31.590  1.00  0.00     0.049 A 
ATOM     52  C   UNL A   1      43.848  25.153  28.873  1.00  0.00     0.074 A 
ATOM     53  C   UNL A   1      45.868  30.190  32.131  1.00  0.00     0.029 A 
ATOM     54  N   UNL A   1      44.668  28.739  30.949  1.00  0.00    -0.354 N 
ATOM     55  N   UNL A   1      44.182  26.230  29.540  1.00  0.00    -0.248 NA
ATOM     56  C   UNL A   1      44.963  24.220  28.645  1.00  0.00     0.031 C 
ATOM     57  C   UNL A   1      46.699  29.127  31.763  1.00  0.00     0.029 A 
ATOM     58  C   UNL A   1      45.942  28.207  31.055  1.00  0.00     0.049 A 
ATOM     59  H   UNL A   1      43.913  28.310  30.485  1.00  0.00     0.167 HD
ATOM     60  C   UNL A   1      45.533  26.090  29.839  1.00  0.00     0.074 A 
ATOM     61  C   UNL A   1      45.953  24.816  29.294  1.00  0.00     0.031 C 
ATOM     62  C   UNL A   1      46.351  26.938  30.511  1.00  0.00     0.031 A 
BRANCH  49  63
ATOM     63  C   UNL A   1      43.570  32.145  32.330  1.00  0.00    -0.014 A 
ATOM     64  C   UNL A   1      43.278  32.293  33.696  1.00  0.00     0.009 A 
ATOM     65  C   UNL A   1      44.007  33.265  31.606  1.00  0.00     0.009 A 
ATOM     66  C   UNL A   1      43.386  33.543  34.310  1.00  0.00     0.001 A 
ATOM     67  C   UNL A   1      44.145  34.506  32.229  1.00  0.00     0.001 A 
ATOM     68  C   UNL A   1      43.824  34.646  33.578  1.00  0.00     0.000 A 
ENDBRANCH  49  63
BRANCH  50  69
ATOM     69  C   UNL A   1      42.345  23.455  27.605  1.00  0.00    -0.014 A 
ATOM     70  C   UNL A   1      42.610  23.368  26.229  1.00  0.00     0.009 A 
ATOM     71  C   UNL A   1      41.899  22.308  28.281  1.00  0.00     0.009 A 
ATOM     72  C   UNL A   1      42.406  22.169  25.542  1.00  0.00     0.001 A 
ATOM     73  C   UNL A   1      41.729  21.102  27.598  1.00  0.00     0.001 A 
ATOM     74  C   UNL A   1      41.973  21.036  26.228  1.00  0.00     0.000 A 
ENDBRANCH  50  69
BRANCH  62  75
ATOM     75  C   UNL A   1      47.773  26.501  30.738  1.00  0.00    -0.014 A 
ATOM     76  C   UNL A   1      48.151  25.789  31.887  1.00  0.00     0.009 A 
ATOM     77  C   UNL A   1      48.743  26.764  29.757  1.00  0.00     0.009 A 
ATOM     78  C   UNL A   1      49.476  25.384  32.065  1.00  0.00     0.001 A 
ATOM     79  C   UNL A   1      50.059  26.330  29.921  1.00  0.00     0.001 A 
ATOM     80  C   UNL A   1      50.427  25.649  31.079  1.00  0.00     0.000 A 
ENDBRANCH  62  75
ENDBRANCH  36  37
ENDBRANCH  29  31
ENDBRANCH  28  29
ENDBRANCH  27  28
ENDBRANCH  26  27
ENDBRANCH  25  26
ENDBRANCH  24  25
ENDBRANCH   1  24
TORSDOF 20
ENDMDL
MODEL 2
REMARK VINA RESULT:      -8.6      2.009      4.081
REMARK SMILES CCc1cccc(-c2ccc([C@@H](C)C(=O)OCCOCCOCCOC(=O)c3ccc(-c4c5nc(c(-c6ccccc6)c6ccc([nH]6)c(-c6ccccc6)c6nc(c(-c7ccccc7)c7ccc4[nH]7)C=C6)C=C5)cc3)cc2)c1
REMARK SMILES IDX 20 1 19 2 18 3 17 4 16 5 14 6 15 7 12 8 13 9 11 10 8 11 9 12
REMARK SMILES IDX 77 13 10 14 76 15 7 16 3 17 4 18 78 19 5 20 6 21 2 22 1 23
REMARK SMILES IDX 21 24 22 25 23 26 24 27 25 28 26 29 27 30 28 31 29 32 75 33
REMARK SMILES IDX 30 34 74 35 31 36 32 37 33 38 68 39 34 40 73 41 67 42 69 43
REMARK SMILES IDX 35 44 72 45 66 46 65 47 36 49 58 50 43 51 57 52 44 53 47 54
REMARK SMILES IDX 56 55 70 56 45 57 46 58 55 60 71 61 48 62 37 63 38 64 42 65
REMARK SMILES IDX 39 66 41 67 40 68 59 69 60 70 64 71 61 72 63 73 62 74 49 75
REMARK SMILES IDX 50 76 54 77 51 78 53 79 52 80
REMARK H PARENT 69 48 47 59
REMARK Flexibility Score: inf
ROOT
ATOM      1  C   UNL A   1      33.576  35.581  30.765  1.00  0.00     0.188 C 
ENDROOT
BRANCH   1   2
ATOM      2  O   UNL A   1      33.417  34.456  31.623  1.00  0.00    -0.376 OA
BRANCH   2   3
ATOM      3  C   UNL A   1      34.544  33.637  31.913  1.00  0.00     0.202 C 
BRANCH   3   4
ATOM      4  C   UNL A   1      35.916  34.312  32.063  1.00  0.00     0.261 C 
BRANCH   4   5
ATOM      5  O   UNL A   1      37.014  33.437  32.409  1.00  0.00    -0.463 OA
BRANCH   5   6
ATOM      6  C   UNL A   1      37.653  33.695  33.579  1.00  0.00     0.313 C 
ATOM      7  O   UNL A   1      38.041  34.818  33.897  1.00  0.00    -0.252 OA
BRANCH   6   8
ATOM      8  C   UNL A   1      37.860  32.506  34.524  1.00  0.00     0.126 C 
ATOM      9  C   UNL A   1      37.657  32.984  35.961  1.00  0.00     0.025 C 
BRANCH   8  10
ATOM     10  C   UNL A   1      39.097  31.614  34.428  1.00  0.00    -0.034 A 
ATOM     11  C   UNL A   1      41.480  30.022  34.312  1.00  0.00    -0.018 A 
ATOM     12  C   UNL A   1      40.258  29.565  33.789  1.00  0.00     0.009 A 
ATOM     13  C   UNL A   1      41.492  31.298  34.887  1.00  0.00     0.009 A 
ATOM     14  C   UNL A   1      39.088  30.346  33.834  1.00  0.00     0.005 A 
ATOM     15  C   UNL A   1      40.327  32.082  34.937  1.00  0.00     0.005 A 
BRANCH  11  16
ATOM     16  C   UNL A   1      42.714  29.212  34.201  1.00  0.00    -0.018 A 
ATOM     17  C   UNL A   1      43.951  27.248  33.377  1.00  0.00    -0.048 A 
ATOM     18  C   UNL A   1      45.091  27.697  34.057  1.00  0.00     0.004 A 
ATOM     19  C   UNL A   1      42.767  28.010  33.464  1.00  0.00     0.012 A 
ATOM     20  C   UNL A   1      45.060  28.878  34.793  1.00  0.00     0.001 A 
ATOM     21  C   UNL A   1      43.882  29.624  34.863  1.00  0.00     0.009 A 
BRANCH  17  22
ATOM     22  C   UNL A   1      44.018  25.926  32.643  1.00  0.00     0.032 C 
ATOM     23  C   UNL A   1      45.070  24.951  33.153  1.00  0.00     0.009 C 
ENDBRANCH  17  22
ENDBRANCH  11  16
ENDBRANCH   8  10
ENDBRANCH   6   8
ENDBRANCH   5   6
ENDBRANCH   4   5
ENDBRANCH   3   4
ENDBRANCH   2   3
ENDBRANCH   1   2
BRANCH   1  24
ATOM     24  C   UNL A   1      33.718  35.363  29.253  1.00  0.00     0.188 C 
BRANCH  24  25
ATOM     25  O   UNL A   1      32.645  34.660  28.667  1.00  0.00    -0.376 OA
BRANCH  25  26
ATOM     26  C   UNL A   1      32.973  33.527  27.890  1.00  0.00     0.202 C 
BRANCH  26  27
ATOM     27  C   UNL A   1      34.373  32.956  28.149  1.00  0.00     0.261 C 
BRANCH  27  28
ATOM     28  O   UNL A   1      34.428  31.774  28.970  1.00  0.00    -0.460 OA
BRANCH  28  29
ATOM     29  C   UNL A   1      34.742  30.609  28.356  1.00  0.00     0.338 C 
ATOM     30  O   UNL A   1      34.079  30.007  27.537  1.00  0.00    -0.246 OA
BRANCH  29  31
ATOM     31  C   UNL A   1      36.150  30.286  28.697  1.00  0.00     0.060 A 
ATOM     32  C   UNL A   1      37.167  30.600  27.784  1.00  0.00     0.016 A 
ATOM     33  C   UNL A   1      36.462  29.677  29.913  1.00  0.00     0.016 A 
ATOM     34  C   UNL A   1      38.496  30.280  28.074  1.00  0.00     0.010 A 
ATOM     35  C   UNL A   1      37.790  29.338  30.193  1.00  0.00     0.010 A 
ATOM     36  C   UNL A   1      38.811  29.609  29.264  1.00  0.00    -0.014 A 
BRANCH  36  37
ATOM     37  C   UNL A   1      40.161  29.024  29.467  1.00  0.00     0.031 A 
ATOM     38  C   UNL A   1      41.221  29.877  30.109  1.00  0.00     0.074 A 
ATOM     39  C   UNL A   1      40.455  27.768  29.085  1.00  0.00     0.049 A 
ATOM     40  N   UNL A   1      42.490  29.622  30.304  1.00  0.00    -0.248 NA
ATOM     41  C   UNL A   1      40.791  31.199  30.592  1.00  0.00     0.031 C 
ATOM     42  C   UNL A   1      39.515  26.816  28.499  1.00  0.00     0.029 A 
ATOM     43  N   UNL A   1      41.647  27.086  29.126  1.00  0.00    -0.354 N 
ATOM     44  C   UNL A   1      43.010  30.754  30.919  1.00  0.00     0.074 A 
ATOM     45  C   UNL A   1      41.928  31.708  31.038  1.00  0.00     0.031 C 
ATOM     46  C   UNL A   1      40.171  25.673  28.222  1.00  0.00     0.029 A 
ATOM     47  C   UNL A   1      41.582  25.830  28.573  1.00  0.00     0.049 A 
ATOM     48  H   UNL A   1      42.470  27.461  29.514  1.00  0.00     0.167 HD
ATOM     49  C   UNL A   1      44.274  30.983  31.351  1.00  0.00     0.031 A 
ATOM     50  C   UNL A   1      42.554  24.923  28.348  1.00  0.00     0.031 A 
ATOM     51  C   UNL A   1      45.359  30.048  31.216  1.00  0.00     0.049 A 
ATOM     52  C   UNL A   1      43.974  25.238  28.747  1.00  0.00     0.074 A 
ATOM     53  C   UNL A   1      46.672  30.188  31.628  1.00  0.00     0.029 A 
ATOM     54  N   UNL A   1      45.258  28.804  30.614  1.00  0.00    -0.354 N 
ATOM     55  N   UNL A   1      44.451  26.303  29.343  1.00  0.00    -0.248 NA
ATOM     56  C   UNL A   1      44.988  24.216  28.446  1.00  0.00     0.031 C 
ATOM     57  C   UNL A   1      47.381  29.054  31.218  1.00  0.00     0.029 A 
ATOM     58  C   UNL A   1      46.492  28.177  30.617  1.00  0.00     0.049 A 
ATOM     59  H   UNL A   1      44.431  28.422  30.239  1.00  0.00     0.167 HD
ATOM     60  C   UNL A   1      45.810  26.067  29.517  1.00  0.00     0.074 A 
ATOM     61  C   UNL A   1      46.079  24.750  28.978  1.00  0.00     0.031 C 
ATOM     62  C   UNL A   1      46.751  26.866  30.080  1.00  0.00     0.031 A 
BRANCH  49  63
ATOM     63  C   UNL A   1      44.557  32.320  31.977  1.00  0.00    -0.014 A 
ATOM     64  C   UNL A   1      44.460  32.513  33.365  1.00  0.00     0.009 A 
ATOM     65  C   UNL A   1      44.954  33.397  31.170  1.00  0.00     0.009 A 
ATOM     66  C   UNL A   1      44.720  33.767  33.925  1.00  0.00     0.001 A 
ATOM     67  C   UNL A   1      45.243  34.640  31.734  1.00  0.00     0.001 A 
ATOM     68  C   UNL A   1      45.115  34.826  33.109  1.00  0.00     0.000 A 
ENDBRANCH  49  63
BRANCH  50  69
ATOM     69  C   UNL A   1      42.232  23.630  27.686  1.00  0.00    -0.014 A 
ATOM     70  C   UNL A   1      41.849  22.512  28.443  1.00  0.00     0.009 A 
ATOM     71  C   UNL A   1      42.337  23.498  26.292  1.00  0.00     0.009 A 
ATOM     72  C   UNL A   1      41.604  21.284  27.823  1.00  0.00     0.001 A 
ATOM     73  C   UNL A   1      42.059  22.277  25.671  1.00  0.00     0.001 A 
ATOM     74  C   UNL A   1      41.702  21.170  26.438  1.00  0.00     0.000 A 
ENDBRANCH  50  69
BRANCH  62  75
ATOM     75  C   UNL A   1      48.152  26.326  30.186  1.00  0.00    -0.014 A 
ATOM     76  C   UNL A   1      49.066  26.436  29.126  1.00  0.00     0.009 A 
ATOM     77  C   UNL A   1      48.578  25.739  31.389  1.00  0.00     0.009 A 
ATOM     78  C   UNL A   1      50.365  25.937  29.258  1.00  0.00     0.001 A 
ATOM     79  C   UNL A   1      49.885  25.272  31.529  1.00  0.00     0.001 A 
ATOM     80  C   UNL A   1      50.774  25.361  30.461  1.00  0.00     0.000 A 
ENDBRANCH  62  75
ENDBRANCH  36  37
ENDBRANCH  29  31
ENDBRANCH  28  29
ENDBRANCH  27  28
ENDBRANCH  26  27
ENDBRANCH  25  26
ENDBRANCH  24  25
ENDBRANCH   1  24
TORSDOF 20
ENDMDL
MODEL 3
REMARK VINA RESULT:      -8.5      4.954      9.700
REMARK SMILES CCc1cccc(-c2ccc([C@@H](C)C(=O)OCCOCCOCCOC(=O)c3ccc(-c4c5nc(c(-c6ccccc6)c6ccc([nH]6)c(-c6ccccc6)c6nc(c(-c7ccccc7)c7ccc4[nH]7)C=C6)C=C5)cc3)cc2)c1
REMARK SMILES IDX 20 1 19 2 18 3 17 4 16 5 14 6 15 7 12 8 13 9 11 10 8 11 9 12
REMARK SMILES IDX 77 13 10 14 76 15 7 16 3 17 4 18 78 19 5 20 6 21 2 22 1 23
REMARK SMILES IDX 21 24 22 25 23 26 24 27 25 28 26 29 27 30 28 31 29 32 75 33
REMARK SMILES IDX 30 34 74 35 31 36 32 37 33 38 68 39 34 40 73 41 67 42 69 43
REMARK SMILES IDX 35 44 72 45 66 46 65 47 36 49 58 50 43 51 57 52 44 53 47 54
REMARK SMILES IDX 56 55 70 56 45 57 46 58 55 60 71 61 48 62 37 63 38 64 42 65
REMARK SMILES IDX 39 66 41 67 40 68 59 69 60 70 64 71 61 72 63 73 62 74 49 75
REMARK SMILES IDX 50 76 54 77 51 78 53 79 52 80
REMARK H PARENT 69 48 47 59
REMARK Flexibility Score: inf
ROOT
ATOM      1  C   UNL A   1      33.372  31.844  27.515  1.00  0.00     0.188 C 
ENDROOT
BRANCH   1   2
ATOM      2  O   UNL A   1      33.025  30.464  27.508  1.00  0.00    -0.376 OA
BRANCH   2   3
ATOM      3  C   UNL A   1      31.985  30.011  26.648  1.00  0.00     0.202 C 
BRANCH   3   4
ATOM      4  C   UNL A   1      32.336  29.701  25.184  1.00  0.00     0.261 C 
BRANCH   4   5
ATOM      5  O   UNL A   1      31.253  29.190  24.373  1.00  0.00    -0.463 OA
BRANCH   5   6
ATOM      6  C   UNL A   1      31.601  28.531  23.239  1.00  0.00     0.313 C 
ATOM      7  O   UNL A   1      32.479  28.928  22.474  1.00  0.00    -0.252 OA
BRANCH   6   8
ATOM      8  C   UNL A   1      30.853  27.224  22.949  1.00  0.00     0.126 C 
ATOM      9  C   UNL A   1      29.433  27.343  23.500  1.00  0.00     0.025 C 
BRANCH   8  10
ATOM     10  C   UNL A   1      31.451  25.863  23.304  1.00  0.00    -0.034 A 
ATOM     11  C   UNL A   1      32.661  23.330  23.891  1.00  0.00    -0.018 A 
ATOM     12  C   UNL A   1      31.530  23.790  24.588  1.00  0.00     0.009 A 
ATOM     13  C   UNL A   1      33.172  24.159  22.885  1.00  0.00     0.009 A 
ATOM     14  C   UNL A   1      30.926  25.028  24.296  1.00  0.00     0.005 A 
ATOM     15  C   UNL A   1      32.575  25.396  22.591  1.00  0.00     0.005 A 
BRANCH  11  16
ATOM     16  C   UNL A   1      33.245  21.999  24.169  1.00  0.00    -0.018 A 
ATOM     17  C   UNL A   1      33.102  19.541  24.246  1.00  0.00    -0.048 A 
ATOM     18  C   UNL A   1      34.408  19.494  24.753  1.00  0.00     0.004 A 
ATOM     19  C   UNL A   1      32.529  20.800  23.967  1.00  0.00     0.012 A 
ATOM     20  C   UNL A   1      35.130  20.665  24.964  1.00  0.00     0.001 A 
ATOM     21  C   UNL A   1      34.552  21.902  24.676  1.00  0.00     0.009 A 
BRANCH  17  22
ATOM     22  C   UNL A   1      32.335  18.245  24.094  1.00  0.00     0.032 C 
ATOM     23  C   UNL A   1      32.604  17.201  25.168  1.00  0.00     0.009 C 
ENDBRANCH  17  22
ENDBRANCH  11  16
ENDBRANCH   8  10
ENDBRANCH   6   8
ENDBRANCH   5   6
ENDBRANCH   4   5
ENDBRANCH   3   4
ENDBRANCH   2   3
ENDBRANCH   1   2
BRANCH   1  24
ATOM     24  C   UNL A   1      34.570  32.317  28.350  1.00  0.00     0.188 C 
BRANCH  24  25
ATOM     25  O   UNL A   1      34.298  33.431  29.171  1.00  0.00    -0.376 OA
BRANCH  25  26
ATOM     26  C   UNL A   1      33.355  34.364  28.688  1.00  0.00     0.202 C 
BRANCH  26  27
ATOM     27  C   UNL A   1      33.080  35.544  29.628  1.00  0.00     0.261 C 
BRANCH  27  28
ATOM     28  O   UNL A   1      32.301  35.243  30.803  1.00  0.00    -0.460 OA
BRANCH  28  29
ATOM     29  C   UNL A   1      32.684  35.827  31.964  1.00  0.00     0.338 C 
ATOM     30  O   UNL A   1      32.098  36.694  32.578  1.00  0.00    -0.246 OA
BRANCH  29  31
ATOM     31  C   UNL A   1      33.853  35.073  32.482  1.00  0.00     0.060 A 
ATOM     32  C   UNL A   1      35.126  35.658  32.424  1.00  0.00     0.016 A 
ATOM     33  C   UNL A   1      33.690  33.796  33.021  1.00  0.00     0.016 A 
ATOM     34  C   UNL A   1      36.244  34.954  32.881  1.00  0.00     0.010 A 
ATOM     35  C   UNL A   1      34.812  33.085  33.458  1.00  0.00     0.010 A 
ATOM     36  C   UNL A   1      36.099  33.647  33.363  1.00  0.00    -0.014 A 
BRANCH  36  37
ATOM     37  C   UNL A   1      37.290  32.791  33.597  1.00  0.00     0.031 A 
ATOM     38  C   UNL A   1      38.083  32.998  34.860  1.00  0.00     0.074 A 
ATOM     39  C   UNL A   1      37.678  31.855  32.712  1.00  0.00     0.049 A 
ATOM     40  N   UNL A   1      39.206  32.442  35.239  1.00  0.00    -0.248 NA
ATOM     41  C   UNL A   1      37.535  33.967  35.823  1.00  0.00     0.031 C 
ATOM     42  C   UNL A   1      36.977  31.513  31.477  1.00  0.00     0.029 A 
ATOM     43  N   UNL A   1      38.774  31.027  32.721  1.00  0.00    -0.354 N 
ATOM     44  C   UNL A   1      39.504  33.003  36.475  1.00  0.00     0.074 A 
ATOM     45  C   UNL A   1      38.461  33.962  36.768  1.00  0.00     0.031 C 
ATOM     46  C   UNL A   1      37.671  30.553  30.837  1.00  0.00     0.029 A 
ATOM     47  C   UNL A   1      38.881  30.244  31.597  1.00  0.00     0.049 A 
ATOM     48  H   UNL A   1      39.422  30.998  33.461  1.00  0.00     0.167 HD
ATOM     49  C   UNL A   1      40.549  32.744  37.297  1.00  0.00     0.031 A 
ATOM     50  C   UNL A   1      39.857  29.397  31.213  1.00  0.00     0.031 A 
ATOM     51  C   UNL A   1      41.601  31.807  37.001  1.00  0.00     0.049 A 
ATOM     52  C   UNL A   1      41.062  29.197  32.098  1.00  0.00     0.074 A 
ATOM     53  C   UNL A   1      42.698  31.473  37.774  1.00  0.00     0.029 A 
ATOM     54  N   UNL A   1      41.691  31.065  35.834  1.00  0.00    -0.354 N 
ATOM     55  N   UNL A   1      41.325  29.718  33.271  1.00  0.00    -0.248 NA
ATOM     56  C   UNL A   1      42.102  28.281  31.603  1.00  0.00     0.031 C 
ATOM     57  C   UNL A   1      43.486  30.574  37.047  1.00  0.00     0.029 A 
ATOM     58  C   UNL A   1      42.841  30.294  35.854  1.00  0.00     0.049 A 
ATOM     59  H   UNL A   1      41.035  31.083  35.101  1.00  0.00     0.167 HD
ATOM     60  C   UNL A   1      42.540  29.171  33.668  1.00  0.00     0.074 A 
ATOM     61  C   UNL A   1      42.955  28.266  32.618  1.00  0.00     0.031 C 
ATOM     62  C   UNL A   1      43.246  29.395  34.805  1.00  0.00     0.031 A 
BRANCH  49  63
ATOM     63  C   UNL A   1      40.623  33.518  38.583  1.00  0.00    -0.014 A 
ATOM     64  C   UNL A   1      41.378  34.698  38.684  1.00  0.00     0.009 A 
ATOM     65  C   UNL A   1      39.903  33.077  39.704  1.00  0.00     0.009 A 
ATOM     66  C   UNL A   1      41.440  35.397  39.893  1.00  0.00     0.001 A 
ATOM     67  C   UNL A   1      39.941  33.793  40.901  1.00  0.00     0.001 A 
ATOM     68  C   UNL A   1      40.717  34.946  40.997  1.00  0.00     0.000 A 
ENDBRANCH  49  63
BRANCH  50  69
ATOM     69  C   UNL A   1      39.759  28.685  29.910  1.00  0.00    -0.014 A 
ATOM     70  C   UNL A   1      39.286  27.365  29.848  1.00  0.00     0.009 A 
ATOM     71  C   UNL A   1      40.169  29.312  28.722  1.00  0.00     0.009 A 
ATOM     72  C   UNL A   1      39.250  26.680  28.630  1.00  0.00     0.001 A 
ATOM     73  C   UNL A   1      40.101  28.636  27.501  1.00  0.00     0.001 A 
ATOM     74  C   UNL A   1      39.651  27.318  27.458  1.00  0.00     0.000 A 
ENDBRANCH  50  69
BRANCH  62  75
ATOM     75  C   UNL A   1      44.519  28.615  34.998  1.00  0.00    -0.014 A 
ATOM     76  C   UNL A   1      44.522  27.347  35.600  1.00  0.00     0.009 A 
ATOM     77  C   UNL A   1      45.732  29.142  34.524  1.00  0.00     0.009 A 
ATOM     78  C   UNL A   1      45.718  26.641  35.754  1.00  0.00     0.001 A 
ATOM     79  C   UNL A   1      46.919  28.420  34.649  1.00  0.00     0.001 A 
ATOM     80  C   UNL A   1      46.913  27.175  35.274  1.00  0.00     0.000 A 
ENDBRANCH  62  75
ENDBRANCH  36  37
ENDBRANCH  29  31
ENDBRANCH  28  29
ENDBRANCH  27  28
ENDBRANCH  26  27
ENDBRANCH  25  26
ENDBRANCH  24  25
ENDBRANCH   1  24
TORSDOF 20
ENDMDL
