MODEL 1
REMARK VINA RESULT:     -12.0      0.000      0.000
REMARK SMILES Cc1ccc(Nc2c(Cl)cc(Cl)cc2Cl)c(CC(=O)OCCOCCOCCOC(=O)c2ccc(-c3c4nc(c(-c5ccccc5)c5ccc([nH]5)c(-c5ccccc5)c5nc(c(-c6ccccc6)c6ccc3[nH]6)C=C5)C=C4)cc2)c1
REMARK SMILES IDX 24 1 23 2 22 3 21 4 20 5 18 6 19 7 17 8 16 9 1 10 2 11 3 12
REMARK SMILES IDX 80 13 4 14 5 15 6 16 7 18 8 19 14 20 9 21 10 22 13 23 15 24
REMARK SMILES IDX 11 25 12 26 25 27 26 28 27 29 28 30 29 31 30 32 31 33 32 34
REMARK SMILES IDX 33 35 79 36 34 37 78 38 35 39 36 40 37 41 72 42 38 43 77 44
REMARK SMILES IDX 71 45 73 46 39 47 76 48 70 49 69 50 40 52 62 53 47 54 61 55
REMARK SMILES IDX 48 56 51 57 60 58 74 59 49 60 50 61 59 63 75 64 52 65 41 66
REMARK SMILES IDX 42 67 46 68 43 69 45 70 44 71 63 72 64 73 68 74 65 75 67 76
REMARK SMILES IDX 66 77 53 78 54 79 58 80 55 81 57 82 56 83
REMARK H PARENT 6 17 73 51 51 62
REMARK Flexibility Score: inf
ROOT
ATOM      1  C   UNL A   1      35.528  31.698  30.113  1.00  0.00     0.188 C 
ENDROOT
BRANCH   1   2
ATOM      2  O   UNL A   1      34.532  32.274  29.310  1.00  0.00    -0.376 OA
BRANCH   2   3
ATOM      3  C   UNL A   1      34.343  31.843  27.976  1.00  0.00     0.202 C 
BRANCH   3   4
ATOM      4  C   UNL A   1      33.749  30.492  27.264  1.00  0.00     0.261 C 
BRANCH   4   5
ATOM      5  O   UNL A   1      33.113  29.920  25.638  1.00  0.00    -0.463 OA
BRANCH   5   6
ATOM      6  C   UNL A   1      32.838  28.581  24.683  1.00  0.00     0.310 C 
ATOM      7  O   UNL A   1      32.958  27.356  24.853  1.00  0.00    -0.252 OA
BRANCH   6   8
ATOM      8  C   UNL A   1      32.025  28.856  23.550  1.00  0.00     0.160 C 
BRANCH   8   9
ATOM      9  C   UNL A   1      30.666  28.676  24.093  1.00  0.00    -0.013 A 
ATOM     10  C   UNL A   1      28.706  31.944  23.424  1.00  0.00     0.044 C 
ATOM     11  C   UNL A   1      29.045  30.492  23.486  1.00  0.00    -0.051 A 
ATOM     12  C   UNL A   1      28.318  29.519  22.862  1.00  0.00     0.005 A 
ATOM     13  C   UNL A   1      30.202  30.070  24.094  1.00  0.00     0.009 A 
ATOM     14  C   UNL A   1      28.751  28.168  22.926  1.00  0.00     0.026 A 
ATOM     15  C   UNL A   1      29.923  27.500  23.817  1.00  0.00     0.042 A 
BRANCH  15  16
ATOM     16  N   UNL A   1      29.857  25.570  24.479  1.00  0.00    -0.353 N 
ATOM     17  H   UNL A   1      28.968  25.293  24.799  1.00  0.00     0.167 HD
BRANCH  16  18
ATOM     18  C   UNL A   1      31.133  24.243  24.593  1.00  0.00     0.076 A 
ATOM     19  C   UNL A   1      32.195  23.867  23.488  1.00  0.00     0.067 A 
ATOM     20  C   UNL A   1      30.945  23.155  25.495  1.00  0.00     0.067 A 
ATOM     21  Cl  UNL A   1      32.946  24.721  22.097  1.00  0.00    -0.082 Cl
ATOM     22  C   UNL A   1      32.755  22.576  23.353  1.00  0.00     0.043 A 
ATOM     23  C   UNL A   1      31.571  21.874  25.279  1.00  0.00     0.043 A 
ATOM     24  Cl  UNL A   1      30.070  23.101  26.943  1.00  0.00    -0.082 Cl
ATOM     25  C   UNL A   1      32.398  21.576  24.207  1.00  0.00     0.044 A 
ATOM     26  Cl  UNL A   1      32.904  19.967  23.874  1.00  0.00    -0.084 Cl
ENDBRANCH  16  18
ENDBRANCH  15  16
ENDBRANCH   8   9
ENDBRANCH   6   8
ENDBRANCH   5   6
ENDBRANCH   4   5
ENDBRANCH   3   4
ENDBRANCH   2   3
ENDBRANCH   1   2
BRANCH   1  27
ATOM     27  C   UNL A   1      36.039  32.501  31.285  1.00  0.00     0.188 C 
BRANCH  27  28
ATOM     28  O   UNL A   1      35.222  32.430  32.427  1.00  0.00    -0.376 OA
BRANCH  28  29
ATOM     29  C   UNL A   1      35.189  33.627  33.186  1.00  0.00     0.202 C 
BRANCH  29  30
ATOM     30  C   UNL A   1      36.550  34.383  33.464  1.00  0.00     0.261 C 
BRANCH  30  31
ATOM     31  O   UNL A   1      37.144  34.170  34.807  1.00  0.00    -0.460 OA
BRANCH  31  32
ATOM     32  C   UNL A   1      37.781  32.977  35.226  1.00  0.00     0.338 C 
ATOM     33  O   UNL A   1      37.167  31.938  35.072  1.00  0.00    -0.246 OA
BRANCH  32  34
ATOM     34  C   UNL A   1      39.353  33.218  35.938  1.00  0.00     0.060 A 
ATOM     35  C   UNL A   1      40.351  34.575  36.971  1.00  0.00     0.016 A 
ATOM     36  C   UNL A   1      39.892  33.123  34.221  1.00  0.00     0.016 A 
ATOM     37  C   UNL A   1      41.485  35.778  36.026  1.00  0.00     0.010 A 
ATOM     38  C   UNL A   1      40.877  34.343  33.489  1.00  0.00     0.010 A 
ATOM     39  C   UNL A   1      41.732  35.735  34.211  1.00  0.00    -0.014 A 
BRANCH  39  40
ATOM     40  C   UNL A   1      42.918  36.559  32.958  1.00  0.00     0.031 A 
ATOM     41  C   UNL A   1      43.359  38.439  32.861  1.00  0.00     0.074 A 
ATOM     42  C   UNL A   1      43.814  35.873  32.208  1.00  0.00     0.049 A 
ATOM     43  N   UNL A   1      43.035  39.316  31.922  1.00  0.00    -0.248 NA
ATOM     44  C   UNL A   1      43.648  39.505  34.155  1.00  0.00     0.031 C 
ATOM     45  C   UNL A   1      45.033  36.377  31.543  1.00  0.00     0.029 A 
ATOM     46  N   UNL A   1      43.907  34.512  31.963  1.00  0.00    -0.354 N 
ATOM     47  C   UNL A   1      43.276  40.634  32.439  1.00  0.00     0.074 A 
ATOM     48  C   UNL A   1      43.037  40.622  33.822  1.00  0.00     0.031 C 
ATOM     49  C   UNL A   1      45.503  35.436  30.695  1.00  0.00     0.029 A 
ATOM     50  C   UNL A   1      44.551  34.339  30.726  1.00  0.00     0.049 A 
ATOM     51  H   UNL A   1      43.580  33.794  32.552  1.00  0.00     0.167 HD
ATOM     52  C   UNL A   1      44.276  41.444  31.961  1.00  0.00     0.031 A 
ATOM     53  C   UNL A   1      43.755  33.900  29.717  1.00  0.00     0.031 A 
ATOM     54  C   UNL A   1      44.946  40.700  30.921  1.00  0.00     0.049 A 
ATOM     55  C   UNL A   1      43.449  35.105  28.851  1.00  0.00     0.074 A 
ATOM     56  C   UNL A   1      46.117  39.969  30.868  1.00  0.00     0.029 A 
ATOM     57  N   UNL A   1      44.122  40.189  29.940  1.00  0.00    -0.354 N 
ATOM     58  N   UNL A   1      43.499  36.349  29.270  1.00  0.00    -0.248 NA
ATOM     59  C   UNL A   1      43.306  35.010  27.406  1.00  0.00     0.031 C 
ATOM     60  C   UNL A   1      45.947  38.982  29.838  1.00  0.00     0.029 A 
ATOM     61  C   UNL A   1      44.669  39.098  29.310  1.00  0.00     0.049 A 
ATOM     62  H   UNL A   1      43.240  40.565  29.717  1.00  0.00     0.167 HD
ATOM     63  C   UNL A   1      43.577  37.186  28.199  1.00  0.00     0.074 A 
ATOM     64  C   UNL A   1      43.403  36.303  27.056  1.00  0.00     0.031 C 
ATOM     65  C   UNL A   1      43.874  38.520  28.234  1.00  0.00     0.031 A 
BRANCH  52  66
ATOM     66  C   UNL A   1      44.841  42.687  32.674  1.00  0.00    -0.014 A 
ATOM     67  C   UNL A   1      44.120  43.889  32.601  1.00  0.00     0.009 A 
ATOM     68  C   UNL A   1      46.019  42.751  33.464  1.00  0.00     0.009 A 
ATOM     69  C   UNL A   1      44.530  45.064  33.259  1.00  0.00     0.001 A 
ATOM     70  C   UNL A   1      46.464  43.935  34.088  1.00  0.00     0.001 A 
ATOM     71  C   UNL A   1      45.705  45.091  34.000  1.00  0.00     0.000 A 
ENDBRANCH  52  66
BRANCH  53  72
ATOM     72  C   UNL A   1      42.862  32.813  30.263  1.00  0.00    -0.014 A 
ATOM     73  C   UNL A   1      41.461  33.085  30.249  1.00  0.00     0.009 A 
ATOM     74  C   UNL A   1      43.257  31.466  30.282  1.00  0.00     0.009 A 
ATOM     75  C   UNL A   1      40.512  32.060  30.206  1.00  0.00     0.001 A 
ATOM     76  C   UNL A   1      42.297  30.440  30.255  1.00  0.00     0.001 A 
ATOM     77  C   UNL A   1      40.936  30.738  30.248  1.00  0.00     0.000 A 
ENDBRANCH  53  72
BRANCH  65  78
ATOM     78  C   UNL A   1      43.330  39.473  27.187  1.00  0.00    -0.014 A 
ATOM     79  C   UNL A   1      41.969  39.755  27.053  1.00  0.00     0.009 A 
ATOM     80  C   UNL A   1      44.212  40.268  26.415  1.00  0.00     0.009 A 
ATOM     81  C   UNL A   1      41.509  40.670  26.107  1.00  0.00     0.001 A 
ATOM     82  C   UNL A   1      43.765  41.277  25.571  1.00  0.00     0.001 A 
ATOM     83  C   UNL A   1      42.406  41.440  25.377  1.00  0.00     0.000 A 
ENDBRANCH  65  78
ENDBRANCH  39  40
ENDBRANCH  32  34
ENDBRANCH  31  32
ENDBRANCH  30  31
ENDBRANCH  29  30
ENDBRANCH  28  29
ENDBRANCH  27  28
ENDBRANCH   1  27
TORSDOF 20
ENDMDL
MODEL 2
REMARK VINA RESULT:     -11.2      6.902     14.371
REMARK SMILES Cc1ccc(Nc2c(Cl)cc(Cl)cc2Cl)c(CC(=O)OCCOCCOCCOC(=O)c2ccc(-c3c4nc(c(-c5ccccc5)c5ccc([nH]5)c(-c5ccccc5)c5nc(c(-c6ccccc6)c6ccc3[nH]6)C=C5)C=C4)cc2)c1
REMARK SMILES IDX 24 1 23 2 22 3 21 4 20 5 18 6 19 7 17 8 16 9 1 10 2 11 3 12
REMARK SMILES IDX 80 13 4 14 5 15 6 16 7 18 8 19 14 20 9 21 10 22 13 23 15 24
REMARK SMILES IDX 11 25 12 26 25 27 26 28 27 29 28 30 29 31 30 32 31 33 32 34
REMARK SMILES IDX 33 35 79 36 34 37 78 38 35 39 36 40 37 41 72 42 38 43 77 44
REMARK SMILES IDX 71 45 73 46 39 47 76 48 70 49 69 50 40 52 62 53 47 54 61 55
REMARK SMILES IDX 48 56 51 57 60 58 74 59 49 60 50 61 59 63 75 64 52 65 41 66
REMARK SMILES IDX 42 67 46 68 43 69 45 70 44 71 63 72 64 73 68 74 65 75 67 76
REMARK SMILES IDX 66 77 53 78 54 79 58 80 55 81 57 82 56 83
REMARK H PARENT 6 17 73 51 51 62
REMARK Flexibility Score: inf
ROOT
ATOM      1  C   UNL A   1      42.503  37.433  28.253  1.00  0.00     0.188 C 
ENDROOT
BRANCH   1   2
ATOM      2  O   UNL A   1      41.844  38.652  28.037  1.00  0.00    -0.376 OA
BRANCH   2   3
ATOM      3  C   UNL A   1      41.783  39.219  26.742  1.00  0.00     0.202 C 
BRANCH   3   4
ATOM      4  C   UNL A   1      42.285  40.623  26.063  1.00  0.00     0.261 C 
BRANCH   4   5
ATOM      5  O   UNL A   1      41.854  41.751  24.678  1.00  0.00    -0.463 OA
BRANCH   5   6
ATOM      6  C   UNL A   1      42.172  42.127  23.085  1.00  0.00     0.310 C 
ATOM      7  O   UNL A   1      42.015  41.531  22.007  1.00  0.00    -0.252 OA
BRANCH   6   8
ATOM      8  C   UNL A   1      42.390  43.515  22.868  1.00  0.00     0.160 C 
BRANCH   8   9
ATOM      9  C   UNL A   1      43.862  43.598  22.854  1.00  0.00    -0.013 A 
ATOM     10  C   UNL A   1      44.871  45.819  19.851  1.00  0.00     0.044 C 
ATOM     11  C   UNL A   1      44.803  45.268  21.237  1.00  0.00    -0.051 A 
ATOM     12  C   UNL A   1      45.338  45.896  22.325  1.00  0.00     0.005 A 
ATOM     13  C   UNL A   1      44.078  44.134  21.503  1.00  0.00     0.009 A 
ATOM     14  C   UNL A   1      45.172  45.327  23.615  1.00  0.00     0.026 A 
ATOM     15  C   UNL A   1      44.586  43.881  24.040  1.00  0.00     0.042 A 
BRANCH  15  16
ATOM     16  N   UNL A   1      45.200  42.876  25.707  1.00  0.00    -0.353 N 
ATOM     17  H   UNL A   1      44.914  43.298  26.550  1.00  0.00     0.167 HD
BRANCH  16  18
ATOM     18  C   UNL A   1      46.181  41.332  25.946  1.00  0.00     0.076 A 
ATOM     19  C   UNL A   1      46.799  40.430  24.809  1.00  0.00     0.067 A 
ATOM     20  C   UNL A   1      46.049  40.590  27.157  1.00  0.00     0.067 A 
ATOM     21  Cl  UNL A   1      47.278  40.685  23.097  1.00  0.00    -0.082 Cl
ATOM     22  C   UNL A   1      47.043  39.045  24.960  1.00  0.00     0.043 A 
ATOM     23  C   UNL A   1      46.335  39.178  27.215  1.00  0.00     0.043 A 
ATOM     24  Cl  UNL A   1      45.621  41.128  28.704  1.00  0.00    -0.082 Cl
ATOM     25  C   UNL A   1      46.756  38.418  26.135  1.00  0.00     0.044 A 
ATOM     26  Cl  UNL A   1      46.833  36.701  26.211  1.00  0.00    -0.084 Cl
ENDBRANCH  16  18
ENDBRANCH  15  16
ENDBRANCH   8   9
ENDBRANCH   6   8
ENDBRANCH   5   6
ENDBRANCH   4   5
ENDBRANCH   3   4
ENDBRANCH   2   3
ENDBRANCH   1   2
BRANCH   1  27
ATOM     27  C   UNL A   1      43.889  37.479  28.849  1.00  0.00     0.188 C 
BRANCH  27  28
ATOM     28  O   UNL A   1      43.948  38.089  30.114  1.00  0.00    -0.376 OA
BRANCH  28  29
ATOM     29  C   UNL A   1      45.110  37.760  30.858  1.00  0.00     0.202 C 
BRANCH  29  30
ATOM     30  C   UNL A   1      45.071  36.484  31.792  1.00  0.00     0.261 C 
BRANCH  30  31
ATOM     31  O   UNL A   1      45.984  36.514  32.963  1.00  0.00    -0.460 OA
BRANCH  31  32
ATOM     32  C   UNL A   1      45.582  36.800  34.290  1.00  0.00     0.338 C 
ATOM     33  O   UNL A   1      45.495  37.973  34.601  1.00  0.00    -0.246 OA
BRANCH  32  34
ATOM     34  C   UNL A   1      45.314  35.388  35.275  1.00  0.00     0.060 A 
ATOM     35  C   UNL A   1      45.723  33.454  35.288  1.00  0.00     0.016 A 
ATOM     36  C   UNL A   1      43.587  35.726  34.886  1.00  0.00     0.016 A 
ATOM     37  C   UNL A   1      44.410  32.248  34.623  1.00  0.00     0.010 A 
ATOM     38  C   UNL A   1      42.534  34.525  34.221  1.00  0.00     0.010 A 
ATOM     39  C   UNL A   1      42.769  32.769  33.995  1.00  0.00    -0.014 A 
BRANCH  39  40
ATOM     40  C   UNL A   1      41.141  31.900  33.496  1.00  0.00     0.031 A 
ATOM     41  C   UNL A   1      40.793  30.985  31.829  1.00  0.00     0.074 A 
ATOM     42  C   UNL A   1      40.168  31.562  34.377  1.00  0.00     0.049 A 
ATOM     43  N   UNL A   1      39.975  31.338  30.848  1.00  0.00    -0.248 NA
ATOM     44  C   UNL A   1      41.846  29.968  30.964  1.00  0.00     0.031 C 
ATOM     45  C   UNL A   1      39.098  30.556  34.223  1.00  0.00     0.029 A 
ATOM     46  N   UNL A   1      39.983  31.965  35.690  1.00  0.00    -0.354 N 
ATOM     47  C   UNL A   1      40.302  30.557  29.689  1.00  0.00     0.074 A 
ATOM     48  C   UNL A   1      41.682  30.297  29.700  1.00  0.00     0.031 C 
ATOM     49  C   UNL A   1      38.194  30.707  35.216  1.00  0.00     0.029 A 
ATOM     50  C   UNL A   1      38.612  31.868  35.982  1.00  0.00     0.049 A 
ATOM     51  H   UNL A   1      40.688  32.266  36.308  1.00  0.00     0.167 HD
ATOM     52  C   UNL A   1      39.465  29.591  29.188  1.00  0.00     0.031 A 
ATOM     53  C   UNL A   1      37.964  33.055  36.114  1.00  0.00     0.031 A 
ATOM     54  C   UNL A   1      38.302  29.572  30.042  1.00  0.00     0.049 A 
ATOM     55  C   UNL A   1      37.190  33.270  34.829  1.00  0.00     0.074 A 
ATOM     56  C   UNL A   1      37.891  28.762  31.083  1.00  0.00     0.029 A 
ATOM     57  N   UNL A   1      37.694  30.794  30.235  1.00  0.00    -0.354 N 
ATOM     58  N   UNL A   1      37.495  32.714  33.679  1.00  0.00    -0.248 NA
ATOM     59  C   UNL A   1      35.890  33.923  34.803  1.00  0.00     0.031 C 
ATOM     60  C   UNL A   1      37.039  29.559  31.922  1.00  0.00     0.029 A 
ATOM     61  C   UNL A   1      36.977  30.846  31.405  1.00  0.00     0.049 A 
ATOM     62  H   UNL A   1      37.766  31.546  29.604  1.00  0.00     0.167 HD
ATOM     63  C   UNL A   1      36.417  32.766  32.849  1.00  0.00     0.074 A 
ATOM     64  C   UNL A   1      35.455  33.575  33.580  1.00  0.00     0.031 C 
ATOM     65  C   UNL A   1      36.273  32.096  31.666  1.00  0.00     0.031 A 
BRANCH  52  66
ATOM     66  C   UNL A   1      39.870  28.475  28.207  1.00  0.00    -0.014 A 
ATOM     67  C   UNL A   1      40.596  28.822  27.056  1.00  0.00     0.009 A 
ATOM     68  C   UNL A   1      39.631  27.083  28.357  1.00  0.00     0.009 A 
ATOM     69  C   UNL A   1      41.051  27.869  26.127  1.00  0.00     0.001 A 
ATOM     70  C   UNL A   1      40.043  26.124  27.407  1.00  0.00     0.001 A 
ATOM     71  C   UNL A   1      40.772  26.519  26.298  1.00  0.00     0.000 A 
ENDBRANCH  52  66
BRANCH  53  72
ATOM     72  C   UNL A   1      38.844  33.984  36.913  1.00  0.00    -0.014 A 
ATOM     73  C   UNL A   1      39.451  35.052  36.189  1.00  0.00     0.009 A 
ATOM     74  C   UNL A   1      38.679  34.154  38.298  1.00  0.00     0.009 A 
ATOM     75  C   UNL A   1      39.828  36.245  36.813  1.00  0.00     0.001 A 
ATOM     76  C   UNL A   1      39.075  35.350  38.922  1.00  0.00     0.001 A 
ATOM     77  C   UNL A   1      39.672  36.373  38.188  1.00  0.00     0.000 A 
ENDBRANCH  53  72
BRANCH  65  78
ATOM     78  C   UNL A   1      35.426  32.660  30.542  1.00  0.00    -0.014 A 
ATOM     79  C   UNL A   1      35.308  34.029  30.295  1.00  0.00     0.009 A 
ATOM     80  C   UNL A   1      34.860  31.798  29.570  1.00  0.00     0.009 A 
ATOM     81  C   UNL A   1      34.554  34.509  29.225  1.00  0.00     0.001 A 
ATOM     82  C   UNL A   1      34.226  32.272  28.428  1.00  0.00     0.001 A 
ATOM     83  C   UNL A   1      34.025  33.633  28.286  1.00  0.00     0.000 A 
ENDBRANCH  65  78
ENDBRANCH  39  40
ENDBRANCH  32  34
ENDBRANCH  31  32
ENDBRANCH  30  31
ENDBRANCH  29  30
ENDBRANCH  28  29
ENDBRANCH  27  28
ENDBRANCH   1  27
TORSDOF 20
ENDMDL
MODEL 3
REMARK VINA RESULT:     -11.1      7.658     15.434
REMARK SMILES Cc1ccc(Nc2c(Cl)cc(Cl)cc2Cl)c(CC(=O)OCCOCCOCCOC(=O)c2ccc(-c3c4nc(c(-c5ccccc5)c5ccc([nH]5)c(-c5ccccc5)c5nc(c(-c6ccccc6)c6ccc3[nH]6)C=C5)C=C4)cc2)c1
REMARK SMILES IDX 24 1 23 2 22 3 21 4 20 5 18 6 19 7 17 8 16 9 1 10 2 11 3 12
REMARK SMILES IDX 80 13 4 14 5 15 6 16 7 18 8 19 14 20 9 21 10 22 13 23 15 24
REMARK SMILES IDX 11 25 12 26 25 27 26 28 27 29 28 30 29 31 30 32 31 33 32 34
REMARK SMILES IDX 33 35 79 36 34 37 78 38 35 39 36 40 37 41 72 42 38 43 77 44
REMARK SMILES IDX 71 45 73 46 39 47 76 48 70 49 69 50 40 52 62 53 47 54 61 55
REMARK SMILES IDX 48 56 51 57 60 58 74 59 49 60 50 61 59 63 75 64 52 65 41 66
REMARK SMILES IDX 42 67 46 68 43 69 45 70 44 71 63 72 64 73 68 74 65 75 67 76
REMARK SMILES IDX 66 77 53 78 54 79 58 80 55 81 57 82 56 83
REMARK H PARENT 6 17 73 51 51 62
REMARK Flexibility Score: inf
ROOT
ATOM      1  C   UNL A   1      42.770  38.168  28.483  1.00  0.00     0.188 C 
ENDROOT
BRANCH   1   2
ATOM      2  O   UNL A   1      41.943  39.278  28.258  1.00  0.00    -0.376 OA
BRANCH   2   3
ATOM      3  C   UNL A   1      41.663  39.712  26.941  1.00  0.00     0.202 C 
BRANCH   3   4
ATOM      4  C   UNL A   1      42.322  40.804  25.912  1.00  0.00     0.261 C 
BRANCH   4   5
ATOM      5  O   UNL A   1      41.842  41.876  24.499  1.00  0.00    -0.463 OA
BRANCH   5   6
ATOM      6  C   UNL A   1      42.056  42.147  22.867  1.00  0.00     0.310 C 
ATOM      7  O   UNL A   1      42.184  41.409  21.876  1.00  0.00    -0.252 OA
BRANCH   6   8
ATOM      8  C   UNL A   1      41.734  43.474  22.471  1.00  0.00     0.160 C 
BRANCH   8   9
ATOM      9  C   UNL A   1      43.067  44.053  22.219  1.00  0.00    -0.013 A 
ATOM     10  C   UNL A   1      44.959  44.122  25.593  1.00  0.00     0.044 C 
ATOM     11  C   UNL A   1      44.661  43.892  24.149  1.00  0.00    -0.051 A 
ATOM     12  C   UNL A   1      45.451  43.141  23.326  1.00  0.00     0.005 A 
ATOM     13  C   UNL A   1      43.487  44.341  23.597  1.00  0.00     0.009 A 
ATOM     14  C   UNL A   1      45.057  42.927  21.979  1.00  0.00     0.026 A 
ATOM     15  C   UNL A   1      43.860  43.607  21.131  1.00  0.00     0.042 A 
BRANCH  15  16
ATOM     16  N   UNL A   1      43.949  43.899  19.113  1.00  0.00    -0.353 N 
ATOM     17  H   UNL A   1      43.734  43.094  18.588  1.00  0.00     0.167 HD
BRANCH  16  18
ATOM     18  C   UNL A   1      44.350  45.374  18.079  1.00  0.00     0.076 A 
ATOM     19  C   UNL A   1      45.398  46.501  18.423  1.00  0.00     0.067 A 
ATOM     20  C   UNL A   1      43.404  45.846  17.122  1.00  0.00     0.067 A 
ATOM     21  Cl  UNL A   1      46.854  46.614  19.471  1.00  0.00    -0.082 Cl
ATOM     22  C   UNL A   1      45.302  47.828  17.944  1.00  0.00     0.043 A 
ATOM     23  C   UNL A   1      43.392  47.219  16.683  1.00  0.00     0.043 A 
ATOM     24  Cl  UNL A   1      42.202  44.993  16.290  1.00  0.00    -0.082 Cl
ATOM     25  C   UNL A   1      44.272  48.193  17.128  1.00  0.00     0.044 A 
ATOM     26  Cl  UNL A   1      44.045  49.857  16.760  1.00  0.00    -0.084 Cl
ENDBRANCH  16  18
ENDBRANCH  15  16
ENDBRANCH   8   9
ENDBRANCH   6   8
ENDBRANCH   5   6
ENDBRANCH   4   5
ENDBRANCH   3   4
ENDBRANCH   2   3
ENDBRANCH   1   2
BRANCH   1  27
ATOM     27  C   UNL A   1      44.202  38.427  28.886  1.00  0.00     0.188 C 
BRANCH  27  28
ATOM     28  O   UNL A   1      44.349  38.899  30.202  1.00  0.00    -0.376 OA
BRANCH  28  29
ATOM     29  C   UNL A   1      45.401  38.278  30.922  1.00  0.00     0.202 C 
BRANCH  29  30
ATOM     30  C   UNL A   1      45.081  36.963  31.742  1.00  0.00     0.261 C 
BRANCH  30  31
ATOM     31  O   UNL A   1      45.910  36.741  32.953  1.00  0.00    -0.460 OA
BRANCH  31  32
ATOM     32  C   UNL A   1      45.477  36.983  34.280  1.00  0.00     0.338 C 
ATOM     33  O   UNL A   1      45.300  38.143  34.600  1.00  0.00    -0.246 OA
BRANCH  32  34
ATOM     34  C   UNL A   1      45.308  35.546  35.249  1.00  0.00     0.060 A 
ATOM     35  C   UNL A   1      45.784  33.628  35.205  1.00  0.00     0.016 A 
ATOM     36  C   UNL A   1      43.553  35.828  34.951  1.00  0.00     0.016 A 
ATOM     37  C   UNL A   1      44.483  32.387  34.581  1.00  0.00     0.010 A 
ATOM     38  C   UNL A   1      42.511  34.602  34.315  1.00  0.00     0.010 A 
ATOM     39  C   UNL A   1      42.795  32.860  34.044  1.00  0.00    -0.014 A 
BRANCH  39  40
ATOM     40  C   UNL A   1      41.176  31.942  33.609  1.00  0.00     0.031 A 
ATOM     41  C   UNL A   1      40.810  30.973  31.976  1.00  0.00     0.074 A 
ATOM     42  C   UNL A   1      40.232  31.608  34.521  1.00  0.00     0.049 A 
ATOM     43  N   UNL A   1      39.962  31.280  31.005  1.00  0.00    -0.248 NA
ATOM     44  C   UNL A   1      41.866  29.955  31.114  1.00  0.00     0.031 C 
ATOM     45  C   UNL A   1      39.181  30.574  34.421  1.00  0.00     0.029 A 
ATOM     46  N   UNL A   1      40.068  32.043  35.827  1.00  0.00    -0.354 N 
ATOM     47  C   UNL A   1      40.280  30.474  29.861  1.00  0.00     0.074 A 
ATOM     48  C   UNL A   1      41.665  30.245  29.846  1.00  0.00     0.031 C 
ATOM     49  C   UNL A   1      38.298  30.733  35.430  1.00  0.00     0.029 A 
ATOM     50  C   UNL A   1      38.707  31.925  36.154  1.00  0.00     0.049 A 
ATOM     51  H   UNL A   1      40.780  32.377  36.419  1.00  0.00     0.167 HD
ATOM     52  C   UNL A   1      39.454  29.476  29.407  1.00  0.00     0.031 A 
ATOM     53  C   UNL A   1      38.036  33.100  36.268  1.00  0.00     0.031 A 
ATOM     54  C   UNL A   1      38.311  29.456  30.289  1.00  0.00     0.049 A 
ATOM     55  C   UNL A   1      37.227  33.262  34.996  1.00  0.00     0.074 A 
ATOM     56  C   UNL A   1      37.943  28.667  31.361  1.00  0.00     0.029 A 
ATOM     57  N   UNL A   1      37.681  30.670  30.462  1.00  0.00    -0.354 N 
ATOM     58  N   UNL A   1      37.518  32.680  33.855  1.00  0.00    -0.248 NA
ATOM     59  C   UNL A   1      35.913  33.886  34.983  1.00  0.00     0.031 C 
ATOM     60  C   UNL A   1      37.093  29.468  32.197  1.00  0.00     0.029 A 
ATOM     61  C   UNL A   1      36.990  30.739  31.647  1.00  0.00     0.049 A 
ATOM     62  H   UNL A   1      37.721  31.404  29.809  1.00  0.00     0.167 HD
ATOM     63  C   UNL A   1      36.421  32.686  33.050  1.00  0.00     0.074 A 
ATOM     64  C   UNL A   1      35.458  33.494  33.782  1.00  0.00     0.031 C 
ATOM     65  C   UNL A   1      36.265  31.979  31.890  1.00  0.00     0.031 A 
BRANCH  52  66
ATOM     66  C   UNL A   1      39.860  28.342  28.447  1.00  0.00    -0.014 A 
ATOM     67  C   UNL A   1      39.671  27.013  28.860  1.00  0.00     0.009 A 
ATOM     68  C   UNL A   1      40.375  28.484  27.132  1.00  0.00     0.009 A 
ATOM     69  C   UNL A   1      39.966  25.911  28.037  1.00  0.00     0.001 A 
ATOM     70  C   UNL A   1      40.718  27.385  26.316  1.00  0.00     0.001 A 
ATOM     71  C   UNL A   1      40.494  26.094  26.765  1.00  0.00     0.000 A 
ENDBRANCH  52  66
BRANCH  53  72
ATOM     72  C   UNL A   1      38.913  34.070  37.020  1.00  0.00    -0.014 A 
ATOM     73  C   UNL A   1      39.477  35.133  36.253  1.00  0.00     0.009 A 
ATOM     74  C   UNL A   1      38.779  34.274  38.404  1.00  0.00     0.009 A 
ATOM     75  C   UNL A   1      39.840  36.350  36.836  1.00  0.00     0.001 A 
ATOM     76  C   UNL A   1      39.161  35.494  38.986  1.00  0.00     0.001 A 
ATOM     77  C   UNL A   1      39.716  36.511  38.210  1.00  0.00     0.000 A 
ENDBRANCH  53  72
BRANCH  65  78
ATOM     78  C   UNL A   1      35.379  32.493  30.771  1.00  0.00    -0.014 A 
ATOM     79  C   UNL A   1      34.786  33.757  30.793  1.00  0.00     0.009 A 
ATOM     80  C   UNL A   1      35.268  31.771  29.557  1.00  0.00     0.009 A 
ATOM     81  C   UNL A   1      34.012  34.213  29.727  1.00  0.00     0.001 A 
ATOM     82  C   UNL A   1      34.614  32.280  28.442  1.00  0.00     0.001 A 
ATOM     83  C   UNL A   1      33.937  33.482  28.547  1.00  0.00     0.000 A 
ENDBRANCH  65  78
ENDBRANCH  39  40
ENDBRANCH  32  34
ENDBRANCH  31  32
ENDBRANCH  30  31
ENDBRANCH  29  30
ENDBRANCH  28  29
ENDBRANCH  27  28
ENDBRANCH   1  27
TORSDOF 20
ENDMDL
