MODEL 1
REMARK VINA RESULT:      -9.2      0.000      0.000
REMARK SMILES [NH3+][C@@H](Cc1ccc(OC(F)F)cc1)C(=O)OCCOCCOCCOC(=O)c1ccc(-c2c3nc(c(-c4ccccc4)c4ccc([nH]4)c(-c4ccccc4)c4nc(c(-c5ccccc5)c5ccc2[nH]5)C=C4)C=C3)cc1
REMARK SMILES IDX 20 1 19 2 18 3 17 4 16 5 14 6 15 7 2 8 1 9 3 13 4 14 5 15
REMARK SMILES IDX 13 16 6 17 12 18 7 19 8 20 9 21 10 22 11 23 21 24 22 25
REMARK SMILES IDX 23 26 24 27 25 28 26 29 27 30 28 31 29 32 75 33 30 34 74 35
REMARK SMILES IDX 31 36 32 37 33 38 68 39 34 40 73 41 67 42 69 43 35 44 72 45
REMARK SMILES IDX 66 46 65 47 36 49 58 50 43 51 57 52 44 53 47 54 56 55 70 56
REMARK SMILES IDX 45 57 46 58 55 60 71 61 48 62 37 63 38 64 42 65 39 66 41 67
REMARK SMILES IDX 40 68 59 69 60 70 64 71 61 72 63 73 62 74 49 75 50 76 54 77
REMARK SMILES IDX 51 78 53 79 52 80
REMARK H PARENT 1 10 1 11 1 12 69 48 47 59
REMARK Flexibility Score: inf
ROOT
ATOM      1  C   UNL A   1      43.359  19.080  25.383  1.00  0.00     0.188 C 
ENDROOT
BRANCH   1   2
ATOM      2  O   UNL A   1      41.992  18.930  25.761  1.00  0.00    -0.376 OA
BRANCH   2   3
ATOM      3  C   UNL A   1      41.611  19.252  27.091  1.00  0.00     0.202 C 
BRANCH   3   4
ATOM      4  C   UNL A   1      40.865  20.569  27.327  1.00  0.00     0.261 C 
BRANCH   4   5
ATOM      5  O   UNL A   1      39.630  20.707  26.601  1.00  0.00    -0.459 OA
BRANCH   5   6
ATOM      6  C   UNL A   1      39.320  21.965  26.174  1.00  0.00     0.365 C 
ATOM      7  O   UNL A   1      40.003  22.962  26.390  1.00  0.00    -0.245 OA
BRANCH   6   8
ATOM      8  C   UNL A   1      37.957  22.056  25.463  1.00  0.00     0.296 C 
BRANCH   8   9
ATOM      9  N   UNL A   1      36.949  21.085  25.955  1.00  0.00    -0.346 N 
ATOM     10  H   UNL A   1      36.788  20.372  25.243  1.00  0.00     0.345 HD
ATOM     11  H   UNL A   1      36.076  21.571  26.154  1.00  0.00     0.345 HD
ATOM     12  H   UNL A   1      37.294  20.641  26.807  1.00  0.00     0.345 HD
ENDBRANCH   8   9
BRANCH   8  13
ATOM     13  C   UNL A   1      37.445  23.507  25.505  1.00  0.00     0.113 C 
BRANCH  13  14
ATOM     14  C   UNL A   1      36.043  23.674  24.962  1.00  0.00    -0.041 A 
ATOM     15  C   UNL A   1      35.742  23.278  23.654  1.00  0.00     0.008 A 
ATOM     16  C   UNL A   1      35.046  24.294  25.726  1.00  0.00     0.008 A 
ATOM     17  C   UNL A   1      34.476  23.520  23.120  1.00  0.00     0.047 A 
ATOM     18  C   UNL A   1      33.779  24.536  25.186  1.00  0.00     0.047 A 
ATOM     19  C   UNL A   1      33.486  24.146  23.880  1.00  0.00     0.126 A 
BRANCH  19  20
ATOM     20  O   UNL A   1      32.298  24.320  23.232  1.00  0.00    -0.435 OA
BRANCH  20  21
ATOM     21  C   UNL A   1      31.232  23.431  23.536  1.00  0.00     0.542 C 
ATOM     22  F   UNL A   1      30.060  23.927  23.073  1.00  0.00    -0.167 F 
ATOM     23  F   UNL A   1      31.450  22.230  22.947  1.00  0.00    -0.167 F 
ENDBRANCH  20  21
ENDBRANCH  19  20
ENDBRANCH  13  14
ENDBRANCH   8  13
ENDBRANCH   6   8
ENDBRANCH   5   6
ENDBRANCH   4   5
ENDBRANCH   3   4
ENDBRANCH   2   3
ENDBRANCH   1   2
BRANCH   1  24
ATOM     24  C   UNL A   1      43.989  20.486  25.336  1.00  0.00     0.188 C 
BRANCH  24  25
ATOM     25  O   UNL A   1      45.289  20.523  24.779  1.00  0.00    -0.376 OA
BRANCH  25  26
ATOM     26  C   UNL A   1      45.912  21.793  24.732  1.00  0.00     0.202 C 
BRANCH  26  27
ATOM     27  C   UNL A   1      45.171  22.837  23.887  1.00  0.00     0.261 C 
BRANCH  27  28
ATOM     28  O   UNL A   1      44.342  23.756  24.625  1.00  0.00    -0.460 OA
BRANCH  28  29
ATOM     29  C   UNL A   1      44.918  24.918  25.007  1.00  0.00     0.338 C 
ATOM     30  O   UNL A   1      45.983  25.366  24.627  1.00  0.00    -0.246 OA
BRANCH  29  31
ATOM     31  C   UNL A   1      43.946  25.672  25.834  1.00  0.00     0.060 A 
ATOM     32  C   UNL A   1      44.135  27.052  25.998  1.00  0.00     0.016 A 
ATOM     33  C   UNL A   1      42.883  25.027  26.471  1.00  0.00     0.016 A 
ATOM     34  C   UNL A   1      43.300  27.778  26.848  1.00  0.00     0.010 A 
ATOM     35  C   UNL A   1      42.058  25.753  27.341  1.00  0.00     0.010 A 
ATOM     36  C   UNL A   1      42.297  27.120  27.572  1.00  0.00    -0.014 A 
BRANCH  36  37
ATOM     37  C   UNL A   1      41.698  27.793  28.754  1.00  0.00     0.031 A 
ATOM     38  C   UNL A   1      42.387  27.618  30.085  1.00  0.00     0.074 A 
ATOM     39  C   UNL A   1      40.606  28.573  28.666  1.00  0.00     0.049 A 
ATOM     40  N   UNL A   1      42.074  28.107  31.258  1.00  0.00    -0.248 NA
ATOM     41  C   UNL A   1      43.595  26.775  30.087  1.00  0.00     0.031 C 
ATOM     42  C   UNL A   1      39.868  28.871  27.441  1.00  0.00     0.029 A 
ATOM     43  N   UNL A   1      39.930  29.262  29.644  1.00  0.00    -0.354 N 
ATOM     44  C   UNL A   1      43.038  27.623  32.134  1.00  0.00     0.074 A 
ATOM     45  C   UNL A   1      43.927  26.780  31.367  1.00  0.00     0.031 C 
ATOM     46  C   UNL A   1      38.840  29.686  27.741  1.00  0.00     0.029 A 
ATOM     47  C   UNL A   1      38.833  29.946  29.181  1.00  0.00     0.049 A 
ATOM     48  H   UNL A   1      40.207  29.266  30.589  1.00  0.00     0.167 HD
ATOM     49  C   UNL A   1      43.181  27.859  33.460  1.00  0.00     0.031 A 
ATOM     50  C   UNL A   1      37.925  30.688  29.845  1.00  0.00     0.031 A 
ATOM     51  C   UNL A   1      42.296  28.684  34.236  1.00  0.00     0.049 A 
ATOM     52  C   UNL A   1      38.064  30.880  31.334  1.00  0.00     0.074 A 
ATOM     53  C   UNL A   1      42.365  28.993  35.583  1.00  0.00     0.029 A 
ATOM     54  N   UNL A   1      41.176  29.324  33.733  1.00  0.00    -0.354 N 
ATOM     55  N   UNL A   1      38.996  30.443  32.146  1.00  0.00    -0.248 NA
ATOM     56  C   UNL A   1      37.024  31.684  31.996  1.00  0.00     0.031 C 
ATOM     57  C   UNL A   1      41.254  29.779  35.907  1.00  0.00     0.029 A 
ATOM     58  C   UNL A   1      40.531  30.010  34.748  1.00  0.00     0.049 A 
ATOM     59  H   UNL A   1      40.881  29.296  32.794  1.00  0.00     0.167 HD
ATOM     60  C   UNL A   1      38.682  30.956  33.400  1.00  0.00     0.074 A 
ATOM     61  C   UNL A   1      37.475  31.739  33.241  1.00  0.00     0.031 C 
ATOM     62  C   UNL A   1      39.338  30.798  34.576  1.00  0.00     0.031 A 
BRANCH  49  63
ATOM     63  C   UNL A   1      44.320  27.172  34.160  1.00  0.00    -0.014 A 
ATOM     64  C   UNL A   1      45.572  27.791  34.303  1.00  0.00     0.009 A 
ATOM     65  C   UNL A   1      44.132  25.886  34.689  1.00  0.00     0.009 A 
ATOM     66  C   UNL A   1      46.624  27.120  34.928  1.00  0.00     0.001 A 
ATOM     67  C   UNL A   1      45.177  25.229  35.340  1.00  0.00     0.001 A 
ATOM     68  C   UNL A   1      46.425  25.842  35.450  1.00  0.00     0.000 A 
ENDBRANCH  49  63
BRANCH  50  69
ATOM     69  C   UNL A   1      36.793  31.321  29.116  1.00  0.00    -0.014 A 
ATOM     70  C   UNL A   1      35.659  30.571  28.769  1.00  0.00     0.009 A 
ATOM     71  C   UNL A   1      36.861  32.666  28.723  1.00  0.00     0.009 A 
ATOM     72  C   UNL A   1      34.630  31.146  28.019  1.00  0.00     0.001 A 
ATOM     73  C   UNL A   1      35.818  33.247  27.998  1.00  0.00     0.001 A 
ATOM     74  C   UNL A   1      34.708  32.485  27.638  1.00  0.00     0.000 A 
ENDBRANCH  50  69
BRANCH  62  75
ATOM     75  C   UNL A   1      38.807  31.540  35.772  1.00  0.00    -0.014 A 
ATOM     76  C   UNL A   1      39.129  32.885  36.010  1.00  0.00     0.009 A 
ATOM     77  C   UNL A   1      37.936  30.884  36.658  1.00  0.00     0.009 A 
ATOM     78  C   UNL A   1      38.624  33.544  37.134  1.00  0.00     0.001 A 
ATOM     79  C   UNL A   1      37.407  31.554  37.762  1.00  0.00     0.001 A 
ATOM     80  C   UNL A   1      37.761  32.879  38.006  1.00  0.00     0.000 A 
ENDBRANCH  62  75
ENDBRANCH  36  37
ENDBRANCH  29  31
ENDBRANCH  28  29
ENDBRANCH  27  28
ENDBRANCH  26  27
ENDBRANCH  25  26
ENDBRANCH  24  25
ENDBRANCH   1  24
TORSDOF 22
ENDMDL
MODEL 2
REMARK VINA RESULT:      -9.0      4.095      9.497
REMARK SMILES [NH3+][C@@H](Cc1ccc(OC(F)F)cc1)C(=O)OCCOCCOCCOC(=O)c1ccc(-c2c3nc(c(-c4ccccc4)c4ccc([nH]4)c(-c4ccccc4)c4nc(c(-c5ccccc5)c5ccc2[nH]5)C=C4)C=C3)cc1
REMARK SMILES IDX 20 1 19 2 18 3 17 4 16 5 14 6 15 7 2 8 1 9 3 13 4 14 5 15
REMARK SMILES IDX 13 16 6 17 12 18 7 19 8 20 9 21 10 22 11 23 21 24 22 25
REMARK SMILES IDX 23 26 24 27 25 28 26 29 27 30 28 31 29 32 75 33 30 34 74 35
REMARK SMILES IDX 31 36 32 37 33 38 68 39 34 40 73 41 67 42 69 43 35 44 72 45
REMARK SMILES IDX 66 46 65 47 36 49 58 50 43 51 57 52 44 53 47 54 56 55 70 56
REMARK SMILES IDX 45 57 46 58 55 60 71 61 48 62 37 63 38 64 42 65 39 66 41 67
REMARK SMILES IDX 40 68 59 69 60 70 64 71 61 72 63 73 62 74 49 75 50 76 54 77
REMARK SMILES IDX 51 78 53 79 52 80
REMARK H PARENT 1 10 1 11 1 12 69 48 47 59
REMARK Flexibility Score: inf
ROOT
ATOM      1  C   UNL A   1      34.442  32.859  28.944  1.00  0.00     0.188 C 
ENDROOT
BRANCH   1   2
ATOM      2  O   UNL A   1      35.395  32.207  28.109  1.00  0.00    -0.376 OA
BRANCH   2   3
ATOM      3  C   UNL A   1      35.142  30.872  27.695  1.00  0.00     0.202 C 
BRANCH   3   4
ATOM      4  C   UNL A   1      33.753  30.543  27.135  1.00  0.00     0.261 C 
BRANCH   4   5
ATOM      5  O   UNL A   1      33.634  29.242  26.534  1.00  0.00    -0.459 OA
BRANCH   5   6
ATOM      6  C   UNL A   1      32.368  28.831  26.232  1.00  0.00     0.365 C 
ATOM      7  O   UNL A   1      31.626  29.394  25.434  1.00  0.00    -0.245 OA
BRANCH   6   8
ATOM      8  C   UNL A   1      31.894  27.629  27.071  1.00  0.00     0.296 C 
BRANCH   8   9
ATOM      9  N   UNL A   1      31.169  28.001  28.310  1.00  0.00    -0.346 N 
ATOM     10  H   UNL A   1      31.833  28.352  29.000  1.00  0.00     0.345 HD
ATOM     11  H   UNL A   1      30.691  27.181  28.684  1.00  0.00     0.345 HD
ATOM     12  H   UNL A   1      30.484  28.726  28.097  1.00  0.00     0.345 HD
ENDBRANCH   8   9
BRANCH   8  13
ATOM     13  C   UNL A   1      31.088  26.663  26.184  1.00  0.00     0.113 C 
BRANCH  13  14
ATOM     14  C   UNL A   1      31.729  25.303  26.025  1.00  0.00    -0.041 A 
ATOM     15  C   UNL A   1      30.936  24.152  25.969  1.00  0.00     0.008 A 
ATOM     16  C   UNL A   1      33.123  25.164  26.008  1.00  0.00     0.008 A 
ATOM     17  C   UNL A   1      31.530  22.890  25.920  1.00  0.00     0.047 A 
ATOM     18  C   UNL A   1      33.714  23.898  25.961  1.00  0.00     0.047 A 
ATOM     19  C   UNL A   1      32.920  22.754  25.913  1.00  0.00     0.126 A 
BRANCH  19  20
ATOM     20  O   UNL A   1      33.363  21.463  25.864  1.00  0.00    -0.435 OA
BRANCH  20  21
ATOM     21  C   UNL A   1      34.139  21.063  24.743  1.00  0.00     0.542 C 
ATOM     22  F   UNL A   1      34.157  19.712  24.644  1.00  0.00    -0.167 F 
ATOM     23  F   UNL A   1      33.602  21.567  23.606  1.00  0.00    -0.167 F 
ENDBRANCH  20  21
ENDBRANCH  19  20
ENDBRANCH  13  14
ENDBRANCH   8  13
ENDBRANCH   6   8
ENDBRANCH   5   6
ENDBRANCH   4   5
ENDBRANCH   3   4
ENDBRANCH   2   3
ENDBRANCH   1   2
BRANCH   1  24
ATOM     24  C   UNL A   1      33.930  34.264  28.566  1.00  0.00     0.188 C 
BRANCH  24  25
ATOM     25  O   UNL A   1      32.770  34.669  29.267  1.00  0.00    -0.376 OA
BRANCH  25  26
ATOM     26  C   UNL A   1      32.839  35.925  29.917  1.00  0.00     0.202 C 
BRANCH  26  27
ATOM     27  C   UNL A   1      32.643  35.868  31.437  1.00  0.00     0.261 C 
BRANCH  27  28
ATOM     28  O   UNL A   1      33.313  34.784  32.108  1.00  0.00    -0.460 OA
BRANCH  28  29
ATOM     29  C   UNL A   1      34.459  35.088  32.757  1.00  0.00     0.338 C 
ATOM     30  O   UNL A   1      34.607  35.929  33.624  1.00  0.00    -0.246 OA
BRANCH  29  31
ATOM     31  C   UNL A   1      35.491  34.093  32.380  1.00  0.00     0.060 A 
ATOM     32  C   UNL A   1      35.395  32.797  32.907  1.00  0.00     0.016 A 
ATOM     33  C   UNL A   1      36.559  34.438  31.548  1.00  0.00     0.016 A 
ATOM     34  C   UNL A   1      36.400  31.862  32.654  1.00  0.00     0.010 A 
ATOM     35  C   UNL A   1      37.577  33.505  31.312  1.00  0.00     0.010 A 
ATOM     36  C   UNL A   1      37.527  32.231  31.907  1.00  0.00    -0.014 A 
BRANCH  36  37
ATOM     37  C   UNL A   1      38.753  31.395  31.987  1.00  0.00     0.031 A 
ATOM     38  C   UNL A   1      39.715  31.666  33.117  1.00  0.00     0.074 A 
ATOM     39  C   UNL A   1      39.004  30.395  31.123  1.00  0.00     0.049 A 
ATOM     40  N   UNL A   1      40.844  31.073  33.413  1.00  0.00    -0.248 NA
ATOM     41  C   UNL A   1      39.349  32.757  34.036  1.00  0.00     0.031 C 
ATOM     42  C   UNL A   1      38.141  29.989  30.016  1.00  0.00     0.029 A 
ATOM     43  N   UNL A   1      40.072  29.534  31.053  1.00  0.00    -0.354 N 
ATOM     44  C   UNL A   1      41.324  31.725  34.543  1.00  0.00     0.074 A 
ATOM     45  C   UNL A   1      40.383  32.775  34.861  1.00  0.00     0.031 C 
ATOM     46  C   UNL A   1      38.715  28.954  29.375  1.00  0.00     0.029 A 
ATOM     47  C   UNL A   1      39.995  28.642  30.012  1.00  0.00     0.049 A 
ATOM     48  H   UNL A   1      40.823  29.555  31.690  1.00  0.00     0.167 HD
ATOM     49  C   UNL A   1      42.444  31.474  35.260  1.00  0.00     0.031 A 
ATOM     50  C   UNL A   1      40.863  27.689  29.615  1.00  0.00     0.031 A 
ATOM     51  C   UNL A   1      43.394  30.442  34.946  1.00  0.00     0.049 A 
ATOM     52  C   UNL A   1      42.139  27.474  30.388  1.00  0.00     0.074 A 
ATOM     53  C   UNL A   1      44.554  30.102  35.620  1.00  0.00     0.029 A 
ATOM     54  N   UNL A   1      43.296  29.588  33.860  1.00  0.00    -0.354 N 
ATOM     55  N   UNL A   1      42.567  28.076  31.472  1.00  0.00    -0.248 NA
ATOM     56  C   UNL A   1      43.049  26.433  29.884  1.00  0.00     0.031 C 
ATOM     57  C   UNL A   1      45.186  29.076  34.910  1.00  0.00     0.029 A 
ATOM     58  C   UNL A   1      44.386  28.736  33.831  1.00  0.00     0.049 A 
ATOM     59  H   UNL A   1      42.560  29.587  33.205  1.00  0.00     0.167 HD
ATOM     60  C   UNL A   1      43.767  27.456  31.804  1.00  0.00     0.074 A 
ATOM     61  C   UNL A   1      43.998  26.429  30.809  1.00  0.00     0.031 C 
ATOM     62  C   UNL A   1      44.599  27.709  32.844  1.00  0.00     0.031 A 
BRANCH  49  63
ATOM     63  C   UNL A   1      42.721  32.369  36.435  1.00  0.00    -0.014 A 
ATOM     64  C   UNL A   1      42.247  32.058  37.720  1.00  0.00     0.009 A 
ATOM     65  C   UNL A   1      43.472  33.540  36.252  1.00  0.00     0.009 A 
ATOM     66  C   UNL A   1      42.489  32.922  38.790  1.00  0.00     0.001 A 
ATOM     67  C   UNL A   1      43.738  34.386  37.329  1.00  0.00     0.001 A 
ATOM     68  C   UNL A   1      43.237  34.083  38.595  1.00  0.00     0.000 A 
ENDBRANCH  49  63
BRANCH  50  69
ATOM     69  C   UNL A   1      40.564  26.850  28.424  1.00  0.00    -0.014 A 
ATOM     70  C   UNL A   1      39.753  25.710  28.538  1.00  0.00     0.009 A 
ATOM     71  C   UNL A   1      41.125  27.158  27.175  1.00  0.00     0.009 A 
ATOM     72  C   UNL A   1      39.535  24.880  27.435  1.00  0.00     0.001 A 
ATOM     73  C   UNL A   1      40.882  26.343  26.067  1.00  0.00     0.001 A 
ATOM     74  C   UNL A   1      40.096  25.200  26.199  1.00  0.00     0.000 A 
ENDBRANCH  50  69
BRANCH  62  75
ATOM     75  C   UNL A   1      45.802  26.820  33.003  1.00  0.00    -0.014 A 
ATOM     76  C   UNL A   1      47.036  27.135  32.414  1.00  0.00     0.009 A 
ATOM     77  C   UNL A   1      45.702  25.661  33.791  1.00  0.00     0.009 A 
ATOM     78  C   UNL A   1      48.133  26.285  32.577  1.00  0.00     0.001 A 
ATOM     79  C   UNL A   1      46.808  24.831  33.977  1.00  0.00     0.001 A 
ATOM     80  C   UNL A   1      48.019  25.136  33.361  1.00  0.00     0.000 A 
ENDBRANCH  62  75
ENDBRANCH  36  37
ENDBRANCH  29  31
ENDBRANCH  28  29
ENDBRANCH  27  28
ENDBRANCH  26  27
ENDBRANCH  25  26
ENDBRANCH  24  25
ENDBRANCH   1  24
TORSDOF 22
ENDMDL
MODEL 3
REMARK VINA RESULT:      -9.0      4.591      7.340
REMARK SMILES [NH3+][C@@H](Cc1ccc(OC(F)F)cc1)C(=O)OCCOCCOCCOC(=O)c1ccc(-c2c3nc(c(-c4ccccc4)c4ccc([nH]4)c(-c4ccccc4)c4nc(c(-c5ccccc5)c5ccc2[nH]5)C=C4)C=C3)cc1
REMARK SMILES IDX 20 1 19 2 18 3 17 4 16 5 14 6 15 7 2 8 1 9 3 13 4 14 5 15
REMARK SMILES IDX 13 16 6 17 12 18 7 19 8 20 9 21 10 22 11 23 21 24 22 25
REMARK SMILES IDX 23 26 24 27 25 28 26 29 27 30 28 31 29 32 75 33 30 34 74 35
REMARK SMILES IDX 31 36 32 37 33 38 68 39 34 40 73 41 67 42 69 43 35 44 72 45
REMARK SMILES IDX 66 46 65 47 36 49 58 50 43 51 57 52 44 53 47 54 56 55 70 56
REMARK SMILES IDX 45 57 46 58 55 60 71 61 48 62 37 63 38 64 42 65 39 66 41 67
REMARK SMILES IDX 40 68 59 69 60 70 64 71 61 72 63 73 62 74 49 75 50 76 54 77
REMARK SMILES IDX 51 78 53 79 52 80
REMARK H PARENT 1 10 1 11 1 12 69 48 47 59
REMARK Flexibility Score: inf
ROOT
ATOM      1  C   UNL A   1      39.718  22.902  26.752  1.00  0.00     0.188 C 
ENDROOT
BRANCH   1   2
ATOM      2  O   UNL A   1      38.431  23.412  26.413  1.00  0.00    -0.376 OA
BRANCH   2   3
ATOM      3  C   UNL A   1      37.679  22.755  25.403  1.00  0.00     0.202 C 
BRANCH   3   4
ATOM      4  C   UNL A   1      36.280  22.244  25.765  1.00  0.00     0.261 C 
BRANCH   4   5
ATOM      5  O   UNL A   1      35.464  23.176  26.498  1.00  0.00    -0.459 OA
BRANCH   5   6
ATOM      6  C   UNL A   1      34.488  23.811  25.786  1.00  0.00     0.365 C 
ATOM      7  O   UNL A   1      34.667  24.813  25.100  1.00  0.00    -0.245 OA
BRANCH   6   8
ATOM      8  C   UNL A   1      33.084  23.212  25.995  1.00  0.00     0.296 C 
BRANCH   8   9
ATOM      9  N   UNL A   1      32.142  24.110  26.708  1.00  0.00    -0.346 N 
ATOM     10  H   UNL A   1      31.283  24.200  26.166  1.00  0.00     0.345 HD
ATOM     11  H   UNL A   1      32.570  25.028  26.825  1.00  0.00     0.345 HD
ATOM     12  H   UNL A   1      31.926  23.716  27.624  1.00  0.00     0.345 HD
ENDBRANCH   8   9
BRANCH   8  13
ATOM     13  C   UNL A   1      32.523  22.720  24.649  1.00  0.00     0.113 C 
BRANCH  13  14
ATOM     14  C   UNL A   1      32.535  21.216  24.498  1.00  0.00    -0.041 A 
ATOM     15  C   UNL A   1      32.821  20.400  25.597  1.00  0.00     0.008 A 
ATOM     16  C   UNL A   1      32.336  20.619  23.247  1.00  0.00     0.008 A 
ATOM     17  C   UNL A   1      32.927  19.018  25.438  1.00  0.00     0.047 A 
ATOM     18  C   UNL A   1      32.445  19.233  23.092  1.00  0.00     0.047 A 
ATOM     19  C   UNL A   1      32.738  18.424  24.188  1.00  0.00     0.126 A 
BRANCH  19  20
ATOM     20  O   UNL A   1      32.872  17.066  24.179  1.00  0.00    -0.435 OA
BRANCH  20  21
ATOM     21  C   UNL A   1      34.122  16.519  23.781  1.00  0.00     0.542 C 
ATOM     22  F   UNL A   1      34.323  16.721  22.457  1.00  0.00    -0.167 F 
ATOM     23  F   UNL A   1      35.127  17.121  24.462  1.00  0.00    -0.167 F 
ENDBRANCH  20  21
ENDBRANCH  19  20
ENDBRANCH  13  14
ENDBRANCH   8  13
ENDBRANCH   6   8
ENDBRANCH   5   6
ENDBRANCH   4   5
ENDBRANCH   3   4
ENDBRANCH   2   3
ENDBRANCH   1   2
BRANCH   1  24
ATOM     24  C   UNL A   1      40.131  21.494  26.277  1.00  0.00     0.188 C 
BRANCH  24  25
ATOM     25  O   UNL A   1      40.443  20.595  27.324  1.00  0.00    -0.376 OA
BRANCH  25  26
ATOM     26  C   UNL A   1      41.694  19.939  27.233  1.00  0.00     0.202 C 
BRANCH  26  27
ATOM     27  C   UNL A   1      42.205  19.736  25.800  1.00  0.00     0.261 C 
BRANCH  27  28
ATOM     28  O   UNL A   1      43.602  19.406  25.683  1.00  0.00    -0.460 OA
BRANCH  28  29
ATOM     29  C   UNL A   1      44.250  19.890  24.600  1.00  0.00     0.338 C 
ATOM     30  O   UNL A   1      44.307  19.384  23.495  1.00  0.00    -0.246 OA
BRANCH  29  31
ATOM     31  C   UNL A   1      44.735  21.255  24.914  1.00  0.00     0.060 A 
ATOM     32  C   UNL A   1      45.323  21.485  26.166  1.00  0.00     0.016 A 
ATOM     33  C   UNL A   1      44.580  22.306  24.006  1.00  0.00     0.016 A 
ATOM     34  C   UNL A   1      45.702  22.777  26.537  1.00  0.00     0.010 A 
ATOM     35  C   UNL A   1      44.941  23.605  24.387  1.00  0.00     0.010 A 
ATOM     36  C   UNL A   1      45.454  23.853  25.673  1.00  0.00    -0.014 A 
BRANCH  36  37
ATOM     37  C   UNL A   1      45.471  25.235  26.217  1.00  0.00     0.031 A 
ATOM     38  C   UNL A   1      46.783  25.980  26.198  1.00  0.00     0.074 A 
ATOM     39  C   UNL A   1      44.364  25.845  26.676  1.00  0.00     0.049 A 
ATOM     40  N   UNL A   1      47.059  27.195  26.600  1.00  0.00    -0.248 NA
ATOM     41  C   UNL A   1      47.938  25.252  25.647  1.00  0.00     0.031 C 
ATOM     42  C   UNL A   1      43.023  25.266  26.709  1.00  0.00     0.029 A 
ATOM     43  N   UNL A   1      44.203  27.103  27.205  1.00  0.00    -0.354 N 
ATOM     44  C   UNL A   1      48.417  27.368  26.361  1.00  0.00     0.074 A 
ATOM     45  C   UNL A   1      48.914  26.129  25.808  1.00  0.00     0.031 C 
ATOM     46  C   UNL A   1      42.172  26.169  27.231  1.00  0.00     0.029 A 
ATOM     47  C   UNL A   1      42.914  27.379  27.591  1.00  0.00     0.049 A 
ATOM     48  H   UNL A   1      44.942  27.747  27.299  1.00  0.00     0.167 HD
ATOM     49  C   UNL A   1      49.188  28.461  26.576  1.00  0.00     0.031 A 
ATOM     50  C   UNL A   1      42.395  28.478  28.174  1.00  0.00     0.031 A 
ATOM     51  C   UNL A   1      48.708  29.694  27.137  1.00  0.00     0.049 A 
ATOM     52  C   UNL A   1      43.287  29.657  28.468  1.00  0.00     0.074 A 
ATOM     53  C   UNL A   1      49.409  30.861  27.381  1.00  0.00     0.029 A 
ATOM     54  N   UNL A   1      47.404  29.915  27.549  1.00  0.00    -0.354 N 
ATOM     55  N   UNL A   1      44.563  29.821  28.210  1.00  0.00    -0.248 NA
ATOM     56  C   UNL A   1      42.658  30.813  29.126  1.00  0.00     0.031 C 
ATOM     57  C   UNL A   1      48.541  31.772  27.991  1.00  0.00     0.029 A 
ATOM     58  C   UNL A   1      47.285  31.193  28.067  1.00  0.00     0.049 A 
ATOM     59  H   UNL A   1      46.671  29.260  27.484  1.00  0.00     0.167 HD
ATOM     60  C   UNL A   1      44.875  31.110  28.629  1.00  0.00     0.074 A 
ATOM     61  C   UNL A   1      43.655  31.686  29.155  1.00  0.00     0.031 C 
ATOM     62  C   UNL A   1      46.063  31.761  28.576  1.00  0.00     0.031 A 
BRANCH  49  63
ATOM     63  C   UNL A   1      50.648  28.347  26.237  1.00  0.00    -0.014 A 
ATOM     64  C   UNL A   1      51.584  27.886  27.177  1.00  0.00     0.009 A 
ATOM     65  C   UNL A   1      51.090  28.701  24.954  1.00  0.00     0.009 A 
ATOM     66  C   UNL A   1      52.939  27.820  26.850  1.00  0.00     0.001 A 
ATOM     67  C   UNL A   1      52.442  28.605  24.620  1.00  0.00     0.001 A 
ATOM     68  C   UNL A   1      53.367  28.176  25.571  1.00  0.00     0.000 A 
ENDBRANCH  49  63
BRANCH  50  69
ATOM     69  C   UNL A   1      40.950  28.533  28.524  1.00  0.00    -0.014 A 
ATOM     70  C   UNL A   1      40.494  28.039  29.756  1.00  0.00     0.009 A 
ATOM     71  C   UNL A   1      40.014  29.038  27.609  1.00  0.00     0.009 A 
ATOM     72  C   UNL A   1      39.129  28.022  30.052  1.00  0.00     0.001 A 
ATOM     73  C   UNL A   1      38.652  29.046  27.919  1.00  0.00     0.001 A 
ATOM     74  C   UNL A   1      38.209  28.530  29.135  1.00  0.00     0.000 A 
ENDBRANCH  50  69
BRANCH  62  75
ATOM     75  C   UNL A   1      46.091  33.193  29.036  1.00  0.00    -0.014 A 
ATOM     76  C   UNL A   1      46.400  33.537  30.361  1.00  0.00     0.009 A 
ATOM     77  C   UNL A   1      45.839  34.218  28.109  1.00  0.00     0.009 A 
ATOM     78  C   UNL A   1      46.413  34.877  30.756  1.00  0.00     0.001 A 
ATOM     79  C   UNL A   1      45.884  35.557  28.500  1.00  0.00     0.001 A 
ATOM     80  C   UNL A   1      46.159  35.885  29.826  1.00  0.00     0.000 A 
ENDBRANCH  62  75
ENDBRANCH  36  37
ENDBRANCH  29  31
ENDBRANCH  28  29
ENDBRANCH  27  28
ENDBRANCH  26  27
ENDBRANCH  25  26
ENDBRANCH  24  25
ENDBRANCH   1  24
TORSDOF 22
ENDMDL
