MODEL 1
REMARK VINA RESULT:     -10.1      0.000      0.000
REMARK SMILES C[C@@H](C(=O)OCCOCCOCCOC(=O)c1ccc(-c2c3nc(c(-c4ccccc4)c4ccc([nH]4)c(-c4ccccc4)c4nc(c(-c5ccccc5)c5ccc2[nH]5)C=C4)C=C3)cc1)c1ccc(-c2cccc(OC(=O)NCCC3CCCCC3)c2)c(F)c1
REMARK SMILES IDX 7 1 6 2 5 3 3 4 4 5 2 6 1 7 65 8 66 9 89 10 67 11 87 12
REMARK SMILES IDX 68 13 88 14 69 15 70 16 86 17 71 18 73 19 72 20 74 21 75 22
REMARK SMILES IDX 76 23 77 24 78 26 79 27 80 28 81 29 85 30 82 31 84 32 83 33
REMARK SMILES IDX 8 34 9 35 10 36 11 37 12 38 13 39 14 40 15 41 16 42 17 43
REMARK SMILES IDX 18 44 64 45 19 46 63 47 20 48 21 49 22 50 57 51 23 52 62 53
REMARK SMILES IDX 56 54 58 55 24 56 61 57 55 58 54 59 25 61 47 62 32 63 46 64
REMARK SMILES IDX 33 65 36 66 45 67 59 68 34 69 35 70 44 72 60 73 37 74 26 75
REMARK SMILES IDX 27 76 31 77 28 78 30 79 29 80 48 81 49 82 53 83 50 84 52 85
REMARK SMILES IDX 51 86 38 87 39 88 43 89 40 90 42 91 41 92
REMARK H PARENT 77 25 58 60 36 71
REMARK Flexibility Score: inf
ROOT
ATOM      1  C   UNL A   1      34.840  34.682  33.635  1.00  0.00     0.202 C 
ENDROOT
BRANCH   1   2
ATOM      2  C   UNL A   1      34.389  33.378  32.951  1.00  0.00     0.261 C 
BRANCH   2   3
ATOM      3  O   UNL A   1      34.086  33.485  31.538  1.00  0.00    -0.463 OA
BRANCH   3   4
ATOM      4  C   UNL A   1      34.793  32.672  30.697  1.00  0.00     0.313 C 
ATOM      5  O   UNL A   1      35.496  31.746  31.093  1.00  0.00    -0.252 OA
BRANCH   4   6
ATOM      6  C   UNL A   1      34.645  32.998  29.191  1.00  0.00     0.126 C 
ATOM      7  C   UNL A   1      33.692  34.144  28.824  1.00  0.00     0.025 C 
BRANCH   6   8
ATOM      8  C   UNL A   1      34.362  31.775  28.303  1.00  0.00    -0.031 A 
ATOM      9  C   UNL A   1      33.132  31.608  27.642  1.00  0.00     0.005 A 
ATOM     10  C   UNL A   1      35.288  30.745  28.142  1.00  0.00     0.044 A 
ATOM     11  C   UNL A   1      32.852  30.452  26.865  1.00  0.00     0.012 A 
ATOM     12  C   UNL A   1      34.995  29.605  27.379  1.00  0.00     0.131 A 
ATOM     13  C   UNL A   1      33.775  29.399  26.733  1.00  0.00     0.018 A 
ATOM     14  F   UNL A   1      35.970  28.706  27.258  1.00  0.00    -0.206 F 
BRANCH  13  15
ATOM     15  C   UNL A   1      33.552  28.220  25.840  1.00  0.00    -0.012 A 
ATOM     16  C   UNL A   1      34.025  28.305  24.517  1.00  0.00     0.009 A 
ATOM     17  C   UNL A   1      32.937  26.989  26.243  1.00  0.00     0.056 A 
ATOM     18  C   UNL A   1      33.893  27.236  23.626  1.00  0.00     0.004 A 
ATOM     19  C   UNL A   1      32.806  25.908  25.335  1.00  0.00     0.133 A 
ATOM     20  C   UNL A   1      33.288  26.045  24.031  1.00  0.00     0.047 A 
BRANCH  19  21
ATOM     21  O   UNL A   1      32.211  24.597  25.577  1.00  0.00    -0.410 OA
BRANCH  21  22
ATOM     22  C   UNL A   1      31.336  24.199  26.601  1.00  0.00     0.412 C 
ATOM     23  O   UNL A   1      31.693  23.487  27.539  1.00  0.00    -0.224 OA
ATOM     24  N   UNL A   1      30.010  24.632  26.534  1.00  0.00    -0.321 N 
ATOM     25  H   UNL A   1      29.402  24.079  27.078  1.00  0.00     0.167 HD
BRANCH  24  26
ATOM     26  C   UNL A   1      29.303  25.739  25.828  1.00  0.00     0.119 C 
BRANCH  26  27
ATOM     27  C   UNL A   1      29.474  26.012  24.181  1.00  0.00     0.025 C 
BRANCH  27  28
ATOM     28  C   UNL A   1      29.068  27.463  23.663  1.00  0.00    -0.009 C 
ATOM     29  C   UNL A   1      30.534  28.191  23.208  1.00  0.00     0.003 C 
ATOM     30  C   UNL A   1      27.346  28.339  23.148  1.00  0.00     0.003 C 
ATOM     31  C   UNL A   1      30.763  29.779  23.695  1.00  0.00     0.000 C 
ATOM     32  C   UNL A   1      27.291  30.343  23.408  1.00  0.00     0.000 C 
ATOM     33  C   UNL A   1      29.358  31.041  23.744  1.00  0.00     0.000 C 
ENDBRANCH  27  28
ENDBRANCH  26  27
ENDBRANCH  24  26
ENDBRANCH  21  22
ENDBRANCH  19  21
ENDBRANCH  13  15
ENDBRANCH   6   8
ENDBRANCH   4   6
ENDBRANCH   3   4
ENDBRANCH   2   3
ENDBRANCH   1   2
BRANCH   1  34
ATOM     34  O   UNL A   1      36.114  35.247  33.359  1.00  0.00    -0.376 OA
BRANCH  34  35
ATOM     35  C   UNL A   1      37.182  34.373  33.062  1.00  0.00     0.188 C 
BRANCH  35  36
ATOM     36  C   UNL A   1      37.861  33.604  34.204  1.00  0.00     0.188 C 
BRANCH  36  37
ATOM     37  O   UNL A   1      38.038  34.176  35.479  1.00  0.00    -0.376 OA
BRANCH  37  38
ATOM     38  C   UNL A   1      38.009  33.366  36.640  1.00  0.00     0.202 C 
BRANCH  38  39
ATOM     39  C   UNL A   1      39.234  33.128  37.539  1.00  0.00     0.261 C 
BRANCH  39  40
ATOM     40  O   UNL A   1      40.308  34.067  37.438  1.00  0.00    -0.460 OA
BRANCH  40  41
ATOM     41  C   UNL A   1      41.459  33.585  36.905  1.00  0.00     0.338 C 
ATOM     42  O   UNL A   1      41.866  32.438  36.934  1.00  0.00    -0.246 OA
BRANCH  41  43
ATOM     43  C   UNL A   1      42.061  34.656  36.082  1.00  0.00     0.060 A 
ATOM     44  C   UNL A   1      41.276  35.768  35.752  1.00  0.00     0.016 A 
ATOM     45  C   UNL A   1      43.385  34.568  35.646  1.00  0.00     0.016 A 
ATOM     46  C   UNL A   1      41.819  36.796  34.981  1.00  0.00     0.010 A 
ATOM     47  C   UNL A   1      43.916  35.584  34.844  1.00  0.00     0.010 A 
ATOM     48  C   UNL A   1      43.134  36.698  34.495  1.00  0.00    -0.014 A 
BRANCH  48  49
ATOM     49  C   UNL A   1      43.558  37.593  33.380  1.00  0.00     0.031 A 
ATOM     50  C   UNL A   1      44.009  38.968  33.769  1.00  0.00     0.074 A 
ATOM     51  C   UNL A   1      43.595  37.182  32.101  1.00  0.00     0.049 A 
ATOM     52  N   UNL A   1      44.213  40.034  33.044  1.00  0.00    -0.248 NA
ATOM     53  C   UNL A   1      44.143  39.195  35.207  1.00  0.00     0.031 C 
ATOM     54  C   UNL A   1      43.172  35.862  31.653  1.00  0.00     0.029 A 
ATOM     55  N   UNL A   1      44.038  37.796  30.952  1.00  0.00    -0.354 N 
ATOM     56  C   UNL A   1      44.550  41.060  33.938  1.00  0.00     0.074 A 
ATOM     57  C   UNL A   1      44.336  40.499  35.233  1.00  0.00     0.031 C 
ATOM     58  C   UNL A   1      43.473  35.718  30.352  1.00  0.00     0.029 A 
ATOM     59  C   UNL A   1      44.016  36.972  29.844  1.00  0.00     0.049 A 
ATOM     60  H   UNL A   1      44.342  38.732  30.922  1.00  0.00     0.167 HD
ATOM     61  C   UNL A   1      44.997  42.307  33.588  1.00  0.00     0.031 A 
ATOM     62  C   UNL A   1      44.372  37.194  28.561  1.00  0.00     0.031 A 
ATOM     63  C   UNL A   1      44.663  42.554  31.997  1.00  0.00     0.049 A 
ATOM     64  C   UNL A   1      44.860  38.549  28.162  1.00  0.00     0.074 A 
ATOM     65  C   UNL A   1      43.913  43.507  31.255  1.00  0.00     0.029 A 
ATOM     66  N   UNL A   1      45.031  41.677  30.941  1.00  0.00    -0.354 N 
ATOM     67  N   UNL A   1      45.018  39.586  28.934  1.00  0.00    -0.248 NA
ATOM     68  C   UNL A   1      45.204  38.800  26.749  1.00  0.00     0.031 C 
ATOM     69  C   UNL A   1      44.370  43.547  29.929  1.00  0.00     0.029 A 
ATOM     70  C   UNL A   1      45.008  42.356  29.705  1.00  0.00     0.049 A 
ATOM     71  H   UNL A   1      45.270  40.729  31.056  1.00  0.00     0.167 HD
ATOM     72  C   UNL A   1      45.454  40.603  28.111  1.00  0.00     0.074 A 
ATOM     73  C   UNL A   1      45.636  40.056  26.789  1.00  0.00     0.031 C 
ATOM     74  C   UNL A   1      45.555  41.902  28.451  1.00  0.00     0.031 A 
BRANCH  61  75
ATOM     75  C   UNL A   1      45.834  43.451  34.848  1.00  0.00    -0.014 A 
ATOM     76  C   UNL A   1      47.137  44.179  33.907  1.00  0.00     0.009 A 
ATOM     77  C   UNL A   1      46.266  43.199  36.772  1.00  0.00     0.009 A 
ATOM     78  C   UNL A   1      48.685  44.432  34.612  1.00  0.00     0.001 A 
ATOM     79  C   UNL A   1      47.919  43.488  37.367  1.00  0.00     0.001 A 
ATOM     80  C   UNL A   1      49.069  44.074  36.234  1.00  0.00     0.000 A 
ENDBRANCH  61  75
BRANCH  62  81
ATOM     81  C   UNL A   1      44.226  36.149  27.522  1.00  0.00    -0.014 A 
ATOM     82  C   UNL A   1      45.313  35.336  27.167  1.00  0.00     0.009 A 
ATOM     83  C   UNL A   1      43.026  36.034  26.806  1.00  0.00     0.009 A 
ATOM     84  C   UNL A   1      45.214  34.456  26.090  1.00  0.00     0.001 A 
ATOM     85  C   UNL A   1      42.918  35.126  25.755  1.00  0.00     0.001 A 
ATOM     86  C   UNL A   1      44.016  34.351  25.387  1.00  0.00     0.000 A 
ENDBRANCH  62  81
BRANCH  74  87
ATOM     87  C   UNL A   1      46.026  42.892  27.414  1.00  0.00    -0.014 A 
ATOM     88  C   UNL A   1      45.192  43.328  26.367  1.00  0.00     0.009 A 
ATOM     89  C   UNL A   1      47.316  43.439  27.502  1.00  0.00     0.009 A 
ATOM     90  C   UNL A   1      45.634  44.287  25.445  1.00  0.00     0.001 A 
ATOM     91  C   UNL A   1      47.755  44.401  26.583  1.00  0.00     0.001 A 
ATOM     92  C   UNL A   1      46.914  44.828  25.558  1.00  0.00     0.000 A 
ENDBRANCH  74  87
ENDBRANCH  48  49
ENDBRANCH  41  43
ENDBRANCH  40  41
ENDBRANCH  39  40
ENDBRANCH  38  39
ENDBRANCH  37  38
ENDBRANCH  36  37
ENDBRANCH  35  36
ENDBRANCH  34  35
ENDBRANCH   1  34
TORSDOF 24
ENDMDL
MODEL 2
REMARK VINA RESULT:      -8.9      3.988      7.754
REMARK SMILES C[C@@H](C(=O)OCCOCCOCCOC(=O)c1ccc(-c2c3nc(c(-c4ccccc4)c4ccc([nH]4)c(-c4ccccc4)c4nc(c(-c5ccccc5)c5ccc2[nH]5)C=C4)C=C3)cc1)c1ccc(-c2cccc(OC(=O)NCCC3CCCCC3)c2)c(F)c1
REMARK SMILES IDX 7 1 6 2 5 3 3 4 4 5 2 6 1 7 65 8 66 9 89 10 67 11 87 12
REMARK SMILES IDX 68 13 88 14 69 15 70 16 86 17 71 18 73 19 72 20 74 21 75 22
REMARK SMILES IDX 76 23 77 24 78 26 79 27 80 28 81 29 85 30 82 31 84 32 83 33
REMARK SMILES IDX 8 34 9 35 10 36 11 37 12 38 13 39 14 40 15 41 16 42 17 43
REMARK SMILES IDX 18 44 64 45 19 46 63 47 20 48 21 49 22 50 57 51 23 52 62 53
REMARK SMILES IDX 56 54 58 55 24 56 61 57 55 58 54 59 25 61 47 62 32 63 46 64
REMARK SMILES IDX 33 65 36 66 45 67 59 68 34 69 35 70 44 72 60 73 37 74 26 75
REMARK SMILES IDX 27 76 31 77 28 78 30 79 29 80 48 81 49 82 53 83 50 84 52 85
REMARK SMILES IDX 51 86 38 87 39 88 43 89 40 90 42 91 41 92
REMARK H PARENT 77 25 58 60 36 71
REMARK Flexibility Score: inf
ROOT
ATOM      1  C   UNL A   1      34.786  33.961  30.216  1.00  0.00     0.202 C 
ENDROOT
BRANCH   1   2
ATOM      2  C   UNL A   1      34.310  33.624  28.791  1.00  0.00     0.261 C 
BRANCH   2   3
ATOM      3  O   UNL A   1      33.543  32.403  28.658  1.00  0.00    -0.463 OA
BRANCH   3   4
ATOM      4  C   UNL A   1      33.843  31.603  27.592  1.00  0.00     0.313 C 
ATOM      5  O   UNL A   1      34.961  31.129  27.403  1.00  0.00    -0.252 OA
BRANCH   4   6
ATOM      6  C   UNL A   1      32.666  31.326  26.626  1.00  0.00     0.126 C 
ATOM      7  C   UNL A   1      31.362  32.092  26.891  1.00  0.00     0.025 C 
BRANCH   6   8
ATOM      8  C   UNL A   1      32.364  29.835  26.406  1.00  0.00    -0.031 A 
ATOM      9  C   UNL A   1      33.015  28.831  27.144  1.00  0.00     0.005 A 
ATOM     10  C   UNL A   1      31.465  29.396  25.436  1.00  0.00     0.044 A 
ATOM     11  C   UNL A   1      32.774  27.451  26.903  1.00  0.00     0.012 A 
ATOM     12  C   UNL A   1      31.243  28.030  25.202  1.00  0.00     0.131 A 
ATOM     13  C   UNL A   1      31.893  27.011  25.900  1.00  0.00     0.018 A 
ATOM     14  F   UNL A   1      30.331  27.726  24.281  1.00  0.00    -0.206 F 
BRANCH  13  15
ATOM     15  C   UNL A   1      31.540  25.572  25.692  1.00  0.00    -0.012 A 
ATOM     16  C   UNL A   1      31.030  24.861  26.795  1.00  0.00     0.009 A 
ATOM     17  C   UNL A   1      31.635  24.875  24.443  1.00  0.00     0.056 A 
ATOM     18  C   UNL A   1      30.639  23.523  26.681  1.00  0.00     0.004 A 
ATOM     19  C   UNL A   1      31.237  23.519  24.333  1.00  0.00     0.133 A 
ATOM     20  C   UNL A   1      30.741  22.856  25.459  1.00  0.00     0.047 A 
BRANCH  19  21
ATOM     21  O   UNL A   1      31.267  22.666  23.149  1.00  0.00    -0.410 OA
BRANCH  21  22
ATOM     22  C   UNL A   1      32.361  22.013  22.558  1.00  0.00     0.412 C 
ATOM     23  O   UNL A   1      33.079  22.551  21.716  1.00  0.00    -0.224 OA
ATOM     24  N   UNL A   1      32.627  20.698  22.947  1.00  0.00    -0.321 N 
ATOM     25  H   UNL A   1      33.179  20.212  22.292  1.00  0.00     0.167 HD
BRANCH  24  26
ATOM     26  C   UNL A   1      32.267  19.861  24.128  1.00  0.00     0.119 C 
BRANCH  26  27
ATOM     27  C   UNL A   1      33.350  19.536  25.367  1.00  0.00     0.025 C 
BRANCH  27  28
ATOM     28  C   UNL A   1      34.548  20.572  25.541  1.00  0.00    -0.009 C 
ATOM     29  C   UNL A   1      34.084  21.564  26.841  1.00  0.00     0.003 C 
ATOM     30  C   UNL A   1      36.427  20.673  24.865  1.00  0.00     0.003 C 
ATOM     31  C   UNL A   1      34.323  23.211  26.647  1.00  0.00     0.000 C 
ATOM     32  C   UNL A   1      37.172  22.543  24.675  1.00  0.00     0.000 C 
ATOM     33  C   UNL A   1      35.822  23.924  25.745  1.00  0.00     0.000 C 
ENDBRANCH  27  28
ENDBRANCH  26  27
ENDBRANCH  24  26
ENDBRANCH  21  22
ENDBRANCH  19  21
ENDBRANCH  13  15
ENDBRANCH   6   8
ENDBRANCH   4   6
ENDBRANCH   3   4
ENDBRANCH   2   3
ENDBRANCH   1   2
BRANCH   1  34
ATOM     34  O   UNL A   1      35.284  32.946  31.076  1.00  0.00    -0.376 OA
BRANCH  34  35
ATOM     35  C   UNL A   1      36.361  32.154  30.622  1.00  0.00     0.188 C 
BRANCH  35  36
ATOM     36  C   UNL A   1      36.545  30.741  31.193  1.00  0.00     0.188 C 
BRANCH  36  37
ATOM     37  O   UNL A   1      36.480  30.487  32.577  1.00  0.00    -0.376 OA
BRANCH  37  38
ATOM     38  C   UNL A   1      37.202  31.294  33.490  1.00  0.00     0.202 C 
BRANCH  38  39
ATOM     39  C   UNL A   1      38.716  31.546  33.386  1.00  0.00     0.261 C 
BRANCH  39  40
ATOM     40  O   UNL A   1      39.183  32.854  33.727  1.00  0.00    -0.460 OA
BRANCH  40  41
ATOM     41  C   UNL A   1      39.032  33.798  32.763  1.00  0.00     0.338 C 
ATOM     42  O   UNL A   1      38.119  34.593  32.640  1.00  0.00    -0.246 OA
BRANCH  41  43
ATOM     43  C   UNL A   1      40.287  33.852  31.982  1.00  0.00     0.060 A 
ATOM     44  C   UNL A   1      41.486  34.111  32.659  1.00  0.00     0.016 A 
ATOM     45  C   UNL A   1      40.283  33.643  30.602  1.00  0.00     0.016 A 
ATOM     46  C   UNL A   1      42.686  34.162  31.949  1.00  0.00     0.010 A 
ATOM     47  C   UNL A   1      41.483  33.730  29.887  1.00  0.00     0.010 A 
ATOM     48  C   UNL A   1      42.690  34.003  30.553  1.00  0.00    -0.014 A 
BRANCH  48  49
ATOM     49  C   UNL A   1      43.890  34.437  29.782  1.00  0.00     0.031 A 
ATOM     50  C   UNL A   1      44.910  33.378  29.491  1.00  0.00     0.074 A 
ATOM     51  C   UNL A   1      44.034  35.690  29.316  1.00  0.00     0.049 A 
ATOM     52  N   UNL A   1      46.138  33.474  29.060  1.00  0.00    -0.248 NA
ATOM     53  C   UNL A   1      44.513  32.017  29.849  1.00  0.00     0.031 C 
ATOM     54  C   UNL A   1      43.083  36.766  29.560  1.00  0.00     0.029 A 
ATOM     55  N   UNL A   1      44.991  36.268  28.515  1.00  0.00    -0.354 N 
ATOM     56  C   UNL A   1      46.654  32.170  29.046  1.00  0.00     0.074 A 
ATOM     57  C   UNL A   1      45.652  31.376  29.680  1.00  0.00     0.031 C 
ATOM     58  C   UNL A   1      43.438  37.842  28.839  1.00  0.00     0.029 A 
ATOM     59  C   UNL A   1      44.699  37.570  28.161  1.00  0.00     0.049 A 
ATOM     60  H   UNL A   1      45.805  35.798  28.221  1.00  0.00     0.167 HD
ATOM     61  C   UNL A   1      47.859  31.796  28.511  1.00  0.00     0.031 A 
ATOM     62  C   UNL A   1      45.370  38.457  27.396  1.00  0.00     0.031 A 
ATOM     63  C   UNL A   1      48.775  33.144  28.292  1.00  0.00     0.049 A 
ATOM     64  C   UNL A   1      46.687  38.065  26.806  1.00  0.00     0.074 A 
ATOM     65  C   UNL A   1      50.043  33.594  28.752  1.00  0.00     0.029 A 
ATOM     66  N   UNL A   1      48.359  34.306  27.588  1.00  0.00    -0.354 N 
ATOM     67  N   UNL A   1      47.288  36.915  26.920  1.00  0.00    -0.248 NA
ATOM     68  C   UNL A   1      47.437  39.054  26.009  1.00  0.00     0.031 C 
ATOM     69  C   UNL A   1      50.552  34.564  27.877  1.00  0.00     0.029 A 
ATOM     70  C   UNL A   1      49.478  35.073  27.197  1.00  0.00     0.049 A 
ATOM     71  H   UNL A   1      47.423  34.543  27.399  1.00  0.00     0.167 HD
ATOM     72  C   UNL A   1      48.477  37.046  26.236  1.00  0.00     0.074 A 
ATOM     73  C   UNL A   1      48.495  38.349  25.619  1.00  0.00     0.031 C 
ATOM     74  C   UNL A   1      49.498  36.167  26.259  1.00  0.00     0.031 A 
BRANCH  61  75
ATOM     75  C   UNL A   1      48.261  29.978  28.149  1.00  0.00    -0.014 A 
ATOM     76  C   UNL A   1      50.005  29.908  28.407  1.00  0.00     0.009 A 
ATOM     77  C   UNL A   1      47.599  28.736  26.746  1.00  0.00     0.009 A 
ATOM     78  C   UNL A   1      51.004  28.976  27.363  1.00  0.00     0.001 A 
ATOM     79  C   UNL A   1      48.748  27.839  25.725  1.00  0.00     0.001 A 
ATOM     80  C   UNL A   1      50.419  28.027  26.073  1.00  0.00     0.000 A 
ENDBRANCH  61  75
BRANCH  62  81
ATOM     81  C   UNL A   1      44.869  39.834  27.182  1.00  0.00    -0.014 A 
ATOM     82  C   UNL A   1      44.021  40.126  26.103  1.00  0.00     0.009 A 
ATOM     83  C   UNL A   1      45.325  40.881  27.995  1.00  0.00     0.009 A 
ATOM     84  C   UNL A   1      43.671  41.446  25.818  1.00  0.00     0.001 A 
ATOM     85  C   UNL A   1      44.941  42.195  27.731  1.00  0.00     0.001 A 
ATOM     86  C   UNL A   1      44.129  42.478  26.634  1.00  0.00     0.000 A 
ENDBRANCH  62  81
BRANCH  74  87
ATOM     87  C   UNL A   1      50.746  36.480  25.470  1.00  0.00    -0.014 A 
ATOM     88  C   UNL A   1      51.688  37.429  25.911  1.00  0.00     0.009 A 
ATOM     89  C   UNL A   1      51.017  35.784  24.282  1.00  0.00     0.009 A 
ATOM     90  C   UNL A   1      52.865  37.666  25.188  1.00  0.00     0.001 A 
ATOM     91  C   UNL A   1      52.196  36.018  23.562  1.00  0.00     0.001 A 
ATOM     92  C   UNL A   1      53.122  36.955  24.016  1.00  0.00     0.000 A 
ENDBRANCH  74  87
ENDBRANCH  48  49
ENDBRANCH  41  43
ENDBRANCH  40  41
ENDBRANCH  39  40
ENDBRANCH  38  39
ENDBRANCH  37  38
ENDBRANCH  36  37
ENDBRANCH  35  36
ENDBRANCH  34  35
ENDBRANCH   1  34
TORSDOF 24
ENDMDL
MODEL 3
REMARK VINA RESULT:      -8.8      6.460     10.449
REMARK SMILES C[C@@H](C(=O)OCCOCCOCCOC(=O)c1ccc(-c2c3nc(c(-c4ccccc4)c4ccc([nH]4)c(-c4ccccc4)c4nc(c(-c5ccccc5)c5ccc2[nH]5)C=C4)C=C3)cc1)c1ccc(-c2cccc(OC(=O)NCCC3CCCCC3)c2)c(F)c1
REMARK SMILES IDX 7 1 6 2 5 3 3 4 4 5 2 6 1 7 65 8 66 9 89 10 67 11 87 12
REMARK SMILES IDX 68 13 88 14 69 15 70 16 86 17 71 18 73 19 72 20 74 21 75 22
REMARK SMILES IDX 76 23 77 24 78 26 79 27 80 28 81 29 85 30 82 31 84 32 83 33
REMARK SMILES IDX 8 34 9 35 10 36 11 37 12 38 13 39 14 40 15 41 16 42 17 43
REMARK SMILES IDX 18 44 64 45 19 46 63 47 20 48 21 49 22 50 57 51 23 52 62 53
REMARK SMILES IDX 56 54 58 55 24 56 61 57 55 58 54 59 25 61 47 62 32 63 46 64
REMARK SMILES IDX 33 65 36 66 45 67 59 68 34 69 35 70 44 72 60 73 37 74 26 75
REMARK SMILES IDX 27 76 31 77 28 78 30 79 29 80 48 81 49 82 53 83 50 84 52 85
REMARK SMILES IDX 51 86 38 87 39 88 43 89 40 90 42 91 41 92
REMARK H PARENT 77 25 58 60 36 71
REMARK Flexibility Score: inf
ROOT
ATOM      1  C   UNL A   1      37.848  29.523  28.886  1.00  0.00     0.202 C 
ENDROOT
BRANCH   1   2
ATOM      2  C   UNL A   1      37.273  30.302  30.083  1.00  0.00     0.261 C 
BRANCH   2   3
ATOM      3  O   UNL A   1      35.847  30.551  30.041  1.00  0.00    -0.463 OA
BRANCH   3   4
ATOM      4  C   UNL A   1      35.454  31.817  29.706  1.00  0.00     0.313 C 
ATOM      5  O   UNL A   1      35.360  32.728  30.525  1.00  0.00    -0.252 OA
BRANCH   4   6
ATOM      6  C   UNL A   1      35.134  32.031  28.207  1.00  0.00     0.126 C 
ATOM      7  C   UNL A   1      34.526  33.386  27.819  1.00  0.00     0.025 C 
BRANCH   6   8
ATOM      8  C   UNL A   1      34.330  30.890  27.562  1.00  0.00    -0.031 A 
ATOM      9  C   UNL A   1      32.963  31.025  27.263  1.00  0.00     0.005 A 
ATOM     10  C   UNL A   1      34.899  29.649  27.281  1.00  0.00     0.044 A 
ATOM     11  C   UNL A   1      32.209  29.952  26.716  1.00  0.00     0.012 A 
ATOM     12  C   UNL A   1      34.141  28.595  26.749  1.00  0.00     0.131 A 
ATOM     13  C   UNL A   1      32.777  28.690  26.467  1.00  0.00     0.018 A 
ATOM     14  F   UNL A   1      34.797  27.469  26.480  1.00  0.00    -0.206 F 
BRANCH  13  15
ATOM     15  C   UNL A   1      32.038  27.576  25.796  1.00  0.00    -0.012 A 
ATOM     16  C   UNL A   1      30.979  26.977  26.504  1.00  0.00     0.009 A 
ATOM     17  C   UNL A   1      32.293  27.103  24.467  1.00  0.00     0.056 A 
ATOM     18  C   UNL A   1      30.211  25.954  25.939  1.00  0.00     0.004 A 
ATOM     19  C   UNL A   1      31.511  26.068  23.898  1.00  0.00     0.133 A 
ATOM     20  C   UNL A   1      30.474  25.502  24.645  1.00  0.00     0.047 A 
BRANCH  19  21
ATOM     21  O   UNL A   1      31.634  25.472  22.571  1.00  0.00    -0.410 OA
BRANCH  21  22
ATOM     22  C   UNL A   1      32.778  24.967  21.932  1.00  0.00     0.412 C 
ATOM     23  O   UNL A   1      33.726  25.681  21.606  1.00  0.00    -0.224 OA
ATOM     24  N   UNL A   1      32.823  23.599  21.655  1.00  0.00    -0.321 N 
ATOM     25  H   UNL A   1      33.474  23.375  20.950  1.00  0.00     0.167 HD
BRANCH  24  26
ATOM     26  C   UNL A   1      32.110  22.399  22.181  1.00  0.00     0.119 C 
BRANCH  26  27
ATOM     27  C   UNL A   1      32.566  21.630  23.601  1.00  0.00     0.025 C 
BRANCH  27  28
ATOM     28  C   UNL A   1      34.029  21.958  24.138  1.00  0.00    -0.009 C 
ATOM     29  C   UNL A   1      34.090  21.270  25.691  1.00  0.00     0.003 C 
ATOM     30  C   UNL A   1      35.724  22.602  23.294  1.00  0.00     0.003 C 
ATOM     31  C   UNL A   1      34.774  22.210  26.899  1.00  0.00     0.000 C 
ATOM     32  C   UNL A   1      36.952  23.642  24.519  1.00  0.00     0.000 C 
ATOM     33  C   UNL A   1      36.258  23.339  26.592  1.00  0.00     0.000 C 
ENDBRANCH  27  28
ENDBRANCH  26  27
ENDBRANCH  24  26
ENDBRANCH  21  22
ENDBRANCH  19  21
ENDBRANCH  13  15
ENDBRANCH   6   8
ENDBRANCH   4   6
ENDBRANCH   3   4
ENDBRANCH   2   3
ENDBRANCH   1   2
BRANCH   1  34
ATOM     34  O   UNL A   1      39.228  29.189  28.829  1.00  0.00    -0.376 OA
BRANCH  34  35
ATOM     35  C   UNL A   1      39.697  28.478  27.703  1.00  0.00     0.188 C 
BRANCH  35  36
ATOM     36  C   UNL A   1      39.714  26.943  27.740  1.00  0.00     0.188 C 
BRANCH  36  37
ATOM     37  O   UNL A   1      40.083  26.180  26.616  1.00  0.00    -0.376 OA
BRANCH  37  38
ATOM     38  C   UNL A   1      40.992  25.102  26.746  1.00  0.00     0.202 C 
BRANCH  38  39
ATOM     39  C   UNL A   1      42.474  25.188  26.344  1.00  0.00     0.261 C 
BRANCH  39  40
ATOM     40  O   UNL A   1      43.142  23.957  26.055  1.00  0.00    -0.460 OA
BRANCH  40  41
ATOM     41  C   UNL A   1      44.227  23.685  26.823  1.00  0.00     0.338 C 
ATOM     42  O   UNL A   1      44.490  22.642  27.394  1.00  0.00    -0.246 OA
BRANCH  41  43
ATOM     43  C   UNL A   1      45.171  24.815  26.688  1.00  0.00     0.060 A 
ATOM     44  C   UNL A   1      45.635  25.444  27.851  1.00  0.00     0.016 A 
ATOM     45  C   UNL A   1      45.600  25.246  25.431  1.00  0.00     0.016 A 
ATOM     46  C   UNL A   1      46.531  26.509  27.753  1.00  0.00     0.010 A 
ATOM     47  C   UNL A   1      46.471  26.337  25.334  1.00  0.00     0.010 A 
ATOM     48  C   UNL A   1      46.931  26.984  26.493  1.00  0.00    -0.014 A 
BRANCH  48  49
ATOM     49  C   UNL A   1      47.562  28.332  26.399  1.00  0.00     0.031 A 
ATOM     50  C   UNL A   1      49.023  28.359  26.068  1.00  0.00     0.074 A 
ATOM     51  C   UNL A   1      46.859  29.468  26.542  1.00  0.00     0.049 A 
ATOM     52  N   UNL A   1      49.895  29.327  26.141  1.00  0.00    -0.248 NA
ATOM     53  C   UNL A   1      49.603  27.066  25.706  1.00  0.00     0.031 C 
ATOM     54  C   UNL A   1      45.439  29.515  26.862  1.00  0.00     0.029 A 
ATOM     55  N   UNL A   1      47.211  30.790  26.399  1.00  0.00    -0.354 N 
ATOM     56  C   UNL A   1      51.132  28.771  25.784  1.00  0.00     0.074 A 
ATOM     57  C   UNL A   1      50.886  27.369  25.684  1.00  0.00     0.031 C 
ATOM     58  C   UNL A   1      45.009  30.786  26.787  1.00  0.00     0.029 A 
ATOM     59  C   UNL A   1      46.144  31.660  26.514  1.00  0.00     0.049 A 
ATOM     60  H   UNL A   1      48.134  31.089  26.230  1.00  0.00     0.167 HD
ATOM     61  C   UNL A   1      52.291  29.473  25.575  1.00  0.00     0.031 A 
ATOM     62  C   UNL A   1      46.078  33.005  26.429  1.00  0.00     0.031 A 
ATOM     63  C   UNL A   1      52.116  30.975  26.222  1.00  0.00     0.049 A 
ATOM     64  C   UNL A   1      47.333  33.786  26.203  1.00  0.00     0.074 A 
ATOM     65  C   UNL A   1      52.794  31.737  27.212  1.00  0.00     0.029 A 
ATOM     66  N   UNL A   1      51.043  31.864  25.940  1.00  0.00    -0.354 N 
ATOM     67  N   UNL A   1      48.535  33.313  26.044  1.00  0.00    -0.248 NA
ATOM     68  C   UNL A   1      47.261  35.259  26.157  1.00  0.00     0.031 C 
ATOM     69  C   UNL A   1      52.549  33.104  27.013  1.00  0.00     0.029 A 
ATOM     70  C   UNL A   1      51.398  33.187  26.276  1.00  0.00     0.049 A 
ATOM     71  H   UNL A   1      50.175  31.594  25.563  1.00  0.00     0.167 HD
ATOM     72  C   UNL A   1      49.355  34.411  25.901  1.00  0.00     0.074 A 
ATOM     73  C   UNL A   1      48.522  35.589  25.893  1.00  0.00     0.031 C 
ATOM     74  C   UNL A   1      50.701  34.394  25.911  1.00  0.00     0.031 A 
BRANCH  61  75
ATOM     75  C   UNL A   1      53.772  28.698  24.679  1.00  0.00    -0.014 A 
ATOM     76  C   UNL A   1      54.786  28.144  26.013  1.00  0.00     0.009 A 
ATOM     77  C   UNL A   1      54.789  29.275  23.073  1.00  0.00     0.009 A 
ATOM     78  C   UNL A   1      56.495  28.310  25.935  1.00  0.00     0.001 A 
ATOM     79  C   UNL A   1      56.563  29.414  23.134  1.00  0.00     0.001 A 
ATOM     80  C   UNL A   1      57.337  28.943  24.593  1.00  0.00     0.000 A 
ENDBRANCH  61  75
BRANCH  62  81
ATOM     81  C   UNL A   1      44.804  33.735  26.624  1.00  0.00    -0.014 A 
ATOM     82  C   UNL A   1      44.084  34.223  25.523  1.00  0.00     0.009 A 
ATOM     83  C   UNL A   1      44.359  34.037  27.918  1.00  0.00     0.009 A 
ATOM     84  C   UNL A   1      42.966  35.034  25.715  1.00  0.00     0.001 A 
ATOM     85  C   UNL A   1      43.219  34.816  28.107  1.00  0.00     0.001 A 
ATOM     86  C   UNL A   1      42.534  35.327  27.007  1.00  0.00     0.000 A 
ENDBRANCH  62  81
BRANCH  74  87
ATOM     87  C   UNL A   1      51.447  35.699  25.769  1.00  0.00    -0.014 A 
ATOM     88  C   UNL A   1      51.742  36.514  26.880  1.00  0.00     0.009 A 
ATOM     89  C   UNL A   1      51.907  36.110  24.509  1.00  0.00     0.009 A 
ATOM     90  C   UNL A   1      52.480  37.696  26.731  1.00  0.00     0.001 A 
ATOM     91  C   UNL A   1      52.649  37.290  24.362  1.00  0.00     0.001 A 
ATOM     92  C   UNL A   1      52.939  38.081  25.472  1.00  0.00     0.000 A 
ENDBRANCH  74  87
ENDBRANCH  48  49
ENDBRANCH  41  43
ENDBRANCH  40  41
ENDBRANCH  39  40
ENDBRANCH  38  39
ENDBRANCH  37  38
ENDBRANCH  36  37
ENDBRANCH  35  36
ENDBRANCH  34  35
ENDBRANCH   1  34
TORSDOF 24
ENDMDL
