MODEL 1
REMARK VINA RESULT:      -9.0      0.000      0.000
REMARK SMILES CC[C@H]1CC[C@](C[C@H](O)COC)(C(=O)OCCOCCOCCOC(=O)c2ccc(-c3c4nc(c(-c5ccccc5)c5ccc([nH]5)c(-c5ccccc5)c5nc(c(-c6ccccc6)c6ccc3[nH]6)C=C5)C=C4)cc2)CC1
REMARK SMILES IDX 19 1 18 2 17 3 16 4 15 5 13 6 14 7 6 8 3 9 76 10 4 11 75 12
REMARK SMILES IDX 5 13 2 14 1 15 7 16 8 17 10 18 11 19 12 20 9 21 20 23 21 24
REMARK SMILES IDX 22 25 23 26 24 27 25 28 26 29 27 30 28 31 74 32 29 33 73 34
REMARK SMILES IDX 30 35 31 36 32 37 67 38 33 39 72 40 66 41 68 42 34 43 71 44
REMARK SMILES IDX 65 45 64 46 35 48 57 49 42 50 56 51 43 52 46 53 55 54 69 55
REMARK SMILES IDX 44 56 45 57 54 59 70 60 47 61 36 62 37 63 41 64 38 65 40 66
REMARK SMILES IDX 39 67 58 68 59 69 63 70 60 71 62 72 61 73 48 74 49 75 53 76
REMARK SMILES IDX 50 77 52 78 51 79
REMARK H PARENT 9 22 68 47 46 58
REMARK Flexibility Score: inf
ROOT
ATOM      1  C   UNL A   1      33.911  21.206  25.824  1.00  0.00     0.188 C 
ENDROOT
BRANCH   1   2
ATOM      2  O   UNL A   1      32.979  21.742  24.889  1.00  0.00    -0.376 OA
BRANCH   2   3
ATOM      3  C   UNL A   1      33.390  21.900  23.538  1.00  0.00     0.202 C 
BRANCH   3   4
ATOM      4  C   UNL A   1      32.922  23.175  22.839  1.00  0.00     0.261 C 
BRANCH   4   5
ATOM      5  O   UNL A   1      32.896  24.344  23.690  1.00  0.00    -0.463 OA
BRANCH   5   6
ATOM      6  C   UNL A   1      33.194  25.529  23.107  1.00  0.00     0.312 C 
ATOM      7  O   UNL A   1      33.804  25.600  22.042  1.00  0.00    -0.252 OA
BRANCH   6   8
ATOM      8  C   UNL A   1      32.830  26.809  23.918  1.00  0.00     0.071 C 
ATOM      9  C   UNL A   1      33.766  28.998  25.879  1.00  0.00    -0.011 C 
ATOM     10  C   UNL A   1      33.356  27.602  26.364  1.00  0.00     0.005 C 
ATOM     11  C   UNL A   1      33.088  29.303  24.538  1.00  0.00     0.005 C 
ATOM     12  C   UNL A   1      33.496  26.519  25.303  1.00  0.00     0.019 C 
ATOM     13  C   UNL A   1      33.378  28.195  23.495  1.00  0.00     0.019 C 
BRANCH   9  14
ATOM     14  C   UNL A   1      33.450  30.012  26.998  1.00  0.00    -0.000 C 
ATOM     15  C   UNL A   1      32.166  30.804  26.809  1.00  0.00     0.004 C 
ENDBRANCH   9  14
BRANCH   8  16
ATOM     16  C   UNL A   1      31.266  26.817  23.977  1.00  0.00     0.053 C 
BRANCH  16  17
ATOM     17  C   UNL A   1      30.495  27.230  22.685  1.00  0.00     0.141 C 
BRANCH  17  18
ATOM     18  C   UNL A   1      29.938  28.667  22.746  1.00  0.00     0.191 C 
BRANCH  18  19
ATOM     19  O   UNL A   1      28.507  28.730  22.673  1.00  0.00    -0.382 OA
ATOM     20  C   UNL A   1      27.986  30.032  22.937  1.00  0.00     0.195 C 
ENDBRANCH  18  19
ENDBRANCH  17  18
BRANCH  17  21
ATOM     21  O   UNL A   1      31.308  27.093  21.528  1.00  0.00    -0.391 OA
ATOM     22  H   UNL A   1      32.243  27.140  21.781  1.00  0.00     0.211 HD
ENDBRANCH  17  21
ENDBRANCH  16  17
ENDBRANCH   8  16
ENDBRANCH   6   8
ENDBRANCH   5   6
ENDBRANCH   4   5
ENDBRANCH   3   4
ENDBRANCH   2   3
ENDBRANCH   1   2
BRANCH   1  23
ATOM     23  C   UNL A   1      35.402  21.525  25.658  1.00  0.00     0.188 C 
BRANCH  23  24
ATOM     24  O   UNL A   1      36.141  20.444  25.117  1.00  0.00    -0.376 OA
BRANCH  24  25
ATOM     25  C   UNL A   1      37.436  20.790  24.659  1.00  0.00     0.202 C 
BRANCH  25  26
ATOM     26  C   UNL A   1      38.427  19.759  25.199  1.00  0.00     0.261 C 
BRANCH  26  27
ATOM     27  O   UNL A   1      39.246  20.261  26.277  1.00  0.00    -0.460 OA
BRANCH  27  28
ATOM     28  C   UNL A   1      40.570  19.996  26.202  1.00  0.00     0.338 C 
ATOM     29  O   UNL A   1      41.090  19.027  25.673  1.00  0.00    -0.246 OA
BRANCH  28  30
ATOM     30  C   UNL A   1      41.316  21.192  26.662  1.00  0.00     0.060 A 
ATOM     31  C   UNL A   1      41.557  21.350  28.035  1.00  0.00     0.016 A 
ATOM     32  C   UNL A   1      41.789  22.143  25.755  1.00  0.00     0.016 A 
ATOM     33  C   UNL A   1      42.237  22.477  28.506  1.00  0.00     0.010 A 
ATOM     34  C   UNL A   1      42.453  23.278  26.228  1.00  0.00     0.010 A 
ATOM     35  C   UNL A   1      42.652  23.470  27.609  1.00  0.00    -0.014 A 
BRANCH  35  36
ATOM     36  C   UNL A   1      43.098  24.796  28.104  1.00  0.00     0.031 A 
ATOM     37  C   UNL A   1      42.047  25.836  28.396  1.00  0.00     0.074 A 
ATOM     38  C   UNL A   1      44.398  25.096  28.283  1.00  0.00     0.049 A 
ATOM     39  N   UNL A   1      42.189  27.085  28.760  1.00  0.00    -0.248 NA
ATOM     40  C   UNL A   1      40.646  25.405  28.255  1.00  0.00     0.031 C 
ATOM     41  C   UNL A   1      45.519  24.180  28.091  1.00  0.00     0.029 A 
ATOM     42  N   UNL A   1      44.989  26.279  28.662  1.00  0.00    -0.354 N 
ATOM     43  C   UNL A   1      40.901  27.592  28.871  1.00  0.00     0.074 A 
ATOM     44  C   UNL A   1      39.990  26.523  28.523  1.00  0.00     0.031 C 
ATOM     45  C   UNL A   1      46.666  24.839  28.345  1.00  0.00     0.029 A 
ATOM     46  C   UNL A   1      46.363  26.230  28.679  1.00  0.00     0.049 A 
ATOM     47  H   UNL A   1      44.476  27.085  28.899  1.00  0.00     0.167 HD
ATOM     48  C   UNL A   1      40.506  28.836  29.230  1.00  0.00     0.031 A 
ATOM     49  C   UNL A   1      47.267  27.202  28.910  1.00  0.00     0.031 A 
ATOM     50  C   UNL A   1      41.399  29.908  29.572  1.00  0.00     0.049 A 
ATOM     51  C   UNL A   1      46.799  28.605  29.218  1.00  0.00     0.074 A 
ATOM     52  C   UNL A   1      41.083  31.194  29.978  1.00  0.00     0.029 A 
ATOM     53  N   UNL A   1      42.781  29.827  29.535  1.00  0.00    -0.354 N 
ATOM     54  N   UNL A   1      45.578  29.060  29.362  1.00  0.00    -0.248 NA
ATOM     55  C   UNL A   1      47.844  29.627  29.397  1.00  0.00     0.031 C 
ATOM     56  C   UNL A   1      42.274  31.910  30.126  1.00  0.00     0.029 A 
ATOM     57  C   UNL A   1      43.331  31.051  29.875  1.00  0.00     0.049 A 
ATOM     58  H   UNL A   1      43.294  29.020  29.302  1.00  0.00     0.167 HD
ATOM     59  C   UNL A   1      45.711  30.407  29.685  1.00  0.00     0.074 A 
ATOM     60  C   UNL A   1      47.129  30.694  29.727  1.00  0.00     0.031 C 
ATOM     61  C   UNL A   1      44.743  31.324  29.930  1.00  0.00     0.031 A 
BRANCH  48  62
ATOM     62  C   UNL A   1      39.031  29.120  29.230  1.00  0.00    -0.014 A 
ATOM     63  C   UNL A   1      38.260  28.988  30.394  1.00  0.00     0.009 A 
ATOM     64  C   UNL A   1      38.416  29.573  28.052  1.00  0.00     0.009 A 
ATOM     65  C   UNL A   1      36.895  29.278  30.371  1.00  0.00     0.001 A 
ATOM     66  C   UNL A   1      37.057  29.889  28.038  1.00  0.00     0.001 A 
ATOM     67  C   UNL A   1      36.295  29.734  29.196  1.00  0.00     0.000 A 
ENDBRANCH  48  62
BRANCH  49  68
ATOM     68  C   UNL A   1      48.726  26.914  28.837  1.00  0.00    -0.014 A 
ATOM     69  C   UNL A   1      49.407  26.984  27.612  1.00  0.00     0.009 A 
ATOM     70  C   UNL A   1      49.427  26.495  29.978  1.00  0.00     0.009 A 
ATOM     71  C   UNL A   1      50.750  26.607  27.525  1.00  0.00     0.001 A 
ATOM     72  C   UNL A   1      50.778  26.149  29.895  1.00  0.00     0.001 A 
ATOM     73  C   UNL A   1      51.434  26.192  28.666  1.00  0.00     0.000 A 
ENDBRANCH  49  68
BRANCH  61  74
ATOM     74  C   UNL A   1      45.176  32.712  30.320  1.00  0.00    -0.014 A 
ATOM     75  C   UNL A   1      45.410  33.060  31.658  1.00  0.00     0.009 A 
ATOM     76  C   UNL A   1      45.403  33.671  29.319  1.00  0.00     0.009 A 
ATOM     77  C   UNL A   1      45.830  34.351  31.989  1.00  0.00     0.001 A 
ATOM     78  C   UNL A   1      45.853  34.950  29.650  1.00  0.00     0.001 A 
ATOM     79  C   UNL A   1      46.057  35.292  30.986  1.00  0.00     0.000 A 
ENDBRANCH  61  74
ENDBRANCH  35  36
ENDBRANCH  28  30
ENDBRANCH  27  28
ENDBRANCH  26  27
ENDBRANCH  25  26
ENDBRANCH  24  25
ENDBRANCH  23  24
ENDBRANCH   1  23
TORSDOF 23
ENDMDL
MODEL 2
REMARK VINA RESULT:      -8.9      1.138      6.069
REMARK SMILES CC[C@H]1CC[C@](C[C@H](O)COC)(C(=O)OCCOCCOCCOC(=O)c2ccc(-c3c4nc(c(-c5ccccc5)c5ccc([nH]5)c(-c5ccccc5)c5nc(c(-c6ccccc6)c6ccc3[nH]6)C=C5)C=C4)cc2)CC1
REMARK SMILES IDX 19 1 18 2 17 3 16 4 15 5 13 6 14 7 6 8 3 9 76 10 4 11 75 12
REMARK SMILES IDX 5 13 2 14 1 15 7 16 8 17 10 18 11 19 12 20 9 21 20 23 21 24
REMARK SMILES IDX 22 25 23 26 24 27 25 28 26 29 27 30 28 31 74 32 29 33 73 34
REMARK SMILES IDX 30 35 31 36 32 37 67 38 33 39 72 40 66 41 68 42 34 43 71 44
REMARK SMILES IDX 65 45 64 46 35 48 57 49 42 50 56 51 43 52 46 53 55 54 69 55
REMARK SMILES IDX 44 56 45 57 54 59 70 60 47 61 36 62 37 63 41 64 38 65 40 66
REMARK SMILES IDX 39 67 58 68 59 69 63 70 60 71 62 72 61 73 48 74 49 75 53 76
REMARK SMILES IDX 50 77 52 78 51 79
REMARK H PARENT 9 22 68 47 46 58
REMARK Flexibility Score: inf
ROOT
ATOM      1  C   UNL A   1      34.784  21.864  25.553  1.00  0.00     0.188 C 
ENDROOT
BRANCH   1   2
ATOM      2  O   UNL A   1      34.074  22.326  24.408  1.00  0.00    -0.376 OA
BRANCH   2   3
ATOM      3  C   UNL A   1      34.806  22.955  23.365  1.00  0.00     0.202 C 
BRANCH   3   4
ATOM      4  C   UNL A   1      33.981  23.735  22.342  1.00  0.00     0.261 C 
BRANCH   4   5
ATOM      5  O   UNL A   1      34.095  25.173  22.459  1.00  0.00    -0.463 OA
BRANCH   5   6
ATOM      6  C   UNL A   1      32.975  25.893  22.215  1.00  0.00     0.312 C 
ATOM      7  O   UNL A   1      32.472  25.965  21.096  1.00  0.00    -0.252 OA
BRANCH   6   8
ATOM      8  C   UNL A   1      32.421  26.733  23.407  1.00  0.00     0.071 C 
ATOM      9  C   UNL A   1      33.018  28.732  25.677  1.00  0.00    -0.011 C 
ATOM     10  C   UNL A   1      33.310  27.233  25.825  1.00  0.00     0.005 C 
ATOM     11  C   UNL A   1      31.915  28.947  24.635  1.00  0.00     0.005 C 
ATOM     12  C   UNL A   1      33.521  26.518  24.498  1.00  0.00     0.019 C 
ATOM     13  C   UNL A   1      32.273  28.270  23.289  1.00  0.00     0.019 C 
BRANCH   9  14
ATOM     14  C   UNL A   1      32.693  29.301  27.075  1.00  0.00    -0.000 C 
ATOM     15  C   UNL A   1      32.965  30.786  27.248  1.00  0.00     0.004 C 
ENDBRANCH   9  14
BRANCH   8  16
ATOM     16  C   UNL A   1      31.054  26.062  23.770  1.00  0.00     0.053 C 
BRANCH  16  17
ATOM     17  C   UNL A   1      31.050  24.524  24.031  1.00  0.00     0.141 C 
BRANCH  17  18
ATOM     18  C   UNL A   1      30.677  24.157  25.482  1.00  0.00     0.191 C 
BRANCH  18  19
ATOM     19  O   UNL A   1      31.811  24.049  26.355  1.00  0.00    -0.382 OA
ATOM     20  C   UNL A   1      31.731  22.938  27.247  1.00  0.00     0.195 C 
ENDBRANCH  18  19
ENDBRANCH  17  18
BRANCH  17  21
ATOM     21  O   UNL A   1      30.177  23.846  23.139  1.00  0.00    -0.391 OA
ATOM     22  H   UNL A   1      30.651  23.638  22.318  1.00  0.00     0.211 HD
ENDBRANCH  17  21
ENDBRANCH  16  17
ENDBRANCH   8  16
ENDBRANCH   6   8
ENDBRANCH   5   6
ENDBRANCH   4   5
ENDBRANCH   3   4
ENDBRANCH   2   3
ENDBRANCH   1   2
BRANCH   1  23
ATOM     23  C   UNL A   1      36.293  22.123  25.650  1.00  0.00     0.188 C 
BRANCH  23  24
ATOM     24  O   UNL A   1      37.069  20.969  25.379  1.00  0.00    -0.376 OA
BRANCH  24  25
ATOM     25  C   UNL A   1      38.469  21.186  25.405  1.00  0.00     0.202 C 
BRANCH  25  26
ATOM     26  C   UNL A   1      39.166  19.830  25.300  1.00  0.00     0.261 C 
BRANCH  26  27
ATOM     27  O   UNL A   1      40.029  19.539  26.421  1.00  0.00    -0.460 OA
BRANCH  27  28
ATOM     28  C   UNL A   1      41.359  19.589  26.187  1.00  0.00     0.338 C 
ATOM     29  O   UNL A   1      42.022  18.770  25.572  1.00  0.00    -0.246 OA
BRANCH  28  30
ATOM     30  C   UNL A   1      41.859  20.925  26.594  1.00  0.00     0.060 A 
ATOM     31  C   UNL A   1      41.809  21.278  27.952  1.00  0.00     0.016 A 
ATOM     32  C   UNL A   1      42.386  21.817  25.658  1.00  0.00     0.016 A 
ATOM     33  C   UNL A   1      42.250  22.538  28.368  1.00  0.00     0.010 A 
ATOM     34  C   UNL A   1      42.811  23.083  26.074  1.00  0.00     0.010 A 
ATOM     35  C   UNL A   1      42.714  23.464  27.425  1.00  0.00    -0.014 A 
BRANCH  35  36
ATOM     36  C   UNL A   1      42.900  24.890  27.795  1.00  0.00     0.031 A 
ATOM     37  C   UNL A   1      44.304  25.387  28.024  1.00  0.00     0.074 A 
ATOM     38  C   UNL A   1      41.863  25.735  27.943  1.00  0.00     0.049 A 
ATOM     39  N   UNL A   1      44.716  26.562  28.429  1.00  0.00    -0.248 NA
ATOM     40  C   UNL A   1      45.388  24.426  27.762  1.00  0.00     0.031 C 
ATOM     41  C   UNL A   1      40.458  25.411  27.707  1.00  0.00     0.029 A 
ATOM     42  N   UNL A   1      41.843  27.050  28.344  1.00  0.00    -0.354 N 
ATOM     43  C   UNL A   1      46.101  26.473  28.489  1.00  0.00     0.074 A 
ATOM     44  C   UNL A   1      46.459  25.129  28.094  1.00  0.00     0.031 C 
ATOM     45  C   UNL A   1      39.710  26.498  27.976  1.00  0.00     0.029 A 
ATOM     46  C   UNL A   1      40.578  27.580  28.441  1.00  0.00     0.049 A 
ATOM     47  H   UNL A   1      42.659  27.564  28.543  1.00  0.00     0.167 HD
ATOM     48  C   UNL A   1      46.998  27.423  28.842  1.00  0.00     0.031 A 
ATOM     49  C   UNL A   1      40.170  28.787  28.879  1.00  0.00     0.031 A 
ATOM     50  C   UNL A   1      46.655  28.760  29.243  1.00  0.00     0.049 A 
ATOM     51  C   UNL A   1      41.188  29.797  29.354  1.00  0.00     0.074 A 
ATOM     52  C   UNL A   1      47.505  29.798  29.587  1.00  0.00     0.029 A 
ATOM     53  N   UNL A   1      45.362  29.240  29.367  1.00  0.00    -0.354 N 
ATOM     54  N   UNL A   1      42.496  29.715  29.365  1.00  0.00    -0.248 NA
ATOM     55  C   UNL A   1      40.663  31.070  29.877  1.00  0.00     0.031 C 
ATOM     56  C   UNL A   1      46.723  30.888  29.980  1.00  0.00     0.029 A 
ATOM     57  C   UNL A   1      45.390  30.548  29.818  1.00  0.00     0.049 A 
ATOM     58  H   UNL A   1      44.547  28.727  29.164  1.00  0.00     0.167 HD
ATOM     59  C   UNL A   1      42.949  30.936  29.857  1.00  0.00     0.074 A 
ATOM     60  C   UNL A   1      41.778  31.744  30.123  1.00  0.00     0.031 C 
ATOM     61  C   UNL A   1      44.222  31.351  30.066  1.00  0.00     0.031 A 
BRANCH  48  62
ATOM     62  C   UNL A   1      48.449  27.035  28.851  1.00  0.00    -0.014 A 
ATOM     63  C   UNL A   1      49.018  26.355  29.938  1.00  0.00     0.009 A 
ATOM     64  C   UNL A   1      49.246  27.317  27.730  1.00  0.00     0.009 A 
ATOM     65  C   UNL A   1      50.365  25.988  29.912  1.00  0.00     0.001 A 
ATOM     66  C   UNL A   1      50.585  26.925  27.696  1.00  0.00     0.001 A 
ATOM     67  C   UNL A   1      51.145  26.268  28.790  1.00  0.00     0.000 A 
ENDBRANCH  48  62
BRANCH  49  68
ATOM     68  C   UNL A   1      38.721  29.127  28.925  1.00  0.00    -0.014 A 
ATOM     69  C   UNL A   1      38.088  29.709  27.815  1.00  0.00     0.009 A 
ATOM     70  C   UNL A   1      37.983  28.941  30.104  1.00  0.00     0.009 A 
ATOM     71  C   UNL A   1      36.758  30.128  27.896  1.00  0.00     0.001 A 
ATOM     72  C   UNL A   1      36.643  29.331  30.172  1.00  0.00     0.001 A 
ATOM     73  C   UNL A   1      36.036  29.937  29.073  1.00  0.00     0.000 A 
ENDBRANCH  49  68
BRANCH  61  74
ATOM     74  C   UNL A   1      44.427  32.759  30.555  1.00  0.00    -0.014 A 
ATOM     75  C   UNL A   1      44.526  33.055  31.922  1.00  0.00     0.009 A 
ATOM     76  C   UNL A   1      44.575  33.799  29.623  1.00  0.00     0.009 A 
ATOM     77  C   UNL A   1      44.736  34.370  32.347  1.00  0.00     0.001 A 
ATOM     78  C   UNL A   1      44.817  35.106  30.049  1.00  0.00     0.001 A 
ATOM     79  C   UNL A   1      44.888  35.392  31.411  1.00  0.00     0.000 A 
ENDBRANCH  61  74
ENDBRANCH  35  36
ENDBRANCH  28  30
ENDBRANCH  27  28
ENDBRANCH  26  27
ENDBRANCH  25  26
ENDBRANCH  24  25
ENDBRANCH  23  24
ENDBRANCH   1  23
TORSDOF 23
ENDMDL
MODEL 3
REMARK VINA RESULT:      -8.8      1.893      5.918
REMARK SMILES CC[C@H]1CC[C@](C[C@H](O)COC)(C(=O)OCCOCCOCCOC(=O)c2ccc(-c3c4nc(c(-c5ccccc5)c5ccc([nH]5)c(-c5ccccc5)c5nc(c(-c6ccccc6)c6ccc3[nH]6)C=C5)C=C4)cc2)CC1
REMARK SMILES IDX 19 1 18 2 17 3 16 4 15 5 13 6 14 7 6 8 3 9 76 10 4 11 75 12
REMARK SMILES IDX 5 13 2 14 1 15 7 16 8 17 10 18 11 19 12 20 9 21 20 23 21 24
REMARK SMILES IDX 22 25 23 26 24 27 25 28 26 29 27 30 28 31 74 32 29 33 73 34
REMARK SMILES IDX 30 35 31 36 32 37 67 38 33 39 72 40 66 41 68 42 34 43 71 44
REMARK SMILES IDX 65 45 64 46 35 48 57 49 42 50 56 51 43 52 46 53 55 54 69 55
REMARK SMILES IDX 44 56 45 57 54 59 70 60 47 61 36 62 37 63 41 64 38 65 40 66
REMARK SMILES IDX 39 67 58 68 59 69 63 70 60 71 62 72 61 73 48 74 49 75 53 76
REMARK SMILES IDX 50 77 52 78 51 79
REMARK H PARENT 9 22 68 47 46 58
REMARK Flexibility Score: inf
ROOT
ATOM      1  C   UNL A   1      33.762  20.530  25.155  1.00  0.00     0.188 C 
ENDROOT
BRANCH   1   2
ATOM      2  O   UNL A   1      32.653  21.400  25.358  1.00  0.00    -0.376 OA
BRANCH   2   3
ATOM      3  C   UNL A   1      32.148  22.125  24.245  1.00  0.00     0.202 C 
BRANCH   3   4
ATOM      4  C   UNL A   1      32.614  23.575  24.121  1.00  0.00     0.261 C 
BRANCH   4   5
ATOM      5  O   UNL A   1      32.742  24.268  25.384  1.00  0.00    -0.463 OA
BRANCH   5   6
ATOM      6  C   UNL A   1      31.809  25.209  25.660  1.00  0.00     0.312 C 
ATOM      7  O   UNL A   1      30.628  24.926  25.848  1.00  0.00    -0.252 OA
BRANCH   6   8
ATOM      8  C   UNL A   1      32.287  26.692  25.604  1.00  0.00     0.071 C 
ATOM      9  C   UNL A   1      33.271  29.166  27.160  1.00  0.00    -0.011 C 
ATOM     10  C   UNL A   1      31.783  28.804  27.079  1.00  0.00     0.005 C 
ATOM     11  C   UNL A   1      34.017  28.577  25.956  1.00  0.00     0.005 C 
ATOM     12  C   UNL A   1      31.526  27.327  26.814  1.00  0.00     0.019 C 
ATOM     13  C   UNL A   1      33.776  27.052  25.837  1.00  0.00     0.019 C 
BRANCH   9  14
ATOM     14  C   UNL A   1      33.390  30.700  27.293  1.00  0.00    -0.000 C 
ATOM     15  C   UNL A   1      34.576  31.188  28.107  1.00  0.00     0.004 C 
ENDBRANCH   9  14
BRANCH   8  16
ATOM     16  C   UNL A   1      31.790  27.222  24.218  1.00  0.00     0.053 C 
BRANCH  16  17
ATOM     17  C   UNL A   1      30.327  27.756  24.130  1.00  0.00     0.141 C 
BRANCH  17  18
ATOM     18  C   UNL A   1      30.214  29.090  23.363  1.00  0.00     0.191 C 
BRANCH  18  19
ATOM     19  O   UNL A   1      28.874  29.409  22.964  1.00  0.00    -0.382 OA
ATOM     20  C   UNL A   1      28.811  30.175  21.761  1.00  0.00     0.195 C 
ENDBRANCH  18  19
ENDBRANCH  17  18
BRANCH  17  21
ATOM     21  O   UNL A   1      29.459  26.801  23.536  1.00  0.00    -0.391 OA
ATOM     22  H   UNL A   1      29.880  25.927  23.552  1.00  0.00     0.211 HD
ENDBRANCH  17  21
ENDBRANCH  16  17
ENDBRANCH   8  16
ENDBRANCH   6   8
ENDBRANCH   5   6
ENDBRANCH   4   5
ENDBRANCH   3   4
ENDBRANCH   2   3
ENDBRANCH   1   2
BRANCH   1  23
ATOM     23  C   UNL A   1      35.183  21.077  25.341  1.00  0.00     0.188 C 
BRANCH  23  24
ATOM     24  O   UNL A   1      36.186  20.115  25.063  1.00  0.00    -0.376 OA
BRANCH  24  25
ATOM     25  C   UNL A   1      37.428  20.664  24.660  1.00  0.00     0.202 C 
BRANCH  25  26
ATOM     26  C   UNL A   1      38.541  19.723  25.122  1.00  0.00     0.261 C 
BRANCH  26  27
ATOM     27  O   UNL A   1      39.076  20.061  26.419  1.00  0.00    -0.460 OA
BRANCH  27  28
ATOM     28  C   UNL A   1      40.410  20.278  26.483  1.00  0.00     0.338 C 
ATOM     29  O   UNL A   1      41.288  19.538  26.071  1.00  0.00    -0.246 OA
BRANCH  28  30
ATOM     30  C   UNL A   1      40.638  21.675  26.926  1.00  0.00     0.060 A 
ATOM     31  C   UNL A   1      39.802  22.686  26.428  1.00  0.00     0.016 A 
ATOM     32  C   UNL A   1      41.653  21.989  27.833  1.00  0.00     0.016 A 
ATOM     33  C   UNL A   1      40.004  24.016  26.806  1.00  0.00     0.010 A 
ATOM     34  C   UNL A   1      41.865  23.323  28.196  1.00  0.00     0.010 A 
ATOM     35  C   UNL A   1      41.064  24.348  27.660  1.00  0.00    -0.014 A 
BRANCH  35  36
ATOM     36  C   UNL A   1      41.479  25.763  27.833  1.00  0.00     0.031 A 
ATOM     37  C   UNL A   1      42.782  26.201  27.214  1.00  0.00     0.074 A 
ATOM     38  C   UNL A   1      40.742  26.649  28.528  1.00  0.00     0.049 A 
ATOM     39  N   UNL A   1      43.394  27.356  27.292  1.00  0.00    -0.248 NA
ATOM     40  C   UNL A   1      43.489  25.198  26.401  1.00  0.00     0.031 C 
ATOM     41  C   UNL A   1      39.441  26.384  29.137  1.00  0.00     0.029 A 
ATOM     42  N   UNL A   1      41.001  27.962  28.845  1.00  0.00    -0.354 N 
ATOM     43  C   UNL A   1      44.563  27.211  26.557  1.00  0.00     0.074 A 
ATOM     44  C   UNL A   1      44.584  25.855  26.052  1.00  0.00     0.031 C 
ATOM     45  C   UNL A   1      39.020  27.499  29.764  1.00  0.00     0.029 A 
ATOM     46  C   UNL A   1      40.037  28.542  29.633  1.00  0.00     0.049 A 
ATOM     47  H   UNL A   1      41.804  28.441  28.535  1.00  0.00     0.167 HD
ATOM     48  C   UNL A   1      45.536  28.121  26.319  1.00  0.00     0.031 A 
ATOM     49  C   UNL A   1      39.995  29.763  30.203  1.00  0.00     0.031 A 
ATOM     50  C   UNL A   1      45.531  29.468  26.819  1.00  0.00     0.049 A 
ATOM     51  C   UNL A   1      41.138  30.727  29.997  1.00  0.00     0.074 A 
ATOM     52  C   UNL A   1      46.463  30.469  26.601  1.00  0.00     0.029 A 
ATOM     53  N   UNL A   1      44.557  30.000  27.646  1.00  0.00    -0.354 N 
ATOM     54  N   UNL A   1      42.217  30.592  29.265  1.00  0.00    -0.248 NA
ATOM     55  C   UNL A   1      41.052  32.017  30.702  1.00  0.00     0.031 C 
ATOM     56  C   UNL A   1      46.085  31.588  27.348  1.00  0.00     0.029 A 
ATOM     57  C   UNL A   1      44.884  31.304  27.978  1.00  0.00     0.049 A 
ATOM     58  H   UNL A   1      43.753  29.522  27.952  1.00  0.00     0.167 HD
ATOM     59  C   UNL A   1      42.914  31.790  29.389  1.00  0.00     0.074 A 
ATOM     60  C   UNL A   1      42.133  32.644  30.259  1.00  0.00     0.031 C 
ATOM     61  C   UNL A   1      44.094  32.152  28.831  1.00  0.00     0.031 A 
BRANCH  48  62
ATOM     62  C   UNL A   1      46.720  27.674  25.510  1.00  0.00    -0.014 A 
ATOM     63  C   UNL A   1      46.775  27.871  24.123  1.00  0.00     0.009 A 
ATOM     64  C   UNL A   1      47.817  27.086  26.160  1.00  0.00     0.009 A 
ATOM     65  C   UNL A   1      47.896  27.463  23.398  1.00  0.00     0.001 A 
ATOM     66  C   UNL A   1      48.948  26.705  25.437  1.00  0.00     0.001 A 
ATOM     67  C   UNL A   1      48.984  26.887  24.055  1.00  0.00     0.000 A 
ENDBRANCH  48  62
BRANCH  49  68
ATOM     68  C   UNL A   1      38.842  30.161  31.058  1.00  0.00    -0.014 A 
ATOM     69  C   UNL A   1      37.724  30.797  30.497  1.00  0.00     0.009 A 
ATOM     70  C   UNL A   1      38.888  29.974  32.448  1.00  0.00     0.009 A 
ATOM     71  C   UNL A   1      36.693  31.269  31.313  1.00  0.00     0.001 A 
ATOM     72  C   UNL A   1      37.841  30.418  33.258  1.00  0.00     0.001 A 
ATOM     73  C   UNL A   1      36.751  31.077  32.693  1.00  0.00     0.000 A 
ENDBRANCH  49  68
BRANCH  61  74
ATOM     74  C   UNL A   1      44.593  33.548  29.091  1.00  0.00    -0.014 A 
ATOM     75  C   UNL A   1      44.209  34.628  28.283  1.00  0.00     0.009 A 
ATOM     76  C   UNL A   1      45.423  33.790  30.198  1.00  0.00     0.009 A 
ATOM     77  C   UNL A   1      44.672  35.917  28.560  1.00  0.00     0.001 A 
ATOM     78  C   UNL A   1      45.859  35.083  30.490  1.00  0.00     0.001 A 
ATOM     79  C   UNL A   1      45.491  36.144  29.665  1.00  0.00     0.000 A 
ENDBRANCH  61  74
ENDBRANCH  35  36
ENDBRANCH  28  30
ENDBRANCH  27  28
ENDBRANCH  26  27
ENDBRANCH  25  26
ENDBRANCH  24  25
ENDBRANCH  23  24
ENDBRANCH   1  23
TORSDOF 23
ENDMDL
