MODEL 1
REMARK VINA RESULT:     -10.3      0.000      0.000
REMARK SMILES CCc1ncc(C[N@H+]2CCC[C@@H](c3cccc(C(=O)OCCOCCOCCOC(=O)c4ccc(-c5c6nc(c(-c7ccccc7)c7ccc([nH]7)c(-c7ccccc7)c7nc(c(-c8ccccc8)c8ccc5[nH]8)C=C7)C=C6)cc4)c3)C2)cn1
REMARK SMILES IDX 24 1 23 2 22 3 21 4 20 5 18 6 19 7 17 8 13 9 14 10 80 11
REMARK SMILES IDX 15 12 16 13 12 14 8 15 9 16 81 17 10 19 11 20 7 21 6 22 3 23
REMARK SMILES IDX 4 24 83 25 5 26 82 27 2 28 1 29 25 30 26 31 27 32 28 33
REMARK SMILES IDX 29 34 30 35 31 36 32 37 33 38 79 39 34 40 78 41 35 42 36 43
REMARK SMILES IDX 37 44 72 45 38 46 77 47 71 48 73 49 39 50 76 51 70 52 69 53
REMARK SMILES IDX 40 55 62 56 47 57 61 58 48 59 51 60 60 61 74 62 49 63 50 64
REMARK SMILES IDX 59 66 75 67 52 68 41 69 42 70 46 71 43 72 45 73 44 74 63 75
REMARK SMILES IDX 64 76 68 77 65 78 67 79 66 80 53 81 54 82 58 83 55 84 57 85
REMARK SMILES IDX 56 86
REMARK H PARENT 8 18 73 54 51 65
REMARK Flexibility Score: inf
ROOT
ATOM      1  C   UNL A   1      29.864  27.520  22.960  1.00  0.00     0.188 C 
ENDROOT
BRANCH   1   2
ATOM      2  O   UNL A   1      30.638  26.346  23.122  1.00  0.00    -0.376 OA
BRANCH   2   3
ATOM      3  C   UNL A   1      30.388  25.465  24.207  1.00  0.00     0.202 C 
BRANCH   3   4
ATOM      4  C   UNL A   1      31.378  25.267  25.368  1.00  0.00     0.261 C 
BRANCH   4   5
ATOM      5  O   UNL A   1      32.551  24.509  25.056  1.00  0.00    -0.460 OA
BRANCH   5   6
ATOM      6  C   UNL A   1      33.633  25.225  24.658  1.00  0.00     0.338 C 
ATOM      7  O   UNL A   1      33.726  26.439  24.589  1.00  0.00    -0.246 OA
BRANCH   6   8
ATOM      8  C   UNL A   1      34.793  24.313  24.541  1.00  0.00     0.060 A 
ATOM      9  C   UNL A   1      36.941  23.481  25.324  1.00  0.00    -0.038 A 
ATOM     10  C   UNL A   1      37.052  22.733  24.139  1.00  0.00     0.004 A 
ATOM     11  C   UNL A   1      35.798  24.275  25.515  1.00  0.00     0.020 A 
ATOM     12  C   UNL A   1      36.048  22.771  23.169  1.00  0.00     0.001 A 
ATOM     13  C   UNL A   1      34.914  23.552  23.372  1.00  0.00     0.016 A 
BRANCH   9  14
ATOM     14  C   UNL A   1      37.957  23.361  26.450  1.00  0.00     0.074 C 
ATOM     15  N   UNL A   1      39.865  21.900  27.194  1.00  0.00    -0.331 N 
ATOM     16  C   UNL A   1      40.716  23.080  27.391  1.00  0.00     0.262 C 
ATOM     17  C   UNL A   1      38.841  22.133  26.168  1.00  0.00     0.270 C 
ATOM     18  H   UNL A   1      39.381  21.751  28.079  1.00  0.00     0.348 HD
ATOM     19  C   UNL A   1      39.888  24.324  27.732  1.00  0.00     0.062 C 
ATOM     20  C   UNL A   1      38.834  24.605  26.661  1.00  0.00     0.020 C 
BRANCH  15  21
ATOM     21  C   UNL A   1      40.630  20.659  26.947  1.00  0.00     0.302 C 
BRANCH  21  22
ATOM     22  C   UNL A   1      41.877  20.803  26.122  1.00  0.00     0.043 A 
ATOM     23  C   UNL A   1      44.273  21.098  24.866  1.00  0.00     0.127 A 
ATOM     24  N   UNL A   1      43.883  19.851  25.195  1.00  0.00    -0.241 NA
ATOM     25  N   UNL A   1      43.519  22.198  25.044  1.00  0.00    -0.241 NA
ATOM     26  C   UNL A   1      42.690  19.734  25.812  1.00  0.00     0.124 A 
ATOM     27  C   UNL A   1      42.338  22.021  25.665  1.00  0.00     0.124 A 
BRANCH  23  28
ATOM     28  C   UNL A   1      45.638  21.261  24.256  1.00  0.00     0.074 C 
ATOM     29  C   UNL A   1      46.591  20.130  24.626  1.00  0.00     0.012 C 
ENDBRANCH  23  28
ENDBRANCH  21  22
ENDBRANCH  15  21
ENDBRANCH   9  14
ENDBRANCH   6   8
ENDBRANCH   5   6
ENDBRANCH   4   5
ENDBRANCH   3   4
ENDBRANCH   2   3
ENDBRANCH   1   2
BRANCH   1  30
ATOM     30  C   UNL A   1      30.550  28.895  22.821  1.00  0.00     0.188 C 
BRANCH  30  31
ATOM     31  O   UNL A   1      31.954  28.929  22.864  1.00  0.00    -0.376 OA
BRANCH  31  32
ATOM     32  C   UNL A   1      32.623  29.263  24.068  1.00  0.00     0.202 C 
BRANCH  32  33
ATOM     33  C   UNL A   1      31.977  29.402  25.463  1.00  0.00     0.261 C 
BRANCH  33  34
ATOM     34  O   UNL A   1      32.826  29.495  26.611  1.00  0.00    -0.460 OA
BRANCH  34  35
ATOM     35  C   UNL A   1      33.165  30.747  27.002  1.00  0.00     0.338 C 
ATOM     36  O   UNL A   1      32.467  31.749  26.982  1.00  0.00    -0.246 OA
BRANCH  35  37
ATOM     37  C   UNL A   1      34.499  30.695  27.628  1.00  0.00     0.060 A 
ATOM     38  C   UNL A   1      34.992  29.468  28.092  1.00  0.00     0.016 A 
ATOM     39  C   UNL A   1      35.254  31.860  27.761  1.00  0.00     0.016 A 
ATOM     40  C   UNL A   1      36.256  29.400  28.683  1.00  0.00     0.010 A 
ATOM     41  C   UNL A   1      36.507  31.794  28.375  1.00  0.00     0.010 A 
ATOM     42  C   UNL A   1      37.011  30.569  28.847  1.00  0.00    -0.014 A 
BRANCH  42  43
ATOM     43  C   UNL A   1      38.283  30.551  29.609  1.00  0.00     0.031 A 
ATOM     44  C   UNL A   1      39.465  29.825  29.033  1.00  0.00     0.074 A 
ATOM     45  C   UNL A   1      38.374  31.137  30.816  1.00  0.00     0.049 A 
ATOM     46  N   UNL A   1      40.625  29.564  29.580  1.00  0.00    -0.248 NA
ATOM     47  C   UNL A   1      39.316  29.321  27.660  1.00  0.00     0.031 C 
ATOM     48  C   UNL A   1      37.320  31.916  31.463  1.00  0.00     0.029 A 
ATOM     49  N   UNL A   1      39.405  31.144  31.724  1.00  0.00    -0.354 N 
ATOM     50  C   UNL A   1      41.338  28.852  28.625  1.00  0.00     0.074 A 
ATOM     51  C   UNL A   1      40.475  28.706  27.473  1.00  0.00     0.031 C 
ATOM     52  C   UNL A   1      37.751  32.308  32.675  1.00  0.00     0.029 A 
ATOM     53  C   UNL A   1      39.089  31.767  32.908  1.00  0.00     0.049 A 
ATOM     54  H   UNL A   1      40.286  30.742  31.544  1.00  0.00     0.167 HD
ATOM     55  C   UNL A   1      42.597  28.361  28.702  1.00  0.00     0.031 A 
ATOM     56  C   UNL A   1      39.783  31.854  34.059  1.00  0.00     0.031 A 
ATOM     57  C   UNL A   1      43.446  28.486  29.858  1.00  0.00     0.049 A 
ATOM     58  C   UNL A   1      41.139  31.202  34.160  1.00  0.00     0.074 A 
ATOM     59  C   UNL A   1      44.745  28.040  30.024  1.00  0.00     0.029 A 
ATOM     60  N   UNL A   1      43.074  29.088  31.049  1.00  0.00    -0.354 N 
ATOM     61  N   UNL A   1      41.819  30.561  33.241  1.00  0.00    -0.248 NA
ATOM     62  C   UNL A   1      41.821  31.286  35.461  1.00  0.00     0.031 C 
ATOM     63  C   UNL A   1      45.133  28.307  31.341  1.00  0.00     0.029 A 
ATOM     64  C   UNL A   1      44.102  28.985  31.971  1.00  0.00     0.049 A 
ATOM     65  H   UNL A   1      42.206  29.524  31.216  1.00  0.00     0.167 HD
ATOM     66  C   UNL A   1      43.015  30.187  33.844  1.00  0.00     0.074 A 
ATOM     67  C   UNL A   1      42.976  30.689  35.201  1.00  0.00     0.031 C 
ATOM     68  C   UNL A   1      44.052  29.489  33.319  1.00  0.00     0.031 A 
BRANCH  55  69
ATOM     69  C   UNL A   1      43.120  27.598  27.516  1.00  0.00    -0.014 A 
ATOM     70  C   UNL A   1      43.740  28.252  26.440  1.00  0.00     0.009 A 
ATOM     71  C   UNL A   1      43.024  26.198  27.496  1.00  0.00     0.009 A 
ATOM     72  C   UNL A   1      44.223  27.520  25.353  1.00  0.00     0.001 A 
ATOM     73  C   UNL A   1      43.536  25.467  26.422  1.00  0.00     0.001 A 
ATOM     74  C   UNL A   1      44.125  26.128  25.348  1.00  0.00     0.000 A 
ENDBRANCH  55  69
BRANCH  56  75
ATOM     75  C   UNL A   1      39.193  32.547  35.237  1.00  0.00    -0.014 A 
ATOM     76  C   UNL A   1      39.497  33.891  35.503  1.00  0.00     0.009 A 
ATOM     77  C   UNL A   1      38.343  31.858  36.117  1.00  0.00     0.009 A 
ATOM     78  C   UNL A   1      38.982  34.522  36.638  1.00  0.00     0.001 A 
ATOM     79  C   UNL A   1      37.803  32.503  37.234  1.00  0.00     0.001 A 
ATOM     80  C   UNL A   1      38.131  33.830  37.499  1.00  0.00     0.000 A 
ENDBRANCH  56  75
BRANCH  68  81
ATOM     81  C   UNL A   1      45.248  29.247  34.199  1.00  0.00    -0.014 A 
ATOM     82  C   UNL A   1      45.455  28.006  34.824  1.00  0.00     0.009 A 
ATOM     83  C   UNL A   1      46.216  30.253  34.349  1.00  0.00     0.009 A 
ATOM     84  C   UNL A   1      46.598  27.788  35.598  1.00  0.00     0.001 A 
ATOM     85  C   UNL A   1      47.372  30.020  35.098  1.00  0.00     0.001 A 
ATOM     86  C   UNL A   1      47.558  28.791  35.727  1.00  0.00     0.000 A 
ENDBRANCH  68  81
ENDBRANCH  42  43
ENDBRANCH  35  37
ENDBRANCH  34  35
ENDBRANCH  33  34
ENDBRANCH  32  33
ENDBRANCH  31  32
ENDBRANCH  30  31
ENDBRANCH   1  30
TORSDOF 21
ENDMDL
MODEL 2
REMARK VINA RESULT:     -10.1      0.718      5.656
REMARK SMILES CCc1ncc(C[N@H+]2CCC[C@@H](c3cccc(C(=O)OCCOCCOCCOC(=O)c4ccc(-c5c6nc(c(-c7ccccc7)c7ccc([nH]7)c(-c7ccccc7)c7nc(c(-c8ccccc8)c8ccc5[nH]8)C=C7)C=C6)cc4)c3)C2)cn1
REMARK SMILES IDX 24 1 23 2 22 3 21 4 20 5 18 6 19 7 17 8 13 9 14 10 80 11
REMARK SMILES IDX 15 12 16 13 12 14 8 15 9 16 81 17 10 19 11 20 7 21 6 22 3 23
REMARK SMILES IDX 4 24 83 25 5 26 82 27 2 28 1 29 25 30 26 31 27 32 28 33
REMARK SMILES IDX 29 34 30 35 31 36 32 37 33 38 79 39 34 40 78 41 35 42 36 43
REMARK SMILES IDX 37 44 72 45 38 46 77 47 71 48 73 49 39 50 76 51 70 52 69 53
REMARK SMILES IDX 40 55 62 56 47 57 61 58 48 59 51 60 60 61 74 62 49 63 50 64
REMARK SMILES IDX 59 66 75 67 52 68 41 69 42 70 46 71 43 72 45 73 44 74 63 75
REMARK SMILES IDX 64 76 68 77 65 78 67 79 66 80 53 81 54 82 58 83 55 84 57 85
REMARK SMILES IDX 56 86
REMARK H PARENT 8 18 73 54 51 65
REMARK Flexibility Score: inf
ROOT
ATOM      1  C   UNL A   1      30.222  27.625  23.136  1.00  0.00     0.188 C 
ENDROOT
BRANCH   1   2
ATOM      2  O   UNL A   1      30.920  26.394  23.177  1.00  0.00    -0.376 OA
BRANCH   2   3
ATOM      3  C   UNL A   1      30.860  25.572  24.334  1.00  0.00     0.202 C 
BRANCH   3   4
ATOM      4  C   UNL A   1      31.996  25.505  25.369  1.00  0.00     0.261 C 
BRANCH   4   5
ATOM      5  O   UNL A   1      33.058  24.596  25.062  1.00  0.00    -0.460 OA
BRANCH   5   6
ATOM      6  C   UNL A   1      34.114  25.121  24.390  1.00  0.00     0.338 C 
ATOM      7  O   UNL A   1      34.219  26.257  23.958  1.00  0.00    -0.246 OA
BRANCH   6   8
ATOM      8  C   UNL A   1      35.246  24.170  24.463  1.00  0.00     0.060 A 
ATOM      9  C   UNL A   1      37.381  23.461  25.390  1.00  0.00    -0.038 A 
ATOM     10  C   UNL A   1      37.455  22.474  24.391  1.00  0.00     0.004 A 
ATOM     11  C   UNL A   1      36.263  24.311  25.415  1.00  0.00     0.020 A 
ATOM     12  C   UNL A   1      36.440  22.335  23.442  1.00  0.00     0.001 A 
ATOM     13  C   UNL A   1      35.331  23.174  23.482  1.00  0.00     0.016 A 
BRANCH   9  14
ATOM     14  C   UNL A   1      38.408  23.553  26.508  1.00  0.00     0.074 C 
ATOM     15  N   UNL A   1      40.214  22.185  27.601  1.00  0.00    -0.331 N 
ATOM     16  C   UNL A   1      41.156  23.305  27.488  1.00  0.00     0.262 C 
ATOM     17  C   UNL A   1      39.190  22.228  26.550  1.00  0.00     0.270 C 
ATOM     18  H   UNL A   1      39.739  22.306  28.495  1.00  0.00     0.348 HD
ATOM     19  C   UNL A   1      40.433  24.657  27.499  1.00  0.00     0.062 C 
ATOM     20  C   UNL A   1      39.381  24.736  26.392  1.00  0.00     0.020 C 
BRANCH  15  21
ATOM     21  C   UNL A   1      40.878  20.866  27.680  1.00  0.00     0.302 C 
BRANCH  21  22
ATOM     22  C   UNL A   1      41.941  20.596  26.654  1.00  0.00     0.043 A 
ATOM     23  C   UNL A   1      44.007  19.976  24.996  1.00  0.00     0.127 A 
ATOM     24  N   UNL A   1      42.973  19.114  25.064  1.00  0.00    -0.241 NA
ATOM     25  N   UNL A   1      44.047  21.161  25.630  1.00  0.00    -0.241 NA
ATOM     26  C   UNL A   1      41.962  19.449  25.891  1.00  0.00     0.124 A 
ATOM     27  C   UNL A   1      43.010  21.442  26.441  1.00  0.00     0.124 A 
BRANCH  23  28
ATOM     28  C   UNL A   1      45.185  19.581  24.148  1.00  0.00     0.074 C 
ATOM     29  C   UNL A   1      46.496  20.183  24.639  1.00  0.00     0.012 C 
ENDBRANCH  23  28
ENDBRANCH  21  22
ENDBRANCH  15  21
ENDBRANCH   9  14
ENDBRANCH   6   8
ENDBRANCH   5   6
ENDBRANCH   4   5
ENDBRANCH   3   4
ENDBRANCH   2   3
ENDBRANCH   1   2
BRANCH   1  30
ATOM     30  C   UNL A   1      30.990  28.961  23.194  1.00  0.00     0.188 C 
BRANCH  30  31
ATOM     31  O   UNL A   1      32.381  28.904  23.383  1.00  0.00    -0.376 OA
BRANCH  31  32
ATOM     32  C   UNL A   1      32.955  29.375  24.591  1.00  0.00     0.202 C 
BRANCH  32  33
ATOM     33  C   UNL A   1      32.190  29.920  25.815  1.00  0.00     0.261 C 
BRANCH  33  34
ATOM     34  O   UNL A   1      32.877  30.036  27.064  1.00  0.00    -0.460 OA
BRANCH  34  35
ATOM     35  C   UNL A   1      33.503  31.216  27.293  1.00  0.00     0.338 C 
ATOM     36  O   UNL A   1      33.039  32.340  27.178  1.00  0.00    -0.246 OA
BRANCH  35  37
ATOM     37  C   UNL A   1      34.828  30.937  27.875  1.00  0.00     0.060 A 
ATOM     38  C   UNL A   1      35.157  29.623  28.233  1.00  0.00     0.016 A 
ATOM     39  C   UNL A   1      35.736  31.976  28.075  1.00  0.00     0.016 A 
ATOM     40  C   UNL A   1      36.411  29.340  28.780  1.00  0.00     0.010 A 
ATOM     41  C   UNL A   1      36.980  31.695  28.646  1.00  0.00     0.010 A 
ATOM     42  C   UNL A   1      37.320  30.380  29.011  1.00  0.00    -0.014 A 
BRANCH  42  43
ATOM     43  C   UNL A   1      38.592  30.132  29.734  1.00  0.00     0.031 A 
ATOM     44  C   UNL A   1      38.774  30.714  31.106  1.00  0.00     0.074 A 
ATOM     45  C   UNL A   1      39.587  29.433  29.160  1.00  0.00     0.049 A 
ATOM     46  N   UNL A   1      39.843  30.741  31.860  1.00  0.00    -0.248 NA
ATOM     47  C   UNL A   1      37.594  31.355  31.705  1.00  0.00     0.031 C 
ATOM     48  C   UNL A   1      39.520  28.773  27.858  1.00  0.00     0.029 A 
ATOM     49  N   UNL A   1      40.865  29.183  29.599  1.00  0.00    -0.354 N 
ATOM     50  C   UNL A   1      39.471  31.416  33.015  1.00  0.00     0.074 A 
ATOM     51  C   UNL A   1      38.083  31.797  32.854  1.00  0.00     0.031 C 
ATOM     52  C   UNL A   1      40.712  28.211  27.593  1.00  0.00     0.029 A 
ATOM     53  C   UNL A   1      41.639  28.514  28.682  1.00  0.00     0.049 A 
ATOM     54  H   UNL A   1      41.194  29.459  30.485  1.00  0.00     0.167 HD
ATOM     55  C   UNL A   1      40.217  31.697  34.109  1.00  0.00     0.031 A 
ATOM     56  C   UNL A   1      42.953  28.218  28.702  1.00  0.00     0.031 A 
ATOM     57  C   UNL A   1      41.603  31.338  34.256  1.00  0.00     0.049 A 
ATOM     58  C   UNL A   1      43.791  28.638  29.882  1.00  0.00     0.074 A 
ATOM     59  C   UNL A   1      42.439  31.559  35.336  1.00  0.00     0.029 A 
ATOM     60  N   UNL A   1      42.360  30.697  33.289  1.00  0.00    -0.354 N 
ATOM     61  N   UNL A   1      43.423  29.247  30.984  1.00  0.00    -0.248 NA
ATOM     62  C   UNL A   1      45.229  28.334  29.818  1.00  0.00     0.031 C 
ATOM     63  C   UNL A   1      43.721  31.118  34.994  1.00  0.00     0.029 A 
ATOM     64  C   UNL A   1      43.666  30.555  33.729  1.00  0.00     0.049 A 
ATOM     65  H   UNL A   1      42.021  30.388  32.417  1.00  0.00     0.167 HD
ATOM     66  C   UNL A   1      44.576  29.374  31.751  1.00  0.00     0.074 A 
ATOM     67  C   UNL A   1      45.651  28.764  30.999  1.00  0.00     0.031 C 
ATOM     68  C   UNL A   1      44.728  29.947  32.971  1.00  0.00     0.031 A 
BRANCH  55  69
ATOM     69  C   UNL A   1      39.561  32.472  35.217  1.00  0.00    -0.014 A 
ATOM     70  C   UNL A   1      39.621  33.874  35.267  1.00  0.00     0.009 A 
ATOM     71  C   UNL A   1      38.837  31.788  36.207  1.00  0.00     0.009 A 
ATOM     72  C   UNL A   1      38.998  34.570  36.304  1.00  0.00     0.001 A 
ATOM     73  C   UNL A   1      38.189  32.490  37.225  1.00  0.00     0.001 A 
ATOM     74  C   UNL A   1      38.278  33.879  37.278  1.00  0.00     0.000 A 
ENDBRANCH  55  69
BRANCH  56  75
ATOM     75  C   UNL A   1      43.580  27.522  27.545  1.00  0.00    -0.014 A 
ATOM     76  C   UNL A   1      43.740  26.127  27.549  1.00  0.00     0.009 A 
ATOM     77  C   UNL A   1      44.047  28.253  26.441  1.00  0.00     0.009 A 
ATOM     78  C   UNL A   1      44.375  25.484  26.484  1.00  0.00     0.001 A 
ATOM     79  C   UNL A   1      44.652  27.603  25.362  1.00  0.00     0.001 A 
ATOM     80  C   UNL A   1      44.825  26.221  25.389  1.00  0.00     0.000 A 
ENDBRANCH  56  75
BRANCH  68  81
ATOM     81  C   UNL A   1      46.099  29.920  33.589  1.00  0.00    -0.014 A 
ATOM     82  C   UNL A   1      46.526  28.834  34.370  1.00  0.00     0.009 A 
ATOM     83  C   UNL A   1      47.000  30.965  33.329  1.00  0.00     0.009 A 
ATOM     84  C   UNL A   1      47.821  28.808  34.895  1.00  0.00     0.001 A 
ATOM     85  C   UNL A   1      48.303  30.920  33.829  1.00  0.00     0.001 A 
ATOM     86  C   UNL A   1      48.710  29.846  34.617  1.00  0.00     0.000 A 
ENDBRANCH  68  81
ENDBRANCH  42  43
ENDBRANCH  35  37
ENDBRANCH  34  35
ENDBRANCH  33  34
ENDBRANCH  32  33
ENDBRANCH  31  32
ENDBRANCH  30  31
ENDBRANCH   1  30
TORSDOF 21
ENDMDL
MODEL 3
REMARK VINA RESULT:      -9.7      2.622      4.837
REMARK SMILES CCc1ncc(C[N@H+]2CCC[C@@H](c3cccc(C(=O)OCCOCCOCCOC(=O)c4ccc(-c5c6nc(c(-c7ccccc7)c7ccc([nH]7)c(-c7ccccc7)c7nc(c(-c8ccccc8)c8ccc5[nH]8)C=C7)C=C6)cc4)c3)C2)cn1
REMARK SMILES IDX 24 1 23 2 22 3 21 4 20 5 18 6 19 7 17 8 13 9 14 10 80 11
REMARK SMILES IDX 15 12 16 13 12 14 8 15 9 16 81 17 10 19 11 20 7 21 6 22 3 23
REMARK SMILES IDX 4 24 83 25 5 26 82 27 2 28 1 29 25 30 26 31 27 32 28 33
REMARK SMILES IDX 29 34 30 35 31 36 32 37 33 38 79 39 34 40 78 41 35 42 36 43
REMARK SMILES IDX 37 44 72 45 38 46 77 47 71 48 73 49 39 50 76 51 70 52 69 53
REMARK SMILES IDX 40 55 62 56 47 57 61 58 48 59 51 60 60 61 74 62 49 63 50 64
REMARK SMILES IDX 59 66 75 67 52 68 41 69 42 70 46 71 43 72 45 73 44 74 63 75
REMARK SMILES IDX 64 76 68 77 65 78 67 79 66 80 53 81 54 82 58 83 55 84 57 85
REMARK SMILES IDX 56 86
REMARK H PARENT 8 18 73 54 51 65
REMARK Flexibility Score: inf
ROOT
ATOM      1  C   UNL A   1      32.897  23.126  23.783  1.00  0.00     0.188 C 
ENDROOT
BRANCH   1   2
ATOM      2  O   UNL A   1      34.071  22.349  23.636  1.00  0.00    -0.376 OA
BRANCH   2   3
ATOM      3  C   UNL A   1      34.437  21.405  24.631  1.00  0.00     0.202 C 
BRANCH   3   4
ATOM      4  C   UNL A   1      35.169  21.797  25.925  1.00  0.00     0.261 C 
BRANCH   4   5
ATOM      5  O   UNL A   1      36.597  21.699  25.881  1.00  0.00    -0.460 OA
BRANCH   5   6
ATOM      6  C   UNL A   1      37.270  22.872  25.760  1.00  0.00     0.338 C 
ATOM      7  O   UNL A   1      36.801  23.963  25.484  1.00  0.00    -0.246 OA
BRANCH   6   8
ATOM      8  C   UNL A   1      38.652  22.682  26.254  1.00  0.00     0.060 A 
ATOM      9  C   UNL A   1      40.616  21.293  26.619  1.00  0.00    -0.038 A 
ATOM     10  C   UNL A   1      41.163  22.321  27.407  1.00  0.00     0.004 A 
ATOM     11  C   UNL A   1      39.349  21.485  26.044  1.00  0.00     0.020 A 
ATOM     12  C   UNL A   1      40.467  23.514  27.614  1.00  0.00     0.001 A 
ATOM     13  C   UNL A   1      39.217  23.700  27.031  1.00  0.00     0.016 A 
BRANCH   9  14
ATOM     14  C   UNL A   1      41.403  20.037  26.275  1.00  0.00     0.074 C 
ATOM     15  N   UNL A   1      43.461  19.323  25.017  1.00  0.00    -0.331 N 
ATOM     16  C   UNL A   1      43.917  18.539  26.171  1.00  0.00     0.262 C 
ATOM     17  C   UNL A   1      42.618  20.453  25.425  1.00  0.00     0.270 C 
ATOM     18  H   UNL A   1      42.881  18.694  24.461  1.00  0.00     0.348 HD
ATOM     19  C   UNL A   1      42.740  18.050  27.023  1.00  0.00     0.062 C 
ATOM     20  C   UNL A   1      41.864  19.213  27.487  1.00  0.00     0.020 C 
BRANCH  15  21
ATOM     21  C   UNL A   1      44.561  19.742  24.121  1.00  0.00     0.302 C 
BRANCH  21  22
ATOM     22  C   UNL A   1      45.116  21.117  24.353  1.00  0.00     0.043 A 
ATOM     23  C   UNL A   1      45.909  23.651  24.949  1.00  0.00     0.127 A 
ATOM     24  N   UNL A   1      46.407  22.644  25.693  1.00  0.00    -0.241 NA
ATOM     25  N   UNL A   1      45.111  23.480  23.880  1.00  0.00    -0.241 NA
ATOM     26  C   UNL A   1      46.000  21.399  25.373  1.00  0.00     0.124 A 
ATOM     27  C   UNL A   1      44.737  22.216  23.608  1.00  0.00     0.124 A 
BRANCH  23  28
ATOM     28  C   UNL A   1      46.280  25.055  25.344  1.00  0.00     0.074 C 
ATOM     29  C   UNL A   1      47.473  25.108  26.290  1.00  0.00     0.012 C 
ENDBRANCH  23  28
ENDBRANCH  21  22
ENDBRANCH  15  21
ENDBRANCH   9  14
ENDBRANCH   6   8
ENDBRANCH   5   6
ENDBRANCH   4   5
ENDBRANCH   3   4
ENDBRANCH   2   3
ENDBRANCH   1   2
BRANCH   1  30
ATOM     30  C   UNL A   1      32.835  24.561  23.221  1.00  0.00     0.188 C 
BRANCH  30  31
ATOM     31  O   UNL A   1      31.586  25.037  22.788  1.00  0.00    -0.376 OA
BRANCH  31  32
ATOM     32  C   UNL A   1      31.489  26.289  22.130  1.00  0.00     0.202 C 
BRANCH  32  33
ATOM     33  C   UNL A   1      31.005  27.614  22.755  1.00  0.00     0.261 C 
BRANCH  33  34
ATOM     34  O   UNL A   1      31.861  28.298  23.674  1.00  0.00    -0.460 OA
BRANCH  34  35
ATOM     35  C   UNL A   1      31.732  27.953  24.978  1.00  0.00     0.338 C 
ATOM     36  O   UNL A   1      30.980  27.119  25.458  1.00  0.00    -0.246 OA
BRANCH  35  37
ATOM     37  C   UNL A   1      32.782  28.644  25.749  1.00  0.00     0.060 A 
ATOM     38  C   UNL A   1      33.713  27.886  26.473  1.00  0.00     0.016 A 
ATOM     39  C   UNL A   1      32.838  30.037  25.761  1.00  0.00     0.016 A 
ATOM     40  C   UNL A   1      34.717  28.525  27.204  1.00  0.00     0.010 A 
ATOM     41  C   UNL A   1      33.828  30.674  26.513  1.00  0.00     0.010 A 
ATOM     42  C   UNL A   1      34.765  29.924  27.246  1.00  0.00    -0.014 A 
BRANCH  42  43
ATOM     43  C   UNL A   1      35.721  30.626  28.137  1.00  0.00     0.031 A 
ATOM     44  C   UNL A   1      37.129  30.113  28.241  1.00  0.00     0.074 A 
ATOM     45  C   UNL A   1      35.331  31.680  28.875  1.00  0.00     0.049 A 
ATOM     46  N   UNL A   1      38.087  30.481  29.052  1.00  0.00    -0.248 NA
ATOM     47  C   UNL A   1      37.502  29.038  27.309  1.00  0.00     0.031 C 
ATOM     48  C   UNL A   1      34.012  32.307  28.828  1.00  0.00     0.029 A 
ATOM     49  N   UNL A   1      36.011  32.395  29.831  1.00  0.00    -0.354 N 
ATOM     50  C   UNL A   1      39.173  29.672  28.741  1.00  0.00     0.074 A 
ATOM     51  C   UNL A   1      38.748  28.783  27.681  1.00  0.00     0.031 C 
ATOM     52  C   UNL A   1      33.971  33.302  29.732  1.00  0.00     0.029 A 
ATOM     53  C   UNL A   1      35.242  33.348  30.454  1.00  0.00     0.049 A 
ATOM     54  H   UNL A   1      36.959  32.239  30.048  1.00  0.00     0.167 HD
ATOM     55  C   UNL A   1      40.409  29.668  29.291  1.00  0.00     0.031 A 
ATOM     56  C   UNL A   1      35.517  34.136  31.511  1.00  0.00     0.031 A 
ATOM     57  C   UNL A   1      40.822  30.537  30.362  1.00  0.00     0.049 A 
ATOM     58  C   UNL A   1      36.864  34.036  32.181  1.00  0.00     0.074 A 
ATOM     59  C   UNL A   1      42.061  30.623  30.972  1.00  0.00     0.029 A 
ATOM     60  N   UNL A   1      40.001  31.459  30.992  1.00  0.00    -0.354 N 
ATOM     61  N   UNL A   1      37.895  33.293  31.859  1.00  0.00    -0.248 NA
ATOM     62  C   UNL A   1      37.083  34.884  33.363  1.00  0.00     0.031 C 
ATOM     63  C   UNL A   1      41.968  31.544  32.020  1.00  0.00     0.029 A 
ATOM     64  C   UNL A   1      40.693  32.086  32.014  1.00  0.00     0.049 A 
ATOM     65  H   UNL A   1      39.064  31.641  30.749  1.00  0.00     0.167 HD
ATOM     66  C   UNL A   1      38.889  33.601  32.781  1.00  0.00     0.074 A 
ATOM     67  C   UNL A   1      38.346  34.611  33.663  1.00  0.00     0.031 C 
ATOM     68  C   UNL A   1      40.141  33.090  32.887  1.00  0.00     0.031 A 
BRANCH  55  69
ATOM     69  C   UNL A   1      41.396  28.658  28.775  1.00  0.00    -0.014 A 
ATOM     70  C   UNL A   1      42.311  28.979  27.760  1.00  0.00     0.009 A 
ATOM     71  C   UNL A   1      41.437  27.375  29.345  1.00  0.00     0.009 A 
ATOM     72  C   UNL A   1      43.222  28.024  27.303  1.00  0.00     0.001 A 
ATOM     73  C   UNL A   1      42.370  26.434  28.908  1.00  0.00     0.001 A 
ATOM     74  C   UNL A   1      43.254  26.755  27.881  1.00  0.00     0.000 A 
ENDBRANCH  55  69
BRANCH  56  75
ATOM     75  C   UNL A   1      34.482  35.064  32.043  1.00  0.00    -0.014 A 
ATOM     76  C   UNL A   1      33.247  34.574  32.497  1.00  0.00     0.009 A 
ATOM     77  C   UNL A   1      34.713  36.449  32.074  1.00  0.00     0.009 A 
ATOM     78  C   UNL A   1      32.259  35.453  32.946  1.00  0.00     0.001 A 
ATOM     79  C   UNL A   1      33.735  37.322  32.556  1.00  0.00     0.001 A 
ATOM     80  C   UNL A   1      32.505  36.825  32.982  1.00  0.00     0.000 A 
ENDBRANCH  56  75
BRANCH  68  81
ATOM     81  C   UNL A   1      41.027  33.631  33.976  1.00  0.00    -0.014 A 
ATOM     82  C   UNL A   1      41.748  34.824  33.804  1.00  0.00     0.009 A 
ATOM     83  C   UNL A   1      41.087  32.974  35.215  1.00  0.00     0.009 A 
ATOM     84  C   UNL A   1      42.527  35.334  34.847  1.00  0.00     0.001 A 
ATOM     85  C   UNL A   1      41.841  33.503  36.264  1.00  0.00     0.001 A 
ATOM     86  C   UNL A   1      42.565  34.678  36.077  1.00  0.00     0.000 A 
ENDBRANCH  68  81
ENDBRANCH  42  43
ENDBRANCH  35  37
ENDBRANCH  34  35
ENDBRANCH  33  34
ENDBRANCH  32  33
ENDBRANCH  31  32
ENDBRANCH  30  31
ENDBRANCH   1  30
TORSDOF 21
ENDMDL
