MODEL 1
REMARK VINA RESULT:      -7.0      0.000      0.000
REMARK SMILES C=CCN(CC(=O)OCCOCCOCCOC(=O)c1ccc(-c2c3nc(c(-c4ccccc4)c4ccc([nH]4)c(-c4ccccc4)c4nc(c(-c5ccccc5)c5ccc2[nH]5)C=C4)C=C3)cc1)C(=O)c1ccc(C[NH3+])cc1
REMARK SMILES IDX 11 1 10 2 9 3 8 4 6 5 7 6 5 7 4 8 3 9 2 10 1 11 68 12 69 13
REMARK SMILES IDX 70 14 71 15 77 16 72 17 76 18 73 19 74 20 75 21 12 25 13 26
REMARK SMILES IDX 14 27 15 28 16 29 17 30 18 31 19 32 20 33 21 34 67 35 22 36
REMARK SMILES IDX 66 37 23 38 24 39 25 40 60 41 26 42 65 43 59 44 61 45 27 46
REMARK SMILES IDX 64 47 58 48 57 49 28 51 50 52 35 53 49 54 36 55 39 56 48 57
REMARK SMILES IDX 62 58 37 59 38 60 47 62 63 63 40 64 29 65 30 66 34 67 31 68
REMARK SMILES IDX 33 69 32 70 51 71 52 72 56 73 53 74 55 75 54 76 41 77 42 78
REMARK SMILES IDX 46 79 43 80 45 81 44 82
REMARK H PARENT 75 22 75 23 75 24 61 50 39 61
REMARK Flexibility Score: inf
ROOT
ATOM      1  O   UNL A   1      43.472  19.009  24.609  1.00  0.00    -0.376 OA
ENDROOT
BRANCH   1   2
ATOM      2  C   UNL A   1      44.747  19.638  24.563  1.00  0.00     0.202 C 
BRANCH   2   3
ATOM      3  C   UNL A   1      44.981  20.827  25.536  1.00  0.00     0.261 C 
BRANCH   3   4
ATOM      4  O   UNL A   1      45.217  22.145  24.918  1.00  0.00    -0.462 OA
BRANCH   4   5
ATOM      5  C   UNL A   1      44.153  22.967  24.707  1.00  0.00     0.325 C 
ATOM      6  O   UNL A   1      43.395  22.828  23.748  1.00  0.00    -0.250 OA
BRANCH   5   7
ATOM      7  C   UNL A   1      43.899  24.132  25.752  1.00  0.00     0.242 C 
BRANCH   7   8
ATOM      8  N   UNL A   1      44.822  24.764  26.755  1.00  0.00    -0.324 N 
BRANCH   8   9
ATOM      9  C   UNL A   1      45.084  23.948  27.945  1.00  0.00     0.147 C 
BRANCH   9  10
ATOM     10  C   UNL A   1      44.066  24.252  29.022  1.00  0.00    -0.014 C 
ATOM     11  C   UNL A   1      42.746  24.326  28.786  1.00  0.00     0.006 C 
ENDBRANCH   9  10
ENDBRANCH   8   9
BRANCH   8  12
ATOM     12  C   UNL A   1      45.668  25.911  26.651  1.00  0.00     0.254 C 
ATOM     13  O   UNL A   1      46.655  25.934  25.913  1.00  0.00    -0.269 OA
BRANCH  12  14
ATOM     14  C   UNL A   1      45.493  27.180  27.398  1.00  0.00     0.040 A 
ATOM     15  C   UNL A   1      44.349  28.417  26.813  1.00  0.00     0.014 A 
ATOM     16  C   UNL A   1      46.467  27.429  28.834  1.00  0.00     0.014 A 
ATOM     17  C   UNL A   1      44.196  29.972  27.752  1.00  0.00     0.010 A 
ATOM     18  C   UNL A   1      46.476  28.856  29.816  1.00  0.00     0.010 A 
ATOM     19  C   UNL A   1      45.382  30.210  29.386  1.00  0.00     0.006 A 
BRANCH  19  20
ATOM     20  C   UNL A   1      45.864  31.352  30.417  1.00  0.00     0.295 C 
BRANCH  20  21
ATOM     21  N   UNL A   1      44.787  31.908  31.251  1.00  0.00    -0.354 N 
ATOM     22  H   UNL A   1      45.011  31.765  32.235  1.00  0.00     0.344 HD
ATOM     23  H   UNL A   1      43.910  31.439  31.030  1.00  0.00     0.344 HD
ATOM     24  H   UNL A   1      44.695  32.906  31.065  1.00  0.00     0.344 HD
ENDBRANCH  20  21
ENDBRANCH  19  20
ENDBRANCH  12  14
ENDBRANCH   8  12
ENDBRANCH   7   8
ENDBRANCH   5   7
ENDBRANCH   4   5
ENDBRANCH   3   4
ENDBRANCH   2   3
ENDBRANCH   1   2
BRANCH   1  25
ATOM     25  C   UNL A   1      43.214  18.292  25.803  1.00  0.00     0.188 C 
BRANCH  25  26
ATOM     26  C   UNL A   1      42.022  18.795  26.638  1.00  0.00     0.188 C 
BRANCH  26  27
ATOM     27  O   UNL A   1      42.493  19.730  27.582  1.00  0.00    -0.376 OA
BRANCH  27  28
ATOM     28  C   UNL A   1      42.085  21.059  27.341  1.00  0.00     0.202 C 
BRANCH  28  29
ATOM     29  C   UNL A   1      40.691  21.236  26.706  1.00  0.00     0.261 C 
BRANCH  29  30
ATOM     30  O   UNL A   1      40.465  22.383  25.846  1.00  0.00    -0.460 OA
BRANCH  30  31
ATOM     31  C   UNL A   1      39.303  23.070  26.019  1.00  0.00     0.338 C 
ATOM     32  O   UNL A   1      38.203  22.653  25.706  1.00  0.00    -0.246 OA
BRANCH  31  33
ATOM     33  C   UNL A   1      39.644  24.514  26.438  1.00  0.00     0.060 A 
ATOM     34  C   UNL A   1      40.785  26.107  25.913  1.00  0.00     0.016 A 
ATOM     35  C   UNL A   1      38.997  24.520  28.137  1.00  0.00     0.016 A 
ATOM     36  C   UNL A   1      41.095  27.394  27.061  1.00  0.00     0.010 A 
ATOM     37  C   UNL A   1      39.370  25.910  29.176  1.00  0.00     0.010 A 
ATOM     38  C   UNL A   1      40.355  27.297  28.628  1.00  0.00    -0.014 A 
BRANCH  38  39
ATOM     39  C   UNL A   1      40.596  28.538  29.398  1.00  0.00     0.031 A 
ATOM     40  C   UNL A   1      39.532  29.574  29.402  1.00  0.00     0.074 A 
ATOM     41  C   UNL A   1      41.630  28.556  30.276  1.00  0.00     0.049 A 
ATOM     42  N   UNL A   1      39.416  30.617  30.173  1.00  0.00    -0.248 NA
ATOM     43  C   UNL A   1      38.438  29.408  28.434  1.00  0.00     0.031 C 
ATOM     44  C   UNL A   1      42.676  27.526  30.396  1.00  0.00     0.029 A 
ATOM     45  N   UNL A   1      41.917  29.392  31.327  1.00  0.00    -0.354 N 
ATOM     46  C   UNL A   1      38.241  31.234  29.776  1.00  0.00     0.074 A 
ATOM     47  C   UNL A   1      37.695  30.472  28.680  1.00  0.00     0.031 C 
ATOM     48  C   UNL A   1      43.372  27.700  31.525  1.00  0.00     0.029 A 
ATOM     49  C   UNL A   1      42.923  28.925  32.153  1.00  0.00     0.049 A 
ATOM     50  H   UNL A   1      41.450  30.246  31.478  1.00  0.00     0.167 HD
ATOM     51  C   UNL A   1      37.672  32.342  30.292  1.00  0.00     0.031 A 
ATOM     52  C   UNL A   1      43.435  29.431  33.290  1.00  0.00     0.031 A 
ATOM     53  C   UNL A   1      38.259  33.088  31.367  1.00  0.00     0.049 A 
ATOM     54  C   UNL A   1      42.848  30.731  33.755  1.00  0.00     0.074 A 
ATOM     55  C   UNL A   1      37.861  34.297  31.899  1.00  0.00     0.029 A 
ATOM     56  N   UNL A   1      39.383  32.680  32.074  1.00  0.00    -0.354 N 
ATOM     57  N   UNL A   1      41.785  31.358  33.310  1.00  0.00    -0.248 NA
ATOM     58  C   UNL A   1      43.545  31.413  34.849  1.00  0.00     0.031 C 
ATOM     59  C   UNL A   1      38.780  34.649  32.891  1.00  0.00     0.029 A 
ATOM     60  C   UNL A   1      39.704  33.623  33.031  1.00  0.00     0.049 A 
ATOM     61  H   UNL A   1      39.876  31.842  31.918  1.00  0.00     0.167 HD
ATOM     62  C   UNL A   1      41.682  32.510  34.071  1.00  0.00     0.074 A 
ATOM     63  C   UNL A   1      42.764  32.467  35.037  1.00  0.00     0.031 C 
ATOM     64  C   UNL A   1      40.790  33.525  33.972  1.00  0.00     0.031 A 
BRANCH  51  65
ATOM     65  C   UNL A   1      36.429  32.830  29.614  1.00  0.00    -0.014 A 
ATOM     66  C   UNL A   1      36.445  33.939  28.752  1.00  0.00     0.009 A 
ATOM     67  C   UNL A   1      35.203  32.216  29.911  1.00  0.00     0.009 A 
ATOM     68  C   UNL A   1      35.252  34.447  28.235  1.00  0.00     0.001 A 
ATOM     69  C   UNL A   1      34.016  32.706  29.368  1.00  0.00     0.001 A 
ATOM     70  C   UNL A   1      34.040  33.828  28.540  1.00  0.00     0.000 A 
ENDBRANCH  51  65
BRANCH  52  71
ATOM     71  C   UNL A   1      44.590  28.799  34.000  1.00  0.00    -0.014 A 
ATOM     72  C   UNL A   1      44.400  27.913  35.075  1.00  0.00     0.009 A 
ATOM     73  C   UNL A   1      45.910  29.141  33.654  1.00  0.00     0.009 A 
ATOM     74  C   UNL A   1      45.491  27.431  35.809  1.00  0.00     0.001 A 
ATOM     75  C   UNL A   1      47.001  28.625  34.360  1.00  0.00     0.001 A 
ATOM     76  C   UNL A   1      46.791  27.786  35.451  1.00  0.00     0.000 A 
ENDBRANCH  52  71
BRANCH  64  77
ATOM     77  C   UNL A   1      40.933  34.634  34.969  1.00  0.00    -0.014 A 
ATOM     78  C   UNL A   1      41.741  35.750  34.710  1.00  0.00     0.009 A 
ATOM     79  C   UNL A   1      40.212  34.568  36.170  1.00  0.00     0.009 A 
ATOM     80  C   UNL A   1      41.855  36.765  35.659  1.00  0.00     0.001 A 
ATOM     81  C   UNL A   1      40.296  35.603  37.098  1.00  0.00     0.001 A 
ATOM     82  C   UNL A   1      41.126  36.694  36.846  1.00  0.00     0.000 A 
ENDBRANCH  64  77
ENDBRANCH  38  39
ENDBRANCH  31  33
ENDBRANCH  30  31
ENDBRANCH  29  30
ENDBRANCH  28  29
ENDBRANCH  27  28
ENDBRANCH  26  27
ENDBRANCH  25  26
ENDBRANCH   1  25
TORSDOF 24
ENDMDL
MODEL 2
REMARK VINA RESULT:      -6.4      5.239     11.799
REMARK SMILES C=CCN(CC(=O)OCCOCCOCCOC(=O)c1ccc(-c2c3nc(c(-c4ccccc4)c4ccc([nH]4)c(-c4ccccc4)c4nc(c(-c5ccccc5)c5ccc2[nH]5)C=C4)C=C3)cc1)C(=O)c1ccc(C[NH3+])cc1
REMARK SMILES IDX 11 1 10 2 9 3 8 4 6 5 7 6 5 7 4 8 3 9 2 10 1 11 68 12 69 13
REMARK SMILES IDX 70 14 71 15 77 16 72 17 76 18 73 19 74 20 75 21 12 25 13 26
REMARK SMILES IDX 14 27 15 28 16 29 17 30 18 31 19 32 20 33 21 34 67 35 22 36
REMARK SMILES IDX 66 37 23 38 24 39 25 40 60 41 26 42 65 43 59 44 61 45 27 46
REMARK SMILES IDX 64 47 58 48 57 49 28 51 50 52 35 53 49 54 36 55 39 56 48 57
REMARK SMILES IDX 62 58 37 59 38 60 47 62 63 63 40 64 29 65 30 66 34 67 31 68
REMARK SMILES IDX 33 69 32 70 51 71 52 72 56 73 53 74 55 75 54 76 41 77 42 78
REMARK SMILES IDX 46 79 43 80 45 81 44 82
REMARK H PARENT 75 22 75 23 75 24 61 50 39 61
REMARK Flexibility Score: inf
ROOT
ATOM      1  O   UNL A   1      34.254  30.092  27.066  1.00  0.00    -0.376 OA
ENDROOT
BRANCH   1   2
ATOM      2  C   UNL A   1      33.321  29.338  26.302  1.00  0.00     0.202 C 
BRANCH   2   3
ATOM      3  C   UNL A   1      33.301  27.801  26.533  1.00  0.00     0.261 C 
BRANCH   3   4
ATOM      4  O   UNL A   1      32.455  27.010  25.619  1.00  0.00    -0.462 OA
BRANCH   4   5
ATOM      5  C   UNL A   1      31.826  25.905  26.103  1.00  0.00     0.325 C 
ATOM      6  O   UNL A   1      30.857  25.978  26.858  1.00  0.00    -0.250 OA
BRANCH   5   7
ATOM      7  C   UNL A   1      32.374  24.485  25.657  1.00  0.00     0.242 C 
BRANCH   7   8
ATOM      8  N   UNL A   1      32.852  24.000  24.319  1.00  0.00    -0.324 N 
BRANCH   8   9
ATOM      9  C   UNL A   1      34.089  24.628  23.844  1.00  0.00     0.147 C 
BRANCH   9  10
ATOM     10  C   UNL A   1      35.292  23.901  24.402  1.00  0.00    -0.014 C 
ATOM     11  C   UNL A   1      35.520  23.758  25.717  1.00  0.00     0.006 C 
ENDBRANCH   9  10
ENDBRANCH   8   9
BRANCH   8  12
ATOM     12  C   UNL A   1      32.446  22.876  23.534  1.00  0.00     0.254 C 
ATOM     13  O   UNL A   1      31.967  23.002  22.405  1.00  0.00    -0.269 OA
BRANCH  12  14
ATOM     14  C   UNL A   1      32.527  21.457  23.957  1.00  0.00     0.040 A 
ATOM     15  C   UNL A   1      32.888  21.044  25.654  1.00  0.00     0.014 A 
ATOM     16  C   UNL A   1      32.294  20.221  22.736  1.00  0.00     0.014 A 
ATOM     17  C   UNL A   1      33.006  19.284  26.113  1.00  0.00     0.010 A 
ATOM     18  C   UNL A   1      32.412  18.512  22.990  1.00  0.00     0.010 A 
ATOM     19  C   UNL A   1      32.764  17.904  24.640  1.00  0.00     0.006 A 
BRANCH  19  20
ATOM     20  C   UNL A   1      32.972  16.329  24.365  1.00  0.00     0.295 C 
BRANCH  20  21
ATOM     21  N   UNL A   1      32.239  15.451  25.289  1.00  0.00    -0.354 N 
ATOM     22  H   UNL A   1      31.983  14.588  24.808  1.00  0.00     0.344 HD
ATOM     23  H   UNL A   1      31.394  15.925  25.610  1.00  0.00     0.344 HD
ATOM     24  H   UNL A   1      32.830  15.231  26.090  1.00  0.00     0.344 HD
ENDBRANCH  20  21
ENDBRANCH  19  20
ENDBRANCH  12  14
ENDBRANCH   8  12
ENDBRANCH   7   8
ENDBRANCH   5   7
ENDBRANCH   4   5
ENDBRANCH   3   4
ENDBRANCH   2   3
ENDBRANCH   1   2
BRANCH   1  25
ATOM     25  C   UNL A   1      33.668  31.028  27.952  1.00  0.00     0.188 C 
BRANCH  25  26
ATOM     26  C   UNL A   1      33.776  32.505  27.528  1.00  0.00     0.188 C 
BRANCH  26  27
ATOM     27  O   UNL A   1      32.932  33.276  28.353  1.00  0.00    -0.376 OA
BRANCH  27  28
ATOM     28  C   UNL A   1      33.434  34.558  28.666  1.00  0.00     0.202 C 
BRANCH  28  29
ATOM     29  C   UNL A   1      34.779  34.593  29.419  1.00  0.00     0.261 C 
BRANCH  29  30
ATOM     30  O   UNL A   1      34.796  34.210  30.818  1.00  0.00    -0.460 OA
BRANCH  30  31
ATOM     31  C   UNL A   1      34.946  32.886  31.098  1.00  0.00     0.338 C 
ATOM     32  O   UNL A   1      34.264  32.271  31.898  1.00  0.00    -0.246 OA
BRANCH  31  33
ATOM     33  C   UNL A   1      36.242  32.386  30.431  1.00  0.00     0.060 A 
ATOM     34  C   UNL A   1      37.005  31.815  28.640  1.00  0.00     0.016 A 
ATOM     35  C   UNL A   1      37.189  31.882  31.899  1.00  0.00     0.016 A 
ATOM     36  C   UNL A   1      38.496  30.898  28.562  1.00  0.00     0.010 A 
ATOM     37  C   UNL A   1      38.699  30.982  31.661  1.00  0.00     0.010 A 
ATOM     38  C   UNL A   1      39.327  30.547  30.045  1.00  0.00    -0.014 A 
BRANCH  38  39
ATOM     39  C   UNL A   1      40.636  29.912  29.773  1.00  0.00     0.031 A 
ATOM     40  C   UNL A   1      40.641  28.540  29.207  1.00  0.00     0.074 A 
ATOM     41  C   UNL A   1      41.743  30.697  29.786  1.00  0.00     0.049 A 
ATOM     42  N   UNL A   1      41.633  27.881  28.679  1.00  0.00    -0.248 NA
ATOM     43  C   UNL A   1      39.361  27.815  29.205  1.00  0.00     0.031 C 
ATOM     44  C   UNL A   1      41.803  32.094  30.248  1.00  0.00     0.029 A 
ATOM     45  N   UNL A   1      43.005  30.497  29.284  1.00  0.00    -0.354 N 
ATOM     46  C   UNL A   1      41.098  26.665  28.291  1.00  0.00     0.074 A 
ATOM     47  C   UNL A   1      39.706  26.659  28.668  1.00  0.00     0.031 C 
ATOM     48  C   UNL A   1      42.956  32.658  29.872  1.00  0.00     0.029 A 
ATOM     49  C   UNL A   1      43.783  31.640  29.258  1.00  0.00     0.049 A 
ATOM     50  H   UNL A   1      43.328  29.620  28.971  1.00  0.00     0.167 HD
ATOM     51  C   UNL A   1      41.723  25.645  27.668  1.00  0.00     0.031 A 
ATOM     52  C   UNL A   1      45.030  31.846  28.796  1.00  0.00     0.031 A 
ATOM     53  C   UNL A   1      43.116  25.678  27.332  1.00  0.00     0.049 A 
ATOM     54  C   UNL A   1      45.728  30.648  28.225  1.00  0.00     0.074 A 
ATOM     55  C   UNL A   1      43.907  24.669  26.821  1.00  0.00     0.029 A 
ATOM     56  N   UNL A   1      43.927  26.798  27.479  1.00  0.00    -0.354 N 
ATOM     57  N   UNL A   1      45.233  29.465  27.946  1.00  0.00    -0.248 NA
ATOM     58  C   UNL A   1      47.157  30.794  27.937  1.00  0.00     0.031 C 
ATOM     59  C   UNL A   1      45.210  25.162  26.714  1.00  0.00     0.029 A 
ATOM     60  C   UNL A   1      45.216  26.500  27.083  1.00  0.00     0.049 A 
ATOM     61  H   UNL A   1      43.625  27.673  27.815  1.00  0.00     0.167 HD
ATOM     62  C   UNL A   1      46.290  28.723  27.448  1.00  0.00     0.074 A 
ATOM     63  C   UNL A   1      47.440  29.609  27.419  1.00  0.00     0.031 C 
ATOM     64  C   UNL A   1      46.321  27.423  27.068  1.00  0.00     0.031 A 
BRANCH  51  65
ATOM     65  C   UNL A   1      40.910  24.409  27.432  1.00  0.00    -0.014 A 
ATOM     66  C   UNL A   1      41.265  23.173  27.996  1.00  0.00     0.009 A 
ATOM     67  C   UNL A   1      39.815  24.470  26.558  1.00  0.00     0.009 A 
ATOM     68  C   UNL A   1      40.561  22.016  27.656  1.00  0.00     0.001 A 
ATOM     69  C   UNL A   1      39.094  23.319  26.245  1.00  0.00     0.001 A 
ATOM     70  C   UNL A   1      39.475  22.091  26.785  1.00  0.00     0.000 A 
ENDBRANCH  51  65
BRANCH  52  71
ATOM     71  C   UNL A   1      45.728  33.163  28.935  1.00  0.00    -0.014 A 
ATOM     72  C   UNL A   1      46.462  33.490  30.088  1.00  0.00     0.009 A 
ATOM     73  C   UNL A   1      45.599  34.144  27.937  1.00  0.00     0.009 A 
ATOM     74  C   UNL A   1      47.000  34.772  30.256  1.00  0.00     0.001 A 
ATOM     75  C   UNL A   1      46.173  35.410  28.085  1.00  0.00     0.001 A 
ATOM     76  C   UNL A   1      46.857  35.731  29.254  1.00  0.00     0.000 A 
ENDBRANCH  52  71
BRANCH  64  77
ATOM     77  C   UNL A   1      47.630  26.915  26.546  1.00  0.00    -0.014 A 
ATOM     78  C   UNL A   1      48.045  27.177  25.232  1.00  0.00     0.009 A 
ATOM     79  C   UNL A   1      48.474  26.196  27.406  1.00  0.00     0.009 A 
ATOM     80  C   UNL A   1      49.268  26.690  24.776  1.00  0.00     0.001 A 
ATOM     81  C   UNL A   1      49.714  25.747  26.958  1.00  0.00     0.001 A 
ATOM     82  C   UNL A   1      50.104  25.984  25.641  1.00  0.00     0.000 A 
ENDBRANCH  64  77
ENDBRANCH  38  39
ENDBRANCH  31  33
ENDBRANCH  30  31
ENDBRANCH  29  30
ENDBRANCH  28  29
ENDBRANCH  27  28
ENDBRANCH  26  27
ENDBRANCH  25  26
ENDBRANCH   1  25
TORSDOF 24
ENDMDL
MODEL 3
REMARK VINA RESULT:      -6.1      4.431      9.434
REMARK SMILES C=CCN(CC(=O)OCCOCCOCCOC(=O)c1ccc(-c2c3nc(c(-c4ccccc4)c4ccc([nH]4)c(-c4ccccc4)c4nc(c(-c5ccccc5)c5ccc2[nH]5)C=C4)C=C3)cc1)C(=O)c1ccc(C[NH3+])cc1
REMARK SMILES IDX 11 1 10 2 9 3 8 4 6 5 7 6 5 7 4 8 3 9 2 10 1 11 68 12 69 13
REMARK SMILES IDX 70 14 71 15 77 16 72 17 76 18 73 19 74 20 75 21 12 25 13 26
REMARK SMILES IDX 14 27 15 28 16 29 17 30 18 31 19 32 20 33 21 34 67 35 22 36
REMARK SMILES IDX 66 37 23 38 24 39 25 40 60 41 26 42 65 43 59 44 61 45 27 46
REMARK SMILES IDX 64 47 58 48 57 49 28 51 50 52 35 53 49 54 36 55 39 56 48 57
REMARK SMILES IDX 62 58 37 59 38 60 47 62 63 63 40 64 29 65 30 66 34 67 31 68
REMARK SMILES IDX 33 69 32 70 51 71 52 72 56 73 53 74 55 75 54 76 41 77 42 78
REMARK SMILES IDX 46 79 43 80 45 81 44 82
REMARK H PARENT 75 22 75 23 75 24 61 50 39 61
REMARK Flexibility Score: inf
ROOT
ATOM      1  O   UNL A   1      33.625  27.195  26.037  1.00  0.00    -0.376 OA
ENDROOT
BRANCH   1   2
ATOM      2  C   UNL A   1      33.661  25.844  25.594  1.00  0.00     0.202 C 
BRANCH   2   3
ATOM      3  C   UNL A   1      32.804  25.490  24.346  1.00  0.00     0.261 C 
BRANCH   3   4
ATOM      4  O   UNL A   1      33.082  24.191  23.706  1.00  0.00    -0.462 OA
BRANCH   4   5
ATOM      5  C   UNL A   1      32.643  23.055  24.312  1.00  0.00     0.325 C 
ATOM      6  O   UNL A   1      31.505  22.619  24.143  1.00  0.00    -0.250 OA
BRANCH   5   7
ATOM      7  C   UNL A   1      33.653  22.282  25.258  1.00  0.00     0.242 C 
BRANCH   7   8
ATOM      8  N   UNL A   1      34.999  21.684  24.968  1.00  0.00    -0.324 N 
BRANCH   8   9
ATOM      9  C   UNL A   1      35.013  20.220  24.874  1.00  0.00     0.147 C 
BRANCH   9  10
ATOM     10  C   UNL A   1      33.637  19.707  24.513  1.00  0.00    -0.014 C 
ATOM     11  C   UNL A   1      33.397  18.434  24.158  1.00  0.00     0.006 C 
ENDBRANCH   9  10
ENDBRANCH   8   9
BRANCH   8  12
ATOM     12  C   UNL A   1      36.219  22.294  24.541  1.00  0.00     0.254 C 
ATOM     13  O   UNL A   1      36.383  22.697  23.387  1.00  0.00    -0.269 OA
BRANCH  12  14
ATOM     14  C   UNL A   1      37.418  22.508  25.388  1.00  0.00     0.040 A 
ATOM     15  C   UNL A   1      37.686  24.081  26.184  1.00  0.00     0.014 A 
ATOM     16  C   UNL A   1      38.560  21.188  25.542  1.00  0.00     0.014 A 
ATOM     17  C   UNL A   1      39.191  24.299  27.189  1.00  0.00     0.010 A 
ATOM     18  C   UNL A   1      40.054  21.239  26.420  1.00  0.00     0.010 A 
ATOM     19  C   UNL A   1      40.493  22.741  27.294  1.00  0.00     0.006 A 
BRANCH  19  20
ATOM     20  C   UNL A   1      41.995  22.405  27.776  1.00  0.00     0.295 C 
BRANCH  20  21
ATOM     21  N   UNL A   1      43.045  22.925  26.888  1.00  0.00    -0.354 N 
ATOM     22  H   UNL A   1      42.938  22.517  25.959  1.00  0.00     0.344 HD
ATOM     23  H   UNL A   1      43.961  22.678  27.264  1.00  0.00     0.344 HD
ATOM     24  H   UNL A   1      42.967  23.939  26.825  1.00  0.00     0.344 HD
ENDBRANCH  20  21
ENDBRANCH  19  20
ENDBRANCH  12  14
ENDBRANCH   8  12
ENDBRANCH   7   8
ENDBRANCH   5   7
ENDBRANCH   4   5
ENDBRANCH   3   4
ENDBRANCH   2   3
ENDBRANCH   1   2
BRANCH   1  25
ATOM     25  C   UNL A   1      32.350  27.807  25.953  1.00  0.00     0.188 C 
BRANCH  25  26
ATOM     26  C   UNL A   1      32.081  28.930  26.972  1.00  0.00     0.188 C 
BRANCH  26  27
ATOM     27  O   UNL A   1      33.228  29.099  27.774  1.00  0.00    -0.376 OA
BRANCH  27  28
ATOM     28  C   UNL A   1      34.110  30.105  27.328  1.00  0.00     0.202 C 
BRANCH  28  29
ATOM     29  C   UNL A   1      34.320  31.295  28.285  1.00  0.00     0.261 C 
BRANCH  29  30
ATOM     30  O   UNL A   1      35.427  31.240  29.222  1.00  0.00    -0.460 OA
BRANCH  30  31
ATOM     31  C   UNL A   1      35.340  32.022  30.333  1.00  0.00     0.338 C 
ATOM     32  O   UNL A   1      34.355  32.664  30.648  1.00  0.00    -0.246 OA
BRANCH  31  33
ATOM     33  C   UNL A   1      36.743  32.139  30.962  1.00  0.00     0.060 A 
ATOM     34  C   UNL A   1      38.676  32.548  30.503  1.00  0.00     0.016 A 
ATOM     35  C   UNL A   1      36.461  31.284  32.542  1.00  0.00     0.016 A 
ATOM     36  C   UNL A   1      39.965  32.093  31.600  1.00  0.00     0.010 A 
ATOM     37  C   UNL A   1      37.865  30.914  33.563  1.00  0.00     0.010 A 
ATOM     38  C   UNL A   1      39.539  31.341  33.105  1.00  0.00    -0.014 A 
BRANCH  38  39
ATOM     39  C   UNL A   1      40.734  31.176  33.964  1.00  0.00     0.031 A 
ATOM     40  C   UNL A   1      40.962  32.173  35.040  1.00  0.00     0.074 A 
ATOM     41  C   UNL A   1      41.398  29.994  33.916  1.00  0.00     0.049 A 
ATOM     42  N   UNL A   1      41.790  32.111  36.044  1.00  0.00    -0.248 NA
ATOM     43  C   UNL A   1      40.137  33.390  35.006  1.00  0.00     0.031 C 
ATOM     44  C   UNL A   1      41.171  28.918  32.936  1.00  0.00     0.029 A 
ATOM     45  N   UNL A   1      42.306  29.425  34.774  1.00  0.00    -0.354 N 
ATOM     46  C   UNL A   1      41.589  33.282  36.754  1.00  0.00     0.074 A 
ATOM     47  C   UNL A   1      40.589  34.052  36.057  1.00  0.00     0.031 C 
ATOM     48  C   UNL A   1      41.782  27.795  33.330  1.00  0.00     0.029 A 
ATOM     49  C   UNL A   1      42.556  28.089  34.517  1.00  0.00     0.049 A 
ATOM     50  H   UNL A   1      42.740  29.923  35.506  1.00  0.00     0.167 HD
ATOM     51  C   UNL A   1      42.192  33.673  37.896  1.00  0.00     0.031 A 
ATOM     52  C   UNL A   1      43.331  27.199  35.164  1.00  0.00     0.031 A 
ATOM     53  C   UNL A   1      43.201  32.891  38.547  1.00  0.00     0.049 A 
ATOM     54  C   UNL A   1      44.077  27.718  36.357  1.00  0.00     0.074 A 
ATOM     55  C   UNL A   1      43.987  33.223  39.632  1.00  0.00     0.029 A 
ATOM     56  N   UNL A   1      43.561  31.605  38.160  1.00  0.00    -0.354 N 
ATOM     57  N   UNL A   1      43.947  28.871  36.969  1.00  0.00    -0.248 NA
ATOM     58  C   UNL A   1      45.100  26.837  36.928  1.00  0.00     0.031 C 
ATOM     59  C   UNL A   1      44.863  32.159  39.865  1.00  0.00     0.029 A 
ATOM     60  C   UNL A   1      44.571  31.134  38.976  1.00  0.00     0.049 A 
ATOM     61  H   UNL A   1      43.155  31.105  37.415  1.00  0.00     0.167 HD
ATOM     62  C   UNL A   1      44.869  28.856  38.001  1.00  0.00     0.074 A 
ATOM     63  C   UNL A   1      45.517  27.557  37.958  1.00  0.00     0.031 C 
ATOM     64  C   UNL A   1      45.174  29.829  38.893  1.00  0.00     0.031 A 
BRANCH  51  65
ATOM     65  C   UNL A   1      41.831  35.033  38.408  1.00  0.00    -0.014 A 
ATOM     66  C   UNL A   1      42.519  36.185  37.993  1.00  0.00     0.009 A 
ATOM     67  C   UNL A   1      40.837  35.150  39.390  1.00  0.00     0.009 A 
ATOM     68  C   UNL A   1      42.243  37.421  38.582  1.00  0.00     0.001 A 
ATOM     69  C   UNL A   1      40.542  36.390  39.955  1.00  0.00     0.001 A 
ATOM     70  C   UNL A   1      41.253  37.523  39.559  1.00  0.00     0.000 A 
ENDBRANCH  51  65
BRANCH  52  71
ATOM     71  C   UNL A   1      43.526  25.800  34.670  1.00  0.00    -0.014 A 
ATOM     72  C   UNL A   1      44.462  25.497  33.666  1.00  0.00     0.009 A 
ATOM     73  C   UNL A   1      42.713  24.758  35.149  1.00  0.00     0.009 A 
ATOM     74  C   UNL A   1      44.541  24.207  33.125  1.00  0.00     0.001 A 
ATOM     75  C   UNL A   1      42.823  23.460  34.640  1.00  0.00     0.001 A 
ATOM     76  C   UNL A   1      43.723  23.189  33.613  1.00  0.00     0.000 A 
ENDBRANCH  52  71
BRANCH  64  77
ATOM     77  C   UNL A   1      46.218  29.491  39.913  1.00  0.00    -0.014 A 
ATOM     78  C   UNL A   1      45.880  28.894  41.135  1.00  0.00     0.009 A 
ATOM     79  C   UNL A   1      47.566  29.743  39.618  1.00  0.00     0.009 A 
ATOM     80  C   UNL A   1      46.874  28.592  42.064  1.00  0.00     0.001 A 
ATOM     81  C   UNL A   1      48.561  29.402  40.531  1.00  0.00     0.001 A 
ATOM     82  C   UNL A   1      48.212  28.839  41.758  1.00  0.00     0.000 A 
ENDBRANCH  64  77
ENDBRANCH  38  39
ENDBRANCH  31  33
ENDBRANCH  30  31
ENDBRANCH  29  30
ENDBRANCH  28  29
ENDBRANCH  27  28
ENDBRANCH  26  27
ENDBRANCH  25  26
ENDBRANCH   1  25
TORSDOF 24
ENDMDL
