MODEL 1
REMARK VINA RESULT:     -11.6      0.000      0.000
REMARK SMILES O=C(OCCOCCOCCOC(=O)c1cc(-c2ccccc2)nc(Nc2nc3ccccc3s2)n1)c1ccc(-c2c3nc(c(-c4ccccc4)c4ccc([nH]4)c(-c4ccccc4)c4nc(c(-c5ccccc5)c5ccc2[nH]5)C=C4)C=C3)cc1
REMARK SMILES IDX 7 1 6 2 5 3 4 4 3 5 2 6 1 7 37 8 38 9 84 10 39 11 83 12
REMARK SMILES IDX 40 13 41 14 42 15 77 16 43 17 82 18 76 19 78 20 44 21 81 22
REMARK SMILES IDX 75 23 74 24 45 26 67 27 52 28 66 29 53 30 56 31 65 32 79 33
REMARK SMILES IDX 54 34 55 35 64 37 80 38 57 39 46 40 47 41 51 42 48 43 50 44
REMARK SMILES IDX 49 45 68 46 69 47 73 48 70 49 72 50 71 51 58 52 59 53 63 54
REMARK SMILES IDX 60 55 62 56 61 57 8 58 9 59 10 60 11 61 12 62 13 63 14 64
REMARK SMILES IDX 15 65 16 66 36 67 17 68 25 69 24 70 18 71 19 72 23 73 20 74
REMARK SMILES IDX 22 75 21 76 26 77 27 79 28 80 35 81 29 82 34 83 30 84 33 85
REMARK SMILES IDX 31 86 32 87
REMARK H PARENT 78 25 56 36 26 78
REMARK Flexibility Score: inf
ROOT
ATOM      1  C   UNL A   1      42.490  20.140  26.421  1.00  0.00     0.188 C 
ENDROOT
BRANCH   1   2
ATOM      2  O   UNL A   1      43.024  19.990  25.106  1.00  0.00    -0.376 OA
BRANCH   2   3
ATOM      3  C   UNL A   1      44.441  20.176  24.974  1.00  0.00     0.202 C 
BRANCH   3   4
ATOM      4  C   UNL A   1      44.901  21.305  24.040  1.00  0.00     0.261 C 
BRANCH   4   5
ATOM      5  O   UNL A   1      44.060  22.447  24.225  1.00  0.00    -0.460 OA
BRANCH   5   6
ATOM      6  C   UNL A   1      44.697  23.606  24.519  1.00  0.00     0.338 C 
ATOM      7  O   UNL A   1      45.837  23.900  24.197  1.00  0.00    -0.246 OA
BRANCH   6   8
ATOM      8  C   UNL A   1      43.756  24.399  25.340  1.00  0.00     0.060 A 
ATOM      9  C   UNL A   1      44.047  25.757  25.495  1.00  0.00     0.016 A 
ATOM     10  C   UNL A   1      42.667  23.840  26.008  1.00  0.00     0.016 A 
ATOM     11  C   UNL A   1      43.399  26.514  26.435  1.00  0.00     0.010 A 
ATOM     12  C   UNL A   1      41.951  24.633  26.917  1.00  0.00     0.010 A 
ATOM     13  C   UNL A   1      42.361  25.956  27.173  1.00  0.00    -0.014 A 
BRANCH  13  14
ATOM     14  C   UNL A   1      41.894  26.748  28.326  1.00  0.00     0.031 A 
ATOM     15  C   UNL A   1      42.704  26.723  29.586  1.00  0.00     0.074 A 
ATOM     16  C   UNL A   1      40.955  27.700  28.169  1.00  0.00     0.049 A 
ATOM     17  N   UNL A   1      42.522  27.398  30.690  1.00  0.00    -0.248 NA
ATOM     18  C   UNL A   1      43.917  25.887  29.581  1.00  0.00     0.031 C 
ATOM     19  C   UNL A   1      40.341  28.081  26.895  1.00  0.00     0.029 A 
ATOM     20  N   UNL A   1      40.419  28.584  29.073  1.00  0.00    -0.354 N 
ATOM     21  C   UNL A   1      43.588  27.065  31.509  1.00  0.00     0.074 A 
ATOM     22  C   UNL A   1      44.409  26.118  30.789  1.00  0.00     0.031 C 
ATOM     23  C   UNL A   1      39.541  29.133  27.118  1.00  0.00     0.029 A 
ATOM     24  C   UNL A   1      39.417  29.354  28.539  1.00  0.00     0.049 A 
ATOM     25  H   UNL A   1      40.722  28.657  30.007  1.00  0.00     0.167 HD
ATOM     26  C   UNL A   1      43.854  27.518  32.753  1.00  0.00     0.031 A 
ATOM     27  C   UNL A   1      38.462  30.079  29.147  1.00  0.00     0.031 A 
ATOM     28  C   UNL A   1      43.041  28.472  33.454  1.00  0.00     0.049 A 
ATOM     29  C   UNL A   1      38.621  30.330  30.606  1.00  0.00     0.074 A 
ATOM     30  C   UNL A   1      43.206  28.971  34.734  1.00  0.00     0.029 A 
ATOM     31  N   UNL A   1      41.897  29.058  32.938  1.00  0.00    -0.354 N 
ATOM     32  N   UNL A   1      39.624  30.010  31.379  1.00  0.00    -0.248 NA
ATOM     33  C   UNL A   1      37.562  31.111  31.254  1.00  0.00     0.031 C 
ATOM     34  C   UNL A   1      42.113  29.794  35.023  1.00  0.00     0.029 A 
ATOM     35  C   UNL A   1      41.303  29.853  33.903  1.00  0.00     0.049 A 
ATOM     36  H   UNL A   1      41.559  28.930  32.022  1.00  0.00     0.167 HD
ATOM     37  C   UNL A   1      39.348  30.607  32.592  1.00  0.00     0.074 A 
ATOM     38  C   UNL A   1      38.102  31.330  32.439  1.00  0.00     0.031 C 
ATOM     39  C   UNL A   1      40.069  30.563  33.733  1.00  0.00     0.031 A 
BRANCH  26  40
ATOM     40  C   UNL A   1      45.008  26.891  33.472  1.00  0.00    -0.014 A 
ATOM     41  C   UNL A   1      44.936  25.609  34.035  1.00  0.00     0.009 A 
ATOM     42  C   UNL A   1      46.203  27.621  33.575  1.00  0.00     0.009 A 
ATOM     43  C   UNL A   1      46.038  25.080  34.711  1.00  0.00     0.001 A 
ATOM     44  C   UNL A   1      47.308  27.080  34.227  1.00  0.00     0.001 A 
ATOM     45  C   UNL A   1      47.222  25.813  34.801  1.00  0.00     0.000 A 
ENDBRANCH  26  40
BRANCH  27  46
ATOM     46  C   UNL A   1      37.211  30.526  28.484  1.00  0.00    -0.014 A 
ATOM     47  C   UNL A   1      36.910  31.888  28.322  1.00  0.00     0.009 A 
ATOM     48  C   UNL A   1      36.214  29.575  28.193  1.00  0.00     0.009 A 
ATOM     49  C   UNL A   1      35.641  32.288  27.881  1.00  0.00     0.001 A 
ATOM     50  C   UNL A   1      34.958  29.976  27.727  1.00  0.00     0.001 A 
ATOM     51  C   UNL A   1      34.671  31.331  27.576  1.00  0.00     0.000 A 
ENDBRANCH  27  46
BRANCH  39  52
ATOM     52  C   UNL A   1      39.516  31.349  34.875  1.00  0.00    -0.014 A 
ATOM     53  C   UNL A   1      39.928  32.672  35.103  1.00  0.00     0.009 A 
ATOM     54  C   UNL A   1      38.619  30.741  35.762  1.00  0.00     0.009 A 
ATOM     55  C   UNL A   1      39.487  33.356  36.232  1.00  0.00     0.001 A 
ATOM     56  C   UNL A   1      38.147  31.444  36.867  1.00  0.00     0.001 A 
ATOM     57  C   UNL A   1      38.592  32.744  37.108  1.00  0.00     0.000 A 
ENDBRANCH  39  52
ENDBRANCH  13  14
ENDBRANCH   6   8
ENDBRANCH   5   6
ENDBRANCH   4   5
ENDBRANCH   3   4
ENDBRANCH   2   3
ENDBRANCH   1   2
BRANCH   1  58
ATOM     58  C   UNL A   1      41.051  20.660  26.464  1.00  0.00     0.188 C 
BRANCH  58  59
ATOM     59  O   UNL A   1      39.997  19.732  26.211  1.00  0.00    -0.376 OA
BRANCH  59  60
ATOM     60  C   UNL A   1      39.051  20.052  25.201  1.00  0.00     0.202 C 
BRANCH  60  61
ATOM     61  C   UNL A   1      38.130  21.264  25.406  1.00  0.00     0.261 C 
BRANCH  61  62
ATOM     62  O   UNL A   1      36.728  20.979  25.473  1.00  0.00    -0.459 OA
BRANCH  62  63
ATOM     63  C   UNL A   1      35.960  22.094  25.489  1.00  0.00     0.357 C 
ATOM     64  O   UNL A   1      36.139  23.101  26.160  1.00  0.00    -0.244 OA
BRANCH  63  65
ATOM     65  C   UNL A   1      34.694  21.878  24.776  1.00  0.00     0.154 A 
ATOM     66  C   UNL A   1      34.348  20.566  24.753  1.00  0.00     0.065 A 
ATOM     67  N   UNL A   1      33.860  22.897  24.492  1.00  0.00    -0.206 NA
ATOM     68  C   UNL A   1      33.029  20.304  24.507  1.00  0.00     0.077 A 
ATOM     69  C   UNL A   1      32.602  22.551  24.160  1.00  0.00     0.230 A 
ATOM     70  N   UNL A   1      32.152  21.270  24.170  1.00  0.00    -0.213 NA
BRANCH  68  71
ATOM     71  C   UNL A   1      32.674  18.882  24.496  1.00  0.00     0.000 A 
ATOM     72  C   UNL A   1      32.863  18.207  23.304  1.00  0.00     0.010 A 
ATOM     73  C   UNL A   1      32.681  18.126  25.679  1.00  0.00     0.010 A 
ATOM     74  C   UNL A   1      33.387  16.918  23.303  1.00  0.00     0.001 A 
ATOM     75  C   UNL A   1      33.057  16.778  25.665  1.00  0.00     0.001 A 
ATOM     76  C   UNL A   1      33.475  16.191  24.478  1.00  0.00     0.000 A 
ENDBRANCH  68  71
BRANCH  69  77
ATOM     77  N   UNL A   1      31.617  23.510  23.917  1.00  0.00    -0.300 N 
ATOM     78  H   UNL A   1      30.906  23.270  23.279  1.00  0.00     0.172 HD
BRANCH  77  79
ATOM     79  C   UNL A   1      31.549  24.735  24.477  1.00  0.00     0.190 A 
ATOM     80  N   UNL A   1      31.666  25.892  23.864  1.00  0.00    -0.220 NA
ATOM     81  S   UNL A   1      31.206  24.861  26.169  1.00  0.00    -0.097 S 
ATOM     82  C   UNL A   1      31.614  26.937  24.777  1.00  0.00     0.084 A 
ATOM     83  C   UNL A   1      31.454  26.560  26.109  1.00  0.00     0.056 A 
ATOM     84  C   UNL A   1      31.735  28.310  24.489  1.00  0.00     0.030 A 
ATOM     85  C   UNL A   1      31.497  27.499  27.157  1.00  0.00     0.021 A 
ATOM     86  C   UNL A   1      31.799  29.254  25.517  1.00  0.00     0.002 A 
ATOM     87  C   UNL A   1      31.703  28.846  26.840  1.00  0.00     0.002 A 
ENDBRANCH  77  79
ENDBRANCH  69  77
ENDBRANCH  63  65
ENDBRANCH  62  63
ENDBRANCH  61  62
ENDBRANCH  60  61
ENDBRANCH  59  60
ENDBRANCH  58  59
ENDBRANCH   1  58
TORSDOF 20
ENDMDL
MODEL 2
REMARK VINA RESULT:     -11.3      1.115      4.332
REMARK SMILES O=C(OCCOCCOCCOC(=O)c1cc(-c2ccccc2)nc(Nc2nc3ccccc3s2)n1)c1ccc(-c2c3nc(c(-c4ccccc4)c4ccc([nH]4)c(-c4ccccc4)c4nc(c(-c5ccccc5)c5ccc2[nH]5)C=C4)C=C3)cc1
REMARK SMILES IDX 7 1 6 2 5 3 4 4 3 5 2 6 1 7 37 8 38 9 84 10 39 11 83 12
REMARK SMILES IDX 40 13 41 14 42 15 77 16 43 17 82 18 76 19 78 20 44 21 81 22
REMARK SMILES IDX 75 23 74 24 45 26 67 27 52 28 66 29 53 30 56 31 65 32 79 33
REMARK SMILES IDX 54 34 55 35 64 37 80 38 57 39 46 40 47 41 51 42 48 43 50 44
REMARK SMILES IDX 49 45 68 46 69 47 73 48 70 49 72 50 71 51 58 52 59 53 63 54
REMARK SMILES IDX 60 55 62 56 61 57 8 58 9 59 10 60 11 61 12 62 13 63 14 64
REMARK SMILES IDX 15 65 16 66 36 67 17 68 25 69 24 70 18 71 19 72 23 73 20 74
REMARK SMILES IDX 22 75 21 76 26 77 27 79 28 80 35 81 29 82 34 83 30 84 33 85
REMARK SMILES IDX 31 86 32 87
REMARK H PARENT 78 25 56 36 26 78
REMARK Flexibility Score: inf
ROOT
ATOM      1  C   UNL A   1      42.550  19.895  25.930  1.00  0.00     0.188 C 
ENDROOT
BRANCH   1   2
ATOM      2  O   UNL A   1      43.238  20.690  24.964  1.00  0.00    -0.376 OA
BRANCH   2   3
ATOM      3  C   UNL A   1      44.669  20.581  24.959  1.00  0.00     0.202 C 
BRANCH   3   4
ATOM      4  C   UNL A   1      45.446  21.788  24.412  1.00  0.00     0.261 C 
BRANCH   4   5
ATOM      5  O   UNL A   1      44.570  22.913  24.314  1.00  0.00    -0.460 OA
BRANCH   5   6
ATOM      6  C   UNL A   1      45.093  24.102  24.698  1.00  0.00     0.338 C 
ATOM      7  O   UNL A   1      46.208  24.517  24.428  1.00  0.00    -0.246 OA
BRANCH   6   8
ATOM      8  C   UNL A   1      44.067  24.753  25.542  1.00  0.00     0.060 A 
ATOM      9  C   UNL A   1      44.061  26.151  25.559  1.00  0.00     0.016 A 
ATOM     10  C   UNL A   1      43.186  24.043  26.357  1.00  0.00     0.016 A 
ATOM     11  C   UNL A   1      43.337  26.840  26.495  1.00  0.00     0.010 A 
ATOM     12  C   UNL A   1      42.385  24.751  27.266  1.00  0.00     0.010 A 
ATOM     13  C   UNL A   1      42.510  26.149  27.374  1.00  0.00    -0.014 A 
BRANCH  13  14
ATOM     14  C   UNL A   1      41.970  26.933  28.500  1.00  0.00     0.031 A 
ATOM     15  C   UNL A   1      42.754  26.985  29.776  1.00  0.00     0.074 A 
ATOM     16  C   UNL A   1      40.977  27.821  28.305  1.00  0.00     0.049 A 
ATOM     17  N   UNL A   1      42.507  27.670  30.861  1.00  0.00    -0.248 NA
ATOM     18  C   UNL A   1      44.017  26.228  29.812  1.00  0.00     0.031 C 
ATOM     19  C   UNL A   1      40.366  28.137  27.012  1.00  0.00     0.029 A 
ATOM     20  N   UNL A   1      40.367  28.687  29.180  1.00  0.00    -0.354 N 
ATOM     21  C   UNL A   1      43.575  27.422  31.708  1.00  0.00     0.074 A 
ATOM     22  C   UNL A   1      44.469  26.514  31.024  1.00  0.00     0.031 C 
ATOM     23  C   UNL A   1      39.497  29.140  27.196  1.00  0.00     0.029 A 
ATOM     24  C   UNL A   1      39.330  29.381  28.610  1.00  0.00     0.049 A 
ATOM     25  H   UNL A   1      40.646  28.798  30.117  1.00  0.00     0.167 HD
ATOM     26  C   UNL A   1      43.787  27.915  32.947  1.00  0.00     0.031 A 
ATOM     27  C   UNL A   1      38.320  30.057  29.183  1.00  0.00     0.031 A 
ATOM     28  C   UNL A   1      42.901  28.830  33.611  1.00  0.00     0.049 A 
ATOM     29  C   UNL A   1      38.432  30.347  30.640  1.00  0.00     0.074 A 
ATOM     30  C   UNL A   1      43.009  29.364  34.883  1.00  0.00     0.029 A 
ATOM     31  N   UNL A   1      41.734  29.332  33.061  1.00  0.00    -0.354 N 
ATOM     32  N   UNL A   1      39.437  30.107  31.438  1.00  0.00    -0.248 NA
ATOM     33  C   UNL A   1      37.313  31.072  31.251  1.00  0.00     0.031 C 
ATOM     34  C   UNL A   1      41.860  30.122  35.134  1.00  0.00     0.029 A 
ATOM     35  C   UNL A   1      41.072  30.107  33.997  1.00  0.00     0.049 A 
ATOM     36  H   UNL A   1      41.423  29.164  32.142  1.00  0.00     0.167 HD
ATOM     37  C   UNL A   1      39.100  30.710  32.633  1.00  0.00     0.074 A 
ATOM     38  C   UNL A   1      37.815  31.349  32.441  1.00  0.00     0.031 C 
ATOM     39  C   UNL A   1      39.799  30.734  33.788  1.00  0.00     0.031 A 
BRANCH  26  40
ATOM     40  C   UNL A   1      44.963  27.378  33.700  1.00  0.00    -0.014 A 
ATOM     41  C   UNL A   1      44.886  26.220  34.487  1.00  0.00     0.009 A 
ATOM     42  C   UNL A   1      46.185  28.063  33.604  1.00  0.00     0.009 A 
ATOM     43  C   UNL A   1      46.011  25.773  35.185  1.00  0.00     0.001 A 
ATOM     44  C   UNL A   1      47.311  27.600  34.280  1.00  0.00     0.001 A 
ATOM     45  C   UNL A   1      47.221  26.460  35.076  1.00  0.00     0.000 A 
ENDBRANCH  26  40
BRANCH  27  46
ATOM     46  C   UNL A   1      37.056  30.411  28.488  1.00  0.00    -0.014 A 
ATOM     47  C   UNL A   1      36.687  31.747  28.268  1.00  0.00     0.009 A 
ATOM     48  C   UNL A   1      36.116  29.397  28.221  1.00  0.00     0.009 A 
ATOM     49  C   UNL A   1      35.405  32.061  27.795  1.00  0.00     0.001 A 
ATOM     50  C   UNL A   1      34.848  29.712  27.724  1.00  0.00     0.001 A 
ATOM     51  C   UNL A   1      34.492  31.043  27.516  1.00  0.00     0.000 A 
ENDBRANCH  27  46
BRANCH  39  52
ATOM     52  C   UNL A   1      39.175  31.507  34.902  1.00  0.00    -0.014 A 
ATOM     53  C   UNL A   1      39.383  32.890  35.023  1.00  0.00     0.009 A 
ATOM     54  C   UNL A   1      38.418  30.834  35.870  1.00  0.00     0.009 A 
ATOM     55  C   UNL A   1      38.885  33.578  36.125  1.00  0.00     0.001 A 
ATOM     56  C   UNL A   1      37.885  31.534  36.949  1.00  0.00     0.001 A 
ATOM     57  C   UNL A   1      38.131  32.901  37.083  1.00  0.00     0.000 A 
ENDBRANCH  39  52
ENDBRANCH  13  14
ENDBRANCH   6   8
ENDBRANCH   5   6
ENDBRANCH   4   5
ENDBRANCH   3   4
ENDBRANCH   2   3
ENDBRANCH   1   2
BRANCH   1  58
ATOM     58  C   UNL A   1      41.284  20.542  26.497  1.00  0.00     0.188 C 
BRANCH  58  59
ATOM     59  O   UNL A   1      40.044  19.861  26.308  1.00  0.00    -0.376 OA
BRANCH  59  60
ATOM     60  C   UNL A   1      39.064  20.472  25.482  1.00  0.00     0.202 C 
BRANCH  60  61
ATOM     61  C   UNL A   1      38.513  21.850  25.878  1.00  0.00     0.261 C 
BRANCH  61  62
ATOM     62  O   UNL A   1      37.111  22.048  25.665  1.00  0.00    -0.459 OA
BRANCH  62  63
ATOM     63  C   UNL A   1      36.732  23.341  25.796  1.00  0.00     0.357 C 
ATOM     64  O   UNL A   1      37.464  24.317  25.884  1.00  0.00    -0.244 OA
BRANCH  63  65
ATOM     65  C   UNL A   1      35.295  23.446  26.086  1.00  0.00     0.154 A 
ATOM     66  C   UNL A   1      34.870  24.735  26.056  1.00  0.00     0.065 A 
ATOM     67  N   UNL A   1      34.487  22.369  26.052  1.00  0.00    -0.206 NA
ATOM     68  C   UNL A   1      33.525  24.912  25.888  1.00  0.00     0.077 A 
ATOM     69  C   UNL A   1      33.167  22.628  25.988  1.00  0.00     0.230 A 
ATOM     70  N   UNL A   1      32.655  23.882  25.893  1.00  0.00    -0.213 NA
BRANCH  68  71
ATOM     71  C   UNL A   1      33.086  26.309  25.849  1.00  0.00     0.000 A 
ATOM     72  C   UNL A   1      33.937  27.207  25.230  1.00  0.00     0.010 A 
ATOM     73  C   UNL A   1      31.723  26.641  25.909  1.00  0.00     0.010 A 
ATOM     74  C   UNL A   1      33.426  28.202  24.402  1.00  0.00     0.001 A 
ATOM     75  C   UNL A   1      31.223  27.740  25.201  1.00  0.00     0.001 A 
ATOM     76  C   UNL A   1      32.071  28.483  24.391  1.00  0.00     0.000 A 
ENDBRANCH  68  71
BRANCH  69  77
ATOM     77  N   UNL A   1      32.224  21.606  25.869  1.00  0.00    -0.300 N 
ATOM     78  H   UNL A   1      31.304  21.809  26.159  1.00  0.00     0.172 HD
BRANCH  77  79
ATOM     79  C   UNL A   1      32.456  20.366  25.394  1.00  0.00     0.190 A 
ATOM     80  N   UNL A   1      32.536  19.254  26.092  1.00  0.00    -0.220 NA
ATOM     81  S   UNL A   1      32.605  20.142  23.684  1.00  0.00    -0.097 S 
ATOM     82  C   UNL A   1      32.859  18.183  25.269  1.00  0.00     0.084 A 
ATOM     83  C   UNL A   1      33.025  18.492  23.921  1.00  0.00     0.056 A 
ATOM     84  C   UNL A   1      33.056  16.847  25.669  1.00  0.00     0.030 A 
ATOM     85  C   UNL A   1      33.462  17.534  22.987  1.00  0.00     0.021 A 
ATOM     86  C   UNL A   1      33.510  15.888  24.760  1.00  0.00     0.002 A 
ATOM     87  C   UNL A   1      33.730  16.236  23.435  1.00  0.00     0.002 A 
ENDBRANCH  77  79
ENDBRANCH  69  77
ENDBRANCH  63  65
ENDBRANCH  62  63
ENDBRANCH  61  62
ENDBRANCH  60  61
ENDBRANCH  59  60
ENDBRANCH  58  59
ENDBRANCH   1  58
TORSDOF 20
ENDMDL
MODEL 3
REMARK VINA RESULT:     -11.2      3.651      7.248
REMARK SMILES O=C(OCCOCCOCCOC(=O)c1cc(-c2ccccc2)nc(Nc2nc3ccccc3s2)n1)c1ccc(-c2c3nc(c(-c4ccccc4)c4ccc([nH]4)c(-c4ccccc4)c4nc(c(-c5ccccc5)c5ccc2[nH]5)C=C4)C=C3)cc1
REMARK SMILES IDX 7 1 6 2 5 3 4 4 3 5 2 6 1 7 37 8 38 9 84 10 39 11 83 12
REMARK SMILES IDX 40 13 41 14 42 15 77 16 43 17 82 18 76 19 78 20 44 21 81 22
REMARK SMILES IDX 75 23 74 24 45 26 67 27 52 28 66 29 53 30 56 31 65 32 79 33
REMARK SMILES IDX 54 34 55 35 64 37 80 38 57 39 46 40 47 41 51 42 48 43 50 44
REMARK SMILES IDX 49 45 68 46 69 47 73 48 70 49 72 50 71 51 58 52 59 53 63 54
REMARK SMILES IDX 60 55 62 56 61 57 8 58 9 59 10 60 11 61 12 62 13 63 14 64
REMARK SMILES IDX 15 65 16 66 36 67 17 68 25 69 24 70 18 71 19 72 23 73 20 74
REMARK SMILES IDX 22 75 21 76 26 77 27 79 28 80 35 81 29 82 34 83 30 84 33 85
REMARK SMILES IDX 31 86 32 87
REMARK H PARENT 78 25 56 36 26 78
REMARK Flexibility Score: inf
ROOT
ATOM      1  C   UNL A   1      36.337  22.836  23.585  1.00  0.00     0.188 C 
ENDROOT
BRANCH   1   2
ATOM      2  O   UNL A   1      36.662  22.288  24.862  1.00  0.00    -0.376 OA
BRANCH   2   3
ATOM      3  C   UNL A   1      36.653  20.856  24.957  1.00  0.00     0.202 C 
BRANCH   3   4
ATOM      4  C   UNL A   1      38.012  20.175  25.177  1.00  0.00     0.261 C 
BRANCH   4   5
ATOM      5  O   UNL A   1      39.016  21.172  25.378  1.00  0.00    -0.460 OA
BRANCH   5   6
ATOM      6  C   UNL A   1      40.000  20.850  26.253  1.00  0.00     0.338 C 
ATOM      7  O   UNL A   1      40.482  19.740  26.415  1.00  0.00    -0.246 OA
BRANCH   6   8
ATOM      8  C   UNL A   1      40.321  22.091  26.991  1.00  0.00     0.060 A 
ATOM      9  C   UNL A   1      39.643  23.249  26.598  1.00  0.00     0.016 A 
ATOM     10  C   UNL A   1      41.302  22.161  27.978  1.00  0.00     0.016 A 
ATOM     11  C   UNL A   1      40.050  24.484  27.028  1.00  0.00     0.010 A 
ATOM     12  C   UNL A   1      41.670  23.419  28.479  1.00  0.00     0.010 A 
ATOM     13  C   UNL A   1      41.082  24.586  27.955  1.00  0.00    -0.014 A 
BRANCH  13  14
ATOM     14  C   UNL A   1      41.622  25.941  28.169  1.00  0.00     0.031 A 
ATOM     15  C   UNL A   1      42.911  26.311  27.499  1.00  0.00     0.074 A 
ATOM     16  C   UNL A   1      40.849  26.914  28.686  1.00  0.00     0.049 A 
ATOM     17  N   UNL A   1      43.525  27.464  27.488  1.00  0.00    -0.248 NA
ATOM     18  C   UNL A   1      43.555  25.274  26.675  1.00  0.00     0.031 C 
ATOM     19  C   UNL A   1      39.436  26.772  29.043  1.00  0.00     0.029 A 
ATOM     20  N   UNL A   1      41.118  28.241  28.917  1.00  0.00    -0.354 N 
ATOM     21  C   UNL A   1      44.627  27.290  26.666  1.00  0.00     0.074 A 
ATOM     22  C   UNL A   1      44.611  25.920  26.205  1.00  0.00     0.031 C 
ATOM     23  C   UNL A   1      38.979  27.975  29.418  1.00  0.00     0.029 A 
ATOM     24  C   UNL A   1      40.084  28.896  29.537  1.00  0.00     0.049 A 
ATOM     25  H   UNL A   1      41.964  28.676  28.664  1.00  0.00     0.167 HD
ATOM     26  C   UNL A   1      45.565  28.200  26.327  1.00  0.00     0.031 A 
ATOM     27  C   UNL A   1      40.070  30.068  30.196  1.00  0.00     0.031 A 
ATOM     28  C   UNL A   1      45.563  29.564  26.778  1.00  0.00     0.049 A 
ATOM     29  C   UNL A   1      41.260  30.951  30.043  1.00  0.00     0.074 A 
ATOM     30  C   UNL A   1      46.488  30.560  26.518  1.00  0.00     0.029 A 
ATOM     31  N   UNL A   1      44.594  30.119  27.598  1.00  0.00    -0.354 N 
ATOM     32  N   UNL A   1      42.300  30.782  29.273  1.00  0.00    -0.248 NA
ATOM     33  C   UNL A   1      41.232  32.218  30.782  1.00  0.00     0.031 C 
ATOM     34  C   UNL A   1      46.123  31.693  27.252  1.00  0.00     0.029 A 
ATOM     35  C   UNL A   1      44.941  31.420  27.917  1.00  0.00     0.049 A 
ATOM     36  H   UNL A   1      43.780  29.657  27.905  1.00  0.00     0.167 HD
ATOM     37  C   UNL A   1      43.023  31.952  29.384  1.00  0.00     0.074 A 
ATOM     38  C   UNL A   1      42.285  32.829  30.270  1.00  0.00     0.031 C 
ATOM     39  C   UNL A   1      44.196  32.273  28.797  1.00  0.00     0.031 A 
BRANCH  26  40
ATOM     40  C   UNL A   1      46.729  27.710  25.525  1.00  0.00    -0.014 A 
ATOM     41  C   UNL A   1      46.795  27.853  24.131  1.00  0.00     0.009 A 
ATOM     42  C   UNL A   1      47.790  27.090  26.202  1.00  0.00     0.009 A 
ATOM     43  C   UNL A   1      47.897  27.360  23.430  1.00  0.00     0.001 A 
ATOM     44  C   UNL A   1      48.900  26.622  25.503  1.00  0.00     0.001 A 
ATOM     45  C   UNL A   1      48.949  26.751  24.116  1.00  0.00     0.000 A 
ENDBRANCH  26  40
BRANCH  27  46
ATOM     46  C   UNL A   1      39.012  30.467  31.158  1.00  0.00    -0.014 A 
ATOM     47  C   UNL A   1      39.043  30.054  32.499  1.00  0.00     0.009 A 
ATOM     48  C   UNL A   1      37.853  31.103  30.674  1.00  0.00     0.009 A 
ATOM     49  C   UNL A   1      37.939  30.270  33.335  1.00  0.00     0.001 A 
ATOM     50  C   UNL A   1      36.763  31.342  31.517  1.00  0.00     0.001 A 
ATOM     51  C   UNL A   1      36.805  30.921  32.845  1.00  0.00     0.000 A 
ENDBRANCH  27  46
BRANCH  39  52
ATOM     52  C   UNL A   1      44.710  33.644  29.092  1.00  0.00    -0.014 A 
ATOM     53  C   UNL A   1      44.284  34.749  28.338  1.00  0.00     0.009 A 
ATOM     54  C   UNL A   1      45.671  33.819  30.096  1.00  0.00     0.009 A 
ATOM     55  C   UNL A   1      44.853  36.001  28.553  1.00  0.00     0.001 A 
ATOM     56  C   UNL A   1      46.206  35.082  30.336  1.00  0.00     0.001 A 
ATOM     57  C   UNL A   1      45.806  36.168  29.556  1.00  0.00     0.000 A 
ENDBRANCH  39  52
ENDBRANCH  13  14
ENDBRANCH   6   8
ENDBRANCH   5   6
ENDBRANCH   4   5
ENDBRANCH   3   4
ENDBRANCH   2   3
ENDBRANCH   1   2
BRANCH   1  58
ATOM     58  C   UNL A   1      34.856  23.176  23.400  1.00  0.00     0.188 C 
BRANCH  58  59
ATOM     59  O   UNL A   1      34.368  23.334  22.069  1.00  0.00    -0.376 OA
BRANCH  59  60
ATOM     60  C   UNL A   1      33.098  23.943  21.889  1.00  0.00     0.202 C 
BRANCH  60  61
ATOM     61  C   UNL A   1      33.034  25.416  21.460  1.00  0.00     0.261 C 
BRANCH  61  62
ATOM     62  O   UNL A   1      33.901  26.312  22.167  1.00  0.00    -0.459 OA
BRANCH  62  63
ATOM     63  C   UNL A   1      33.424  27.577  22.223  1.00  0.00     0.357 C 
ATOM     64  O   UNL A   1      33.972  28.590  21.810  1.00  0.00    -0.244 OA
BRANCH  63  65
ATOM     65  C   UNL A   1      32.240  27.661  23.090  1.00  0.00     0.154 A 
ATOM     66  C   UNL A   1      31.336  28.558  22.620  1.00  0.00     0.065 A 
ATOM     67  N   UNL A   1      31.980  26.724  24.022  1.00  0.00    -0.206 NA
ATOM     68  C   UNL A   1      30.059  28.412  23.085  1.00  0.00     0.077 A 
ATOM     69  C   UNL A   1      30.723  26.711  24.505  1.00  0.00     0.230 A 
ATOM     70  N   UNL A   1      29.739  27.529  24.051  1.00  0.00    -0.213 NA
BRANCH  68  71
ATOM     71  C   UNL A   1      29.096  29.384  22.560  1.00  0.00     0.000 A 
ATOM     72  C   UNL A   1      27.976  29.625  23.333  1.00  0.00     0.010 A 
ATOM     73  C   UNL A   1      29.501  30.392  21.669  1.00  0.00     0.010 A 
ATOM     74  C   UNL A   1      27.492  30.921  23.483  1.00  0.00     0.001 A 
ATOM     75  C   UNL A   1      28.908  31.659  21.706  1.00  0.00     0.001 A 
ATOM     76  C   UNL A   1      27.944  31.942  22.665  1.00  0.00     0.000 A 
ENDBRANCH  68  71
BRANCH  69  77
ATOM     77  N   UNL A   1      30.298  25.744  25.418  1.00  0.00    -0.300 N 
ATOM     78  H   UNL A   1      29.423  25.887  25.847  1.00  0.00     0.172 HD
BRANCH  77  79
ATOM     79  C   UNL A   1      30.976  24.631  25.765  1.00  0.00     0.190 A 
ATOM     80  N   UNL A   1      31.740  24.469  26.823  1.00  0.00    -0.220 NA
ATOM     81  S   UNL A   1      30.807  23.212  24.790  1.00  0.00    -0.097 S 
ATOM     82  C   UNL A   1      32.332  23.213  26.812  1.00  0.00     0.084 A 
ATOM     83  C   UNL A   1      32.007  22.409  25.721  1.00  0.00     0.056 A 
ATOM     84  C   UNL A   1      33.232  22.700  27.766  1.00  0.00     0.030 A 
ATOM     85  C   UNL A   1      32.615  21.156  25.514  1.00  0.00     0.021 A 
ATOM     86  C   UNL A   1      33.860  21.468  27.566  1.00  0.00     0.002 A 
ATOM     87  C   UNL A   1      33.568  20.715  26.438  1.00  0.00     0.002 A 
ENDBRANCH  77  79
ENDBRANCH  69  77
ENDBRANCH  63  65
ENDBRANCH  62  63
ENDBRANCH  61  62
ENDBRANCH  60  61
ENDBRANCH  59  60
ENDBRANCH  58  59
ENDBRANCH   1  58
TORSDOF 20
ENDMDL
