MODEL 1
REMARK VINA RESULT:     -13.3      0.000      0.000
REMARK SMILES N#C/C(=C/c1cccc(OCC(=O)OCCOCCOCCOC(=O)c2ccc(-c3c4nc(c(-c5ccccc5)c5ccc([nH]5)c(-c5ccccc5)c5nc(c(-c6ccccc6)c6ccc3[nH]6)C=C5)C=C4)cc2)c1)c1nc2ccccc2[nH]1
REMARK SMILES IDX 18 1 17 2 16 3 15 4 14 5 12 6 13 7 11 8 10 9 9 10 5 11 6 12
REMARK SMILES IDX 74 13 7 14 8 15 4 16 3 17 2 18 1 19 75 20 76 21 83 22 77 23
REMARK SMILES IDX 82 24 78 26 81 27 79 28 80 29 19 30 20 31 21 32 22 33 23 34
REMARK SMILES IDX 24 35 25 36 26 37 27 38 73 39 28 40 72 41 29 42 30 43 31 44
REMARK SMILES IDX 66 45 32 46 71 47 65 48 67 49 33 50 70 51 64 52 63 53 34 55
REMARK SMILES IDX 56 56 41 57 55 58 42 59 45 60 54 61 68 62 43 63 44 64 53 66
REMARK SMILES IDX 69 67 46 68 35 69 36 70 40 71 37 72 39 73 38 74 57 75 58 76
REMARK SMILES IDX 62 77 59 78 61 79 60 80 47 81 48 82 52 83 49 84 51 85 50 86
REMARK H PARENT 83 25 67 54 45 65
REMARK Flexibility Score: inf
ROOT
ATOM      1  C   UNL A   1      32.821  36.739  31.921  1.00  0.00     0.188 C 
ENDROOT
BRANCH   1   2
ATOM      2  O   UNL A   1      33.222  37.352  29.969  1.00  0.00    -0.376 OA
BRANCH   2   3
ATOM      3  C   UNL A   1      33.740  36.411  28.757  1.00  0.00     0.202 C 
BRANCH   3   4
ATOM      4  C   UNL A   1      32.836  34.910  28.758  1.00  0.00     0.261 C 
BRANCH   4   5
ATOM      5  O   UNL A   1      33.803  33.268  28.028  1.00  0.00    -0.461 OA
BRANCH   5   6
ATOM      6  C   UNL A   1      34.037  31.791  27.655  1.00  0.00     0.344 C 
ATOM      7  O   UNL A   1      35.102  31.214  27.932  1.00  0.00    -0.248 OA
BRANCH   6   8
ATOM      8  C   UNL A   1      32.680  30.649  27.189  1.00  0.00     0.351 C 
BRANCH   8   9
ATOM      9  O   UNL A   1      32.235  29.744  26.116  1.00  0.00    -0.482 OA
BRANCH   9  10
ATOM     10  C   UNL A   1      32.914  28.966  25.145  1.00  0.00     0.120 A 
ATOM     11  C   UNL A   1      33.933  26.681  24.705  1.00  0.00    -0.021 A 
ATOM     12  C   UNL A   1      33.211  26.565  23.524  1.00  0.00     0.008 A 
ATOM     13  C   UNL A   1      34.019  28.085  25.270  1.00  0.00     0.054 A 
ATOM     14  C   UNL A   1      32.402  27.653  23.128  1.00  0.00     0.004 A 
ATOM     15  C   UNL A   1      32.192  28.787  23.963  1.00  0.00     0.046 A 
BRANCH  11  16
ATOM     16  C   UNL A   1      34.064  25.127  25.766  1.00  0.00     0.031 C 
ATOM     17  C   UNL A   1      35.200  23.625  25.924  1.00  0.00     0.095 C 
BRANCH  17  18
ATOM     18  C   UNL A   1      34.629  22.419  26.651  1.00  0.00     0.103 C 
ATOM     19  N   UNL A   1      34.155  21.418  27.254  1.00  0.00    -0.192 NA
ENDBRANCH  17  18
BRANCH  17  20
ATOM     20  C   UNL A   1      36.899  23.357  25.520  1.00  0.00     0.149 A 
ATOM     21  N   UNL A   1      37.668  21.870  25.133  1.00  0.00    -0.228 NA
ATOM     22  N   UNL A   1      38.123  24.357  26.473  1.00  0.00    -0.337 N 
ATOM     23  C   UNL A   1      39.375  21.630  26.026  1.00  0.00     0.089 A 
ATOM     24  C   UNL A   1      39.614  23.362  26.895  1.00  0.00     0.066 A 
ATOM     25  H   UNL A   1      37.996  25.301  26.723  1.00  0.00     0.168 HD
ATOM     26  C   UNL A   1      40.505  20.312  26.418  1.00  0.00     0.030 A 
ATOM     27  C   UNL A   1      41.068  23.606  27.877  1.00  0.00     0.028 A 
ATOM     28  C   UNL A   1      41.904  20.639  27.448  1.00  0.00     0.002 A 
ATOM     29  C   UNL A   1      42.204  22.238  28.108  1.00  0.00     0.002 A 
ENDBRANCH  17  20
ENDBRANCH  11  16
ENDBRANCH   9  10
ENDBRANCH   8   9
ENDBRANCH   6   8
ENDBRANCH   5   6
ENDBRANCH   4   5
ENDBRANCH   3   4
ENDBRANCH   2   3
ENDBRANCH   1   2
BRANCH   1  30
ATOM     30  C   UNL A   1      33.434  35.051  32.516  1.00  0.00     0.188 C 
BRANCH  30  31
ATOM     31  O   UNL A   1      33.697  33.775  31.881  1.00  0.00    -0.376 OA
BRANCH  31  32
ATOM     32  C   UNL A   1      34.773  32.863  32.087  1.00  0.00     0.202 C 
BRANCH  32  33
ATOM     33  C   UNL A   1      35.593  32.845  33.390  1.00  0.00     0.261 C 
BRANCH  33  34
ATOM     34  O   UNL A   1      36.883  33.406  33.270  1.00  0.00    -0.460 OA
BRANCH  34  35
ATOM     35  C   UNL A   1      37.727  32.550  32.663  1.00  0.00     0.338 C 
ATOM     36  O   UNL A   1      37.945  31.399  32.978  1.00  0.00    -0.246 OA
BRANCH  35  37
ATOM     37  C   UNL A   1      38.436  33.393  31.684  1.00  0.00     0.060 A 
ATOM     38  C   UNL A   1      38.206  33.862  29.830  1.00  0.00     0.016 A 
ATOM     39  C   UNL A   1      40.051  33.768  32.474  1.00  0.00     0.016 A 
ATOM     40  C   UNL A   1      39.670  34.629  28.878  1.00  0.00     0.010 A 
ATOM     41  C   UNL A   1      41.449  34.426  31.524  1.00  0.00     0.010 A 
ATOM     42  C   UNL A   1      41.321  34.813  29.725  1.00  0.00    -0.014 A 
BRANCH  42  43
ATOM     43  C   UNL A   1      42.708  34.942  29.016  1.00  0.00     0.031 A 
ATOM     44  C   UNL A   1      43.760  33.786  28.820  1.00  0.00     0.074 A 
ATOM     45  C   UNL A   1      43.101  36.140  28.546  1.00  0.00     0.049 A 
ATOM     46  N   UNL A   1      45.000  33.845  28.340  1.00  0.00    -0.248 NA
ATOM     47  C   UNL A   1      43.390  32.410  29.187  1.00  0.00     0.031 C 
ATOM     48  C   UNL A   1      42.315  37.361  28.629  1.00  0.00     0.029 A 
ATOM     49  N   UNL A   1      44.268  36.534  27.919  1.00  0.00    -0.354 N 
ATOM     50  C   UNL A   1      45.541  32.547  28.384  1.00  0.00     0.074 A 
ATOM     51  C   UNL A   1      44.508  31.722  28.973  1.00  0.00     0.031 C 
ATOM     52  C   UNL A   1      42.988  38.356  28.038  1.00  0.00     0.029 A 
ATOM     53  C   UNL A   1      44.306  37.876  27.625  1.00  0.00     0.049 A 
ATOM     54  H   UNL A   1      45.002  35.914  27.703  1.00  0.00     0.167 HD
ATOM     55  C   UNL A   1      46.750  32.052  27.974  1.00  0.00     0.031 A 
ATOM     56  C   UNL A   1      45.276  38.675  27.132  1.00  0.00     0.031 A 
ATOM     57  C   UNL A   1      47.814  32.820  27.355  1.00  0.00     0.049 A 
ATOM     58  C   UNL A   1      46.630  38.137  26.758  1.00  0.00     0.074 A 
ATOM     59  C   UNL A   1      49.043  32.373  26.876  1.00  0.00     0.029 A 
ATOM     60  N   UNL A   1      47.787  34.183  27.124  1.00  0.00    -0.354 N 
ATOM     61  N   UNL A   1      47.081  36.910  26.807  1.00  0.00    -0.248 NA
ATOM     62  C   UNL A   1      47.609  39.112  26.247  1.00  0.00     0.031 C 
ATOM     63  C   UNL A   1      49.784  33.476  26.435  1.00  0.00     0.029 A 
ATOM     64  C   UNL A   1      48.982  34.595  26.547  1.00  0.00     0.049 A 
ATOM     65  H   UNL A   1      47.029  34.775  27.338  1.00  0.00     0.167 HD
ATOM     66  C   UNL A   1      48.377  36.962  26.302  1.00  0.00     0.074 A 
ATOM     67  C   UNL A   1      48.632  38.334  25.928  1.00  0.00     0.031 C 
ATOM     68  C   UNL A   1      49.271  35.953  26.162  1.00  0.00     0.031 A 
BRANCH  55  69
ATOM     69  C   UNL A   1      47.049  30.566  28.172  1.00  0.00    -0.014 A 
ATOM     70  C   UNL A   1      46.912  29.638  27.127  1.00  0.00     0.009 A 
ATOM     71  C   UNL A   1      47.609  30.112  29.383  1.00  0.00     0.009 A 
ATOM     72  C   UNL A   1      47.273  28.294  27.304  1.00  0.00     0.001 A 
ATOM     73  C   UNL A   1      48.006  28.777  29.546  1.00  0.00     0.001 A 
ATOM     74  C   UNL A   1      47.824  27.866  28.511  1.00  0.00     0.000 A 
ENDBRANCH  55  69
BRANCH  56  75
ATOM     75  C   UNL A   1      45.009  40.136  27.009  1.00  0.00    -0.014 A 
ATOM     76  C   UNL A   1      44.389  40.666  25.868  1.00  0.00     0.009 A 
ATOM     77  C   UNL A   1      45.391  41.008  28.042  1.00  0.00     0.009 A 
ATOM     78  C   UNL A   1      44.187  42.043  25.752  1.00  0.00     0.001 A 
ATOM     79  C   UNL A   1      45.138  42.376  27.948  1.00  0.00     0.001 A 
ATOM     80  C   UNL A   1      44.551  42.894  26.796  1.00  0.00     0.000 A 
ENDBRANCH  56  75
BRANCH  68  81
ATOM     81  C   UNL A   1      50.597  36.271  25.515  1.00  0.00    -0.014 A 
ATOM     82  C   UNL A   1      50.809  36.118  24.135  1.00  0.00     0.009 A 
ATOM     83  C   UNL A   1      51.663  36.731  26.306  1.00  0.00     0.009 A 
ATOM     84  C   UNL A   1      52.067  36.361  23.574  1.00  0.00     0.001 A 
ATOM     85  C   UNL A   1      52.909  37.011  25.739  1.00  0.00     0.001 A 
ATOM     86  C   UNL A   1      53.115  36.810  24.376  1.00  0.00     0.000 A 
ENDBRANCH  68  81
ENDBRANCH  42  43
ENDBRANCH  35  37
ENDBRANCH  34  35
ENDBRANCH  33  34
ENDBRANCH  32  33
ENDBRANCH  31  32
ENDBRANCH  30  31
ENDBRANCH   1  30
TORSDOF 22
ENDMDL
MODEL 2
REMARK VINA RESULT:     -13.1      5.516     12.459
REMARK SMILES N#C/C(=C/c1cccc(OCC(=O)OCCOCCOCCOC(=O)c2ccc(-c3c4nc(c(-c5ccccc5)c5ccc([nH]5)c(-c5ccccc5)c5nc(c(-c6ccccc6)c6ccc3[nH]6)C=C5)C=C4)cc2)c1)c1nc2ccccc2[nH]1
REMARK SMILES IDX 18 1 17 2 16 3 15 4 14 5 12 6 13 7 11 8 10 9 9 10 5 11 6 12
REMARK SMILES IDX 74 13 7 14 8 15 4 16 3 17 2 18 1 19 75 20 76 21 83 22 77 23
REMARK SMILES IDX 82 24 78 26 81 27 79 28 80 29 19 30 20 31 21 32 22 33 23 34
REMARK SMILES IDX 24 35 25 36 26 37 27 38 73 39 28 40 72 41 29 42 30 43 31 44
REMARK SMILES IDX 66 45 32 46 71 47 65 48 67 49 33 50 70 51 64 52 63 53 34 55
REMARK SMILES IDX 56 56 41 57 55 58 42 59 45 60 54 61 68 62 43 63 44 64 53 66
REMARK SMILES IDX 69 67 46 68 35 69 36 70 40 71 37 72 39 73 38 74 57 75 58 76
REMARK SMILES IDX 62 77 59 78 61 79 60 80 47 81 48 82 52 83 49 84 51 85 50 86
REMARK H PARENT 83 25 67 54 45 65
REMARK Flexibility Score: inf
ROOT
ATOM      1  C   UNL A   1      42.287  21.236  27.168  1.00  0.00     0.188 C 
ENDROOT
BRANCH   1   2
ATOM      2  O   UNL A   1      40.812  22.596  26.600  1.00  0.00    -0.376 OA
BRANCH   2   3
ATOM      3  C   UNL A   1      39.276  22.243  26.226  1.00  0.00     0.202 C 
BRANCH   3   4
ATOM      4  C   UNL A   1      38.301  23.695  26.337  1.00  0.00     0.261 C 
BRANCH   4   5
ATOM      5  O   UNL A   1      39.063  25.216  27.464  1.00  0.00    -0.461 OA
BRANCH   5   6
ATOM      6  C   UNL A   1      40.116  26.049  28.223  1.00  0.00     0.344 C 
ATOM      7  O   UNL A   1      41.214  25.565  28.546  1.00  0.00    -0.248 OA
BRANCH   6   8
ATOM      8  C   UNL A   1      40.055  27.878  28.334  1.00  0.00     0.351 C 
BRANCH   8   9
ATOM      9  O   UNL A   1      39.530  28.979  29.160  1.00  0.00    -0.482 OA
BRANCH   9  10
ATOM     10  C   UNL A   1      39.299  29.138  30.549  1.00  0.00     0.120 A 
ATOM     11  C   UNL A   1      37.787  30.259  32.255  1.00  0.00    -0.021 A 
ATOM     12  C   UNL A   1      37.578  29.045  32.896  1.00  0.00     0.008 A 
ATOM     13  C   UNL A   1      38.971  30.291  31.309  1.00  0.00     0.054 A 
ATOM     14  C   UNL A   1      38.263  27.909  32.412  1.00  0.00     0.004 A 
ATOM     15  C   UNL A   1      39.035  27.940  31.216  1.00  0.00     0.046 A 
BRANCH  11  16
ATOM     16  C   UNL A   1      36.282  31.382  32.069  1.00  0.00     0.031 C 
ATOM     17  C   UNL A   1      35.302  32.198  30.674  1.00  0.00     0.095 C 
BRANCH  17  18
ATOM     18  C   UNL A   1      34.421  33.373  31.065  1.00  0.00     0.103 C 
ATOM     19  N   UNL A   1      33.691  34.349  31.389  1.00  0.00    -0.192 NA
ENDBRANCH  17  18
BRANCH  17  20
ATOM     20  C   UNL A   1      35.065  31.787  28.972  1.00  0.00     0.149 A 
ATOM     21  N   UNL A   1      33.795  32.293  27.933  1.00  0.00    -0.228 NA
ATOM     22  N   UNL A   1      35.488  30.056  28.492  1.00  0.00    -0.337 N 
ATOM     23  C   UNL A   1      33.066  30.855  26.850  1.00  0.00     0.089 A 
ATOM     24  C   UNL A   1      34.278  29.386  27.277  1.00  0.00     0.066 A 
ATOM     25  H   UNL A   1      36.261  29.555  28.841  1.00  0.00     0.168 HD
ATOM     26  C   UNL A   1      31.605  30.511  25.893  1.00  0.00     0.030 A 
ATOM     27  C   UNL A   1      33.979  27.814  26.518  1.00  0.00     0.028 A 
ATOM     28  C   UNL A   1      31.367  28.896  25.215  1.00  0.00     0.002 A 
ATOM     29  C   UNL A   1      32.536  27.612  25.472  1.00  0.00     0.002 A 
ENDBRANCH  17  20
ENDBRANCH  11  16
ENDBRANCH   9  10
ENDBRANCH   8   9
ENDBRANCH   6   8
ENDBRANCH   5   6
ENDBRANCH   4   5
ENDBRANCH   3   4
ENDBRANCH   2   3
ENDBRANCH   1   2
BRANCH   1  30
ATOM     30  C   UNL A   1      42.269  19.483  26.456  1.00  0.00     0.188 C 
BRANCH  30  31
ATOM     31  O   UNL A   1      42.900  18.830  25.326  1.00  0.00    -0.376 OA
BRANCH  31  32
ATOM     32  C   UNL A   1      44.162  19.089  24.717  1.00  0.00     0.202 C 
BRANCH  32  33
ATOM     33  C   UNL A   1      44.816  20.483  24.747  1.00  0.00     0.261 C 
BRANCH  33  34
ATOM     34  O   UNL A   1      43.899  21.554  24.673  1.00  0.00    -0.460 OA
BRANCH  34  35
ATOM     35  C   UNL A   1      44.251  22.425  23.709  1.00  0.00     0.338 C 
ATOM     36  O   UNL A   1      44.255  22.222  22.512  1.00  0.00    -0.246 OA
BRANCH  35  37
ATOM     37  C   UNL A   1      44.799  23.571  24.454  1.00  0.00     0.060 A 
ATOM     38  C   UNL A   1      46.491  24.027  25.255  1.00  0.00     0.016 A 
ATOM     39  C   UNL A   1      43.332  24.578  24.908  1.00  0.00     0.016 A 
ATOM     40  C   UNL A   1      46.564  25.449  26.525  1.00  0.00     0.010 A 
ATOM     41  C   UNL A   1      43.416  25.873  26.176  1.00  0.00     0.010 A 
ATOM     42  C   UNL A   1      44.987  26.298  27.045  1.00  0.00    -0.014 A 
BRANCH  42  43
ATOM     43  C   UNL A   1      44.769  27.098  28.369  1.00  0.00     0.031 A 
ATOM     44  C   UNL A   1      44.642  28.664  28.497  1.00  0.00     0.074 A 
ATOM     45  C   UNL A   1      44.716  26.437  29.540  1.00  0.00     0.049 A 
ATOM     46  N   UNL A   1      44.578  29.420  29.590  1.00  0.00    -0.248 NA
ATOM     47  C   UNL A   1      44.567  29.479  27.274  1.00  0.00     0.031 C 
ATOM     48  C   UNL A   1      44.832  24.995  29.682  1.00  0.00     0.029 A 
ATOM     49  N   UNL A   1      44.569  26.892  30.837  1.00  0.00    -0.354 N 
ATOM     50  C   UNL A   1      44.491  30.763  29.181  1.00  0.00     0.074 A 
ATOM     51  C   UNL A   1      44.547  30.726  27.735  1.00  0.00     0.031 C 
ATOM     52  C   UNL A   1      44.704  24.670  30.975  1.00  0.00     0.029 A 
ATOM     53  C   UNL A   1      44.606  25.889  31.776  1.00  0.00     0.049 A 
ATOM     54  H   UNL A   1      44.448  27.842  31.066  1.00  0.00     0.167 HD
ATOM     55  C   UNL A   1      44.360  31.924  29.894  1.00  0.00     0.031 A 
ATOM     56  C   UNL A   1      44.614  25.903  33.126  1.00  0.00     0.031 A 
ATOM     57  C   UNL A   1      44.272  32.024  31.339  1.00  0.00     0.049 A 
ATOM     58  C   UNL A   1      44.550  27.190  33.904  1.00  0.00     0.074 A 
ATOM     59  C   UNL A   1      44.093  33.162  32.122  1.00  0.00     0.029 A 
ATOM     60  N   UNL A   1      44.353  30.963  32.222  1.00  0.00    -0.354 N 
ATOM     61  N   UNL A   1      44.456  28.421  33.471  1.00  0.00    -0.248 NA
ATOM     62  C   UNL A   1      44.583  27.074  35.372  1.00  0.00     0.031 C 
ATOM     63  C   UNL A   1      44.149  32.796  33.472  1.00  0.00     0.029 A 
ATOM     64  C   UNL A   1      44.264  31.421  33.531  1.00  0.00     0.049 A 
ATOM     65  H   UNL A   1      44.459  30.020  31.959  1.00  0.00     0.167 HD
ATOM     66  C   UNL A   1      44.385  29.218  34.610  1.00  0.00     0.074 A 
ATOM     67  C   UNL A   1      44.419  28.333  35.751  1.00  0.00     0.031 C 
ATOM     68  C   UNL A   1      44.295  30.568  34.691  1.00  0.00     0.031 A 
BRANCH  55  69
ATOM     69  C   UNL A   1      44.301  33.254  29.144  1.00  0.00    -0.014 A 
ATOM     70  C   UNL A   1      43.081  33.874  28.830  1.00  0.00     0.009 A 
ATOM     71  C   UNL A   1      45.487  33.965  28.870  1.00  0.00     0.009 A 
ATOM     72  C   UNL A   1      43.049  35.135  28.217  1.00  0.00     0.001 A 
ATOM     73  C   UNL A   1      45.454  35.242  28.294  1.00  0.00     0.001 A 
ATOM     74  C   UNL A   1      44.235  35.820  27.953  1.00  0.00     0.000 A 
ENDBRANCH  55  69
BRANCH  56  75
ATOM     75  C   UNL A   1      44.747  24.612  33.857  1.00  0.00    -0.014 A 
ATOM     76  C   UNL A   1      46.004  24.032  34.082  1.00  0.00     0.009 A 
ATOM     77  C   UNL A   1      43.599  23.948  34.323  1.00  0.00     0.009 A 
ATOM     78  C   UNL A   1      46.105  22.800  34.731  1.00  0.00     0.001 A 
ATOM     79  C   UNL A   1      43.707  22.746  35.019  1.00  0.00     0.001 A 
ATOM     80  C   UNL A   1      44.959  22.164  35.208  1.00  0.00     0.000 A 
ENDBRANCH  56  75
BRANCH  68  81
ATOM     81  C   UNL A   1      44.160  31.183  36.063  1.00  0.00    -0.014 A 
ATOM     82  C   UNL A   1      45.278  31.579  36.816  1.00  0.00     0.009 A 
ATOM     83  C   UNL A   1      42.883  31.368  36.618  1.00  0.00     0.009 A 
ATOM     84  C   UNL A   1      45.123  32.089  38.110  1.00  0.00     0.001 A 
ATOM     85  C   UNL A   1      42.727  31.913  37.896  1.00  0.00     0.001 A 
ATOM     86  C   UNL A   1      43.848  32.258  38.647  1.00  0.00     0.000 A 
ENDBRANCH  68  81
ENDBRANCH  42  43
ENDBRANCH  35  37
ENDBRANCH  34  35
ENDBRANCH  33  34
ENDBRANCH  32  33
ENDBRANCH  31  32
ENDBRANCH  30  31
ENDBRANCH   1  30
TORSDOF 22
ENDMDL
MODEL 3
REMARK VINA RESULT:     -12.0      2.671      5.064
REMARK SMILES N#C/C(=C/c1cccc(OCC(=O)OCCOCCOCCOC(=O)c2ccc(-c3c4nc(c(-c5ccccc5)c5ccc([nH]5)c(-c5ccccc5)c5nc(c(-c6ccccc6)c6ccc3[nH]6)C=C5)C=C4)cc2)c1)c1nc2ccccc2[nH]1
REMARK SMILES IDX 18 1 17 2 16 3 15 4 14 5 12 6 13 7 11 8 10 9 9 10 5 11 6 12
REMARK SMILES IDX 74 13 7 14 8 15 4 16 3 17 2 18 1 19 75 20 76 21 83 22 77 23
REMARK SMILES IDX 82 24 78 26 81 27 79 28 80 29 19 30 20 31 21 32 22 33 23 34
REMARK SMILES IDX 24 35 25 36 26 37 27 38 73 39 28 40 72 41 29 42 30 43 31 44
REMARK SMILES IDX 66 45 32 46 71 47 65 48 67 49 33 50 70 51 64 52 63 53 34 55
REMARK SMILES IDX 56 56 41 57 55 58 42 59 45 60 54 61 68 62 43 63 44 64 53 66
REMARK SMILES IDX 69 67 46 68 35 69 36 70 40 71 37 72 39 73 38 74 57 75 58 76
REMARK SMILES IDX 62 77 59 78 61 79 60 80 47 81 48 82 52 83 49 84 51 85 50 86
REMARK H PARENT 83 25 67 54 45 65
REMARK Flexibility Score: inf
ROOT
ATOM      1  C   UNL A   1      32.480  36.552  31.795  1.00  0.00     0.188 C 
ENDROOT
BRANCH   1   2
ATOM      2  O   UNL A   1      33.274  37.249  29.997  1.00  0.00    -0.376 OA
BRANCH   2   3
ATOM      3  C   UNL A   1      33.785  36.339  28.759  1.00  0.00     0.202 C 
BRANCH   3   4
ATOM      4  C   UNL A   1      32.904  34.824  28.746  1.00  0.00     0.261 C 
BRANCH   4   5
ATOM      5  O   UNL A   1      33.916  33.191  28.060  1.00  0.00    -0.461 OA
BRANCH   5   6
ATOM      6  C   UNL A   1      34.154  31.731  27.626  1.00  0.00     0.344 C 
ATOM      7  O   UNL A   1      35.232  31.156  27.853  1.00  0.00    -0.248 OA
BRANCH   6   8
ATOM      8  C   UNL A   1      32.797  30.592  27.156  1.00  0.00     0.351 C 
BRANCH   8   9
ATOM      9  O   UNL A   1      32.298  29.772  26.039  1.00  0.00    -0.482 OA
BRANCH   9  10
ATOM     10  C   UNL A   1      32.926  28.956  25.064  1.00  0.00     0.120 A 
ATOM     11  C   UNL A   1      33.887  26.642  24.647  1.00  0.00    -0.021 A 
ATOM     12  C   UNL A   1      33.119  26.509  23.497  1.00  0.00     0.008 A 
ATOM     13  C   UNL A   1      34.019  28.058  25.170  1.00  0.00     0.054 A 
ATOM     14  C   UNL A   1      32.315  27.601  23.103  1.00  0.00     0.004 A 
ATOM     15  C   UNL A   1      32.157  28.760  23.915  1.00  0.00     0.046 A 
BRANCH  11  16
ATOM     16  C   UNL A   1      34.031  25.114  25.743  1.00  0.00     0.031 C 
ATOM     17  C   UNL A   1      35.183  23.628  25.939  1.00  0.00     0.095 C 
BRANCH  17  18
ATOM     18  C   UNL A   1      34.622  22.433  26.692  1.00  0.00     0.103 C 
ATOM     19  N   UNL A   1      34.157  21.441  27.316  1.00  0.00    -0.192 NA
ENDBRANCH  17  18
BRANCH  17  20
ATOM     20  C   UNL A   1      36.885  23.368  25.546  1.00  0.00     0.149 A 
ATOM     21  N   UNL A   1      37.669  21.883  25.186  1.00  0.00    -0.228 NA
ATOM     22  N   UNL A   1      38.097  24.395  26.486  1.00  0.00    -0.337 N 
ATOM     23  C   UNL A   1      39.375  21.673  26.089  1.00  0.00     0.089 A 
ATOM     24  C   UNL A   1      39.595  23.421  26.930  1.00  0.00     0.066 A 
ATOM     25  H   UNL A   1      37.961  25.342  26.720  1.00  0.00     0.168 HD
ATOM     26  C   UNL A   1      40.515  20.371  26.507  1.00  0.00     0.030 A 
ATOM     27  C   UNL A   1      41.043  23.694  27.912  1.00  0.00     0.028 A 
ATOM     28  C   UNL A   1      41.907  20.728  27.537  1.00  0.00     0.002 A 
ATOM     29  C   UNL A   1      42.190  22.340  28.171  1.00  0.00     0.002 A 
ENDBRANCH  17  20
ENDBRANCH  11  16
ENDBRANCH   9  10
ENDBRANCH   8   9
ENDBRANCH   6   8
ENDBRANCH   5   6
ENDBRANCH   4   5
ENDBRANCH   3   4
ENDBRANCH   2   3
ENDBRANCH   1   2
BRANCH   1  30
ATOM     30  C   UNL A   1      33.099  34.918  32.520  1.00  0.00     0.188 C 
BRANCH  30  31
ATOM     31  O   UNL A   1      34.005  33.878  32.074  1.00  0.00    -0.376 OA
BRANCH  31  32
ATOM     32  C   UNL A   1      35.291  33.518  32.573  1.00  0.00     0.202 C 
BRANCH  32  33
ATOM     33  C   UNL A   1      35.896  34.176  33.827  1.00  0.00     0.261 C 
BRANCH  33  34
ATOM     34  O   UNL A   1      37.209  34.663  33.649  1.00  0.00    -0.460 OA
BRANCH  34  35
ATOM     35  C   UNL A   1      38.118  33.761  34.065  1.00  0.00     0.338 C 
ATOM     36  O   UNL A   1      38.353  33.441  35.213  1.00  0.00    -0.246 OA
BRANCH  35  37
ATOM     37  C   UNL A   1      38.862  33.422  32.839  1.00  0.00     0.060 A 
ATOM     38  C   UNL A   1      38.507  32.424  31.230  1.00  0.00     0.016 A 
ATOM     39  C   UNL A   1      40.605  33.864  33.212  1.00  0.00     0.016 A 
ATOM     40  C   UNL A   1      39.970  31.880  30.133  1.00  0.00     0.010 A 
ATOM     41  C   UNL A   1      41.981  33.267  32.192  1.00  0.00     0.010 A 
ATOM     42  C   UNL A   1      41.715  32.233  30.689  1.00  0.00    -0.014 A 
BRANCH  42  43
ATOM     43  C   UNL A   1      42.998  31.474  30.220  1.00  0.00     0.031 A 
ATOM     44  C   UNL A   1      43.358  29.974  30.540  1.00  0.00     0.074 A 
ATOM     45  C   UNL A   1      43.931  32.132  29.507  1.00  0.00     0.049 A 
ATOM     46  N   UNL A   1      44.476  29.300  30.282  1.00  0.00    -0.248 NA
ATOM     47  C   UNL A   1      42.360  29.124  31.209  1.00  0.00     0.031 C 
ATOM     48  C   UNL A   1      43.837  33.527  29.109  1.00  0.00     0.029 A 
ATOM     49  N   UNL A   1      45.151  31.720  29.004  1.00  0.00    -0.354 N 
ATOM     50  C   UNL A   1      44.317  27.994  30.781  1.00  0.00     0.074 A 
ATOM     51  C   UNL A   1      43.005  27.976  31.391  1.00  0.00     0.031 C 
ATOM     52  C   UNL A   1      44.917  33.850  28.387  1.00  0.00     0.029 A 
ATOM     53  C   UNL A   1      45.841  32.717  28.356  1.00  0.00     0.049 A 
ATOM     54  H   UNL A   1      45.493  30.802  29.100  1.00  0.00     0.167 HD
ATOM     55  C   UNL A   1      45.137  26.899  30.739  1.00  0.00     0.031 A 
ATOM     56  C   UNL A   1      47.084  32.774  27.833  1.00  0.00     0.031 A 
ATOM     57  C   UNL A   1      46.449  26.846  30.121  1.00  0.00     0.049 A 
ATOM     58  C   UNL A   1      48.010  31.589  27.862  1.00  0.00     0.074 A 
ATOM     59  C   UNL A   1      47.312  25.760  30.004  1.00  0.00     0.029 A 
ATOM     60  N   UNL A   1      47.092  27.911  29.516  1.00  0.00    -0.354 N 
ATOM     61  N   UNL A   1      47.806  30.384  28.330  1.00  0.00    -0.248 NA
ATOM     62  C   UNL A   1      49.346  31.782  27.273  1.00  0.00     0.031 C 
ATOM     63  C   UNL A   1      48.502  26.189  29.405  1.00  0.00     0.029 A 
ATOM     64  C   UNL A   1      48.344  27.517  29.059  1.00  0.00     0.049 A 
ATOM     65  H   UNL A   1      46.715  28.816  29.422  1.00  0.00     0.167 HD
ATOM     66  C   UNL A   1      48.971  29.671  28.060  1.00  0.00     0.074 A 
ATOM     67  C   UNL A   1      49.867  30.568  27.366  1.00  0.00     0.031 C 
ATOM     68  C   UNL A   1      49.262  28.383  28.364  1.00  0.00     0.031 A 
BRANCH  55  69
ATOM     69  C   UNL A   1      44.673  25.598  31.394  1.00  0.00    -0.014 A 
ATOM     70  C   UNL A   1      44.152  24.534  30.640  1.00  0.00     0.009 A 
ATOM     71  C   UNL A   1      44.891  25.382  32.770  1.00  0.00     0.009 A 
ATOM     72  C   UNL A   1      43.811  23.318  31.248  1.00  0.00     0.001 A 
ATOM     73  C   UNL A   1      44.587  24.152  33.370  1.00  0.00     0.001 A 
ATOM     74  C   UNL A   1      44.033  23.126  32.612  1.00  0.00     0.000 A 
ENDBRANCH  55  69
BRANCH  56  75
ATOM     75  C   UNL A   1      47.563  34.064  27.261  1.00  0.00    -0.014 A 
ATOM     76  C   UNL A   1      48.124  35.055  28.080  1.00  0.00     0.009 A 
ATOM     77  C   UNL A   1      47.447  34.307  25.883  1.00  0.00     0.009 A 
ATOM     78  C   UNL A   1      48.529  36.275  27.533  1.00  0.00     0.001 A 
ATOM     79  C   UNL A   1      47.901  35.504  25.331  1.00  0.00     0.001 A 
ATOM     80  C   UNL A   1      48.427  36.493  26.159  1.00  0.00     0.000 A 
ENDBRANCH  56  75
BRANCH  68  81
ATOM     81  C   UNL A   1      50.584  27.829  27.891  1.00  0.00    -0.014 A 
ATOM     82  C   UNL A   1      51.691  27.708  28.748  1.00  0.00     0.009 A 
ATOM     83  C   UNL A   1      50.728  27.423  26.554  1.00  0.00     0.009 A 
ATOM     84  C   UNL A   1      52.922  27.249  28.265  1.00  0.00     0.001 A 
ATOM     85  C   UNL A   1      51.947  26.927  26.081  1.00  0.00     0.001 A 
ATOM     86  C   UNL A   1      53.047  26.857  26.933  1.00  0.00     0.000 A 
ENDBRANCH  68  81
ENDBRANCH  42  43
ENDBRANCH  35  37
ENDBRANCH  34  35
ENDBRANCH  33  34
ENDBRANCH  32  33
ENDBRANCH  31  32
ENDBRANCH  30  31
ENDBRANCH   1  30
TORSDOF 22
ENDMDL
