MODEL 1
REMARK VINA RESULT:      -9.3      0.000      0.000
REMARK SMILES CO[C@@H]1C[C@@H](C(=O)OCCOCCOCCOC(=O)c2ccc(-c3c4nc(c(-c5ccccc5)c5ccc([nH]5)c(-c5ccccc5)c5nc(c(-c6ccccc6)c6ccc3[nH]6)C=C5)C=C4)cc2)N(C(=O)c2nc(C(C)C)n[nH]2)C1
REMARK SMILES IDX 12 1 11 2 10 3 9 4 8 5 6 6 7 7 5 8 3 9 4 10 79 11 68 12 2 13
REMARK SMILES IDX 1 14 69 15 70 16 71 17 72 18 78 19 73 20 77 21 74 23 75 24
REMARK SMILES IDX 76 25 13 26 14 27 15 28 16 29 17 30 18 31 19 32 20 33 21 34
REMARK SMILES IDX 67 35 22 36 66 37 23 38 24 39 25 40 60 41 26 42 65 43 59 44
REMARK SMILES IDX 61 45 27 46 64 47 58 48 57 49 28 51 50 52 35 53 49 54 36 55
REMARK SMILES IDX 39 56 48 57 62 58 37 59 38 60 47 62 63 63 40 64 29 65 30 66
REMARK SMILES IDX 34 67 31 68 33 69 32 70 51 71 52 72 56 73 53 74 55 75 54 76
REMARK SMILES IDX 41 77 42 78 46 79 43 80 45 81 44 82
REMARK H PARENT 78 22 61 50 39 61
REMARK Flexibility Score: inf
ROOT
ATOM      1  C   UNL A   1      31.924  30.668  26.840  1.00  0.00     0.188 C 
ENDROOT
BRANCH   1   2
ATOM      2  O   UNL A   1      32.936  30.407  25.874  1.00  0.00    -0.376 OA
BRANCH   2   3
ATOM      3  C   UNL A   1      33.714  29.215  26.050  1.00  0.00     0.202 C 
BRANCH   3   4
ATOM      4  C   UNL A   1      33.277  28.316  27.216  1.00  0.00     0.261 C 
BRANCH   4   5
ATOM      5  O   UNL A   1      33.101  26.970  26.717  1.00  0.00    -0.462 OA
BRANCH   5   6
ATOM      6  C   UNL A   1      31.999  26.674  25.998  1.00  0.00     0.329 C 
ATOM      7  O   UNL A   1      30.895  27.159  26.216  1.00  0.00    -0.250 OA
BRANCH   6   8
ATOM      8  C   UNL A   1      32.387  25.927  24.708  1.00  0.00     0.198 C 
ATOM      9  C   UNL A   1      34.213  24.814  23.608  1.00  0.00     0.140 C 
ATOM     10  C   UNL A   1      33.780  25.315  24.967  1.00  0.00     0.071 C 
ATOM     11  C   UNL A   1      33.646  25.886  22.668  1.00  0.00     0.153 C 
ATOM     12  N   UNL A   1      32.471  26.482  23.335  1.00  0.00    -0.319 N 
BRANCH   9  13
ATOM     13  O   UNL A   1      33.636  23.515  23.433  1.00  0.00    -0.380 OA
ATOM     14  C   UNL A   1      34.527  22.451  23.753  1.00  0.00     0.195 C 
ENDBRANCH   9  13
BRANCH  12  15
ATOM     15  C   UNL A   1      31.469  26.996  22.471  1.00  0.00     0.292 C 
ATOM     16  O   UNL A   1      31.404  26.531  21.327  1.00  0.00    -0.265 OA
BRANCH  15  17
ATOM     17  C   UNL A   1      30.597  28.108  22.833  1.00  0.00     0.214 A 
ATOM     18  N   UNL A   1      29.578  28.575  22.113  1.00  0.00    -0.207 NA
ATOM     19  N   UNL A   1      30.849  29.029  23.803  1.00  0.00    -0.255 N 
ATOM     20  C   UNL A   1      29.145  29.685  22.805  1.00  0.00     0.153 A 
ATOM     21  N   UNL A   1      29.916  29.995  23.857  1.00  0.00    -0.158 NA
ATOM     22  H   UNL A   1      31.630  28.991  24.402  1.00  0.00     0.192 HD
BRANCH  20  23
ATOM     23  C   UNL A   1      27.961  30.541  22.436  1.00  0.00     0.053 C 
ATOM     24  C   UNL A   1      27.658  31.587  23.504  1.00  0.00     0.016 C 
ATOM     25  C   UNL A   1      28.039  31.230  21.078  1.00  0.00     0.016 C 
ENDBRANCH  20  23
ENDBRANCH  15  17
ENDBRANCH  12  15
ENDBRANCH   6   8
ENDBRANCH   5   6
ENDBRANCH   4   5
ENDBRANCH   3   4
ENDBRANCH   2   3
ENDBRANCH   1   2
BRANCH   1  26
ATOM     26  C   UNL A   1      31.383  32.094  26.873  1.00  0.00     0.188 C 
BRANCH  26  27
ATOM     27  O   UNL A   1      32.371  33.110  26.873  1.00  0.00    -0.376 OA
BRANCH  27  28
ATOM     28  C   UNL A   1      33.003  33.283  28.156  1.00  0.00     0.202 C 
BRANCH  28  29
ATOM     29  C   UNL A   1      34.480  32.836  28.157  1.00  0.00     0.261 C 
BRANCH  29  30
ATOM     30  O   UNL A   1      34.720  31.547  28.729  1.00  0.00    -0.460 OA
BRANCH  30  31
ATOM     31  C   UNL A   1      35.476  31.527  29.844  1.00  0.00     0.338 C 
ATOM     32  O   UNL A   1      35.191  31.944  30.954  1.00  0.00    -0.246 OA
BRANCH  31  33
ATOM     33  C   UNL A   1      36.570  30.591  29.551  1.00  0.00     0.060 A 
ATOM     34  C   UNL A   1      37.190  29.956  30.638  1.00  0.00     0.016 A 
ATOM     35  C   UNL A   1      36.889  30.261  28.231  1.00  0.00     0.016 A 
ATOM     36  C   UNL A   1      38.211  29.053  30.403  1.00  0.00     0.010 A 
ATOM     37  C   UNL A   1      37.929  29.373  27.995  1.00  0.00     0.010 A 
ATOM     38  C   UNL A   1      38.634  28.836  29.086  1.00  0.00    -0.014 A 
BRANCH  38  39
ATOM     39  C   UNL A   1      40.015  28.370  28.883  1.00  0.00     0.031 A 
ATOM     40  C   UNL A   1      41.108  29.377  29.117  1.00  0.00     0.074 A 
ATOM     41  C   UNL A   1      40.274  27.092  28.575  1.00  0.00     0.049 A 
ATOM     42  N   UNL A   1      42.402  29.237  29.023  1.00  0.00    -0.248 NA
ATOM     43  C   UNL A   1      40.678  30.733  29.511  1.00  0.00     0.031 C 
ATOM     44  C   UNL A   1      39.273  26.044  28.387  1.00  0.00     0.029 A 
ATOM     45  N   UNL A   1      41.472  26.464  28.376  1.00  0.00    -0.354 N 
ATOM     46  C   UNL A   1      42.932  30.485  29.332  1.00  0.00     0.074 A 
ATOM     47  C   UNL A   1      41.828  31.380  29.574  1.00  0.00     0.031 C 
ATOM     48  C   UNL A   1      39.904  24.891  28.102  1.00  0.00     0.029 A 
ATOM     49  C   UNL A   1      41.343  25.138  28.057  1.00  0.00     0.049 A 
ATOM     50  H   UNL A   1      42.341  26.919  28.456  1.00  0.00     0.167 HD
ATOM     51  C   UNL A   1      44.231  30.847  29.415  1.00  0.00     0.031 A 
ATOM     52  C   UNL A   1      42.295  24.238  27.751  1.00  0.00     0.031 A 
ATOM     53  C   UNL A   1      45.314  29.942  29.151  1.00  0.00     0.049 A 
ATOM     54  C   UNL A   1      43.734  24.684  27.785  1.00  0.00     0.074 A 
ATOM     55  C   UNL A   1      46.673  30.181  29.195  1.00  0.00     0.029 A 
ATOM     56  N   UNL A   1      45.146  28.612  28.787  1.00  0.00    -0.354 N 
ATOM     57  N   UNL A   1      44.232  25.861  28.086  1.00  0.00    -0.248 NA
ATOM     58  C   UNL A   1      44.740  23.669  27.456  1.00  0.00     0.031 C 
ATOM     59  C   UNL A   1      47.328  29.011  28.797  1.00  0.00     0.029 A 
ATOM     60  C   UNL A   1      46.378  28.021  28.582  1.00  0.00     0.049 A 
ATOM     61  H   UNL A   1      44.279  28.157  28.690  1.00  0.00     0.167 HD
ATOM     62  C   UNL A   1      45.612  25.719  28.017  1.00  0.00     0.074 A 
ATOM     63  C   UNL A   1      45.865  24.335  27.667  1.00  0.00     0.031 C 
ATOM     64  C   UNL A   1      46.587  26.641  28.224  1.00  0.00     0.031 A 
BRANCH  51  65
ATOM     65  C   UNL A   1      44.529  32.282  29.752  1.00  0.00    -0.014 A 
ATOM     66  C   UNL A   1      44.630  33.269  28.755  1.00  0.00     0.009 A 
ATOM     67  C   UNL A   1      44.721  32.653  31.091  1.00  0.00     0.009 A 
ATOM     68  C   UNL A   1      44.954  34.586  29.092  1.00  0.00     0.001 A 
ATOM     69  C   UNL A   1      45.012  33.976  31.428  1.00  0.00     0.001 A 
ATOM     70  C   UNL A   1      45.139  34.939  30.428  1.00  0.00     0.000 A 
ENDBRANCH  51  65
BRANCH  52  71
ATOM     71  C   UNL A   1      41.922  22.847  27.387  1.00  0.00    -0.014 A 
ATOM     72  C   UNL A   1      41.882  21.834  28.357  1.00  0.00     0.009 A 
ATOM     73  C   UNL A   1      41.606  22.522  26.058  1.00  0.00     0.009 A 
ATOM     74  C   UNL A   1      41.567  20.521  27.999  1.00  0.00     0.001 A 
ATOM     75  C   UNL A   1      41.258  21.216  25.708  1.00  0.00     0.001 A 
ATOM     76  C   UNL A   1      41.250  20.214  26.676  1.00  0.00     0.000 A 
ENDBRANCH  52  71
BRANCH  64  77
ATOM     77  C   UNL A   1      48.007  26.155  28.124  1.00  0.00    -0.014 A 
ATOM     78  C   UNL A   1      48.704  26.165  26.906  1.00  0.00     0.009 A 
ATOM     79  C   UNL A   1      48.656  25.689  29.278  1.00  0.00     0.009 A 
ATOM     80  C   UNL A   1      50.002  25.657  26.836  1.00  0.00     0.001 A 
ATOM     81  C   UNL A   1      49.968  25.221  29.212  1.00  0.00     0.001 A 
ATOM     82  C   UNL A   1      50.633  25.189  27.988  1.00  0.00     0.000 A 
ENDBRANCH  64  77
ENDBRANCH  38  39
ENDBRANCH  31  33
ENDBRANCH  30  31
ENDBRANCH  29  30
ENDBRANCH  28  29
ENDBRANCH  27  28
ENDBRANCH  26  27
ENDBRANCH   1  26
TORSDOF 21
ENDMDL
MODEL 2
REMARK VINA RESULT:      -9.3      3.425      7.178
REMARK SMILES CO[C@@H]1C[C@@H](C(=O)OCCOCCOCCOC(=O)c2ccc(-c3c4nc(c(-c5ccccc5)c5ccc([nH]5)c(-c5ccccc5)c5nc(c(-c6ccccc6)c6ccc3[nH]6)C=C5)C=C4)cc2)N(C(=O)c2nc(C(C)C)n[nH]2)C1
REMARK SMILES IDX 12 1 11 2 10 3 9 4 8 5 6 6 7 7 5 8 3 9 4 10 79 11 68 12 2 13
REMARK SMILES IDX 1 14 69 15 70 16 71 17 72 18 78 19 73 20 77 21 74 23 75 24
REMARK SMILES IDX 76 25 13 26 14 27 15 28 16 29 17 30 18 31 19 32 20 33 21 34
REMARK SMILES IDX 67 35 22 36 66 37 23 38 24 39 25 40 60 41 26 42 65 43 59 44
REMARK SMILES IDX 61 45 27 46 64 47 58 48 57 49 28 51 50 52 35 53 49 54 36 55
REMARK SMILES IDX 39 56 48 57 62 58 37 59 38 60 47 62 63 63 40 64 29 65 30 66
REMARK SMILES IDX 34 67 31 68 33 69 32 70 51 71 52 72 56 73 53 74 55 75 54 76
REMARK SMILES IDX 41 77 42 78 46 79 43 80 45 81 44 82
REMARK H PARENT 78 22 61 50 39 61
REMARK Flexibility Score: inf
ROOT
ATOM      1  C   UNL A   1      33.245  29.149  25.020  1.00  0.00     0.188 C 
ENDROOT
BRANCH   1   2
ATOM      2  O   UNL A   1      33.817  28.393  26.082  1.00  0.00    -0.376 OA
BRANCH   2   3
ATOM      3  C   UNL A   1      33.184  27.148  26.409  1.00  0.00     0.202 C 
BRANCH   3   4
ATOM      4  C   UNL A   1      31.889  27.269  27.225  1.00  0.00     0.261 C 
BRANCH   4   5
ATOM      5  O   UNL A   1      30.938  26.300  26.726  1.00  0.00    -0.462 OA
BRANCH   5   6
ATOM      6  C   UNL A   1      31.355  25.043  26.470  1.00  0.00     0.329 C 
ATOM      7  O   UNL A   1      31.514  24.190  27.336  1.00  0.00    -0.250 OA
BRANCH   6   8
ATOM      8  C   UNL A   1      31.282  24.752  24.959  1.00  0.00     0.198 C 
ATOM      9  C   UNL A   1      32.605  24.088  23.064  1.00  0.00     0.140 C 
ATOM     10  C   UNL A   1      32.637  24.122  24.575  1.00  0.00     0.071 C 
ATOM     11  C   UNL A   1      31.867  25.389  22.723  1.00  0.00     0.153 C 
ATOM     12  N   UNL A   1      30.994  25.716  23.868  1.00  0.00    -0.319 N 
BRANCH   9  13
ATOM     13  O   UNL A   1      31.904  22.899  22.683  1.00  0.00    -0.380 OA
ATOM     14  C   UNL A   1      32.515  21.703  23.159  1.00  0.00     0.195 C 
ENDBRANCH   9  13
BRANCH  12  15
ATOM     15  C   UNL A   1      29.822  26.454  23.557  1.00  0.00     0.292 C 
ATOM     16  O   UNL A   1      28.744  25.849  23.567  1.00  0.00    -0.265 OA
BRANCH  15  17
ATOM     17  C   UNL A   1      29.847  27.847  23.126  1.00  0.00     0.214 A 
ATOM     18  N   UNL A   1      29.075  28.828  23.590  1.00  0.00    -0.207 NA
ATOM     19  N   UNL A   1      30.443  28.316  21.995  1.00  0.00    -0.255 N 
ATOM     20  C   UNL A   1      29.386  29.916  22.804  1.00  0.00     0.153 A 
ATOM     21  N   UNL A   1      30.229  29.629  21.802  1.00  0.00    -0.158 NA
ATOM     22  H   UNL A   1      30.974  27.754  21.384  1.00  0.00     0.192 HD
BRANCH  20  23
ATOM     23  C   UNL A   1      28.826  31.306  22.967  1.00  0.00     0.053 C 
ATOM     24  C   UNL A   1      28.702  32.033  21.633  1.00  0.00     0.016 C 
ATOM     25  C   UNL A   1      27.497  31.400  23.707  1.00  0.00     0.016 C 
ENDBRANCH  20  23
ENDBRANCH  15  17
ENDBRANCH  12  15
ENDBRANCH   6   8
ENDBRANCH   5   6
ENDBRANCH   4   5
ENDBRANCH   3   4
ENDBRANCH   2   3
ENDBRANCH   1   2
BRANCH   1  26
ATOM     26  C   UNL A   1      32.110  30.092  25.407  1.00  0.00     0.188 C 
BRANCH  26  27
ATOM     27  O   UNL A   1      32.346  30.869  26.568  1.00  0.00    -0.376 OA
BRANCH  27  28
ATOM     28  C   UNL A   1      31.415  31.959  26.717  1.00  0.00     0.202 C 
BRANCH  28  29
ATOM     29  C   UNL A   1      32.118  33.324  26.874  1.00  0.00     0.261 C 
BRANCH  29  30
ATOM     30  O   UNL A   1      32.210  33.803  28.219  1.00  0.00    -0.460 OA
BRANCH  30  31
ATOM     31  C   UNL A   1      33.202  34.680  28.465  1.00  0.00     0.338 C 
ATOM     32  O   UNL A   1      33.113  35.879  28.677  1.00  0.00    -0.246 OA
BRANCH  31  33
ATOM     33  C   UNL A   1      34.377  33.855  28.779  1.00  0.00     0.060 A 
ATOM     34  C   UNL A   1      34.200  32.783  29.666  1.00  0.00     0.016 A 
ATOM     35  C   UNL A   1      35.590  34.065  28.117  1.00  0.00     0.016 A 
ATOM     36  C   UNL A   1      35.277  31.970  29.972  1.00  0.00     0.010 A 
ATOM     37  C   UNL A   1      36.677  33.266  28.441  1.00  0.00     0.010 A 
ATOM     38  C   UNL A   1      36.531  32.274  29.426  1.00  0.00    -0.014 A 
BRANCH  38  39
ATOM     39  C   UNL A   1      37.721  31.816  30.159  1.00  0.00     0.031 A 
ATOM     40  C   UNL A   1      38.421  30.600  29.613  1.00  0.00     0.074 A 
ATOM     41  C   UNL A   1      38.189  32.497  31.213  1.00  0.00     0.049 A 
ATOM     42  N   UNL A   1      39.490  29.991  30.049  1.00  0.00    -0.248 NA
ATOM     43  C   UNL A   1      37.828  29.986  28.409  1.00  0.00     0.031 C 
ATOM     44  C   UNL A   1      37.600  33.715  31.766  1.00  0.00     0.029 A 
ATOM     45  N   UNL A   1      39.282  32.255  31.998  1.00  0.00    -0.354 N 
ATOM     46  C   UNL A   1      39.685  28.922  29.182  1.00  0.00     0.074 A 
ATOM     47  C   UNL A   1      38.608  28.935  28.224  1.00  0.00     0.031 C 
ATOM     48  C   UNL A   1      38.347  34.120  32.809  1.00  0.00     0.029 A 
ATOM     49  C   UNL A   1      39.438  33.170  33.007  1.00  0.00     0.049 A 
ATOM     50  H   UNL A   1      39.895  31.500  31.853  1.00  0.00     0.167 HD
ATOM     51  C   UNL A   1      40.685  28.012  29.182  1.00  0.00     0.031 A 
ATOM     52  C   UNL A   1      40.362  33.212  33.984  1.00  0.00     0.031 A 
ATOM     53  C   UNL A   1      41.738  28.009  30.158  1.00  0.00     0.049 A 
ATOM     54  C   UNL A   1      41.428  32.148  34.002  1.00  0.00     0.074 A 
ATOM     55  C   UNL A   1      42.807  27.143  30.274  1.00  0.00     0.029 A 
ATOM     56  N   UNL A   1      41.842  28.927  31.194  1.00  0.00    -0.354 N 
ATOM     57  N   UNL A   1      41.615  31.144  33.176  1.00  0.00    -0.248 NA
ATOM     58  C   UNL A   1      42.422  32.237  35.077  1.00  0.00     0.031 C 
ATOM     59  C   UNL A   1      43.526  27.501  31.420  1.00  0.00     0.029 A 
ATOM     60  C   UNL A   1      42.949  28.637  31.970  1.00  0.00     0.049 A 
ATOM     61  H   UNL A   1      41.221  29.674  31.353  1.00  0.00     0.167 HD
ATOM     62  C   UNL A   1      42.766  30.502  33.612  1.00  0.00     0.074 A 
ATOM     63  C   UNL A   1      43.243  31.248  34.761  1.00  0.00     0.031 C 
ATOM     64  C   UNL A   1      43.383  29.400  33.113  1.00  0.00     0.031 A 
BRANCH  51  65
ATOM     65  C   UNL A   1      40.642  26.937  28.132  1.00  0.00    -0.014 A 
ATOM     66  C   UNL A   1      41.296  27.085  26.896  1.00  0.00     0.009 A 
ATOM     67  C   UNL A   1      39.924  25.757  28.378  1.00  0.00     0.009 A 
ATOM     68  C   UNL A   1      41.200  26.091  25.919  1.00  0.00     0.001 A 
ATOM     69  C   UNL A   1      39.858  24.750  27.413  1.00  0.00     0.001 A 
ATOM     70  C   UNL A   1      40.487  24.922  26.181  1.00  0.00     0.000 A 
ENDBRANCH  51  65
BRANCH  52  71
ATOM     71  C   UNL A   1      40.315  34.283  35.012  1.00  0.00    -0.014 A 
ATOM     72  C   UNL A   1      41.015  35.486  34.832  1.00  0.00     0.009 A 
ATOM     73  C   UNL A   1      39.572  34.104  36.190  1.00  0.00     0.009 A 
ATOM     74  C   UNL A   1      40.996  36.472  35.822  1.00  0.00     0.001 A 
ATOM     75  C   UNL A   1      39.527  35.104  37.163  1.00  0.00     0.001 A 
ATOM     76  C   UNL A   1      40.248  36.282  36.984  1.00  0.00     0.000 A 
ENDBRANCH  52  71
BRANCH  64  77
ATOM     77  C   UNL A   1      44.661  28.979  33.785  1.00  0.00    -0.014 A 
ATOM     78  C   UNL A   1      45.906  29.486  33.384  1.00  0.00     0.009 A 
ATOM     79  C   UNL A   1      44.608  28.063  34.848  1.00  0.00     0.009 A 
ATOM     80  C   UNL A   1      47.078  29.034  33.992  1.00  0.00     0.001 A 
ATOM     81  C   UNL A   1      45.777  27.646  35.482  1.00  0.00     0.001 A 
ATOM     82  C   UNL A   1      47.012  28.118  35.042  1.00  0.00     0.000 A 
ENDBRANCH  64  77
ENDBRANCH  38  39
ENDBRANCH  31  33
ENDBRANCH  30  31
ENDBRANCH  29  30
ENDBRANCH  28  29
ENDBRANCH  27  28
ENDBRANCH  26  27
ENDBRANCH   1  26
TORSDOF 21
ENDMDL
MODEL 3
REMARK VINA RESULT:      -9.3      3.290      5.218
REMARK SMILES CO[C@@H]1C[C@@H](C(=O)OCCOCCOCCOC(=O)c2ccc(-c3c4nc(c(-c5ccccc5)c5ccc([nH]5)c(-c5ccccc5)c5nc(c(-c6ccccc6)c6ccc3[nH]6)C=C5)C=C4)cc2)N(C(=O)c2nc(C(C)C)n[nH]2)C1
REMARK SMILES IDX 12 1 11 2 10 3 9 4 8 5 6 6 7 7 5 8 3 9 4 10 79 11 68 12 2 13
REMARK SMILES IDX 1 14 69 15 70 16 71 17 72 18 78 19 73 20 77 21 74 23 75 24
REMARK SMILES IDX 76 25 13 26 14 27 15 28 16 29 17 30 18 31 19 32 20 33 21 34
REMARK SMILES IDX 67 35 22 36 66 37 23 38 24 39 25 40 60 41 26 42 65 43 59 44
REMARK SMILES IDX 61 45 27 46 64 47 58 48 57 49 28 51 50 52 35 53 49 54 36 55
REMARK SMILES IDX 39 56 48 57 62 58 37 59 38 60 47 62 63 63 40 64 29 65 30 66
REMARK SMILES IDX 34 67 31 68 33 69 32 70 51 71 52 72 56 73 53 74 55 75 54 76
REMARK SMILES IDX 41 77 42 78 46 79 43 80 45 81 44 82
REMARK H PARENT 78 22 61 50 39 61
REMARK Flexibility Score: inf
ROOT
ATOM      1  C   UNL A   1      30.835  29.320  23.004  1.00  0.00     0.188 C 
ENDROOT
BRANCH   1   2
ATOM      2  O   UNL A   1      30.152  28.106  22.714  1.00  0.00    -0.376 OA
BRANCH   2   3
ATOM      3  C   UNL A   1      30.717  26.898  23.243  1.00  0.00     0.202 C 
BRANCH   3   4
ATOM      4  C   UNL A   1      31.432  26.007  22.217  1.00  0.00     0.261 C 
BRANCH   4   5
ATOM      5  O   UNL A   1      31.544  24.673  22.766  1.00  0.00    -0.462 OA
BRANCH   5   6
ATOM      6  C   UNL A   1      32.755  24.080  22.808  1.00  0.00     0.329 C 
ATOM      7  O   UNL A   1      33.754  24.534  22.261  1.00  0.00    -0.250 OA
BRANCH   6   8
ATOM      8  C   UNL A   1      32.771  22.971  23.877  1.00  0.00     0.198 C 
ATOM      9  C   UNL A   1      32.333  20.632  24.226  1.00  0.00     0.140 C 
ATOM     10  C   UNL A   1      32.555  21.642  23.123  1.00  0.00     0.071 C 
ATOM     11  C   UNL A   1      31.543  21.445  25.259  1.00  0.00     0.153 C 
ATOM     12  N   UNL A   1      31.907  22.865  25.078  1.00  0.00    -0.319 N 
BRANCH   9  13
ATOM     13  O   UNL A   1      33.625  20.209  24.677  1.00  0.00    -0.380 OA
ATOM     14  C   UNL A   1      33.812  18.798  24.616  1.00  0.00     0.195 C 
ENDBRANCH   9  13
BRANCH  12  15
ATOM     15  C   UNL A   1      31.816  23.676  26.240  1.00  0.00     0.292 C 
ATOM     16  O   UNL A   1      31.348  23.164  27.263  1.00  0.00    -0.265 OA
BRANCH  15  17
ATOM     17  C   UNL A   1      32.144  25.098  26.247  1.00  0.00     0.214 A 
ATOM     18  N   UNL A   1      33.340  25.631  26.001  1.00  0.00    -0.207 NA
ATOM     19  N   UNL A   1      31.375  26.086  26.784  1.00  0.00    -0.255 N 
ATOM     20  C   UNL A   1      33.175  26.978  26.238  1.00  0.00     0.153 A 
ATOM     21  N   UNL A   1      31.968  27.291  26.730  1.00  0.00    -0.158 NA
ATOM     22  H   UNL A   1      30.482  25.933  27.170  1.00  0.00     0.192 HD
BRANCH  20  23
ATOM     23  C   UNL A   1      34.226  28.039  26.038  1.00  0.00     0.053 C 
ATOM     24  C   UNL A   1      34.141  28.674  24.655  1.00  0.00     0.016 C 
ATOM     25  C   UNL A   1      34.259  29.144  27.088  1.00  0.00     0.016 C 
ENDBRANCH  20  23
ENDBRANCH  15  17
ENDBRANCH  12  15
ENDBRANCH   6   8
ENDBRANCH   5   6
ENDBRANCH   4   5
ENDBRANCH   3   4
ENDBRANCH   2   3
ENDBRANCH   1   2
BRANCH   1  26
ATOM     26  C   UNL A   1      30.452  30.007  24.311  1.00  0.00     0.188 C 
BRANCH  26  27
ATOM     27  O   UNL A   1      31.545  30.410  25.119  1.00  0.00    -0.376 OA
BRANCH  27  28
ATOM     28  C   UNL A   1      31.139  30.896  26.414  1.00  0.00     0.202 C 
BRANCH  28  29
ATOM     29  C   UNL A   1      31.671  32.315  26.708  1.00  0.00     0.261 C 
BRANCH  29  30
ATOM     30  O   UNL A   1      32.924  32.358  27.397  1.00  0.00    -0.460 OA
BRANCH  30  31
ATOM     31  C   UNL A   1      33.215  33.516  28.021  1.00  0.00     0.338 C 
ATOM     32  O   UNL A   1      32.475  34.463  28.234  1.00  0.00    -0.246 OA
BRANCH  31  33
ATOM     33  C   UNL A   1      34.493  33.275  28.704  1.00  0.00     0.060 A 
ATOM     34  C   UNL A   1      35.666  33.685  28.053  1.00  0.00     0.016 A 
ATOM     35  C   UNL A   1      34.518  32.770  30.007  1.00  0.00     0.016 A 
ATOM     36  C   UNL A   1      36.889  33.495  28.672  1.00  0.00     0.010 A 
ATOM     37  C   UNL A   1      35.745  32.556  30.619  1.00  0.00     0.010 A 
ATOM     38  C   UNL A   1      36.925  32.848  29.913  1.00  0.00    -0.014 A 
BRANCH  38  39
ATOM     39  C   UNL A   1      38.167  32.150  30.281  1.00  0.00     0.031 A 
ATOM     40  C   UNL A   1      39.013  32.797  31.344  1.00  0.00     0.074 A 
ATOM     41  C   UNL A   1      38.479  30.964  29.741  1.00  0.00     0.049 A 
ATOM     42  N   UNL A   1      40.142  32.398  31.864  1.00  0.00    -0.248 NA
ATOM     43  C   UNL A   1      38.515  34.073  31.894  1.00  0.00     0.031 C 
ATOM     44  C   UNL A   1      37.682  30.247  28.748  1.00  0.00     0.029 A 
ATOM     45  N   UNL A   1      39.556  30.154  29.969  1.00  0.00    -0.354 N 
ATOM     46  C   UNL A   1      40.489  33.379  32.787  1.00  0.00     0.074 A 
ATOM     47  C   UNL A   1      39.482  34.409  32.729  1.00  0.00     0.031 C 
ATOM     48  C   UNL A   1      38.302  29.090  28.452  1.00  0.00     0.029 A 
ATOM     49  C   UNL A   1      39.547  29.012  29.212  1.00  0.00     0.049 A 
ATOM     50  H   UNL A   1      40.268  30.369  30.615  1.00  0.00     0.167 HD
ATOM     51  C   UNL A   1      41.555  33.410  33.618  1.00  0.00     0.031 A 
ATOM     52  C   UNL A   1      40.461  28.028  29.142  1.00  0.00     0.031 A 
ATOM     53  C   UNL A   1      42.554  32.380  33.645  1.00  0.00     0.049 A 
ATOM     54  C   UNL A   1      41.674  28.118  30.031  1.00  0.00     0.074 A 
ATOM     55  C   UNL A   1      43.684  32.291  34.434  1.00  0.00     0.029 A 
ATOM     56  N   UNL A   1      42.537  31.255  32.831  1.00  0.00    -0.354 N 
ATOM     57  N   UNL A   1      41.995  29.041  30.908  1.00  0.00    -0.248 NA
ATOM     58  C   UNL A   1      42.639  27.018  29.932  1.00  0.00     0.031 C 
ATOM     59  C   UNL A   1      44.384  31.140  34.054  1.00  0.00     0.029 A 
ATOM     60  C   UNL A   1      43.648  30.474  33.084  1.00  0.00     0.049 A 
ATOM     61  H   UNL A   1      41.836  31.044  32.173  1.00  0.00     0.167 HD
ATOM     62  C   UNL A   1      43.182  28.616  31.490  1.00  0.00     0.074 A 
ATOM     63  C   UNL A   1      43.506  27.341  30.879  1.00  0.00     0.031 C 
ATOM     64  C   UNL A   1      43.939  29.215  32.445  1.00  0.00     0.031 A 
BRANCH  51  65
ATOM     65  C   UNL A   1      41.702  34.612  34.509  1.00  0.00    -0.014 A 
ATOM     66  C   UNL A   1      42.361  35.776  34.076  1.00  0.00     0.009 A 
ATOM     67  C   UNL A   1      41.180  34.576  35.811  1.00  0.00     0.009 A 
ATOM     68  C   UNL A   1      42.526  36.861  34.941  1.00  0.00     0.001 A 
ATOM     69  C   UNL A   1      41.317  35.675  36.662  1.00  0.00     0.001 A 
ATOM     70  C   UNL A   1      41.998  36.811  36.231  1.00  0.00     0.000 A 
ENDBRANCH  51  65
BRANCH  52  71
ATOM     71  C   UNL A   1      40.266  26.891  28.206  1.00  0.00    -0.014 A 
ATOM     72  C   UNL A   1      39.564  25.742  28.603  1.00  0.00     0.009 A 
ATOM     73  C   UNL A   1      40.790  26.946  26.905  1.00  0.00     0.009 A 
ATOM     74  C   UNL A   1      39.419  24.662  27.728  1.00  0.00     0.001 A 
ATOM     75  C   UNL A   1      40.615  25.880  26.020  1.00  0.00     0.001 A 
ATOM     76  C   UNL A   1      39.940  24.734  26.437  1.00  0.00     0.000 A 
ENDBRANCH  52  71
BRANCH  64  77
ATOM     77  C   UNL A   1      45.157  28.465  32.909  1.00  0.00    -0.014 A 
ATOM     78  C   UNL A   1      45.091  27.523  33.946  1.00  0.00     0.009 A 
ATOM     79  C   UNL A   1      46.391  28.705  32.283  1.00  0.00     0.009 A 
ATOM     80  C   UNL A   1      46.249  26.883  34.390  1.00  0.00     0.001 A 
ATOM     81  C   UNL A   1      47.539  28.033  32.701  1.00  0.00     0.001 A 
ATOM     82  C   UNL A   1      47.470  27.136  33.765  1.00  0.00     0.000 A 
ENDBRANCH  64  77
ENDBRANCH  38  39
ENDBRANCH  31  33
ENDBRANCH  30  31
ENDBRANCH  29  30
ENDBRANCH  28  29
ENDBRANCH  27  28
ENDBRANCH  26  27
ENDBRANCH   1  26
TORSDOF 21
ENDMDL
