MODEL 1
REMARK VINA RESULT:     -10.7      0.000      0.000
REMARK SMILES Cc1ncccc1NC(=O)Nc1ccc(C(=O)OCCOCCOCCOC(=O)c2ccc(-c3c4nc(c(-c5ccccc5)c5ccc([nH]5)c(-c5ccccc5)c5nc(c(-c6ccccc6)c6ccc3[nH]6)C=C5)C=C4)cc2)c(O)c1
REMARK SMILES IDX 22 1 21 2 20 3 19 4 18 5 16 6 17 7 15 8 12 9 13 10 80 11
REMARK SMILES IDX 14 12 78 13 11 14 8 15 9 16 10 18 7 20 1 21 2 22 3 23 4 24
REMARK SMILES IDX 6 25 5 26 79 27 23 29 24 30 25 31 26 32 27 33 28 34 29 35
REMARK SMILES IDX 30 36 31 37 77 38 32 39 76 40 33 41 34 42 35 43 70 44 36 45
REMARK SMILES IDX 75 46 69 47 71 48 37 49 74 50 68 51 67 52 38 54 60 55 45 56
REMARK SMILES IDX 59 57 46 58 49 59 58 60 72 61 47 62 48 63 57 65 73 66 50 67
REMARK SMILES IDX 39 68 40 69 44 70 41 71 43 72 42 73 61 74 62 75 66 76 63 77
REMARK SMILES IDX 65 78 64 79 51 80 52 81 56 82 53 83 55 84 54 85
REMARK H PARENT 8 17 11 19 79 28 71 53 49 64
REMARK Flexibility Score: inf
ROOT
ATOM      1  C   UNL A   1      41.875  19.796  27.185  1.00  0.00     0.188 C 
ENDROOT
BRANCH   1   2
ATOM      2  O   UNL A   1      41.118  20.945  26.864  1.00  0.00    -0.376 OA
BRANCH   2   3
ATOM      3  C   UNL A   1      39.921  20.806  26.128  1.00  0.00     0.202 C 
BRANCH   3   4
ATOM      4  C   UNL A   1      39.026  22.034  25.943  1.00  0.00     0.261 C 
BRANCH   4   5
ATOM      5  O   UNL A   1      37.609  21.790  26.065  1.00  0.00    -0.460 OA
BRANCH   5   6
ATOM      6  C   UNL A   1      36.888  21.969  24.924  1.00  0.00     0.341 C 
ATOM      7  O   UNL A   1      37.328  21.939  23.782  1.00  0.00    -0.246 OA
BRANCH   6   8
ATOM      8  C   UNL A   1      35.439  22.128  25.217  1.00  0.00     0.101 A 
ATOM      9  C   UNL A   1      32.691  22.271  25.898  1.00  0.00     0.046 A 
ATOM     10  C   UNL A   1      33.638  21.931  26.865  1.00  0.00     0.027 A 
ATOM     11  C   UNL A   1      33.125  22.518  24.585  1.00  0.00     0.073 A 
ATOM     12  C   UNL A   1      34.998  21.828  26.518  1.00  0.00     0.022 A 
ATOM     13  C   UNL A   1      34.491  22.507  24.264  1.00  0.00     0.132 A 
BRANCH   9  14
ATOM     14  N   UNL A   1      31.305  22.390  26.169  1.00  0.00    -0.308 N 
ATOM     15  N   UNL A   1      30.918  24.646  26.856  1.00  0.00    -0.306 N 
ATOM     16  C   UNL A   1      30.589  23.319  26.873  1.00  0.00     0.323 C 
ATOM     17  H   UNL A   1      30.546  25.191  27.587  1.00  0.00     0.171 HD
ATOM     18  O   UNL A   1      29.584  22.965  27.492  1.00  0.00    -0.248 OA
ATOM     19  H   UNL A   1      30.756  21.673  25.778  1.00  0.00     0.171 HD
BRANCH  15  20
ATOM     20  C   UNL A   1      31.720  25.326  25.927  1.00  0.00     0.064 A 
ATOM     21  C   UNL A   1      30.165  25.034  23.917  1.00  0.00     0.069 C 
ATOM     22  C   UNL A   1      31.199  25.765  24.713  1.00  0.00     0.061 A 
ATOM     23  N   UNL A   1      31.652  26.908  24.161  1.00  0.00    -0.259 NA
ATOM     24  C   UNL A   1      32.723  27.477  24.747  1.00  0.00     0.111 A 
ATOM     25  C   UNL A   1      32.997  25.760  26.290  1.00  0.00     0.030 A 
ATOM     26  C   UNL A   1      33.506  26.896  25.707  1.00  0.00     0.022 A 
ENDBRANCH  15  20
ENDBRANCH   9  14
BRANCH  13  27
ATOM     27  O   UNL A   1      34.811  22.907  22.994  1.00  0.00    -0.507 OA
ATOM     28  H   UNL A   1      34.554  22.384  22.261  1.00  0.00     0.293 HD
ENDBRANCH  13  27
ENDBRANCH   6   8
ENDBRANCH   5   6
ENDBRANCH   4   5
ENDBRANCH   3   4
ENDBRANCH   2   3
ENDBRANCH   1   2
BRANCH   1  29
ATOM     29  C   UNL A   1      42.467  18.878  26.093  1.00  0.00     0.188 C 
BRANCH  29  30
ATOM     30  O   UNL A   1      43.214  19.394  25.017  1.00  0.00    -0.376 OA
BRANCH  30  31
ATOM     31  C   UNL A   1      44.186  20.399  25.259  1.00  0.00     0.202 C 
BRANCH  31  32
ATOM     32  C   UNL A   1      44.186  21.731  24.489  1.00  0.00     0.261 C 
BRANCH  32  33
ATOM     33  O   UNL A   1      43.235  22.711  24.938  1.00  0.00    -0.460 OA
BRANCH  33  34
ATOM     34  C   UNL A   1      43.725  23.979  24.987  1.00  0.00     0.338 C 
ATOM     35  O   UNL A   1      44.696  24.409  24.385  1.00  0.00    -0.246 OA
BRANCH  34  36
ATOM     36  C   UNL A   1      42.910  24.855  25.853  1.00  0.00     0.060 A 
ATOM     37  C   UNL A   1      43.069  26.231  25.768  1.00  0.00     0.016 A 
ATOM     38  C   UNL A   1      42.161  24.324  26.898  1.00  0.00     0.016 A 
ATOM     39  C   UNL A   1      42.579  27.083  26.753  1.00  0.00     0.010 A 
ATOM     40  C   UNL A   1      41.589  25.185  27.849  1.00  0.00     0.010 A 
ATOM     41  C   UNL A   1      41.830  26.573  27.811  1.00  0.00    -0.014 A 
BRANCH  41  42
ATOM     42  C   UNL A   1      41.417  27.474  28.922  1.00  0.00     0.031 A 
ATOM     43  C   UNL A   1      42.220  27.488  30.196  1.00  0.00     0.074 A 
ATOM     44  C   UNL A   1      40.388  28.336  28.785  1.00  0.00     0.049 A 
ATOM     45  N   UNL A   1      41.932  28.024  31.354  1.00  0.00    -0.248 NA
ATOM     46  C   UNL A   1      43.523  26.806  30.156  1.00  0.00     0.031 C 
ATOM     47  C   UNL A   1      39.608  28.547  27.565  1.00  0.00     0.029 A 
ATOM     48  N   UNL A   1      39.831  29.212  29.687  1.00  0.00    -0.354 N 
ATOM     49  C   UNL A   1      42.982  27.681  32.198  1.00  0.00     0.074 A 
ATOM     50  C   UNL A   1      43.918  26.902  31.417  1.00  0.00     0.031 C 
ATOM     51  C   UNL A   1      38.697  29.508  27.784  1.00  0.00     0.029 A 
ATOM     52  C   UNL A   1      38.753  29.903  29.187  1.00  0.00     0.049 A 
ATOM     53  H   UNL A   1      40.173  29.334  30.603  1.00  0.00     0.167 HD
ATOM     54  C   UNL A   1      43.140  27.979  33.511  1.00  0.00     0.031 A 
ATOM     55  C   UNL A   1      37.867  30.711  29.800  1.00  0.00     0.031 A 
ATOM     56  C   UNL A   1      42.220  28.785  34.269  1.00  0.00     0.049 A 
ATOM     57  C   UNL A   1      38.000  30.942  31.280  1.00  0.00     0.074 A 
ATOM     58  C   UNL A   1      42.267  29.122  35.611  1.00  0.00     0.029 A 
ATOM     59  N   UNL A   1      41.091  29.395  33.743  1.00  0.00    -0.354 N 
ATOM     60  N   UNL A   1      38.932  30.525  32.103  1.00  0.00    -0.248 NA
ATOM     61  C   UNL A   1      36.942  31.736  31.923  1.00  0.00     0.031 C 
ATOM     62  C   UNL A   1      41.136  29.889  35.908  1.00  0.00     0.029 A 
ATOM     63  C   UNL A   1      40.421  30.088  34.737  1.00  0.00     0.049 A 
ATOM     64  H   UNL A   1      40.808  29.343  32.801  1.00  0.00     0.167 HD
ATOM     65  C   UNL A   1      38.585  31.020  33.353  1.00  0.00     0.074 A 
ATOM     66  C   UNL A   1      37.370  31.787  33.177  1.00  0.00     0.031 C 
ATOM     67  C   UNL A   1      39.215  30.850  34.542  1.00  0.00     0.031 A 
BRANCH  54  68
ATOM     68  C   UNL A   1      44.309  27.357  34.226  1.00  0.00    -0.014 A 
ATOM     69  C   UNL A   1      44.234  26.086  34.817  1.00  0.00     0.009 A 
ATOM     70  C   UNL A   1      45.518  28.067  34.299  1.00  0.00     0.009 A 
ATOM     71  C   UNL A   1      45.333  25.560  35.502  1.00  0.00     0.001 A 
ATOM     72  C   UNL A   1      46.625  27.526  34.956  1.00  0.00     0.001 A 
ATOM     73  C   UNL A   1      46.528  26.278  35.568  1.00  0.00     0.000 A 
ENDBRANCH  54  68
BRANCH  55  74
ATOM     74  C   UNL A   1      36.722  31.288  29.041  1.00  0.00    -0.014 A 
ATOM     75  C   UNL A   1      36.721  32.633  28.643  1.00  0.00     0.009 A 
ATOM     76  C   UNL A   1      35.606  30.492  28.725  1.00  0.00     0.009 A 
ATOM     77  C   UNL A   1      35.623  33.172  27.966  1.00  0.00     0.001 A 
ATOM     78  C   UNL A   1      34.528  31.023  28.016  1.00  0.00     0.001 A 
ATOM     79  C   UNL A   1      34.532  32.365  27.647  1.00  0.00     0.000 A 
ENDBRANCH  55  74
BRANCH  67  80
ATOM     80  C   UNL A   1      38.624  31.548  35.736  1.00  0.00    -0.014 A 
ATOM     81  C   UNL A   1      37.962  30.838  36.748  1.00  0.00     0.009 A 
ATOM     82  C   UNL A   1      38.770  32.938  35.863  1.00  0.00     0.009 A 
ATOM     83  C   UNL A   1      37.425  31.511  37.847  1.00  0.00     0.001 A 
ATOM     84  C   UNL A   1      38.261  33.605  36.979  1.00  0.00     0.001 A 
ATOM     85  C   UNL A   1      37.581  32.892  37.964  1.00  0.00     0.000 A 
ENDBRANCH  67  80
ENDBRANCH  41  42
ENDBRANCH  34  36
ENDBRANCH  33  34
ENDBRANCH  32  33
ENDBRANCH  31  32
ENDBRANCH  30  31
ENDBRANCH  29  30
ENDBRANCH   1  29
TORSDOF 20
ENDMDL
MODEL 2
REMARK VINA RESULT:     -10.6      1.414      2.361
REMARK SMILES Cc1ncccc1NC(=O)Nc1ccc(C(=O)OCCOCCOCCOC(=O)c2ccc(-c3c4nc(c(-c5ccccc5)c5ccc([nH]5)c(-c5ccccc5)c5nc(c(-c6ccccc6)c6ccc3[nH]6)C=C5)C=C4)cc2)c(O)c1
REMARK SMILES IDX 22 1 21 2 20 3 19 4 18 5 16 6 17 7 15 8 12 9 13 10 80 11
REMARK SMILES IDX 14 12 78 13 11 14 8 15 9 16 10 18 7 20 1 21 2 22 3 23 4 24
REMARK SMILES IDX 6 25 5 26 79 27 23 29 24 30 25 31 26 32 27 33 28 34 29 35
REMARK SMILES IDX 30 36 31 37 77 38 32 39 76 40 33 41 34 42 35 43 70 44 36 45
REMARK SMILES IDX 75 46 69 47 71 48 37 49 74 50 68 51 67 52 38 54 60 55 45 56
REMARK SMILES IDX 59 57 46 58 49 59 58 60 72 61 47 62 48 63 57 65 73 66 50 67
REMARK SMILES IDX 39 68 40 69 44 70 41 71 43 72 42 73 61 74 62 75 66 76 63 77
REMARK SMILES IDX 65 78 64 79 51 80 52 81 56 82 53 83 55 84 54 85
REMARK H PARENT 8 17 11 19 79 28 71 53 49 64
REMARK Flexibility Score: inf
ROOT
ATOM      1  C   UNL A   1      38.881  20.578  25.519  1.00  0.00     0.188 C 
ENDROOT
BRANCH   1   2
ATOM      2  O   UNL A   1      38.612  21.902  25.934  1.00  0.00    -0.376 OA
BRANCH   2   3
ATOM      3  C   UNL A   1      37.510  22.593  25.384  1.00  0.00     0.202 C 
BRANCH   3   4
ATOM      4  C   UNL A   1      36.452  21.795  24.619  1.00  0.00     0.261 C 
BRANCH   4   5
ATOM      5  O   UNL A   1      35.641  22.562  23.705  1.00  0.00    -0.460 OA
BRANCH   5   6
ATOM      6  C   UNL A   1      34.303  22.539  23.953  1.00  0.00     0.341 C 
ATOM      7  O   UNL A   1      33.701  21.672  24.574  1.00  0.00    -0.246 OA
BRANCH   6   8
ATOM      8  C   UNL A   1      33.634  23.767  23.445  1.00  0.00     0.101 A 
ATOM      9  C   UNL A   1      32.453  26.208  22.623  1.00  0.00     0.046 A 
ATOM     10  C   UNL A   1      33.772  26.184  23.079  1.00  0.00     0.027 A 
ATOM     11  C   UNL A   1      31.724  25.008  22.602  1.00  0.00     0.073 A 
ATOM     12  C   UNL A   1      34.346  24.976  23.518  1.00  0.00     0.022 A 
ATOM     13  C   UNL A   1      32.329  23.791  22.950  1.00  0.00     0.132 A 
BRANCH   9  14
ATOM     14  N   UNL A   1      31.804  27.384  22.170  1.00  0.00    -0.308 N 
ATOM     15  N   UNL A   1      30.284  28.051  23.888  1.00  0.00    -0.306 N 
ATOM     16  C   UNL A   1      30.654  28.005  22.573  1.00  0.00     0.323 C 
ATOM     17  H   UNL A   1      29.337  28.257  24.062  1.00  0.00     0.171 HD
ATOM     18  O   UNL A   1      29.961  28.594  21.742  1.00  0.00    -0.248 OA
ATOM     19  H   UNL A   1      32.266  27.837  21.428  1.00  0.00     0.171 HD
BRANCH  15  20
ATOM     20  C   UNL A   1      31.086  27.839  25.021  1.00  0.00     0.064 A 
ATOM     21  C   UNL A   1      29.885  25.737  25.849  1.00  0.00     0.069 C 
ATOM     22  C   UNL A   1      31.087  26.613  25.682  1.00  0.00     0.061 A 
ATOM     23  N   UNL A   1      32.218  26.159  26.256  1.00  0.00    -0.259 NA
ATOM     24  C   UNL A   1      33.257  27.015  26.300  1.00  0.00     0.111 A 
ATOM     25  C   UNL A   1      32.055  28.779  25.379  1.00  0.00     0.030 A 
ATOM     26  C   UNL A   1      33.198  28.351  26.010  1.00  0.00     0.022 A 
ENDBRANCH  15  20
ENDBRANCH   9  14
BRANCH  13  27
ATOM     27  O   UNL A   1      31.573  22.668  22.751  1.00  0.00    -0.507 OA
ATOM     28  H   UNL A   1      31.475  22.316  21.889  1.00  0.00     0.293 HD
ENDBRANCH  13  27
ENDBRANCH   6   8
ENDBRANCH   5   6
ENDBRANCH   4   5
ENDBRANCH   3   4
ENDBRANCH   2   3
ENDBRANCH   1   2
BRANCH   1  29
ATOM     29  C   UNL A   1      40.118  19.802  26.019  1.00  0.00     0.188 C 
BRANCH  29  30
ATOM     30  O   UNL A   1      41.197  20.454  26.645  1.00  0.00    -0.376 OA
BRANCH  30  31
ATOM     31  C   UNL A   1      42.519  20.218  26.185  1.00  0.00     0.202 C 
BRANCH  31  32
ATOM     32  C   UNL A   1      43.427  21.363  25.704  1.00  0.00     0.261 C 
BRANCH  32  33
ATOM     33  O   UNL A   1      42.791  22.366  24.893  1.00  0.00    -0.460 OA
BRANCH  33  34
ATOM     34  C   UNL A   1      43.422  23.571  24.903  1.00  0.00     0.338 C 
ATOM     35  O   UNL A   1      44.429  23.872  24.283  1.00  0.00    -0.246 OA
BRANCH  34  36
ATOM     36  C   UNL A   1      42.719  24.556  25.751  1.00  0.00     0.060 A 
ATOM     37  C   UNL A   1      43.120  25.884  25.722  1.00  0.00     0.016 A 
ATOM     38  C   UNL A   1      41.826  24.141  26.733  1.00  0.00     0.016 A 
ATOM     39  C   UNL A   1      42.727  26.786  26.706  1.00  0.00     0.010 A 
ATOM     40  C   UNL A   1      41.355  25.066  27.679  1.00  0.00     0.010 A 
ATOM     41  C   UNL A   1      41.835  26.391  27.701  1.00  0.00    -0.014 A 
BRANCH  41  42
ATOM     42  C   UNL A   1      41.517  27.324  28.817  1.00  0.00     0.031 A 
ATOM     43  C   UNL A   1      42.392  27.332  30.043  1.00  0.00     0.074 A 
ATOM     44  C   UNL A   1      40.513  28.219  28.722  1.00  0.00     0.049 A 
ATOM     45  N   UNL A   1      42.189  27.896  31.205  1.00  0.00    -0.248 NA
ATOM     46  C   UNL A   1      43.666  26.603  29.942  1.00  0.00     0.031 C 
ATOM     47  C   UNL A   1      39.672  28.437  27.544  1.00  0.00     0.029 A 
ATOM     48  N   UNL A   1      40.038  29.129  29.637  1.00  0.00    -0.354 N 
ATOM     49  C   UNL A   1      43.273  27.531  31.995  1.00  0.00     0.074 A 
ATOM     50  C   UNL A   1      44.135  26.707  31.177  1.00  0.00     0.031 C 
ATOM     51  C   UNL A   1      38.808  29.433  27.796  1.00  0.00     0.029 A 
ATOM     52  C   UNL A   1      38.957  29.849  29.186  1.00  0.00     0.049 A 
ATOM     53  H   UNL A   1      40.435  29.255  30.530  1.00  0.00     0.167 HD
ATOM     54  C   UNL A   1      43.516  27.845  33.291  1.00  0.00     0.031 A 
ATOM     55  C   UNL A   1      38.136  30.698  29.833  1.00  0.00     0.031 A 
ATOM     56  C   UNL A   1      42.668  28.696  34.084  1.00  0.00     0.049 A 
ATOM     57  C   UNL A   1      38.361  30.949  31.299  1.00  0.00     0.074 A 
ATOM     58  C   UNL A   1      42.804  29.053  35.415  1.00  0.00     0.029 A 
ATOM     59  N   UNL A   1      41.533  29.336  33.612  1.00  0.00    -0.354 N 
ATOM     60  N   UNL A   1      39.324  30.514  32.075  1.00  0.00    -0.248 NA
ATOM     61  C   UNL A   1      37.369  31.790  31.986  1.00  0.00     0.031 C 
ATOM     62  C   UNL A   1      41.718  29.864  35.761  1.00  0.00     0.029 A 
ATOM     63  C   UNL A   1      40.945  30.069  34.629  1.00  0.00     0.049 A 
ATOM     64  H   UNL A   1      41.195  29.278  32.688  1.00  0.00     0.167 HD
ATOM     65  C   UNL A   1      39.066  31.041  33.333  1.00  0.00     0.074 A 
ATOM     66  C   UNL A   1      37.869  31.847  33.212  1.00  0.00     0.031 C 
ATOM     67  C   UNL A   1      39.756  30.869  34.488  1.00  0.00     0.031 A 
BRANCH  54  68
ATOM     68  C   UNL A   1      44.702  27.194  33.950  1.00  0.00    -0.014 A 
ATOM     69  C   UNL A   1      44.611  25.950  34.593  1.00  0.00     0.009 A 
ATOM     70  C   UNL A   1      45.944  27.849  33.917  1.00  0.00     0.009 A 
ATOM     71  C   UNL A   1      45.729  25.398  35.224  1.00  0.00     0.001 A 
ATOM     72  C   UNL A   1      47.067  27.280  34.519  1.00  0.00     0.001 A 
ATOM     73  C   UNL A   1      46.956  26.061  35.183  1.00  0.00     0.000 A 
ENDBRANCH  54  68
BRANCH  55  74
ATOM     74  C   UNL A   1      36.970  31.302  29.129  1.00  0.00    -0.014 A 
ATOM     75  C   UNL A   1      35.809  30.555  28.880  1.00  0.00     0.009 A 
ATOM     76  C   UNL A   1      37.022  32.634  28.680  1.00  0.00     0.009 A 
ATOM     77  C   UNL A   1      34.737  31.120  28.183  1.00  0.00     0.001 A 
ATOM     78  C   UNL A   1      35.936  33.207  28.018  1.00  0.00     0.001 A 
ATOM     79  C   UNL A   1      34.798  32.446  27.760  1.00  0.00     0.000 A 
ENDBRANCH  55  74
BRANCH  67  80
ATOM     80  C   UNL A   1      39.258  31.607  35.700  1.00  0.00    -0.014 A 
ATOM     81  C   UNL A   1      38.181  31.129  36.460  1.00  0.00     0.009 A 
ATOM     82  C   UNL A   1      39.909  32.783  36.106  1.00  0.00     0.009 A 
ATOM     83  C   UNL A   1      37.742  31.833  37.582  1.00  0.00     0.001 A 
ATOM     84  C   UNL A   1      39.489  33.467  37.247  1.00  0.00     0.001 A 
ATOM     85  C   UNL A   1      38.399  32.997  37.978  1.00  0.00     0.000 A 
ENDBRANCH  67  80
ENDBRANCH  41  42
ENDBRANCH  34  36
ENDBRANCH  33  34
ENDBRANCH  32  33
ENDBRANCH  31  32
ENDBRANCH  30  31
ENDBRANCH  29  30
ENDBRANCH   1  29
TORSDOF 20
ENDMDL
MODEL 3
REMARK VINA RESULT:     -10.5      4.338      6.733
REMARK SMILES Cc1ncccc1NC(=O)Nc1ccc(C(=O)OCCOCCOCCOC(=O)c2ccc(-c3c4nc(c(-c5ccccc5)c5ccc([nH]5)c(-c5ccccc5)c5nc(c(-c6ccccc6)c6ccc3[nH]6)C=C5)C=C4)cc2)c(O)c1
REMARK SMILES IDX 22 1 21 2 20 3 19 4 18 5 16 6 17 7 15 8 12 9 13 10 80 11
REMARK SMILES IDX 14 12 78 13 11 14 8 15 9 16 10 18 7 20 1 21 2 22 3 23 4 24
REMARK SMILES IDX 6 25 5 26 79 27 23 29 24 30 25 31 26 32 27 33 28 34 29 35
REMARK SMILES IDX 30 36 31 37 77 38 32 39 76 40 33 41 34 42 35 43 70 44 36 45
REMARK SMILES IDX 75 46 69 47 71 48 37 49 74 50 68 51 67 52 38 54 60 55 45 56
REMARK SMILES IDX 59 57 46 58 49 59 58 60 72 61 47 62 48 63 57 65 73 66 50 67
REMARK SMILES IDX 39 68 40 69 44 70 41 71 43 72 42 73 61 74 62 75 66 76 63 77
REMARK SMILES IDX 65 78 64 79 51 80 52 81 56 82 53 83 55 84 54 85
REMARK H PARENT 8 17 11 19 79 28 71 53 49 64
REMARK Flexibility Score: inf
ROOT
ATOM      1  C   UNL A   1      40.038  22.599  26.888  1.00  0.00     0.188 C 
ENDROOT
BRANCH   1   2
ATOM      2  O   UNL A   1      39.129  22.799  25.824  1.00  0.00    -0.376 OA
BRANCH   2   3
ATOM      3  C   UNL A   1      37.813  23.227  26.105  1.00  0.00     0.202 C 
BRANCH   3   4
ATOM      4  C   UNL A   1      36.825  23.372  24.945  1.00  0.00     0.261 C 
BRANCH   4   5
ATOM      5  O   UNL A   1      36.658  22.195  24.127  1.00  0.00    -0.460 OA
BRANCH   5   6
ATOM      6  C   UNL A   1      35.993  21.165  24.717  1.00  0.00     0.341 C 
ATOM      7  O   UNL A   1      36.464  20.068  24.991  1.00  0.00    -0.246 OA
BRANCH   6   8
ATOM      8  C   UNL A   1      34.606  21.552  25.086  1.00  0.00     0.101 A 
ATOM      9  C   UNL A   1      31.963  22.420  25.633  1.00  0.00     0.046 A 
ATOM     10  C   UNL A   1      32.396  22.271  24.314  1.00  0.00     0.027 A 
ATOM     11  C   UNL A   1      32.868  22.153  26.674  1.00  0.00     0.073 A 
ATOM     12  C   UNL A   1      33.718  21.872  24.044  1.00  0.00     0.022 A 
ATOM     13  C   UNL A   1      34.155  21.665  26.403  1.00  0.00     0.132 A 
BRANCH   9  14
ATOM     14  N   UNL A   1      30.651  22.822  25.985  1.00  0.00    -0.308 N 
ATOM     15  N   UNL A   1      30.782  25.103  26.686  1.00  0.00    -0.306 N 
ATOM     16  C   UNL A   1      30.186  23.873  26.726  1.00  0.00     0.323 C 
ATOM     17  H   UNL A   1      30.575  25.707  27.435  1.00  0.00     0.171 HD
ATOM     18  O   UNL A   1      29.167  23.731  27.405  1.00  0.00    -0.248 OA
ATOM     19  H   UNL A   1      29.943  22.238  25.629  1.00  0.00     0.171 HD
BRANCH  15  20
ATOM     20  C   UNL A   1      31.653  25.610  25.708  1.00  0.00     0.064 A 
ATOM     21  C   UNL A   1      29.955  25.669  23.796  1.00  0.00     0.069 C 
ATOM     22  C   UNL A   1      31.165  26.160  24.526  1.00  0.00     0.061 A 
ATOM     23  N   UNL A   1      31.813  27.188  23.945  1.00  0.00    -0.259 NA
ATOM     24  C   UNL A   1      33.012  27.515  24.465  1.00  0.00     0.111 A 
ATOM     25  C   UNL A   1      33.011  25.764  25.993  1.00  0.00     0.030 A 
ATOM     26  C   UNL A   1      33.712  26.774  25.377  1.00  0.00     0.022 A 
ENDBRANCH  15  20
ENDBRANCH   9  14
BRANCH  13  27
ATOM     27  O   UNL A   1      34.898  21.298  27.492  1.00  0.00    -0.507 OA
ATOM     28  H   UNL A   1      35.556  20.637  27.410  1.00  0.00     0.293 HD
ENDBRANCH  13  27
ENDBRANCH   6   8
ENDBRANCH   5   6
ENDBRANCH   4   5
ENDBRANCH   3   4
ENDBRANCH   2   3
ENDBRANCH   1   2
BRANCH   1  29
ATOM     29  C   UNL A   1      40.573  21.197  27.252  1.00  0.00     0.188 C 
BRANCH  29  30
ATOM     30  O   UNL A   1      41.197  20.372  26.297  1.00  0.00    -0.376 OA
BRANCH  30  31
ATOM     31  C   UNL A   1      42.019  19.299  26.730  1.00  0.00     0.202 C 
BRANCH  31  32
ATOM     32  C   UNL A   1      43.066  18.654  25.806  1.00  0.00     0.261 C 
BRANCH  32  33
ATOM     33  O   UNL A   1      43.342  19.363  24.586  1.00  0.00    -0.460 OA
BRANCH  33  34
ATOM     34  C   UNL A   1      44.667  19.513  24.319  1.00  0.00     0.338 C 
ATOM     35  O   UNL A   1      45.435  18.649  23.927  1.00  0.00    -0.246 OA
BRANCH  34  36
ATOM     36  C   UNL A   1      45.118  20.906  24.519  1.00  0.00     0.060 A 
ATOM     37  C   UNL A   1      45.723  21.257  25.718  1.00  0.00     0.016 A 
ATOM     38  C   UNL A   1      44.746  21.909  23.631  1.00  0.00     0.016 A 
ATOM     39  C   UNL A   1      45.880  22.588  26.093  1.00  0.00     0.010 A 
ATOM     40  C   UNL A   1      44.980  23.253  23.963  1.00  0.00     0.010 A 
ATOM     41  C   UNL A   1      45.511  23.609  25.220  1.00  0.00    -0.014 A 
BRANCH  41  42
ATOM     42  C   UNL A   1      45.567  25.025  25.678  1.00  0.00     0.031 A 
ATOM     43  C   UNL A   1      46.867  25.779  25.582  1.00  0.00     0.074 A 
ATOM     44  C   UNL A   1      44.462  25.673  26.101  1.00  0.00     0.049 A 
ATOM     45  N   UNL A   1      47.200  26.930  26.106  1.00  0.00    -0.248 NA
ATOM     46  C   UNL A   1      47.933  25.148  24.788  1.00  0.00     0.031 C 
ATOM     47  C   UNL A   1      43.104  25.127  26.112  1.00  0.00     0.029 A 
ATOM     48  N   UNL A   1      44.308  26.947  26.593  1.00  0.00    -0.354 N 
ATOM     49  C   UNL A   1      48.534  27.126  25.766  1.00  0.00     0.074 A 
ATOM     50  C   UNL A   1      48.944  25.981  24.983  1.00  0.00     0.031 C 
ATOM     51  C   UNL A   1      42.254  26.066  26.556  1.00  0.00     0.029 A 
ATOM     52  C   UNL A   1      43.018  27.239  26.967  1.00  0.00     0.049 A 
ATOM     53  H   UNL A   1      45.050  27.590  26.670  1.00  0.00     0.167 HD
ATOM     54  C   UNL A   1      49.345  28.161  26.093  1.00  0.00     0.031 A 
ATOM     55  C   UNL A   1      42.512  28.301  27.625  1.00  0.00     0.031 A 
ATOM     56  C   UNL A   1      48.915  29.312  26.843  1.00  0.00     0.049 A 
ATOM     57  C   UNL A   1      43.449  29.389  28.072  1.00  0.00     0.074 A 
ATOM     58  C   UNL A   1      49.661  30.403  27.256  1.00  0.00     0.029 A 
ATOM     59  N   UNL A   1      47.616  29.527  27.278  1.00  0.00    -0.354 N 
ATOM     60  N   UNL A   1      44.735  29.519  27.848  1.00  0.00    -0.248 NA
ATOM     61  C   UNL A   1      42.870  30.467  28.888  1.00  0.00     0.031 C 
ATOM     62  C   UNL A   1      48.824  31.250  27.991  1.00  0.00     0.029 A 
ATOM     63  C   UNL A   1      47.543  30.722  27.975  1.00  0.00     0.049 A 
ATOM     64  H   UNL A   1      46.858  28.920  27.115  1.00  0.00     0.167 HD
ATOM     65  C   UNL A   1      45.113  30.698  28.475  1.00  0.00     0.074 A 
ATOM     66  C   UNL A   1      43.918  31.258  29.071  1.00  0.00     0.031 C 
ATOM     67  C   UNL A   1      46.343  31.265  28.557  1.00  0.00     0.031 A 
BRANCH  54  68
ATOM     68  C   UNL A   1      50.796  28.050  25.713  1.00  0.00    -0.014 A 
ATOM     69  C   UNL A   1      51.303  28.601  24.526  1.00  0.00     0.009 A 
ATOM     70  C   UNL A   1      51.677  27.380  26.578  1.00  0.00     0.009 A 
ATOM     71  C   UNL A   1      52.652  28.444  24.194  1.00  0.00     0.001 A 
ATOM     72  C   UNL A   1      53.030  27.252  26.260  1.00  0.00     0.001 A 
ATOM     73  C   UNL A   1      53.514  27.774  25.062  1.00  0.00     0.000 A 
ENDBRANCH  54  68
BRANCH  55  74
ATOM     74  C   UNL A   1      41.067  28.347  27.984  1.00  0.00    -0.014 A 
ATOM     75  C   UNL A   1      40.143  29.032  27.182  1.00  0.00     0.009 A 
ATOM     76  C   UNL A   1      40.606  27.716  29.154  1.00  0.00     0.009 A 
ATOM     77  C   UNL A   1      38.797  29.101  27.552  1.00  0.00     0.001 A 
ATOM     78  C   UNL A   1      39.255  27.755  29.501  1.00  0.00     0.001 A 
ATOM     79  C   UNL A   1      38.353  28.457  28.705  1.00  0.00     0.000 A 
ENDBRANCH  55  74
BRANCH  67  80
ATOM     80  C   UNL A   1      46.444  32.582  29.275  1.00  0.00    -0.014 A 
ATOM     81  C   UNL A   1      46.760  32.651  30.639  1.00  0.00     0.009 A 
ATOM     82  C   UNL A   1      46.255  33.774  28.558  1.00  0.00     0.009 A 
ATOM     83  C   UNL A   1      46.851  33.889  31.280  1.00  0.00     0.001 A 
ATOM     84  C   UNL A   1      46.379  35.010  29.194  1.00  0.00     0.001 A 
ATOM     85  C   UNL A   1      46.666  35.066  30.556  1.00  0.00     0.000 A 
ENDBRANCH  67  80
ENDBRANCH  41  42
ENDBRANCH  34  36
ENDBRANCH  33  34
ENDBRANCH  32  33
ENDBRANCH  31  32
ENDBRANCH  30  31
ENDBRANCH  29  30
ENDBRANCH   1  29
TORSDOF 20
ENDMDL
