MODEL 1
REMARK VINA RESULT:     -10.1      0.000      0.000
REMARK SMILES CCCc1cc2c(cc1Cl)C=C(C(=O)OCCOCCOCCOC(=O)c1ccc(-c3c4nc(c(-c5ccccc5)c5ccc([nH]5)c(-c5ccccc5)c5nc(c(-c6ccccc6)c6ccc3[nH]6)C=C5)C=C4)cc1)[C@@H](C(F)(F)F)O2
REMARK SMILES IDX 19 1 18 2 17 3 16 4 15 5 13 6 14 7 12 8 4 9 5 10 9 11 6 12
REMARK SMILES IDX 8 13 10 14 7 15 80 16 11 17 75 18 3 19 2 20 1 21 76 22 77 23
REMARK SMILES IDX 78 24 79 25 20 26 21 27 22 28 23 29 24 30 25 31 26 32 27 33
REMARK SMILES IDX 28 34 74 35 29 36 73 37 30 38 31 39 32 40 67 41 33 42 72 43
REMARK SMILES IDX 66 44 68 45 34 46 71 47 65 48 64 49 35 51 57 52 42 53 56 54
REMARK SMILES IDX 43 55 46 56 55 57 69 58 44 59 45 60 54 62 70 63 47 64 36 65
REMARK SMILES IDX 37 66 41 67 38 68 40 69 39 70 58 71 59 72 63 73 60 74 62 75
REMARK SMILES IDX 61 76 48 77 49 78 53 79 50 80 52 81 51 82
REMARK H PARENT 68 50 46 61
REMARK Flexibility Score: inf
ROOT
ATOM      1  C   UNL A   1      35.024  32.601  28.072  1.00  0.00     0.188 C 
ENDROOT
BRANCH   1   2
ATOM      2  O   UNL A   1      34.804  31.237  28.359  1.00  0.00    -0.376 OA
BRANCH   2   3
ATOM      3  C   UNL A   1      34.045  30.404  27.499  1.00  0.00     0.202 C 
BRANCH   3   4
ATOM      4  C   UNL A   1      34.588  29.116  26.872  1.00  0.00     0.261 C 
BRANCH   4   5
ATOM      5  O   UNL A   1      33.672  28.019  26.830  1.00  0.00    -0.460 OA
BRANCH   5   6
ATOM      6  C   UNL A   1      33.502  27.467  25.605  1.00  0.00     0.338 C 
ATOM      7  O   UNL A   1      33.534  28.038  24.528  1.00  0.00    -0.246 OA
BRANCH   6   8
ATOM      8  C   UNL A   1      33.426  26.003  25.738  1.00  0.00     0.087 C 
ATOM      9  C   UNL A   1      34.243  21.076  25.202  1.00  0.00    -0.026 A 
ATOM     10  C   UNL A   1      33.152  21.859  25.628  1.00  0.00     0.052 A 
ATOM     11  C   UNL A   1      35.464  21.720  24.953  1.00  0.00     0.045 A 
ATOM     12  C   UNL A   1      33.259  23.246  25.733  1.00  0.00     0.128 A 
ATOM     13  C   UNL A   1      35.557  23.113  25.011  1.00  0.00     0.032 A 
ATOM     14  Cl  UNL A   1      36.906  20.854  24.559  1.00  0.00    -0.084 Cl
ATOM     15  C   UNL A   1      34.444  23.878  25.366  1.00  0.00     0.019 A 
ATOM     16  O   UNL A   1      32.142  23.916  26.149  1.00  0.00    -0.475 OA
ATOM     17  C   UNL A   1      34.487  25.326  25.281  1.00  0.00     0.027 C 
ATOM     18  C   UNL A   1      32.229  25.354  26.375  1.00  0.00     0.316 C 
BRANCH   9  19
ATOM     19  C   UNL A   1      34.023  19.597  24.972  1.00  0.00     0.037 C 
BRANCH  19  20
ATOM     20  C   UNL A   1      32.940  19.298  23.922  1.00  0.00     0.001 C 
ATOM     21  C   UNL A   1      32.341  17.901  24.018  1.00  0.00     0.004 C 
ENDBRANCH  19  20
ENDBRANCH   9  19
BRANCH  18  22
ATOM     22  C   UNL A   1      30.893  25.967  25.926  1.00  0.00     0.430 C 
ATOM     23  F   UNL A   1      30.882  26.189  24.589  1.00  0.00    -0.167 F 
ATOM     24  F   UNL A   1      29.845  25.152  26.188  1.00  0.00    -0.167 F 
ATOM     25  F   UNL A   1      30.650  27.148  26.538  1.00  0.00    -0.167 F 
ENDBRANCH  18  22
ENDBRANCH   6   8
ENDBRANCH   5   6
ENDBRANCH   4   5
ENDBRANCH   3   4
ENDBRANCH   2   3
ENDBRANCH   1   2
BRANCH   1  26
ATOM     26  C   UNL A   1      34.336  33.714  28.891  1.00  0.00     0.188 C 
BRANCH  26  27
ATOM     27  O   UNL A   1      34.069  33.544  30.269  1.00  0.00    -0.376 OA
BRANCH  27  28
ATOM     28  C   UNL A   1      34.210  34.654  31.145  1.00  0.00     0.202 C 
BRANCH  28  29
ATOM     29  C   UNL A   1      34.865  34.473  32.517  1.00  0.00     0.261 C 
BRANCH  29  30
ATOM     30  O   UNL A   1      36.244  34.082  32.445  1.00  0.00    -0.460 OA
BRANCH  30  31
ATOM     31  C   UNL A   1      36.541  32.890  33.016  1.00  0.00     0.338 C 
ATOM     32  O   UNL A   1      35.985  32.358  33.962  1.00  0.00    -0.246 OA
BRANCH  31  33
ATOM     33  C   UNL A   1      37.541  32.200  32.181  1.00  0.00     0.060 A 
ATOM     34  C   UNL A   1      37.454  32.221  30.788  1.00  0.00     0.016 A 
ATOM     35  C   UNL A   1      38.588  31.524  32.821  1.00  0.00     0.016 A 
ATOM     36  C   UNL A   1      38.433  31.573  30.031  1.00  0.00     0.010 A 
ATOM     37  C   UNL A   1      39.554  30.861  32.064  1.00  0.00     0.010 A 
ATOM     38  C   UNL A   1      39.491  30.896  30.664  1.00  0.00    -0.014 A 
BRANCH  38  39
ATOM     39  C   UNL A   1      40.606  30.340  29.864  1.00  0.00     0.031 A 
ATOM     40  C   UNL A   1      40.554  28.953  29.303  1.00  0.00     0.074 A 
ATOM     41  C   UNL A   1      41.692  31.110  29.666  1.00  0.00     0.049 A 
ATOM     42  N   UNL A   1      41.431  28.345  28.544  1.00  0.00    -0.248 NA
ATOM     43  C   UNL A   1      39.372  28.141  29.632  1.00  0.00     0.031 C 
ATOM     44  C   UNL A   1      41.854  32.473  30.172  1.00  0.00     0.029 A 
ATOM     45  N   UNL A   1      42.859  30.861  28.988  1.00  0.00    -0.354 N 
ATOM     46  C   UNL A   1      40.900  27.091  28.282  1.00  0.00     0.074 A 
ATOM     47  C   UNL A   1      39.645  27.005  29.000  1.00  0.00     0.031 C 
ATOM     48  C   UNL A   1      43.045  32.947  29.774  1.00  0.00     0.029 A 
ATOM     49  C   UNL A   1      43.740  31.913  29.011  1.00  0.00     0.049 A 
ATOM     50  H   UNL A   1      43.046  30.010  28.530  1.00  0.00     0.167 HD
ATOM     51  C   UNL A   1      41.412  26.111  27.500  1.00  0.00     0.031 A 
ATOM     52  C   UNL A   1      44.972  32.038  28.479  1.00  0.00     0.031 A 
ATOM     53  C   UNL A   1      42.673  26.197  26.809  1.00  0.00     0.049 A 
ATOM     54  C   UNL A   1      45.548  30.905  27.680  1.00  0.00     0.074 A 
ATOM     55  C   UNL A   1      43.248  25.266  25.959  1.00  0.00     0.029 A 
ATOM     56  N   UNL A   1      43.561  27.257  26.901  1.00  0.00    -0.354 N 
ATOM     57  N   UNL A   1      45.000  29.755  27.374  1.00  0.00    -0.248 NA
ATOM     58  C   UNL A   1      46.904  31.087  27.143  1.00  0.00     0.031 C 
ATOM     59  C   UNL A   1      44.512  25.730  25.594  1.00  0.00     0.029 A 
ATOM     60  C   UNL A   1      44.697  26.984  26.155  1.00  0.00     0.049 A 
ATOM     61  H   UNL A   1      43.408  28.080  27.417  1.00  0.00     0.167 HD
ATOM     62  C   UNL A   1      45.931  29.086  26.590  1.00  0.00     0.074 A 
ATOM     63  C   UNL A   1      47.077  29.962  26.459  1.00  0.00     0.031 C 
ATOM     64  C   UNL A   1      45.836  27.857  26.028  1.00  0.00     0.031 A 
BRANCH  51  65
ATOM     65  C   UNL A   1      40.615  24.848  27.325  1.00  0.00    -0.014 A 
ATOM     66  C   UNL A   1      41.083  23.642  27.870  1.00  0.00     0.009 A 
ATOM     67  C   UNL A   1      39.473  24.825  26.508  1.00  0.00     0.009 A 
ATOM     68  C   UNL A   1      40.438  22.437  27.586  1.00  0.00     0.001 A 
ATOM     69  C   UNL A   1      38.814  23.622  26.248  1.00  0.00     0.001 A 
ATOM     70  C   UNL A   1      39.303  22.429  26.777  1.00  0.00     0.000 A 
ENDBRANCH  51  65
BRANCH  52  71
ATOM     71  C   UNL A   1      45.716  33.309  28.669  1.00  0.00    -0.014 A 
ATOM     72  C   UNL A   1      45.741  34.281  27.654  1.00  0.00     0.009 A 
ATOM     73  C   UNL A   1      46.461  33.530  29.837  1.00  0.00     0.009 A 
ATOM     74  C   UNL A   1      46.515  35.435  27.795  1.00  0.00     0.001 A 
ATOM     75  C   UNL A   1      47.210  34.699  29.987  1.00  0.00     0.001 A 
ATOM     76  C   UNL A   1      47.245  35.644  28.963  1.00  0.00     0.000 A 
ENDBRANCH  52  71
BRANCH  64  77
ATOM     77  C   UNL A   1      46.990  27.362  25.200  1.00  0.00    -0.014 A 
ATOM     78  C   UNL A   1      48.012  26.614  25.808  1.00  0.00     0.009 A 
ATOM     79  C   UNL A   1      47.136  27.749  23.861  1.00  0.00     0.009 A 
ATOM     80  C   UNL A   1      49.170  26.289  25.101  1.00  0.00     0.001 A 
ATOM     81  C   UNL A   1      48.284  27.398  23.146  1.00  0.00     0.001 A 
ATOM     82  C   UNL A   1      49.305  26.681  23.770  1.00  0.00     0.000 A 
ENDBRANCH  64  77
ENDBRANCH  38  39
ENDBRANCH  31  33
ENDBRANCH  30  31
ENDBRANCH  29  30
ENDBRANCH  28  29
ENDBRANCH  27  28
ENDBRANCH  26  27
ENDBRANCH   1  26
TORSDOF 20
ENDMDL
MODEL 2
REMARK VINA RESULT:      -9.7      0.536      5.736
REMARK SMILES CCCc1cc2c(cc1Cl)C=C(C(=O)OCCOCCOCCOC(=O)c1ccc(-c3c4nc(c(-c5ccccc5)c5ccc([nH]5)c(-c5ccccc5)c5nc(c(-c6ccccc6)c6ccc3[nH]6)C=C5)C=C4)cc1)[C@@H](C(F)(F)F)O2
REMARK SMILES IDX 19 1 18 2 17 3 16 4 15 5 13 6 14 7 12 8 4 9 5 10 9 11 6 12
REMARK SMILES IDX 8 13 10 14 7 15 80 16 11 17 75 18 3 19 2 20 1 21 76 22 77 23
REMARK SMILES IDX 78 24 79 25 20 26 21 27 22 28 23 29 24 30 25 31 26 32 27 33
REMARK SMILES IDX 28 34 74 35 29 36 73 37 30 38 31 39 32 40 67 41 33 42 72 43
REMARK SMILES IDX 66 44 68 45 34 46 71 47 65 48 64 49 35 51 57 52 42 53 56 54
REMARK SMILES IDX 43 55 46 56 55 57 69 58 44 59 45 60 54 62 70 63 47 64 36 65
REMARK SMILES IDX 37 66 41 67 38 68 40 69 39 70 58 71 59 72 63 73 60 74 62 75
REMARK SMILES IDX 61 76 48 77 49 78 53 79 50 80 52 81 51 82
REMARK H PARENT 68 50 46 61
REMARK Flexibility Score: inf
ROOT
ATOM      1  C   UNL A   1      34.654  32.408  28.068  1.00  0.00     0.188 C 
ENDROOT
BRANCH   1   2
ATOM      2  O   UNL A   1      33.922  31.205  28.169  1.00  0.00    -0.376 OA
BRANCH   2   3
ATOM      3  C   UNL A   1      33.636  30.405  27.034  1.00  0.00     0.202 C 
BRANCH   3   4
ATOM      4  C   UNL A   1      34.518  29.237  26.580  1.00  0.00     0.261 C 
BRANCH   4   5
ATOM      5  O   UNL A   1      33.909  27.944  26.650  1.00  0.00    -0.460 OA
BRANCH   5   6
ATOM      6  C   UNL A   1      33.778  27.314  25.459  1.00  0.00     0.338 C 
ATOM      7  O   UNL A   1      34.011  27.771  24.353  1.00  0.00    -0.246 OA
BRANCH   6   8
ATOM      8  C   UNL A   1      33.454  25.898  25.693  1.00  0.00     0.087 C 
ATOM      9  C   UNL A   1      33.413  20.878  25.505  1.00  0.00    -0.026 A 
ATOM     10  C   UNL A   1      32.474  21.863  25.868  1.00  0.00     0.052 A 
ATOM     11  C   UNL A   1      34.725  21.284  25.222  1.00  0.00     0.045 A 
ATOM     12  C   UNL A   1      32.817  23.216  25.877  1.00  0.00     0.128 A 
ATOM     13  C   UNL A   1      35.055  22.642  25.184  1.00  0.00     0.032 A 
ATOM     14  Cl  UNL A   1      35.996  20.159  24.900  1.00  0.00    -0.084 Cl
ATOM     15  C   UNL A   1      34.091  23.609  25.477  1.00  0.00     0.019 A 
ATOM     16  O   UNL A   1      31.833  24.094  26.237  1.00  0.00    -0.475 OA
ATOM     17  C   UNL A   1      34.380  25.019  25.291  1.00  0.00     0.027 C 
ATOM     18  C   UNL A   1      32.165  25.508  26.363  1.00  0.00     0.316 C 
BRANCH   9  19
ATOM     19  C   UNL A   1      32.942  19.445  25.377  1.00  0.00     0.037 C 
BRANCH  19  20
ATOM     20  C   UNL A   1      32.611  19.041  23.932  1.00  0.00     0.001 C 
ATOM     21  C   UNL A   1      32.301  20.212  23.007  1.00  0.00     0.004 C 
ENDBRANCH  19  20
ENDBRANCH   9  19
BRANCH  18  22
ATOM     22  C   UNL A   1      30.952  26.308  25.863  1.00  0.00     0.430 C 
ATOM     23  F   UNL A   1      31.073  26.605  24.547  1.00  0.00    -0.167 F 
ATOM     24  F   UNL A   1      29.796  25.617  25.995  1.00  0.00    -0.167 F 
ATOM     25  F   UNL A   1      30.806  27.473  26.533  1.00  0.00    -0.167 F 
ENDBRANCH  18  22
ENDBRANCH   6   8
ENDBRANCH   5   6
ENDBRANCH   4   5
ENDBRANCH   3   4
ENDBRANCH   2   3
ENDBRANCH   1   2
BRANCH   1  26
ATOM     26  C   UNL A   1      34.168  33.702  28.756  1.00  0.00     0.188 C 
BRANCH  26  27
ATOM     27  O   UNL A   1      33.878  33.726  30.139  1.00  0.00    -0.376 OA
BRANCH  27  28
ATOM     28  C   UNL A   1      34.148  34.906  30.884  1.00  0.00     0.202 C 
BRANCH  28  29
ATOM     29  C   UNL A   1      34.813  34.811  32.260  1.00  0.00     0.261 C 
BRANCH  29  30
ATOM     30  O   UNL A   1      36.155  34.305  32.213  1.00  0.00    -0.460 OA
BRANCH  30  31
ATOM     31  C   UNL A   1      36.328  33.065  32.732  1.00  0.00     0.338 C 
ATOM     32  O   UNL A   1      35.644  32.508  33.575  1.00  0.00    -0.246 OA
BRANCH  31  33
ATOM     33  C   UNL A   1      37.380  32.373  31.966  1.00  0.00     0.060 A 
ATOM     34  C   UNL A   1      37.398  32.410  30.571  1.00  0.00     0.016 A 
ATOM     35  C   UNL A   1      38.369  31.677  32.675  1.00  0.00     0.016 A 
ATOM     36  C   UNL A   1      38.425  31.759  29.882  1.00  0.00     0.010 A 
ATOM     37  C   UNL A   1      39.382  31.012  31.985  1.00  0.00     0.010 A 
ATOM     38  C   UNL A   1      39.425  31.062  30.585  1.00  0.00    -0.014 A 
BRANCH  38  39
ATOM     39  C   UNL A   1      40.591  30.502  29.865  1.00  0.00     0.031 A 
ATOM     40  C   UNL A   1      41.849  31.292  29.675  1.00  0.00     0.074 A 
ATOM     41  C   UNL A   1      40.490  29.259  29.359  1.00  0.00     0.049 A 
ATOM     42  N   UNL A   1      42.969  30.920  29.110  1.00  0.00    -0.248 NA
ATOM     43  C   UNL A   1      41.856  32.673  30.182  1.00  0.00     0.031 C 
ATOM     44  C   UNL A   1      39.309  28.402  29.477  1.00  0.00     0.029 A 
ATOM     45  N   UNL A   1      41.387  28.502  28.650  1.00  0.00    -0.354 N 
ATOM     46  C   UNL A   1      43.824  32.007  29.212  1.00  0.00     0.074 A 
ATOM     47  C   UNL A   1      43.079  33.071  29.853  1.00  0.00     0.031 C 
ATOM     48  C   UNL A   1      39.561  27.230  28.875  1.00  0.00     0.029 A 
ATOM     49  C   UNL A   1      40.905  27.263  28.305  1.00  0.00     0.049 A 
ATOM     50  H   UNL A   1      42.288  28.816  28.411  1.00  0.00     0.167 HD
ATOM     51  C   UNL A   1      45.117  32.097  28.818  1.00  0.00     0.031 A 
ATOM     52  C   UNL A   1      41.477  26.261  27.609  1.00  0.00     0.031 A 
ATOM     53  C   UNL A   1      45.842  31.041  28.158  1.00  0.00     0.049 A 
ATOM     54  C   UNL A   1      42.887  26.417  27.116  1.00  0.00     0.074 A 
ATOM     55  C   UNL A   1      47.170  31.032  27.764  1.00  0.00     0.029 A 
ATOM     56  N   UNL A   1      45.303  29.821  27.779  1.00  0.00    -0.354 N 
ATOM     57  N   UNL A   1      43.711  27.421  27.290  1.00  0.00    -0.248 NA
ATOM     58  C   UNL A   1      43.453  25.303  26.342  1.00  0.00     0.031 C 
ATOM     59  C   UNL A   1      47.415  29.838  27.084  1.00  0.00     0.029 A 
ATOM     60  C   UNL A   1      46.262  29.071  27.118  1.00  0.00     0.049 A 
ATOM     61  H   UNL A   1      44.379  29.532  27.953  1.00  0.00     0.167 HD
ATOM     62  C   UNL A   1      44.898  27.053  26.671  1.00  0.00     0.074 A 
ATOM     63  C   UNL A   1      44.692  25.728  26.123  1.00  0.00     0.031 C 
ATOM     64  C   UNL A   1      46.053  27.753  26.573  1.00  0.00     0.031 A 
BRANCH  51  65
ATOM     65  C   UNL A   1      45.859  33.376  29.091  1.00  0.00    -0.014 A 
ATOM     66  C   UNL A   1      46.430  33.600  30.353  1.00  0.00     0.009 A 
ATOM     67  C   UNL A   1      45.874  34.414  28.145  1.00  0.00     0.009 A 
ATOM     68  C   UNL A   1      46.985  34.841  30.672  1.00  0.00     0.001 A 
ATOM     69  C   UNL A   1      46.454  35.645  28.457  1.00  0.00     0.001 A 
ATOM     70  C   UNL A   1      46.998  35.862  29.722  1.00  0.00     0.000 A 
ENDBRANCH  51  65
BRANCH  52  71
ATOM     71  C   UNL A   1      40.709  25.012  27.374  1.00  0.00    -0.014 A 
ATOM     72  C   UNL A   1      41.142  23.794  27.924  1.00  0.00     0.009 A 
ATOM     73  C   UNL A   1      39.577  25.018  26.546  1.00  0.00     0.009 A 
ATOM     74  C   UNL A   1      40.472  22.604  27.629  1.00  0.00     0.001 A 
ATOM     75  C   UNL A   1      38.892  23.831  26.276  1.00  0.00     0.001 A 
ATOM     76  C   UNL A   1      39.346  22.625  26.808  1.00  0.00     0.000 A 
ENDBRANCH  52  71
BRANCH  64  77
ATOM     77  C   UNL A   1      47.212  27.117  25.857  1.00  0.00    -0.014 A 
ATOM     78  C   UNL A   1      48.301  26.625  26.595  1.00  0.00     0.009 A 
ATOM     79  C   UNL A   1      47.291  27.129  24.457  1.00  0.00     0.009 A 
ATOM     80  C   UNL A   1      49.457  26.186  25.948  1.00  0.00     0.001 A 
ATOM     81  C   UNL A   1      48.438  26.662  23.810  1.00  0.00     0.001 A 
ATOM     82  C   UNL A   1      49.524  26.204  24.556  1.00  0.00     0.000 A 
ENDBRANCH  64  77
ENDBRANCH  38  39
ENDBRANCH  31  33
ENDBRANCH  30  31
ENDBRANCH  29  30
ENDBRANCH  28  29
ENDBRANCH  27  28
ENDBRANCH  26  27
ENDBRANCH   1  26
TORSDOF 20
ENDMDL
MODEL 3
REMARK VINA RESULT:      -9.5      3.664      5.131
REMARK SMILES CCCc1cc2c(cc1Cl)C=C(C(=O)OCCOCCOCCOC(=O)c1ccc(-c3c4nc(c(-c5ccccc5)c5ccc([nH]5)c(-c5ccccc5)c5nc(c(-c6ccccc6)c6ccc3[nH]6)C=C5)C=C4)cc1)[C@@H](C(F)(F)F)O2
REMARK SMILES IDX 19 1 18 2 17 3 16 4 15 5 13 6 14 7 12 8 4 9 5 10 9 11 6 12
REMARK SMILES IDX 8 13 10 14 7 15 80 16 11 17 75 18 3 19 2 20 1 21 76 22 77 23
REMARK SMILES IDX 78 24 79 25 20 26 21 27 22 28 23 29 24 30 25 31 26 32 27 33
REMARK SMILES IDX 28 34 74 35 29 36 73 37 30 38 31 39 32 40 67 41 33 42 72 43
REMARK SMILES IDX 66 44 68 45 34 46 71 47 65 48 64 49 35 51 57 52 42 53 56 54
REMARK SMILES IDX 43 55 46 56 55 57 69 58 44 59 45 60 54 62 70 63 47 64 36 65
REMARK SMILES IDX 37 66 41 67 38 68 40 69 39 70 58 71 59 72 63 73 60 74 62 75
REMARK SMILES IDX 61 76 48 77 49 78 53 79 50 80 52 81 51 82
REMARK H PARENT 68 50 46 61
REMARK Flexibility Score: inf
ROOT
ATOM      1  C   UNL A   1      32.291  28.988  25.151  1.00  0.00     0.188 C 
ENDROOT
BRANCH   1   2
ATOM      2  O   UNL A   1      33.188  28.857  24.069  1.00  0.00    -0.376 OA
BRANCH   2   3
ATOM      3  C   UNL A   1      32.738  28.581  22.753  1.00  0.00     0.202 C 
BRANCH   3   4
ATOM      4  C   UNL A   1      32.675  27.171  22.158  1.00  0.00     0.261 C 
BRANCH   4   5
ATOM      5  O   UNL A   1      33.095  26.117  23.030  1.00  0.00    -0.460 OA
BRANCH   5   6
ATOM      6  C   UNL A   1      32.090  25.361  23.531  1.00  0.00     0.338 C 
ATOM      7  O   UNL A   1      30.911  25.661  23.613  1.00  0.00    -0.246 OA
BRANCH   6   8
ATOM      8  C   UNL A   1      32.600  24.013  23.831  1.00  0.00     0.087 C 
ATOM      9  C   UNL A   1      33.137  19.027  24.117  1.00  0.00    -0.026 A 
ATOM     10  C   UNL A   1      33.601  20.118  24.877  1.00  0.00     0.052 A 
ATOM     11  C   UNL A   1      32.451  19.294  22.923  1.00  0.00     0.045 A 
ATOM     12  C   UNL A   1      33.326  21.432  24.494  1.00  0.00     0.128 A 
ATOM     13  C   UNL A   1      32.134  20.607  22.565  1.00  0.00     0.032 A 
ATOM     14  Cl  UNL A   1      31.955  18.044  21.839  1.00  0.00    -0.084 Cl
ATOM     15  C   UNL A   1      32.541  21.673  23.369  1.00  0.00     0.019 A 
ATOM     16  O   UNL A   1      33.815  22.420  25.301  1.00  0.00    -0.475 OA
ATOM     17  C   UNL A   1      32.087  23.023  23.089  1.00  0.00     0.027 C 
ATOM     18  C   UNL A   1      33.645  23.809  24.892  1.00  0.00     0.316 C 
BRANCH   9  19
ATOM     19  C   UNL A   1      33.345  17.630  24.661  1.00  0.00     0.037 C 
BRANCH  19  20
ATOM     20  C   UNL A   1      34.778  17.109  24.466  1.00  0.00     0.001 C 
ATOM     21  C   UNL A   1      35.104  15.854  25.267  1.00  0.00     0.004 C 
ENDBRANCH  19  20
ENDBRANCH   9  19
BRANCH  18  22
ATOM     22  C   UNL A   1      33.389  24.631  26.165  1.00  0.00     0.430 C 
ATOM     23  F   UNL A   1      32.088  24.563  26.537  1.00  0.00    -0.167 F 
ATOM     24  F   UNL A   1      34.113  24.181  27.217  1.00  0.00    -0.167 F 
ATOM     25  F   UNL A   1      33.696  25.936  25.992  1.00  0.00    -0.167 F 
ENDBRANCH  18  22
ENDBRANCH   6   8
ENDBRANCH   5   6
ENDBRANCH   4   5
ENDBRANCH   3   4
ENDBRANCH   2   3
ENDBRANCH   1   2
BRANCH   1  26
ATOM     26  C   UNL A   1      32.285  30.250  26.039  1.00  0.00     0.188 C 
BRANCH  26  27
ATOM     27  O   UNL A   1      31.190  31.144  26.026  1.00  0.00    -0.376 OA
BRANCH  27  28
ATOM     28  C   UNL A   1      31.351  32.446  26.573  1.00  0.00     0.202 C 
BRANCH  28  29
ATOM     29  C   UNL A   1      32.486  32.730  27.561  1.00  0.00     0.261 C 
BRANCH  29  30
ATOM     30  O   UNL A   1      32.761  34.128  27.731  1.00  0.00    -0.460 OA
BRANCH  30  31
ATOM     31  C   UNL A   1      33.196  34.490  28.963  1.00  0.00     0.338 C 
ATOM     32  O   UNL A   1      32.592  35.130  29.807  1.00  0.00    -0.246 OA
BRANCH  31  33
ATOM     33  C   UNL A   1      34.474  33.808  29.233  1.00  0.00     0.060 A 
ATOM     34  C   UNL A   1      35.581  33.999  28.406  1.00  0.00     0.016 A 
ATOM     35  C   UNL A   1      34.553  32.964  30.349  1.00  0.00     0.016 A 
ATOM     36  C   UNL A   1      36.782  33.352  28.709  1.00  0.00     0.010 A 
ATOM     37  C   UNL A   1      35.747  32.304  30.639  1.00  0.00     0.010 A 
ATOM     38  C   UNL A   1      36.873  32.506  29.829  1.00  0.00    -0.014 A 
BRANCH  38  39
ATOM     39  C   UNL A   1      38.181  31.942  30.234  1.00  0.00     0.031 A 
ATOM     40  C   UNL A   1      38.647  30.608  29.738  1.00  0.00     0.074 A 
ATOM     41  C   UNL A   1      38.944  32.652  31.085  1.00  0.00     0.049 A 
ATOM     42  N   UNL A   1      39.785  30.005  29.967  1.00  0.00    -0.248 NA
ATOM     43  C   UNL A   1      37.723  29.852  28.879  1.00  0.00     0.031 C 
ATOM     44  C   UNL A   1      38.586  33.959  31.638  1.00  0.00     0.029 A 
ATOM     45  N   UNL A   1      40.173  32.380  31.631  1.00  0.00    -0.354 N 
ATOM     46  C   UNL A   1      39.730  28.811  29.262  1.00  0.00     0.074 A 
ATOM     47  C   UNL A   1      38.426  28.753  28.634  1.00  0.00     0.031 C 
ATOM     48  C   UNL A   1      39.581  34.383  32.432  1.00  0.00     0.029 A 
ATOM     49  C   UNL A   1      40.631  33.368  32.468  1.00  0.00     0.049 A 
ATOM     50  H   UNL A   1      40.677  31.557  31.442  1.00  0.00     0.167 HD
ATOM     51  C   UNL A   1      40.689  27.863  29.142  1.00  0.00     0.031 A 
ATOM     52  C   UNL A   1      41.767  33.453  33.186  1.00  0.00     0.031 A 
ATOM     53  C   UNL A   1      41.974  27.919  29.791  1.00  0.00     0.049 A 
ATOM     54  C   UNL A   1      42.781  32.349  33.095  1.00  0.00     0.074 A 
ATOM     55  C   UNL A   1      43.024  27.021  29.688  1.00  0.00     0.029 A 
ATOM     56  N   UNL A   1      42.379  28.909  30.672  1.00  0.00    -0.354 N 
ATOM     57  N   UNL A   1      42.749  31.264  32.361  1.00  0.00    -0.248 NA
ATOM     58  C   UNL A   1      43.992  32.482  33.918  1.00  0.00     0.031 C 
ATOM     59  C   UNL A   1      44.034  27.428  30.561  1.00  0.00     0.029 A 
ATOM     60  C   UNL A   1      43.646  28.620  31.152  1.00  0.00     0.049 A 
ATOM     61  H   UNL A   1      41.847  29.698  30.920  1.00  0.00     0.167 HD
ATOM     62  C   UNL A   1      43.941  30.598  32.613  1.00  0.00     0.074 A 
ATOM     63  C   UNL A   1      44.681  31.405  33.562  1.00  0.00     0.031 C 
ATOM     64  C   UNL A   1      44.379  29.424  32.097  1.00  0.00     0.031 A 
BRANCH  51  65
ATOM     65  C   UNL A   1      40.409  26.672  28.268  1.00  0.00    -0.014 A 
ATOM     66  C   UNL A   1      40.793  26.687  26.918  1.00  0.00     0.009 A 
ATOM     67  C   UNL A   1      39.647  25.593  28.744  1.00  0.00     0.009 A 
ATOM     68  C   UNL A   1      40.404  25.658  26.057  1.00  0.00     0.001 A 
ATOM     69  C   UNL A   1      39.283  24.552  27.888  1.00  0.00     0.001 A 
ATOM     70  C   UNL A   1      39.651  24.591  26.545  1.00  0.00     0.000 A 
ENDBRANCH  51  65
BRANCH  52  71
ATOM     71  C   UNL A   1      42.004  34.654  34.027  1.00  0.00    -0.014 A 
ATOM     72  C   UNL A   1      41.542  34.701  35.352  1.00  0.00     0.009 A 
ATOM     73  C   UNL A   1      42.635  35.785  33.488  1.00  0.00     0.009 A 
ATOM     74  C   UNL A   1      41.684  35.863  36.113  1.00  0.00     0.001 A 
ATOM     75  C   UNL A   1      42.802  36.937  34.261  1.00  0.00     0.001 A 
ATOM     76  C   UNL A   1      42.317  36.979  35.568  1.00  0.00     0.000 A 
ENDBRANCH  52  71
BRANCH  64  77
ATOM     77  C   UNL A   1      45.730  28.919  32.524  1.00  0.00    -0.014 A 
ATOM     78  C   UNL A   1      45.837  28.086  33.649  1.00  0.00     0.009 A 
ATOM     79  C   UNL A   1      46.900  29.377  31.903  1.00  0.00     0.009 A 
ATOM     80  C   UNL A   1      47.090  27.744  34.162  1.00  0.00     0.001 A 
ATOM     81  C   UNL A   1      48.153  29.010  32.400  1.00  0.00     0.001 A 
ATOM     82  C   UNL A   1      48.247  28.206  33.536  1.00  0.00     0.000 A 
ENDBRANCH  64  77
ENDBRANCH  38  39
ENDBRANCH  31  33
ENDBRANCH  30  31
ENDBRANCH  29  30
ENDBRANCH  28  29
ENDBRANCH  27  28
ENDBRANCH  26  27
ENDBRANCH   1  26
TORSDOF 20
ENDMDL
