MODEL 1
REMARK VINA RESULT:     -11.2      0.000      0.000
REMARK SMILES CSc1ccc(/C=C2\C(C)=C(CC(=O)OCCOCCOCCOC(=O)c3ccc(-c4c5nc(c(-c6ccccc6)c6ccc([nH]6)c(-c6ccccc6)c6nc(c(-c7ccccc7)c7ccc4[nH]7)C=C6)C=C5)cc3)c3cc(F)ccc32)cc1
REMARK SMILES IDX 19 1 18 2 17 3 16 4 15 5 13 6 14 7 12 8 11 9 7 10 8 11 9 12
REMARK SMILES IDX 81 13 10 14 75 15 80 16 76 17 79 18 77 19 78 20 6 21 3 22
REMARK SMILES IDX 4 23 83 24 5 25 82 26 2 27 1 28 20 29 21 30 22 31 23 32
REMARK SMILES IDX 24 33 25 34 26 35 27 36 28 37 74 38 29 39 73 40 30 41 31 42
REMARK SMILES IDX 32 43 67 44 33 45 72 46 66 47 68 48 34 49 71 50 65 51 64 52
REMARK SMILES IDX 35 54 57 55 42 56 56 57 43 58 46 59 55 60 69 61 44 62 45 63
REMARK SMILES IDX 54 65 70 66 47 67 36 68 37 69 41 70 38 71 40 72 39 73 58 74
REMARK SMILES IDX 59 75 63 76 60 77 62 78 61 79 48 80 49 81 53 82 50 83 52 84
REMARK SMILES IDX 51 85
REMARK H PARENT 68 53 46 64
REMARK Flexibility Score: inf
ROOT
ATOM      1  C   UNL A   1      35.574  33.017  27.928  1.00  0.00     0.188 C 
ENDROOT
BRANCH   1   2
ATOM      2  O   UNL A   1      35.054  31.714  27.716  1.00  0.00    -0.376 OA
BRANCH   2   3
ATOM      3  C   UNL A   1      33.639  31.541  27.738  1.00  0.00     0.202 C 
BRANCH   3   4
ATOM      4  C   UNL A   1      33.065  30.555  26.719  1.00  0.00     0.261 C 
BRANCH   4   5
ATOM      5  O   UNL A   1      31.890  29.860  27.207  1.00  0.00    -0.463 OA
BRANCH   5   6
ATOM      6  C   UNL A   1      32.018  28.517  27.329  1.00  0.00     0.310 C 
ATOM      7  O   UNL A   1      31.347  27.829  28.097  1.00  0.00    -0.252 OA
BRANCH   6   8
ATOM      8  C   UNL A   1      33.099  27.873  26.470  1.00  0.00     0.159 C 
BRANCH   8   9
ATOM      9  C   UNL A   1      32.889  27.512  24.987  1.00  0.00    -0.025 C 
ATOM     10  C   UNL A   1      31.943  24.160  25.511  1.00  0.00     0.017 C 
ATOM     11  C   UNL A   1      32.043  25.432  25.105  1.00  0.00    -0.014 C 
ATOM     12  C   UNL A   1      33.178  26.242  24.576  1.00  0.00    -0.039 C 
ATOM     13  C   UNL A   1      30.850  26.298  24.971  1.00  0.00    -0.010 A 
ATOM     14  C   UNL A   1      33.437  26.058  23.077  1.00  0.00     0.045 C 
ATOM     15  C   UNL A   1      31.426  27.530  24.629  1.00  0.00    -0.011 A 
ATOM     16  C   UNL A   1      29.563  25.934  24.577  1.00  0.00     0.012 A 
ATOM     17  C   UNL A   1      30.800  28.291  23.660  1.00  0.00     0.048 A 
ATOM     18  C   UNL A   1      28.875  26.797  23.724  1.00  0.00     0.040 A 
ATOM     19  C   UNL A   1      29.516  27.938  23.240  1.00  0.00     0.123 A 
ATOM     20  F   UNL A   1      28.918  28.662  22.284  1.00  0.00    -0.207 F 
BRANCH  10  21
ATOM     21  C   UNL A   1      32.806  23.003  25.209  1.00  0.00    -0.025 A 
ATOM     22  C   UNL A   1      33.039  20.218  25.034  1.00  0.00     0.007 A 
ATOM     23  C   UNL A   1      32.837  20.987  23.887  1.00  0.00     0.015 A 
ATOM     24  C   UNL A   1      33.358  20.877  26.224  1.00  0.00     0.015 A 
ATOM     25  C   UNL A   1      32.790  22.376  23.967  1.00  0.00     0.009 A 
ATOM     26  C   UNL A   1      33.246  22.266  26.312  1.00  0.00     0.009 A 
BRANCH  22  27
ATOM     27  S   UNL A   1      32.759  18.463  24.869  1.00  0.00    -0.130 SA
ATOM     28  C   UNL A   1      34.386  17.830  24.400  1.00  0.00     0.091 C 
ENDBRANCH  22  27
ENDBRANCH  10  21
ENDBRANCH   8   9
ENDBRANCH   6   8
ENDBRANCH   5   6
ENDBRANCH   4   5
ENDBRANCH   3   4
ENDBRANCH   2   3
ENDBRANCH   1   2
BRANCH   1  29
ATOM     29  C   UNL A   1      34.598  34.197  27.930  1.00  0.00     0.188 C 
BRANCH  29  30
ATOM     30  O   UNL A   1      34.584  34.936  29.138  1.00  0.00    -0.376 OA
BRANCH  30  31
ATOM     31  C   UNL A   1      33.796  34.361  30.175  1.00  0.00     0.202 C 
BRANCH  31  32
ATOM     32  C   UNL A   1      34.679  34.103  31.403  1.00  0.00     0.261 C 
BRANCH  32  33
ATOM     33  O   UNL A   1      34.723  32.712  31.787  1.00  0.00    -0.460 OA
BRANCH  33  34
ATOM     34  C   UNL A   1      35.711  32.393  32.653  1.00  0.00     0.338 C 
ATOM     35  O   UNL A   1      35.703  32.541  33.861  1.00  0.00    -0.246 OA
BRANCH  34  36
ATOM     36  C   UNL A   1      36.743  31.624  31.935  1.00  0.00     0.060 A 
ATOM     37  C   UNL A   1      37.588  30.794  32.675  1.00  0.00     0.016 A 
ATOM     38  C   UNL A   1      36.937  31.772  30.568  1.00  0.00     0.016 A 
ATOM     39  C   UNL A   1      38.683  30.176  32.097  1.00  0.00     0.010 A 
ATOM     40  C   UNL A   1      38.017  31.116  29.968  1.00  0.00     0.010 A 
ATOM     41  C   UNL A   1      38.912  30.345  30.737  1.00  0.00    -0.014 A 
BRANCH  41  42
ATOM     42  C   UNL A   1      40.152  29.812  30.137  1.00  0.00     0.031 A 
ATOM     43  C   UNL A   1      41.354  30.701  30.066  1.00  0.00     0.074 A 
ATOM     44  C   UNL A   1      40.217  28.544  29.693  1.00  0.00     0.049 A 
ATOM     45  N   UNL A   1      42.454  30.552  29.377  1.00  0.00    -0.248 NA
ATOM     46  C   UNL A   1      41.309  31.926  30.884  1.00  0.00     0.031 C 
ATOM     47  C   UNL A   1      39.170  27.532  29.835  1.00  0.00     0.029 A 
ATOM     48  N   UNL A   1      41.221  27.899  29.019  1.00  0.00    -0.354 N 
ATOM     49  C   UNL A   1      43.207  31.690  29.632  1.00  0.00     0.074 A 
ATOM     50  C   UNL A   1      42.444  32.515  30.544  1.00  0.00     0.031 C 
ATOM     51  C   UNL A   1      39.584  26.394  29.255  1.00  0.00     0.029 A 
ATOM     52  C   UNL A   1      40.884  26.625  28.634  1.00  0.00     0.049 A 
ATOM     53  H   UNL A   1      42.097  28.308  28.830  1.00  0.00     0.167 HD
ATOM     54  C   UNL A   1      44.421  32.018  29.133  1.00  0.00     0.031 A 
ATOM     55  C   UNL A   1      41.524  25.769  27.817  1.00  0.00     0.031 A 
ATOM     56  C   UNL A   1      45.170  31.182  28.235  1.00  0.00     0.049 A 
ATOM     57  C   UNL A   1      42.809  26.205  27.169  1.00  0.00     0.074 A 
ATOM     58  C   UNL A   1      46.397  31.427  27.644  1.00  0.00     0.029 A 
ATOM     59  N   UNL A   1      44.760  29.928  27.807  1.00  0.00    -0.354 N 
ATOM     60  N   UNL A   1      43.479  27.321  27.328  1.00  0.00    -0.248 NA
ATOM     61  C   UNL A   1      43.411  25.271  26.208  1.00  0.00     0.031 C 
ATOM     62  C   UNL A   1      46.708  30.337  26.823  1.00  0.00     0.029 A 
ATOM     63  C   UNL A   1      45.700  29.393  26.944  1.00  0.00     0.049 A 
ATOM     64  H   UNL A   1      43.924  29.484  28.077  1.00  0.00     0.167 HD
ATOM     65  C   UNL A   1      44.595  27.212  26.509  1.00  0.00     0.074 A 
ATOM     66  C   UNL A   1      44.514  25.919  25.861  1.00  0.00     0.031 C 
ATOM     67  C   UNL A   1      45.599  28.103  26.314  1.00  0.00     0.031 A 
BRANCH  54  68
ATOM     68  C   UNL A   1      44.968  33.367  29.498  1.00  0.00    -0.014 A 
ATOM     69  C   UNL A   1      45.976  33.518  30.462  1.00  0.00     0.009 A 
ATOM     70  C   UNL A   1      44.454  34.510  28.864  1.00  0.00     0.009 A 
ATOM     71  C   UNL A   1      46.432  34.792  30.810  1.00  0.00     0.001 A 
ATOM     72  C   UNL A   1      44.930  35.778  29.194  1.00  0.00     0.001 A 
ATOM     73  C   UNL A   1      45.912  35.920  30.174  1.00  0.00     0.000 A 
ENDBRANCH  54  68
BRANCH  55  74
ATOM     74  C   UNL A   1      40.926  24.445  27.511  1.00  0.00    -0.014 A 
ATOM     75  C   UNL A   1      39.822  24.347  26.653  1.00  0.00     0.009 A 
ATOM     76  C   UNL A   1      41.454  23.273  28.077  1.00  0.00     0.009 A 
ATOM     77  C   UNL A   1      39.248  23.103  26.380  1.00  0.00     0.001 A 
ATOM     78  C   UNL A   1      40.896  22.029  27.780  1.00  0.00     0.001 A 
ATOM     79  C   UNL A   1      39.789  21.946  26.939  1.00  0.00     0.000 A 
ENDBRANCH  55  74
BRANCH  67  80
ATOM     80  C   UNL A   1      46.713  27.684  25.400  1.00  0.00    -0.014 A 
ATOM     81  C   UNL A   1      47.797  26.925  25.868  1.00  0.00     0.009 A 
ATOM     82  C   UNL A   1      46.653  28.023  24.039  1.00  0.00     0.009 A 
ATOM     83  C   UNL A   1      48.812  26.537  24.993  1.00  0.00     0.001 A 
ATOM     84  C   UNL A   1      47.656  27.611  23.162  1.00  0.00     0.001 A 
ATOM     85  C   UNL A   1      48.739  26.875  23.642  1.00  0.00     0.000 A 
ENDBRANCH  67  80
ENDBRANCH  41  42
ENDBRANCH  34  36
ENDBRANCH  33  34
ENDBRANCH  32  33
ENDBRANCH  31  32
ENDBRANCH  30  31
ENDBRANCH  29  30
ENDBRANCH   1  29
TORSDOF 20
ENDMDL
MODEL 2
REMARK VINA RESULT:     -10.8      1.704      6.129
REMARK SMILES CSc1ccc(/C=C2\C(C)=C(CC(=O)OCCOCCOCCOC(=O)c3ccc(-c4c5nc(c(-c6ccccc6)c6ccc([nH]6)c(-c6ccccc6)c6nc(c(-c7ccccc7)c7ccc4[nH]7)C=C6)C=C5)cc3)c3cc(F)ccc32)cc1
REMARK SMILES IDX 19 1 18 2 17 3 16 4 15 5 13 6 14 7 12 8 11 9 7 10 8 11 9 12
REMARK SMILES IDX 81 13 10 14 75 15 80 16 76 17 79 18 77 19 78 20 6 21 3 22
REMARK SMILES IDX 4 23 83 24 5 25 82 26 2 27 1 28 20 29 21 30 22 31 23 32
REMARK SMILES IDX 24 33 25 34 26 35 27 36 28 37 74 38 29 39 73 40 30 41 31 42
REMARK SMILES IDX 32 43 67 44 33 45 72 46 66 47 68 48 34 49 71 50 65 51 64 52
REMARK SMILES IDX 35 54 57 55 42 56 56 57 43 58 46 59 55 60 69 61 44 62 45 63
REMARK SMILES IDX 54 65 70 66 47 67 36 68 37 69 41 70 38 71 40 72 39 73 58 74
REMARK SMILES IDX 59 75 63 76 60 77 62 78 61 79 48 80 49 81 53 82 50 83 52 84
REMARK SMILES IDX 51 85
REMARK H PARENT 68 53 46 64
REMARK Flexibility Score: inf
ROOT
ATOM      1  C   UNL A   1      34.134  34.604  29.342  1.00  0.00     0.188 C 
ENDROOT
BRANCH   1   2
ATOM      2  O   UNL A   1      33.694  33.514  28.548  1.00  0.00    -0.376 OA
BRANCH   2   3
ATOM      3  C   UNL A   1      34.677  32.732  27.874  1.00  0.00     0.202 C 
BRANCH   3   4
ATOM      4  C   UNL A   1      34.696  31.239  28.208  1.00  0.00     0.261 C 
BRANCH   4   5
ATOM      5  O   UNL A   1      34.443  30.400  27.055  1.00  0.00    -0.463 OA
BRANCH   5   6
ATOM      6  C   UNL A   1      33.330  29.630  27.128  1.00  0.00     0.310 C 
ATOM      7  O   UNL A   1      32.206  30.067  27.367  1.00  0.00    -0.252 OA
BRANCH   6   8
ATOM      8  C   UNL A   1      33.546  28.133  26.937  1.00  0.00     0.159 C 
BRANCH   8   9
ATOM      9  C   UNL A   1      33.497  27.448  25.557  1.00  0.00    -0.025 C 
ATOM     10  C   UNL A   1      31.773  24.559  26.595  1.00  0.00     0.017 C 
ATOM     11  C   UNL A   1      32.210  25.647  25.951  1.00  0.00    -0.014 C 
ATOM     12  C   UNL A   1      33.563  26.085  25.502  1.00  0.00    -0.039 C 
ATOM     13  C   UNL A   1      31.271  26.644  25.390  1.00  0.00    -0.010 A 
ATOM     14  C   UNL A   1      34.008  25.483  24.164  1.00  0.00     0.045 C 
ATOM     15  C   UNL A   1      32.148  27.629  24.912  1.00  0.00    -0.011 A 
ATOM     16  C   UNL A   1      30.014  26.422  24.829  1.00  0.00     0.012 A 
ATOM     17  C   UNL A   1      31.863  28.215  23.693  1.00  0.00     0.048 A 
ATOM     18  C   UNL A   1      29.673  27.145  23.686  1.00  0.00     0.040 A 
ATOM     19  C   UNL A   1      30.615  27.996  23.107  1.00  0.00     0.123 A 
ATOM     20  F   UNL A   1      30.347  28.545  21.914  1.00  0.00    -0.207 F 
BRANCH  10  21
ATOM     21  C   UNL A   1      32.399  23.231  26.736  1.00  0.00    -0.025 A 
ATOM     22  C   UNL A   1      34.262  21.387  25.749  1.00  0.00     0.007 A 
ATOM     23  C   UNL A   1      34.571  22.189  26.848  1.00  0.00     0.015 A 
ATOM     24  C   UNL A   1      32.938  21.353  25.307  1.00  0.00     0.015 A 
ATOM     25  C   UNL A   1      33.619  23.055  27.380  1.00  0.00     0.009 A 
ATOM     26  C   UNL A   1      32.007  22.270  25.800  1.00  0.00     0.009 A 
BRANCH  22  27
ATOM     27  S   UNL A   1      35.636  20.567  24.957  1.00  0.00    -0.130 SA
ATOM     28  C   UNL A   1      37.063  21.527  25.515  1.00  0.00     0.091 C 
ENDBRANCH  22  27
ENDBRANCH  10  21
ENDBRANCH   8   9
ENDBRANCH   6   8
ENDBRANCH   5   6
ENDBRANCH   4   5
ENDBRANCH   3   4
ENDBRANCH   2   3
ENDBRANCH   1   2
BRANCH   1  29
ATOM     29  C   UNL A   1      34.288  34.389  30.850  1.00  0.00     0.188 C 
BRANCH  29  30
ATOM     30  O   UNL A   1      34.037  33.062  31.274  1.00  0.00    -0.376 OA
BRANCH  30  31
ATOM     31  C   UNL A   1      34.915  32.588  32.289  1.00  0.00     0.202 C 
BRANCH  31  32
ATOM     32  C   UNL A   1      36.291  32.296  31.676  1.00  0.00     0.261 C 
BRANCH  32  33
ATOM     33  O   UNL A   1      36.393  30.968  31.119  1.00  0.00    -0.460 OA
BRANCH  33  34
ATOM     34  C   UNL A   1      37.166  30.112  31.826  1.00  0.00     0.338 C 
ATOM     35  O   UNL A   1      36.809  29.371  32.723  1.00  0.00    -0.246 OA
BRANCH  34  36
ATOM     36  C   UNL A   1      38.498  30.048  31.198  1.00  0.00     0.060 A 
ATOM     37  C   UNL A   1      38.593  30.255  29.820  1.00  0.00     0.016 A 
ATOM     38  C   UNL A   1      39.629  29.708  31.928  1.00  0.00     0.016 A 
ATOM     39  C   UNL A   1      39.777  30.042  29.136  1.00  0.00     0.010 A 
ATOM     40  C   UNL A   1      40.840  29.532  31.250  1.00  0.00     0.010 A 
ATOM     41  C   UNL A   1      40.909  29.666  29.849  1.00  0.00    -0.014 A 
BRANCH  41  42
ATOM     42  C   UNL A   1      42.139  29.297  29.119  1.00  0.00     0.031 A 
ATOM     43  C   UNL A   1      42.270  27.900  28.596  1.00  0.00     0.074 A 
ATOM     44  C   UNL A   1      43.109  30.201  28.895  1.00  0.00     0.049 A 
ATOM     45  N   UNL A   1      43.331  27.279  28.154  1.00  0.00    -0.248 NA
ATOM     46  C   UNL A   1      41.037  27.095  28.569  1.00  0.00     0.031 C 
ATOM     47  C   UNL A   1      43.043  31.626  29.220  1.00  0.00     0.029 A 
ATOM     48  N   UNL A   1      44.352  30.038  28.342  1.00  0.00    -0.354 N 
ATOM     49  C   UNL A   1      42.906  25.993  27.850  1.00  0.00     0.074 A 
ATOM     50  C   UNL A   1      41.492  25.925  28.149  1.00  0.00     0.031 C 
ATOM     51  C   UNL A   1      44.202  32.206  28.868  1.00  0.00     0.029 A 
ATOM     52  C   UNL A   1      45.113  31.179  28.373  1.00  0.00     0.049 A 
ATOM     53  H   UNL A   1      44.667  29.187  27.959  1.00  0.00     0.167 HD
ATOM     54  C   UNL A   1      43.641  24.960  27.377  1.00  0.00     0.031 A 
ATOM     55  C   UNL A   1      46.417  31.359  28.095  1.00  0.00     0.031 A 
ATOM     56  C   UNL A   1      45.044  25.047  27.075  1.00  0.00     0.049 A 
ATOM     57  C   UNL A   1      47.247  30.170  27.697  1.00  0.00     0.074 A 
ATOM     58  C   UNL A   1      45.894  24.057  26.619  1.00  0.00     0.029 A 
ATOM     59  N   UNL A   1      45.799  26.204  27.192  1.00  0.00    -0.354 N 
ATOM     60  N   UNL A   1      46.873  28.928  27.502  1.00  0.00    -0.248 NA
ATOM     61  C   UNL A   1      48.684  30.405  27.504  1.00  0.00     0.031 C 
ATOM     62  C   UNL A   1      47.176  24.606  26.502  1.00  0.00     0.029 A 
ATOM     63  C   UNL A   1      47.112  25.950  26.835  1.00  0.00     0.049 A 
ATOM     64  H   UNL A   1      45.453  27.078  27.486  1.00  0.00     0.167 HD
ATOM     65  C   UNL A   1      48.022  28.239  27.140  1.00  0.00     0.074 A 
ATOM     66  C   UNL A   1      49.104  29.204  27.135  1.00  0.00     0.031 C 
ATOM     67  C   UNL A   1      48.169  26.926  26.834  1.00  0.00     0.031 A 
BRANCH  54  68
ATOM     68  C   UNL A   1      42.946  23.638  27.231  1.00  0.00    -0.014 A 
ATOM     69  C   UNL A   1      42.810  22.754  28.312  1.00  0.00     0.009 A 
ATOM     70  C   UNL A   1      42.424  23.271  25.981  1.00  0.00     0.009 A 
ATOM     71  C   UNL A   1      42.196  21.512  28.133  1.00  0.00     0.001 A 
ATOM     72  C   UNL A   1      41.787  22.042  25.811  1.00  0.00     0.001 A 
ATOM     73  C   UNL A   1      41.682  21.158  26.884  1.00  0.00     0.000 A 
ENDBRANCH  54  68
BRANCH  55  74
ATOM     74  C   UNL A   1      47.033  32.701  28.251  1.00  0.00    -0.014 A 
ATOM     75  C   UNL A   1      47.086  33.588  27.167  1.00  0.00     0.009 A 
ATOM     76  C   UNL A   1      47.575  33.100  29.484  1.00  0.00     0.009 A 
ATOM     77  C   UNL A   1      47.682  34.843  27.310  1.00  0.00     0.001 A 
ATOM     78  C   UNL A   1      48.146  34.365  29.631  1.00  0.00     0.001 A 
ATOM     79  C   UNL A   1      48.206  35.232  28.542  1.00  0.00     0.000 A 
ENDBRANCH  55  74
BRANCH  67  80
ATOM     80  C   UNL A   1      49.538  26.471  26.422  1.00  0.00    -0.014 A 
ATOM     81  C   UNL A   1      50.416  25.872  27.339  1.00  0.00     0.009 A 
ATOM     82  C   UNL A   1      49.937  26.608  25.083  1.00  0.00     0.009 A 
ATOM     83  C   UNL A   1      51.678  25.444  26.925  1.00  0.00     0.001 A 
ATOM     84  C   UNL A   1      51.190  26.156  24.668  1.00  0.00     0.001 A 
ATOM     85  C   UNL A   1      52.062  25.582  25.591  1.00  0.00     0.000 A 
ENDBRANCH  67  80
ENDBRANCH  41  42
ENDBRANCH  34  36
ENDBRANCH  33  34
ENDBRANCH  32  33
ENDBRANCH  31  32
ENDBRANCH  30  31
ENDBRANCH  29  30
ENDBRANCH   1  29
TORSDOF 20
ENDMDL
MODEL 3
REMARK VINA RESULT:     -10.6      3.919      6.030
REMARK SMILES CSc1ccc(/C=C2\C(C)=C(CC(=O)OCCOCCOCCOC(=O)c3ccc(-c4c5nc(c(-c6ccccc6)c6ccc([nH]6)c(-c6ccccc6)c6nc(c(-c7ccccc7)c7ccc4[nH]7)C=C6)C=C5)cc3)c3cc(F)ccc32)cc1
REMARK SMILES IDX 19 1 18 2 17 3 16 4 15 5 13 6 14 7 12 8 11 9 7 10 8 11 9 12
REMARK SMILES IDX 81 13 10 14 75 15 80 16 76 17 79 18 77 19 78 20 6 21 3 22
REMARK SMILES IDX 4 23 83 24 5 25 82 26 2 27 1 28 20 29 21 30 22 31 23 32
REMARK SMILES IDX 24 33 25 34 26 35 27 36 28 37 74 38 29 39 73 40 30 41 31 42
REMARK SMILES IDX 32 43 67 44 33 45 72 46 66 47 68 48 34 49 71 50 65 51 64 52
REMARK SMILES IDX 35 54 57 55 42 56 56 57 43 58 46 59 55 60 69 61 44 62 45 63
REMARK SMILES IDX 54 65 70 66 47 67 36 68 37 69 41 70 38 71 40 72 39 73 58 74
REMARK SMILES IDX 59 75 63 76 60 77 62 78 61 79 48 80 49 81 53 82 50 83 52 84
REMARK SMILES IDX 51 85
REMARK H PARENT 68 53 46 64
REMARK Flexibility Score: inf
ROOT
ATOM      1  C   UNL A   1      32.049  29.234  26.205  1.00  0.00     0.188 C 
ENDROOT
BRANCH   1   2
ATOM      2  O   UNL A   1      32.258  27.842  26.030  1.00  0.00    -0.376 OA
BRANCH   2   3
ATOM      3  C   UNL A   1      31.115  26.993  25.953  1.00  0.00     0.202 C 
BRANCH   3   4
ATOM      4  C   UNL A   1      31.175  25.704  26.775  1.00  0.00     0.261 C 
BRANCH   4   5
ATOM      5  O   UNL A   1      30.711  24.544  26.041  1.00  0.00    -0.463 OA
BRANCH   5   6
ATOM      6  C   UNL A   1      30.938  23.349  26.638  1.00  0.00     0.310 C 
ATOM      7  O   UNL A   1      30.091  22.726  27.275  1.00  0.00    -0.252 OA
BRANCH   6   8
ATOM      8  C   UNL A   1      32.358  22.808  26.517  1.00  0.00     0.159 C 
BRANCH   8   9
ATOM      9  C   UNL A   1      32.976  22.364  25.177  1.00  0.00    -0.025 C 
ATOM     10  C   UNL A   1      34.108  25.545  24.175  1.00  0.00     0.017 C 
ATOM     11  C   UNL A   1      33.980  24.243  24.456  1.00  0.00    -0.014 C 
ATOM     12  C   UNL A   1      32.937  23.230  24.121  1.00  0.00    -0.039 C 
ATOM     13  C   UNL A   1      35.068  23.481  25.108  1.00  0.00    -0.010 A 
ATOM     14  C   UNL A   1      33.089  22.606  22.729  1.00  0.00     0.045 C 
ATOM     15  C   UNL A   1      34.471  22.225  25.292  1.00  0.00    -0.011 A 
ATOM     16  C   UNL A   1      36.445  23.643  24.952  1.00  0.00     0.012 A 
ATOM     17  C   UNL A   1      35.239  21.101  25.052  1.00  0.00     0.048 A 
ATOM     18  C   UNL A   1      37.231  22.494  24.876  1.00  0.00     0.040 A 
ATOM     19  C   UNL A   1      36.617  21.241  24.881  1.00  0.00     0.123 A 
ATOM     20  F   UNL A   1      37.358  20.154  24.625  1.00  0.00    -0.207 F 
BRANCH  10  21
ATOM     21  C   UNL A   1      33.478  26.346  23.108  1.00  0.00    -0.025 A 
ATOM     22  C   UNL A   1      31.474  28.170  22.401  1.00  0.00     0.007 A 
ATOM     23  C   UNL A   1      32.781  28.603  22.627  1.00  0.00     0.015 A 
ATOM     24  C   UNL A   1      31.241  26.797  22.302  1.00  0.00     0.015 A 
ATOM     25  C   UNL A   1      33.790  27.687  22.910  1.00  0.00     0.009 A 
ATOM     26  C   UNL A   1      32.240  25.885  22.651  1.00  0.00     0.009 A 
BRANCH  22  27
ATOM     27  S   UNL A   1      30.216  29.435  22.370  1.00  0.00    -0.130 SA
ATOM     28  C   UNL A   1      28.755  28.576  23.001  1.00  0.00     0.091 C 
ENDBRANCH  22  27
ENDBRANCH  10  21
ENDBRANCH   8   9
ENDBRANCH   6   8
ENDBRANCH   5   6
ENDBRANCH   4   5
ENDBRANCH   3   4
ENDBRANCH   2   3
ENDBRANCH   1   2
BRANCH   1  29
ATOM     29  C   UNL A   1      33.257  30.115  26.534  1.00  0.00     0.188 C 
BRANCH  29  30
ATOM     30  O   UNL A   1      32.964  31.204  27.390  1.00  0.00    -0.376 OA
BRANCH  30  31
ATOM     31  C   UNL A   1      31.918  32.054  26.930  1.00  0.00     0.202 C 
BRANCH  31  32
ATOM     32  C   UNL A   1      32.255  33.510  27.277  1.00  0.00     0.261 C 
BRANCH  32  33
ATOM     33  O   UNL A   1      32.691  33.680  28.643  1.00  0.00    -0.460 OA
BRANCH  33  34
ATOM     34  C   UNL A   1      33.666  34.601  28.817  1.00  0.00     0.338 C 
ATOM     35  O   UNL A   1      33.591  35.798  28.609  1.00  0.00    -0.246 OA
BRANCH  34  36
ATOM     36  C   UNL A   1      34.798  33.966  29.517  1.00  0.00     0.060 A 
ATOM     37  C   UNL A   1      36.093  34.247  29.075  1.00  0.00     0.016 A 
ATOM     38  C   UNL A   1      34.596  33.046  30.536  1.00  0.00     0.016 A 
ATOM     39  C   UNL A   1      37.190  33.561  29.567  1.00  0.00     0.010 A 
ATOM     40  C   UNL A   1      35.704  32.379  31.069  1.00  0.00     0.010 A 
ATOM     41  C   UNL A   1      36.999  32.610  30.562  1.00  0.00    -0.014 A 
BRANCH  41  42
ATOM     42  C   UNL A   1      38.135  31.771  30.994  1.00  0.00     0.031 A 
ATOM     43  C   UNL A   1      38.962  32.226  32.157  1.00  0.00     0.074 A 
ATOM     44  C   UNL A   1      38.407  30.604  30.383  1.00  0.00     0.049 A 
ATOM     45  N   UNL A   1      40.131  31.803  32.556  1.00  0.00    -0.248 NA
ATOM     46  C   UNL A   1      38.391  33.307  32.980  1.00  0.00     0.031 C 
ATOM     47  C   UNL A   1      37.596  29.977  29.339  1.00  0.00     0.029 A 
ATOM     48  N   UNL A   1      39.458  29.744  30.556  1.00  0.00    -0.354 N 
ATOM     49  C   UNL A   1      40.463  32.603  33.641  1.00  0.00     0.074 A 
ATOM     50  C   UNL A   1      39.370  33.529  33.843  1.00  0.00     0.031 C 
ATOM     51  C   UNL A   1      38.188  28.833  28.958  1.00  0.00     0.029 A 
ATOM     52  C   UNL A   1      39.454  28.696  29.671  1.00  0.00     0.049 A 
ATOM     53  H   UNL A   1      40.149  29.865  31.249  1.00  0.00     0.167 HD
ATOM     54  C   UNL A   1      41.590  32.570  34.390  1.00  0.00     0.031 A 
ATOM     55  C   UNL A   1      40.397  27.769  29.420  1.00  0.00     0.031 A 
ATOM     56  C   UNL A   1      42.662  31.636  34.182  1.00  0.00     0.049 A 
ATOM     57  C   UNL A   1      41.697  27.832  30.173  1.00  0.00     0.074 A 
ATOM     58  C   UNL A   1      43.863  31.532  34.861  1.00  0.00     0.029 A 
ATOM     59  N   UNL A   1      42.654  30.635  33.223  1.00  0.00    -0.354 N 
ATOM     60  N   UNL A   1      42.058  28.647  31.134  1.00  0.00    -0.248 NA
ATOM     61  C   UNL A   1      42.728  26.859  29.787  1.00  0.00     0.031 C 
ATOM     62  C   UNL A   1      44.600  30.493  34.282  1.00  0.00     0.029 A 
ATOM     63  C   UNL A   1      43.836  29.918  33.278  1.00  0.00     0.049 A 
ATOM     64  H   UNL A   1      41.916  30.459  32.595  1.00  0.00     0.167 HD
ATOM     65  C   UNL A   1      43.347  28.271  31.485  1.00  0.00     0.074 A 
ATOM     66  C   UNL A   1      43.701  27.149  30.639  1.00  0.00     0.031 C 
ATOM     67  C   UNL A   1      44.164  28.803  32.428  1.00  0.00     0.031 A 
BRANCH  54  68
ATOM     68  C   UNL A   1      41.737  33.624  35.448  1.00  0.00    -0.014 A 
ATOM     69  C   UNL A   1      41.300  33.413  36.764  1.00  0.00     0.009 A 
ATOM     70  C   UNL A   1      42.321  34.856  35.113  1.00  0.00     0.009 A 
ATOM     71  C   UNL A   1      41.412  34.431  37.715  1.00  0.00     0.001 A 
ATOM     72  C   UNL A   1      42.456  35.860  36.071  1.00  0.00     0.001 A 
ATOM     73  C   UNL A   1      41.992  35.652  37.369  1.00  0.00     0.000 A 
ENDBRANCH  54  68
BRANCH  55  74
ATOM     74  C   UNL A   1      40.175  26.750  28.364  1.00  0.00    -0.014 A 
ATOM     75  C   UNL A   1      39.402  25.610  28.629  1.00  0.00     0.009 A 
ATOM     76  C   UNL A   1      40.739  26.908  27.087  1.00  0.00     0.009 A 
ATOM     77  C   UNL A   1      39.209  24.643  27.640  1.00  0.00     0.001 A 
ATOM     78  C   UNL A   1      40.522  25.952  26.093  1.00  0.00     0.001 A 
ATOM     79  C   UNL A   1      39.764  24.817  26.373  1.00  0.00     0.000 A 
ENDBRANCH  55  74
BRANCH  67  80
ATOM     80  C   UNL A   1      45.498  28.146  32.624  1.00  0.00    -0.014 A 
ATOM     81  C   UNL A   1      46.638  28.584  31.931  1.00  0.00     0.009 A 
ATOM     82  C   UNL A   1      45.622  27.096  33.548  1.00  0.00     0.009 A 
ATOM     83  C   UNL A   1      47.870  27.964  32.144  1.00  0.00     0.001 A 
ATOM     84  C   UNL A   1      46.860  26.496  33.776  1.00  0.00     0.001 A 
ATOM     85  C   UNL A   1      47.982  26.926  33.068  1.00  0.00     0.000 A 
ENDBRANCH  67  80
ENDBRANCH  41  42
ENDBRANCH  34  36
ENDBRANCH  33  34
ENDBRANCH  32  33
ENDBRANCH  31  32
ENDBRANCH  30  31
ENDBRANCH  29  30
ENDBRANCH   1  29
TORSDOF 20
ENDMDL
