MODEL 1
REMARK VINA RESULT:     -10.4      0.000      0.000
REMARK SMILES Cc1cc(C(=O)NC[C@H]2CC[C@@H](C(=O)OCCOCCOCCOC(=O)c3ccc(-c4c5nc(c(-c6ccccc6)c6ccc([nH]6)c(-c6ccccc6)c6nc(c(-c7ccccc7)c7ccc4[nH]7)C=C6)C=C5)cc3)O2)c(C)s1
REMARK SMILES IDX 19 1 18 2 17 3 16 4 15 5 13 6 14 7 12 8 9 9 10 10 75 11
REMARK SMILES IDX 11 12 8 13 7 14 5 15 6 16 4 18 1 19 2 20 3 21 78 22 76 23
REMARK SMILES IDX 77 24 20 25 21 26 22 27 23 28 24 29 25 30 26 31 27 32 28 33
REMARK SMILES IDX 74 34 29 35 73 36 30 37 31 38 32 39 67 40 33 41 72 42 66 43
REMARK SMILES IDX 68 44 34 45 71 46 65 47 64 48 35 50 57 51 42 52 56 53 43 54
REMARK SMILES IDX 46 55 55 56 69 57 44 58 45 59 54 61 70 62 47 63 36 64 37 65
REMARK SMILES IDX 41 66 38 67 40 68 39 69 58 70 59 71 63 72 60 73 62 74 61 75
REMARK SMILES IDX 48 76 49 77 53 78 50 79 52 80 51 81
REMARK H PARENT 7 17 68 49 46 60
REMARK Flexibility Score: inf
ROOT
ATOM      1  C   UNL A   1      32.907  36.618  31.804  1.00  0.00     0.188 C 
ENDROOT
BRANCH   1   2
ATOM      2  O   UNL A   1      32.989  36.595  30.383  1.00  0.00    -0.376 OA
BRANCH   2   3
ATOM      3  C   UNL A   1      32.663  35.390  29.697  1.00  0.00     0.202 C 
BRANCH   3   4
ATOM      4  C   UNL A   1      33.728  34.808  28.760  1.00  0.00     0.261 C 
BRANCH   4   5
ATOM      5  O   UNL A   1      33.318  33.590  28.112  1.00  0.00    -0.461 OA
BRANCH   5   6
ATOM      6  C   UNL A   1      34.294  32.708  27.770  1.00  0.00     0.335 C 
ATOM      7  O   UNL A   1      35.474  32.998  27.605  1.00  0.00    -0.249 OA
BRANCH   6   8
ATOM      8  C   UNL A   1      33.771  31.262  27.655  1.00  0.00     0.228 C 
ATOM      9  C   UNL A   1      32.954  29.536  26.304  1.00  0.00     0.138 C 
ATOM     10  C   UNL A   1      34.176  29.018  27.054  1.00  0.00     0.037 C 
ATOM     11  O   UNL A   1      32.887  30.942  26.582  1.00  0.00    -0.361 OA
ATOM     12  C   UNL A   1      34.904  30.276  27.480  1.00  0.00     0.047 C 
BRANCH   9  13
ATOM     13  C   UNL A   1      32.995  29.274  24.786  1.00  0.00     0.148 C 
BRANCH  13  14
ATOM     14  N   UNL A   1      31.688  29.419  24.157  1.00  0.00    -0.349 N 
ATOM     15  C   UNL A   1      30.657  28.551  23.883  1.00  0.00     0.252 C 
ATOM     16  O   UNL A   1      29.648  29.082  23.414  1.00  0.00    -0.269 OA
ATOM     17  H   UNL A   1      31.502  30.339  23.864  1.00  0.00     0.163 HD
BRANCH  15  18
ATOM     18  C   UNL A   1      30.726  27.101  24.145  1.00  0.00     0.053 A 
ATOM     19  C   UNL A   1      30.488  24.066  26.436  1.00  0.00     0.056 C 
ATOM     20  C   UNL A   1      30.650  25.053  25.335  1.00  0.00     0.003 A 
ATOM     21  C   UNL A   1      30.495  26.419  25.389  1.00  0.00     0.029 A 
ATOM     22  S   UNL A   1      31.117  24.551  23.786  1.00  0.00    -0.145 S 
ATOM     23  C   UNL A   1      31.127  26.164  23.186  1.00  0.00     0.014 A 
ATOM     24  C   UNL A   1      31.580  26.333  21.765  1.00  0.00     0.057 C 
ENDBRANCH  15  18
ENDBRANCH  13  14
ENDBRANCH   9  13
ENDBRANCH   6   8
ENDBRANCH   5   6
ENDBRANCH   4   5
ENDBRANCH   3   4
ENDBRANCH   2   3
ENDBRANCH   1   2
BRANCH   1  25
ATOM     25  C   UNL A   1      34.008  37.311  32.625  1.00  0.00     0.188 C 
BRANCH  25  26
ATOM     26  O   UNL A   1      35.059  36.462  33.032  1.00  0.00    -0.376 OA
BRANCH  26  27
ATOM     27  C   UNL A   1      34.719  35.090  33.155  1.00  0.00     0.202 C 
BRANCH  27  28
ATOM     28  C   UNL A   1      35.917  34.247  33.593  1.00  0.00     0.261 C 
BRANCH  28  29
ATOM     29  O   UNL A   1      35.708  32.827  33.496  1.00  0.00    -0.460 OA
BRANCH  29  30
ATOM     30  C   UNL A   1      35.299  32.344  32.301  1.00  0.00     0.338 C 
ATOM     31  O   UNL A   1      34.256  32.579  31.718  1.00  0.00    -0.246 OA
BRANCH  30  32
ATOM     32  C   UNL A   1      36.447  31.626  31.713  1.00  0.00     0.060 A 
ATOM     33  C   UNL A   1      37.299  30.885  32.544  1.00  0.00     0.016 A 
ATOM     34  C   UNL A   1      36.650  31.661  30.333  1.00  0.00     0.016 A 
ATOM     35  C   UNL A   1      38.371  30.182  31.991  1.00  0.00     0.010 A 
ATOM     36  C   UNL A   1      37.732  30.977  29.785  1.00  0.00     0.010 A 
ATOM     37  C   UNL A   1      38.611  30.255  30.613  1.00  0.00    -0.014 A 
BRANCH  37  38
ATOM     38  C   UNL A   1      39.878  29.750  30.037  1.00  0.00     0.031 A 
ATOM     39  C   UNL A   1      41.024  30.714  29.903  1.00  0.00     0.074 A 
ATOM     40  C   UNL A   1      40.001  28.484  29.603  1.00  0.00     0.049 A 
ATOM     41  N   UNL A   1      42.184  30.551  29.323  1.00  0.00    -0.248 NA
ATOM     42  C   UNL A   1      40.826  32.047  30.497  1.00  0.00     0.031 C 
ATOM     43  C   UNL A   1      38.981  27.444  29.713  1.00  0.00     0.029 A 
ATOM     44  N   UNL A   1      41.044  27.869  28.957  1.00  0.00    -0.354 N 
ATOM     45  C   UNL A   1      42.847  31.763  29.469  1.00  0.00     0.074 A 
ATOM     46  C   UNL A   1      41.953  32.659  30.168  1.00  0.00     0.031 C 
ATOM     47  C   UNL A   1      39.444  26.320  29.139  1.00  0.00     0.029 A 
ATOM     48  C   UNL A   1      40.773  26.575  28.585  1.00  0.00     0.049 A 
ATOM     49  H   UNL A   1      41.905  28.312  28.778  1.00  0.00     0.167 HD
ATOM     50  C   UNL A   1      44.091  32.101  29.058  1.00  0.00     0.031 A 
ATOM     51  C   UNL A   1      41.504  25.710  27.854  1.00  0.00     0.031 A 
ATOM     52  C   UNL A   1      44.970  31.218  28.339  1.00  0.00     0.049 A 
ATOM     53  C   UNL A   1      42.850  26.140  27.327  1.00  0.00     0.074 A 
ATOM     54  C   UNL A   1      46.255  31.461  27.888  1.00  0.00     0.029 A 
ATOM     55  N   UNL A   1      44.647  29.926  27.958  1.00  0.00    -0.354 N 
ATOM     56  N   UNL A   1      43.481  27.277  27.494  1.00  0.00    -0.248 NA
ATOM     57  C   UNL A   1      43.584  25.161  26.511  1.00  0.00     0.031 C 
ATOM     58  C   UNL A   1      46.687  30.336  27.181  1.00  0.00     0.029 A 
ATOM     59  C   UNL A   1      45.697  29.368  27.250  1.00  0.00     0.049 A 
ATOM     60  H   UNL A   1      43.797  29.472  28.160  1.00  0.00     0.167 HD
ATOM     61  C   UNL A   1      44.697  27.138  26.833  1.00  0.00     0.074 A 
ATOM     62  C   UNL A   1      44.720  25.802  26.275  1.00  0.00     0.031 C 
ATOM     63  C   UNL A   1      45.706  28.035  26.704  1.00  0.00     0.031 A 
BRANCH  50  64
ATOM     64  C   UNL A   1      44.554  33.501  29.343  1.00  0.00    -0.014 A 
ATOM     65  C   UNL A   1      45.233  33.819  30.531  1.00  0.00     0.009 A 
ATOM     66  C   UNL A   1      44.325  34.515  28.400  1.00  0.00     0.009 A 
ATOM     67  C   UNL A   1      45.640  35.130  30.783  1.00  0.00     0.001 A 
ATOM     68  C   UNL A   1      44.760  35.819  28.641  1.00  0.00     0.001 A 
ATOM     69  C   UNL A   1      45.408  36.128  29.835  1.00  0.00     0.000 A 
ENDBRANCH  50  64
BRANCH  51  70
ATOM     70  C   UNL A   1      40.976  24.353  27.549  1.00  0.00    -0.014 A 
ATOM     71  C   UNL A   1      39.921  24.186  26.639  1.00  0.00     0.009 A 
ATOM     72  C   UNL A   1      41.503  23.220  28.189  1.00  0.00     0.009 A 
ATOM     73  C   UNL A   1      39.388  22.917  26.395  1.00  0.00     0.001 A 
ATOM     74  C   UNL A   1      40.989  21.949  27.920  1.00  0.00     0.001 A 
ATOM     75  C   UNL A   1      39.925  21.800  27.032  1.00  0.00     0.000 A 
ENDBRANCH  51  70
BRANCH  63  76
ATOM     76  C   UNL A   1      46.941  27.589  25.971  1.00  0.00    -0.014 A 
ATOM     77  C   UNL A   1      47.924  26.807  26.597  1.00  0.00     0.009 A 
ATOM     78  C   UNL A   1      47.094  27.912  24.613  1.00  0.00     0.009 A 
ATOM     79  C   UNL A   1      49.050  26.385  25.884  1.00  0.00     0.001 A 
ATOM     80  C   UNL A   1      48.202  27.462  23.895  1.00  0.00     0.001 A 
ATOM     81  C   UNL A   1      49.184  26.707  24.534  1.00  0.00     0.000 A 
ENDBRANCH  63  76
ENDBRANCH  37  38
ENDBRANCH  30  32
ENDBRANCH  29  30
ENDBRANCH  28  29
ENDBRANCH  27  28
ENDBRANCH  26  27
ENDBRANCH  25  26
ENDBRANCH   1  25
TORSDOF 20
ENDMDL
MODEL 2
REMARK VINA RESULT:      -9.7      4.047      9.186
REMARK SMILES Cc1cc(C(=O)NC[C@H]2CC[C@@H](C(=O)OCCOCCOCCOC(=O)c3ccc(-c4c5nc(c(-c6ccccc6)c6ccc([nH]6)c(-c6ccccc6)c6nc(c(-c7ccccc7)c7ccc4[nH]7)C=C6)C=C5)cc3)O2)c(C)s1
REMARK SMILES IDX 19 1 18 2 17 3 16 4 15 5 13 6 14 7 12 8 9 9 10 10 75 11
REMARK SMILES IDX 11 12 8 13 7 14 5 15 6 16 4 18 1 19 2 20 3 21 78 22 76 23
REMARK SMILES IDX 77 24 20 25 21 26 22 27 23 28 24 29 25 30 26 31 27 32 28 33
REMARK SMILES IDX 74 34 29 35 73 36 30 37 31 38 32 39 67 40 33 41 72 42 66 43
REMARK SMILES IDX 68 44 34 45 71 46 65 47 64 48 35 50 57 51 42 52 56 53 43 54
REMARK SMILES IDX 46 55 55 56 69 57 44 58 45 59 54 61 70 62 47 63 36 64 37 65
REMARK SMILES IDX 41 66 38 67 40 68 39 69 58 70 59 71 63 72 60 73 62 74 61 75
REMARK SMILES IDX 48 76 49 77 53 78 50 79 52 80 51 81
REMARK H PARENT 7 17 68 49 46 60
REMARK Flexibility Score: inf
ROOT
ATOM      1  C   UNL A   1      35.461  21.839  25.209  1.00  0.00     0.188 C 
ENDROOT
BRANCH   1   2
ATOM      2  O   UNL A   1      34.253  22.528  25.513  1.00  0.00    -0.376 OA
BRANCH   2   3
ATOM      3  C   UNL A   1      34.098  23.101  26.808  1.00  0.00     0.202 C 
BRANCH   3   4
ATOM      4  C   UNL A   1      32.820  22.752  27.581  1.00  0.00     0.261 C 
BRANCH   4   5
ATOM      5  O   UNL A   1      31.826  23.791  27.543  1.00  0.00    -0.461 OA
BRANCH   5   6
ATOM      6  C   UNL A   1      30.665  23.517  26.892  1.00  0.00     0.335 C 
ATOM      7  O   UNL A   1      29.679  22.998  27.404  1.00  0.00    -0.249 OA
BRANCH   6   8
ATOM      8  C   UNL A   1      30.690  23.977  25.420  1.00  0.00     0.228 C 
ATOM      9  C   UNL A   1      31.897  24.874  23.628  1.00  0.00     0.138 C 
ATOM     10  C   UNL A   1      31.307  23.540  23.186  1.00  0.00     0.037 C 
ATOM     11  O   UNL A   1      31.632  24.976  25.035  1.00  0.00    -0.361 OA
ATOM     12  C   UNL A   1      30.999  22.828  24.486  1.00  0.00     0.047 C 
BRANCH   9  13
ATOM     13  C   UNL A   1      33.402  25.019  23.337  1.00  0.00     0.148 C 
BRANCH  13  14
ATOM     14  N   UNL A   1      33.690  26.094  22.394  1.00  0.00    -0.349 N 
ATOM     15  C   UNL A   1      33.717  27.465  22.486  1.00  0.00     0.252 C 
ATOM     16  O   UNL A   1      34.108  28.042  21.469  1.00  0.00    -0.269 OA
ATOM     17  H   UNL A   1      33.913  25.766  21.493  1.00  0.00     0.163 HD
BRANCH  15  18
ATOM     18  C   UNL A   1      33.336  28.204  23.704  1.00  0.00     0.053 A 
ATOM     19  C   UNL A   1      34.016  29.496  27.224  1.00  0.00     0.056 C 
ATOM     20  C   UNL A   1      33.489  29.123  25.883  1.00  0.00     0.003 A 
ATOM     21  C   UNL A   1      34.117  28.401  24.895  1.00  0.00     0.029 A 
ATOM     22  S   UNL A   1      31.919  29.556  25.421  1.00  0.00    -0.145 S 
ATOM     23  C   UNL A   1      32.069  28.765  23.900  1.00  0.00     0.014 A 
ATOM     24  C   UNL A   1      30.843  28.767  23.035  1.00  0.00     0.057 C 
ENDBRANCH  15  18
ENDBRANCH  13  14
ENDBRANCH   9  13
ENDBRANCH   6   8
ENDBRANCH   5   6
ENDBRANCH   4   5
ENDBRANCH   3   4
ENDBRANCH   2   3
ENDBRANCH   1   2
BRANCH   1  25
ATOM     25  C   UNL A   1      35.466  20.304  25.115  1.00  0.00     0.188 C 
BRANCH  25  26
ATOM     26  O   UNL A   1      36.678  19.747  24.650  1.00  0.00    -0.376 OA
BRANCH  26  27
ATOM     27  C   UNL A   1      37.856  20.312  25.202  1.00  0.00     0.202 C 
BRANCH  27  28
ATOM     28  C   UNL A   1      39.007  19.307  25.225  1.00  0.00     0.261 C 
BRANCH  28  29
ATOM     29  O   UNL A   1      39.845  19.392  26.391  1.00  0.00    -0.460 OA
BRANCH  29  30
ATOM     30  C   UNL A   1      41.176  19.515  26.186  1.00  0.00     0.338 C 
ATOM     31  O   UNL A   1      41.915  18.748  25.597  1.00  0.00    -0.246 OA
BRANCH  30  32
ATOM     32  C   UNL A   1      41.555  20.871  26.630  1.00  0.00     0.060 A 
ATOM     33  C   UNL A   1      41.545  21.929  25.711  1.00  0.00     0.016 A 
ATOM     34  C   UNL A   1      41.881  21.093  27.969  1.00  0.00     0.016 A 
ATOM     35  C   UNL A   1      41.876  23.219  26.130  1.00  0.00     0.010 A 
ATOM     36  C   UNL A   1      42.232  22.376  28.381  1.00  0.00     0.010 A 
ATOM     37  C   UNL A   1      42.255  23.439  27.460  1.00  0.00    -0.014 A 
BRANCH  37  38
ATOM     38  C   UNL A   1      42.866  24.724  27.871  1.00  0.00     0.031 A 
ATOM     39  C   UNL A   1      41.949  25.829  28.318  1.00  0.00     0.074 A 
ATOM     40  C   UNL A   1      44.193  24.925  27.809  1.00  0.00     0.049 A 
ATOM     41  N   UNL A   1      42.227  27.073  28.606  1.00  0.00    -0.248 NA
ATOM     42  C   UNL A   1      40.524  25.479  28.446  1.00  0.00     0.031 C 
ATOM     43  C   UNL A   1      45.189  23.924  27.433  1.00  0.00     0.029 A 
ATOM     44  N   UNL A   1      44.927  26.061  28.046  1.00  0.00    -0.354 N 
ATOM     45  C   UNL A   1      41.011  27.659  28.935  1.00  0.00     0.074 A 
ATOM     46  C   UNL A   1      39.992  26.643  28.786  1.00  0.00     0.031 C 
ATOM     47  C   UNL A   1      46.406  24.497  27.449  1.00  0.00     0.029 A 
ATOM     48  C   UNL A   1      46.269  25.911  27.795  1.00  0.00     0.049 A 
ATOM     49  H   UNL A   1      44.529  26.904  28.366  1.00  0.00     0.167 HD
ATOM     50  C   UNL A   1      40.763  28.930  29.326  1.00  0.00     0.031 A 
ATOM     51  C   UNL A   1      47.263  26.820  27.814  1.00  0.00     0.031 A 
ATOM     52  C   UNL A   1      41.773  29.947  29.448  1.00  0.00     0.049 A 
ATOM     53  C   UNL A   1      46.949  28.254  28.164  1.00  0.00     0.074 A 
ATOM     54  C   UNL A   1      41.626  31.263  29.849  1.00  0.00     0.029 A 
ATOM     55  N   UNL A   1      43.115  29.761  29.158  1.00  0.00    -0.354 N 
ATOM     56  N   UNL A   1      45.802  28.792  28.501  1.00  0.00    -0.248 NA
ATOM     57  C   UNL A   1      48.072  29.202  28.136  1.00  0.00     0.031 C 
ATOM     58  C   UNL A   1      42.870  31.890  29.743  1.00  0.00     0.029 A 
ATOM     59  C   UNL A   1      43.804  30.947  29.342  1.00  0.00     0.049 A 
ATOM     60  H   UNL A   1      43.518  28.912  28.864  1.00  0.00     0.167 HD
ATOM     61  C   UNL A   1      46.071  30.132  28.757  1.00  0.00     0.074 A 
ATOM     62  C   UNL A   1      47.491  30.321  28.550  1.00  0.00     0.031 C 
ATOM     63  C   UNL A   1      45.219  31.118  29.135  1.00  0.00     0.031 A 
BRANCH  50  64
ATOM     64  C   UNL A   1      39.334  29.297  29.610  1.00  0.00    -0.014 A 
ATOM     65  C   UNL A   1      38.732  28.990  30.841  1.00  0.00     0.009 A 
ATOM     66  C   UNL A   1      38.585  29.979  28.639  1.00  0.00     0.009 A 
ATOM     67  C   UNL A   1      37.397  29.326  31.079  1.00  0.00     0.001 A 
ATOM     68  C   UNL A   1      37.261  30.342  28.891  1.00  0.00     0.001 A 
ATOM     69  C   UNL A   1      36.666  30.006  30.105  1.00  0.00     0.000 A 
ENDBRANCH  50  64
BRANCH  51  70
ATOM     70  C   UNL A   1      48.653  26.419  27.468  1.00  0.00    -0.014 A 
ATOM     71  C   UNL A   1      49.534  25.969  28.463  1.00  0.00     0.009 A 
ATOM     72  C   UNL A   1      49.116  26.511  26.146  1.00  0.00     0.009 A 
ATOM     73  C   UNL A   1      50.856  25.645  28.146  1.00  0.00     0.001 A 
ATOM     74  C   UNL A   1      50.429  26.157  25.827  1.00  0.00     0.001 A 
ATOM     75  C   UNL A   1      51.302  25.735  26.828  1.00  0.00     0.000 A 
ENDBRANCH  51  70
BRANCH  63  76
ATOM     76  C   UNL A   1      45.804  32.479  29.395  1.00  0.00    -0.014 A 
ATOM     77  C   UNL A   1      45.681  33.520  28.463  1.00  0.00     0.009 A 
ATOM     78  C   UNL A   1      46.439  32.735  30.621  1.00  0.00     0.009 A 
ATOM     79  C   UNL A   1      46.212  34.783  28.742  1.00  0.00     0.001 A 
ATOM     80  C   UNL A   1      46.939  34.005  30.910  1.00  0.00     0.001 A 
ATOM     81  C   UNL A   1      46.834  35.025  29.966  1.00  0.00     0.000 A 
ENDBRANCH  63  76
ENDBRANCH  37  38
ENDBRANCH  30  32
ENDBRANCH  29  30
ENDBRANCH  28  29
ENDBRANCH  27  28
ENDBRANCH  26  27
ENDBRANCH  25  26
ENDBRANCH   1  25
TORSDOF 20
ENDMDL
MODEL 3
REMARK VINA RESULT:      -9.6      4.720      8.266
REMARK SMILES Cc1cc(C(=O)NC[C@H]2CC[C@@H](C(=O)OCCOCCOCCOC(=O)c3ccc(-c4c5nc(c(-c6ccccc6)c6ccc([nH]6)c(-c6ccccc6)c6nc(c(-c7ccccc7)c7ccc4[nH]7)C=C6)C=C5)cc3)O2)c(C)s1
REMARK SMILES IDX 19 1 18 2 17 3 16 4 15 5 13 6 14 7 12 8 9 9 10 10 75 11
REMARK SMILES IDX 11 12 8 13 7 14 5 15 6 16 4 18 1 19 2 20 3 21 78 22 76 23
REMARK SMILES IDX 77 24 20 25 21 26 22 27 23 28 24 29 25 30 26 31 27 32 28 33
REMARK SMILES IDX 74 34 29 35 73 36 30 37 31 38 32 39 67 40 33 41 72 42 66 43
REMARK SMILES IDX 68 44 34 45 71 46 65 47 64 48 35 50 57 51 42 52 56 53 43 54
REMARK SMILES IDX 46 55 55 56 69 57 44 58 45 59 54 61 70 62 47 63 36 64 37 65
REMARK SMILES IDX 41 66 38 67 40 68 39 69 58 70 59 71 63 72 60 73 62 74 61 75
REMARK SMILES IDX 48 76 49 77 53 78 50 79 52 80 51 81
REMARK H PARENT 7 17 68 49 46 60
REMARK Flexibility Score: inf
ROOT
ATOM      1  C   UNL A   1      35.293  35.015  33.120  1.00  0.00     0.188 C 
ENDROOT
BRANCH   1   2
ATOM      2  O   UNL A   1      35.120  33.791  33.824  1.00  0.00    -0.376 OA
BRANCH   2   3
ATOM      3  C   UNL A   1      36.273  33.105  34.302  1.00  0.00     0.202 C 
BRANCH   3   4
ATOM      4  C   UNL A   1      36.884  33.596  35.620  1.00  0.00     0.261 C 
BRANCH   4   5
ATOM      5  O   UNL A   1      38.301  33.364  35.718  1.00  0.00    -0.461 OA
BRANCH   5   6
ATOM      6  C   UNL A   1      38.705  32.097  36.003  1.00  0.00     0.335 C 
ATOM      7  O   UNL A   1      38.373  31.463  36.998  1.00  0.00    -0.249 OA
BRANCH   6   8
ATOM      8  C   UNL A   1      39.606  31.502  34.902  1.00  0.00     0.228 C 
ATOM      9  C   UNL A   1      41.248  29.953  34.286  1.00  0.00     0.138 C 
ATOM     10  C   UNL A   1      40.037  29.751  33.383  1.00  0.00     0.037 C 
ATOM     11  O   UNL A   1      40.840  30.899  35.286  1.00  0.00    -0.361 OA
ATOM     12  C   UNL A   1      38.900  30.400  34.144  1.00  0.00     0.047 C 
BRANCH   9  13
ATOM     13  C   UNL A   1      41.770  28.656  34.932  1.00  0.00     0.148 C 
BRANCH  13  14
ATOM     14  N   UNL A   1      42.407  27.767  33.967  1.00  0.00    -0.349 N 
ATOM     15  C   UNL A   1      43.284  26.714  34.071  1.00  0.00     0.252 C 
ATOM     16  O   UNL A   1      43.525  26.138  33.008  1.00  0.00    -0.269 OA
ATOM     17  H   UNL A   1      42.153  27.964  33.037  1.00  0.00     0.163 HD
BRANCH  15  18
ATOM     18  C   UNL A   1      43.882  26.279  35.347  1.00  0.00     0.053 A 
ATOM     19  C   UNL A   1      46.806  25.942  37.768  1.00  0.00     0.056 C 
ATOM     20  C   UNL A   1      45.514  25.927  37.029  1.00  0.00     0.003 A 
ATOM     21  C   UNL A   1      45.237  26.461  35.792  1.00  0.00     0.029 A 
ATOM     22  S   UNL A   1      44.155  25.155  37.681  1.00  0.00    -0.145 S 
ATOM     23  C   UNL A   1      43.194  25.520  36.300  1.00  0.00     0.014 A 
ATOM     24  C   UNL A   1      41.801  24.962  36.304  1.00  0.00     0.057 C 
ENDBRANCH  15  18
ENDBRANCH  13  14
ENDBRANCH   9  13
ENDBRANCH   6   8
ENDBRANCH   5   6
ENDBRANCH   4   5
ENDBRANCH   3   4
ENDBRANCH   2   3
ENDBRANCH   1   2
BRANCH   1  25
ATOM     25  C   UNL A   1      34.174  36.071  33.129  1.00  0.00     0.188 C 
BRANCH  25  26
ATOM     26  O   UNL A   1      33.182  35.884  32.143  1.00  0.00    -0.376 OA
BRANCH  26  27
ATOM     27  C   UNL A   1      33.155  36.863  31.116  1.00  0.00     0.202 C 
BRANCH  27  28
ATOM     28  C   UNL A   1      33.118  36.225  29.728  1.00  0.00     0.261 C 
BRANCH  28  29
ATOM     29  O   UNL A   1      32.659  34.862  29.714  1.00  0.00    -0.460 OA
BRANCH  29  30
ATOM     30  C   UNL A   1      33.131  34.063  28.730  1.00  0.00     0.338 C 
ATOM     31  O   UNL A   1      32.656  33.881  27.623  1.00  0.00    -0.246 OA
BRANCH  30  32
ATOM     32  C   UNL A   1      34.462  33.594  29.159  1.00  0.00     0.060 A 
ATOM     33  C   UNL A   1      35.596  33.955  28.418  1.00  0.00     0.016 A 
ATOM     34  C   UNL A   1      34.585  32.829  30.319  1.00  0.00     0.016 A 
ATOM     35  C   UNL A   1      36.862  33.538  28.833  1.00  0.00     0.010 A 
ATOM     36  C   UNL A   1      35.845  32.394  30.720  1.00  0.00     0.010 A 
ATOM     37  C   UNL A   1      36.986  32.726  29.967  1.00  0.00    -0.014 A 
BRANCH  37  38
ATOM     38  C   UNL A   1      38.266  32.049  30.278  1.00  0.00     0.031 A 
ATOM     39  C   UNL A   1      39.268  32.788  31.120  1.00  0.00     0.074 A 
ATOM     40  C   UNL A   1      38.554  30.829  29.792  1.00  0.00     0.049 A 
ATOM     41  N   UNL A   1      40.498  32.466  31.424  1.00  0.00    -0.248 NA
ATOM     42  C   UNL A   1      38.820  34.072  31.686  1.00  0.00     0.031 C 
ATOM     43  C   UNL A   1      37.655  29.994  29.000  1.00  0.00     0.029 A 
ATOM     44  N   UNL A   1      39.709  30.093  29.883  1.00  0.00    -0.354 N 
ATOM     45  C   UNL A   1      40.975  33.512  32.204  1.00  0.00     0.074 A 
ATOM     46  C   UNL A   1      39.914  34.489  32.304  1.00  0.00     0.031 C 
ATOM     47  C   UNL A   1      38.299  28.862  28.663  1.00  0.00     0.029 A 
ATOM     48  C   UNL A   1      39.666  28.914  29.179  1.00  0.00     0.049 A 
ATOM     49  H   UNL A   1      40.494  30.381  30.404  1.00  0.00     0.167 HD
ATOM     50  C   UNL A   1      42.189  33.647  32.785  1.00  0.00     0.031 A 
ATOM     51  C   UNL A   1      40.631  28.000  28.954  1.00  0.00     0.031 A 
ATOM     52  C   UNL A   1      43.252  32.687  32.663  1.00  0.00     0.049 A 
ATOM     53  C   UNL A   1      42.005  28.217  29.536  1.00  0.00     0.074 A 
ATOM     54  C   UNL A   1      44.516  32.726  33.223  1.00  0.00     0.029 A 
ATOM     55  N   UNL A   1      43.177  31.521  31.918  1.00  0.00    -0.354 N 
ATOM     56  N   UNL A   1      42.439  29.194  30.295  1.00  0.00    -0.248 NA
ATOM     57  C   UNL A   1      43.022  27.200  29.228  1.00  0.00     0.031 C 
ATOM     58  C   UNL A   1      45.228  31.612  32.768  1.00  0.00     0.029 A 
ATOM     59  C   UNL A   1      44.383  30.845  31.980  1.00  0.00     0.049 A 
ATOM     60  H   UNL A   1      42.384  31.218  31.419  1.00  0.00     0.167 HD
ATOM     61  C   UNL A   1      43.767  28.893  30.582  1.00  0.00     0.074 A 
ATOM     62  C   UNL A   1      44.061  27.636  29.927  1.00  0.00     0.031 C 
ATOM     63  C   UNL A   1      44.660  29.592  31.326  1.00  0.00     0.031 A 
BRANCH  50  64
ATOM     64  C   UNL A   1      42.440  34.902  33.572  1.00  0.00    -0.014 A 
ATOM     65  C   UNL A   1      43.036  36.028  32.981  1.00  0.00     0.009 A 
ATOM     66  C   UNL A   1      42.055  34.967  34.920  1.00  0.00     0.009 A 
ATOM     67  C   UNL A   1      43.274  37.179  33.735  1.00  0.00     0.001 A 
ATOM     68  C   UNL A   1      42.265  36.129  35.663  1.00  0.00     0.001 A 
ATOM     69  C   UNL A   1      42.883  37.230  35.073  1.00  0.00     0.000 A 
ENDBRANCH  50  64
BRANCH  51  70
ATOM     70  C   UNL A   1      40.349  26.802  28.119  1.00  0.00    -0.014 A 
ATOM     71  C   UNL A   1      40.773  26.748  26.782  1.00  0.00     0.009 A 
ATOM     72  C   UNL A   1      39.628  25.718  28.644  1.00  0.00     0.009 A 
ATOM     73  C   UNL A   1      40.460  25.647  25.982  1.00  0.00     0.001 A 
ATOM     74  C   UNL A   1      39.343  24.604  27.850  1.00  0.00     0.001 A 
ATOM     75  C   UNL A   1      39.749  24.574  26.517  1.00  0.00     0.000 A 
ENDBRANCH  51  70
BRANCH  63  76
ATOM     76  C   UNL A   1      46.027  28.993  31.512  1.00  0.00    -0.014 A 
ATOM     77  C   UNL A   1      47.083  29.288  30.637  1.00  0.00     0.009 A 
ATOM     78  C   UNL A   1      46.273  28.164  32.618  1.00  0.00     0.009 A 
ATOM     79  C   UNL A   1      48.350  28.738  30.848  1.00  0.00     0.001 A 
ATOM     80  C   UNL A   1      47.547  27.642  32.845  1.00  0.00     0.001 A 
ATOM     81  C   UNL A   1      48.582  27.922  31.955  1.00  0.00     0.000 A 
ENDBRANCH  63  76
ENDBRANCH  37  38
ENDBRANCH  30  32
ENDBRANCH  29  30
ENDBRANCH  28  29
ENDBRANCH  27  28
ENDBRANCH  26  27
ENDBRANCH  25  26
ENDBRANCH   1  25
TORSDOF 20
ENDMDL
