MODEL 1
REMARK VINA RESULT:      -9.7      0.000      0.000
REMARK SMILES O=C(OCCOCCOCCOC(=O)c1cc(S(=O)(=O)C/C(Cl)=C/Cl)ccc1Cl)c1ccc(-c2c3nc(c(-c4ccccc4)c4ccc([nH]4)c(-c4ccccc4)c4nc(c(-c5ccccc5)c5ccc2[nH]5)C=C4)C=C3)cc1
REMARK SMILES IDX 8 1 7 2 6 3 5 4 4 5 3 6 2 7 1 8 30 9 31 10 77 11 32 12 76 13
REMARK SMILES IDX 33 14 34 15 35 16 70 17 36 18 75 19 69 20 71 21 37 22 74 23
REMARK SMILES IDX 68 24 67 25 38 27 60 28 45 29 59 30 46 31 49 32 58 33 72 34
REMARK SMILES IDX 47 35 48 36 57 38 73 39 50 40 39 41 40 42 44 43 41 44 43 45
REMARK SMILES IDX 42 46 61 47 62 48 66 49 63 50 65 51 64 52 51 53 52 54 56 55
REMARK SMILES IDX 53 56 55 57 54 58 9 59 10 60 11 61 12 62 13 63 14 64 15 65
REMARK SMILES IDX 16 66 28 67 17 68 27 69 29 70 26 71 18 72 19 73 20 74 21 75
REMARK SMILES IDX 22 76 23 77 24 78 25 79
REMARK H PARENT 71 26 49 37
REMARK Flexibility Score: inf
ROOT
ATOM      1  C   UNL A   1      40.358  21.785  26.938  1.00  0.00     0.188 C 
ENDROOT
BRANCH   1   2
ATOM      2  C   UNL A   1      41.507  21.718  25.931  1.00  0.00     0.188 C 
BRANCH   2   3
ATOM      3  O   UNL A   1      42.263  20.511  26.106  1.00  0.00    -0.376 OA
BRANCH   3   4
ATOM      4  C   UNL A   1      43.641  20.641  25.743  1.00  0.00     0.202 C 
BRANCH   4   5
ATOM      5  C   UNL A   1      43.959  21.917  24.955  1.00  0.00     0.261 C 
BRANCH   5   6
ATOM      6  O   UNL A   1      44.741  22.841  25.729  1.00  0.00    -0.460 OA
BRANCH   6   7
ATOM      7  C   UNL A   1      44.771  24.195  25.638  1.00  0.00     0.338 C 
ATOM      8  O   UNL A   1      45.399  24.702  24.711  1.00  0.00    -0.246 OA
BRANCH   7   9
ATOM      9  C   UNL A   1      44.032  25.109  26.566  1.00  0.00     0.060 A 
ATOM     10  C   UNL A   1      44.168  26.497  26.619  1.00  0.00     0.016 A 
ATOM     11  C   UNL A   1      43.092  24.514  27.426  1.00  0.00     0.016 A 
ATOM     12  C   UNL A   1      43.506  27.255  27.580  1.00  0.00     0.010 A 
ATOM     13  C   UNL A   1      42.375  25.277  28.354  1.00  0.00     0.010 A 
ATOM     14  C   UNL A   1      42.615  26.650  28.464  1.00  0.00    -0.014 A 
BRANCH  14  15
ATOM     15  C   UNL A   1      42.038  27.456  29.558  1.00  0.00     0.031 A 
ATOM     16  C   UNL A   1      42.775  27.539  30.862  1.00  0.00     0.074 A 
ATOM     17  C   UNL A   1      40.940  28.203  29.345  1.00  0.00     0.049 A 
ATOM     18  N   UNL A   1      42.473  28.214  31.940  1.00  0.00    -0.248 NA
ATOM     19  C   UNL A   1      44.036  26.784  30.954  1.00  0.00     0.031 C 
ATOM     20  C   UNL A   1      40.213  28.287  28.077  1.00  0.00     0.029 A 
ATOM     21  N   UNL A   1      40.267  29.060  30.174  1.00  0.00    -0.354 N 
ATOM     22  C   UNL A   1      43.499  27.956  32.839  1.00  0.00     0.074 A 
ATOM     23  C   UNL A   1      44.422  27.052  32.192  1.00  0.00     0.031 C 
ATOM     24  C   UNL A   1      39.211  29.171  28.210  1.00  0.00     0.029 A 
ATOM     25  C   UNL A   1      39.185  29.661  29.581  1.00  0.00     0.049 A 
ATOM     26  H   UNL A   1      40.534  29.230  31.107  1.00  0.00     0.167 HD
ATOM     27  C   UNL A   1      43.660  28.437  34.093  1.00  0.00     0.031 A 
ATOM     28  C   UNL A   1      38.264  30.500  30.089  1.00  0.00     0.031 A 
ATOM     29  C   UNL A   1      42.730  29.319  34.738  1.00  0.00     0.049 A 
ATOM     30  C   UNL A   1      38.401  30.930  31.520  1.00  0.00     0.074 A 
ATOM     31  C   UNL A   1      42.761  29.821  36.025  1.00  0.00     0.029 A 
ATOM     32  N   UNL A   1      41.590  29.830  34.132  1.00  0.00    -0.354 N 
ATOM     33  N   UNL A   1      39.353  30.646  32.375  1.00  0.00    -0.248 NA
ATOM     34  C   UNL A   1      37.343  31.797  32.055  1.00  0.00     0.031 C 
ATOM     35  C   UNL A   1      41.616  30.605  36.212  1.00  0.00     0.029 A 
ATOM     36  C   UNL A   1      40.898  30.627  35.027  1.00  0.00     0.049 A 
ATOM     37  H   UNL A   1      41.315  29.651  33.204  1.00  0.00     0.167 HD
ATOM     38  C   UNL A   1      39.018  31.308  33.547  1.00  0.00     0.074 A 
ATOM     39  C   UNL A   1      37.784  32.024  33.285  1.00  0.00     0.031 C 
ATOM     40  C   UNL A   1      39.671  31.322  34.735  1.00  0.00     0.031 A 
BRANCH  27  41
ATOM     41  C   UNL A   1      44.861  27.951  34.851  1.00  0.00    -0.014 A 
ATOM     42  C   UNL A   1      46.070  28.665  34.839  1.00  0.00     0.009 A 
ATOM     43  C   UNL A   1      44.793  26.738  35.552  1.00  0.00     0.009 A 
ATOM     44  C   UNL A   1      47.198  28.153  35.483  1.00  0.00     0.001 A 
ATOM     45  C   UNL A   1      45.916  26.238  36.212  1.00  0.00     0.001 A 
ATOM     46  C   UNL A   1      47.120  26.940  36.169  1.00  0.00     0.000 A 
ENDBRANCH  27  41
BRANCH  28  47
ATOM     47  C   UNL A   1      37.120  30.943  29.250  1.00  0.00    -0.014 A 
ATOM     48  C   UNL A   1      36.097  30.054  28.891  1.00  0.00     0.009 A 
ATOM     49  C   UNL A   1      37.047  32.275  28.808  1.00  0.00     0.009 A 
ATOM     50  C   UNL A   1      35.033  30.487  28.093  1.00  0.00     0.001 A 
ATOM     51  C   UNL A   1      35.970  32.711  28.033  1.00  0.00     0.001 A 
ATOM     52  C   UNL A   1      34.968  31.814  27.670  1.00  0.00     0.000 A 
ENDBRANCH  28  47
BRANCH  40  53
ATOM     53  C   UNL A   1      39.067  32.152  35.827  1.00  0.00    -0.014 A 
ATOM     54  C   UNL A   1      38.166  31.593  36.745  1.00  0.00     0.009 A 
ATOM     55  C   UNL A   1      39.438  33.499  35.962  1.00  0.00     0.009 A 
ATOM     56  C   UNL A   1      37.626  32.378  37.765  1.00  0.00     0.001 A 
ATOM     57  C   UNL A   1      38.915  34.273  36.996  1.00  0.00     0.001 A 
ATOM     58  C   UNL A   1      38.005  33.714  37.892  1.00  0.00     0.000 A 
ENDBRANCH  40  53
ENDBRANCH  14  15
ENDBRANCH   7   9
ENDBRANCH   6   7
ENDBRANCH   5   6
ENDBRANCH   4   5
ENDBRANCH   3   4
ENDBRANCH   2   3
ENDBRANCH   1   2
BRANCH   1  59
ATOM     59  O   UNL A   1      39.068  22.005  26.364  1.00  0.00    -0.376 OA
BRANCH  59  60
ATOM     60  C   UNL A   1      38.521  23.315  26.481  1.00  0.00     0.202 C 
BRANCH  60  61
ATOM     61  C   UNL A   1      37.528  23.741  25.395  1.00  0.00     0.261 C 
BRANCH  61  62
ATOM     62  O   UNL A   1      36.551  22.752  25.024  1.00  0.00    -0.460 OA
BRANCH  62  63
ATOM     63  C   UNL A   1      35.361  22.891  25.654  1.00  0.00     0.339 C 
ATOM     64  O   UNL A   1      35.154  23.333  26.776  1.00  0.00    -0.246 OA
BRANCH  63  65
ATOM     65  C   UNL A   1      34.265  22.370  24.834  1.00  0.00     0.080 A 
ATOM     66  C   UNL A   1      33.920  21.013  24.918  1.00  0.00     0.037 A 
ATOM     67  C   UNL A   1      33.735  23.171  23.819  1.00  0.00     0.055 A 
ATOM     68  C   UNL A   1      33.061  20.455  23.956  1.00  0.00     0.068 A 
ATOM     69  C   UNL A   1      32.899  22.600  22.858  1.00  0.00     0.023 A 
ATOM     70  Cl  UNL A   1      34.085  24.856  23.689  1.00  0.00    -0.083 Cl
ATOM     71  C   UNL A   1      32.574  21.241  22.914  1.00  0.00     0.022 A 
BRANCH  68  72
ATOM     72  S   UNL A   1      32.713  18.713  24.091  1.00  0.00     0.183 S 
ATOM     73  O   UNL A   1      32.142  18.555  25.419  1.00  0.00    -0.223 OA
ATOM     74  O   UNL A   1      31.928  18.371  22.922  1.00  0.00    -0.223 OA
BRANCH  72  75
ATOM     75  C   UNL A   1      34.219  17.765  24.077  1.00  0.00     0.191 C 
BRANCH  75  76
ATOM     76  C   UNL A   1      34.095  16.407  24.712  1.00  0.00     0.045 C 
ATOM     77  Cl  UNL A   1      35.559  15.844  25.477  1.00  0.00    -0.087 Cl
ATOM     78  C   UNL A   1      32.954  15.717  24.837  1.00  0.00     0.097 C 
ATOM     79  Cl  UNL A   1      32.776  14.201  25.618  1.00  0.00    -0.092 Cl
ENDBRANCH  75  76
ENDBRANCH  72  75
ENDBRANCH  68  72
ENDBRANCH  63  65
ENDBRANCH  62  63
ENDBRANCH  61  62
ENDBRANCH  60  61
ENDBRANCH  59  60
ENDBRANCH   1  59
TORSDOF 20
ENDMDL
MODEL 2
REMARK VINA RESULT:      -9.4      2.123      3.894
REMARK SMILES O=C(OCCOCCOCCOC(=O)c1cc(S(=O)(=O)C/C(Cl)=C/Cl)ccc1Cl)c1ccc(-c2c3nc(c(-c4ccccc4)c4ccc([nH]4)c(-c4ccccc4)c4nc(c(-c5ccccc5)c5ccc2[nH]5)C=C4)C=C3)cc1
REMARK SMILES IDX 8 1 7 2 6 3 5 4 4 5 3 6 2 7 1 8 30 9 31 10 77 11 32 12 76 13
REMARK SMILES IDX 33 14 34 15 35 16 70 17 36 18 75 19 69 20 71 21 37 22 74 23
REMARK SMILES IDX 68 24 67 25 38 27 60 28 45 29 59 30 46 31 49 32 58 33 72 34
REMARK SMILES IDX 47 35 48 36 57 38 73 39 50 40 39 41 40 42 44 43 41 44 43 45
REMARK SMILES IDX 42 46 61 47 62 48 66 49 63 50 65 51 64 52 51 53 52 54 56 55
REMARK SMILES IDX 53 56 55 57 54 58 9 59 10 60 11 61 12 62 13 63 14 64 15 65
REMARK SMILES IDX 16 66 28 67 17 68 27 69 29 70 26 71 18 72 19 73 20 74 21 75
REMARK SMILES IDX 22 76 23 77 24 78 25 79
REMARK H PARENT 71 26 49 37
REMARK Flexibility Score: inf
ROOT
ATOM      1  C   UNL A   1      40.061  21.591  26.463  1.00  0.00     0.188 C 
ENDROOT
BRANCH   1   2
ATOM      2  C   UNL A   1      41.437  21.788  25.824  1.00  0.00     0.188 C 
BRANCH   2   3
ATOM      3  O   UNL A   1      42.190  20.567  25.859  1.00  0.00    -0.376 OA
BRANCH   3   4
ATOM      4  C   UNL A   1      43.594  20.753  25.647  1.00  0.00     0.202 C 
BRANCH   4   5
ATOM      5  C   UNL A   1      43.938  22.007  24.835  1.00  0.00     0.261 C 
BRANCH   5   6
ATOM      6  O   UNL A   1      44.786  22.904  25.570  1.00  0.00    -0.460 OA
BRANCH   6   7
ATOM      7  C   UNL A   1      44.810  24.259  25.526  1.00  0.00     0.338 C 
ATOM      8  O   UNL A   1      45.451  24.801  24.627  1.00  0.00    -0.246 OA
BRANCH   7   9
ATOM      9  C   UNL A   1      44.051  25.138  26.472  1.00  0.00     0.060 A 
ATOM     10  C   UNL A   1      44.107  26.533  26.508  1.00  0.00     0.016 A 
ATOM     11  C   UNL A   1      43.179  24.498  27.371  1.00  0.00     0.016 A 
ATOM     12  C   UNL A   1      43.436  27.261  27.486  1.00  0.00     0.010 A 
ATOM     13  C   UNL A   1      42.452  25.228  28.317  1.00  0.00     0.010 A 
ATOM     14  C   UNL A   1      42.614  26.613  28.406  1.00  0.00    -0.014 A 
BRANCH  14  15
ATOM     15  C   UNL A   1      42.029  27.396  29.513  1.00  0.00     0.031 A 
ATOM     16  C   UNL A   1      42.755  27.448  30.825  1.00  0.00     0.074 A 
ATOM     17  C   UNL A   1      40.934  28.150  29.308  1.00  0.00     0.049 A 
ATOM     18  N   UNL A   1      42.445  28.099  31.915  1.00  0.00    -0.248 NA
ATOM     19  C   UNL A   1      44.014  26.688  30.911  1.00  0.00     0.031 C 
ATOM     20  C   UNL A   1      40.218  28.264  28.036  1.00  0.00     0.029 A 
ATOM     21  N   UNL A   1      40.255  28.990  30.151  1.00  0.00    -0.354 N 
ATOM     22  C   UNL A   1      43.463  27.819  32.817  1.00  0.00     0.074 A 
ATOM     23  C   UNL A   1      44.389  26.928  32.158  1.00  0.00     0.031 C 
ATOM     24  C   UNL A   1      39.217  29.146  28.181  1.00  0.00     0.029 A 
ATOM     25  C   UNL A   1      39.180  29.605  29.562  1.00  0.00     0.049 A 
ATOM     26  H   UNL A   1      40.515  29.137  31.089  1.00  0.00     0.167 HD
ATOM     27  C   UNL A   1      43.614  28.271  34.083  1.00  0.00     0.031 A 
ATOM     28  C   UNL A   1      38.256  30.434  30.081  1.00  0.00     0.031 A 
ATOM     29  C   UNL A   1      42.680  29.141  34.740  1.00  0.00     0.049 A 
ATOM     30  C   UNL A   1      38.381  30.832  31.523  1.00  0.00     0.074 A 
ATOM     31  C   UNL A   1      42.701  29.613  36.038  1.00  0.00     0.029 A 
ATOM     32  N   UNL A   1      41.546  29.667  34.136  1.00  0.00    -0.354 N 
ATOM     33  N   UNL A   1      39.326  30.527  32.379  1.00  0.00    -0.248 NA
ATOM     34  C   UNL A   1      37.321  31.689  32.068  1.00  0.00     0.031 C 
ATOM     35  C   UNL A   1      41.556  30.395  36.233  1.00  0.00     0.029 A 
ATOM     36  C   UNL A   1      40.848  30.445  35.042  1.00  0.00     0.049 A 
ATOM     37  H   UNL A   1      41.279  29.509  33.202  1.00  0.00     0.167 HD
ATOM     38  C   UNL A   1      38.982  31.163  33.563  1.00  0.00     0.074 A 
ATOM     39  C   UNL A   1      37.752  31.887  33.306  1.00  0.00     0.031 C 
ATOM     40  C   UNL A   1      39.625  31.149  34.756  1.00  0.00     0.031 A 
BRANCH  27  41
ATOM     41  C   UNL A   1      44.807  27.766  34.840  1.00  0.00    -0.014 A 
ATOM     42  C   UNL A   1      46.033  28.451  34.813  1.00  0.00     0.009 A 
ATOM     43  C   UNL A   1      44.715  26.562  35.556  1.00  0.00     0.009 A 
ATOM     44  C   UNL A   1      47.152  27.919  35.457  1.00  0.00     0.001 A 
ATOM     45  C   UNL A   1      45.830  26.044  36.215  1.00  0.00     0.001 A 
ATOM     46  C   UNL A   1      47.050  26.717  36.157  1.00  0.00     0.000 A 
ENDBRANCH  27  41
BRANCH  28  47
ATOM     47  C   UNL A   1      37.120  30.899  29.243  1.00  0.00    -0.014 A 
ATOM     48  C   UNL A   1      36.064  30.038  28.911  1.00  0.00     0.009 A 
ATOM     49  C   UNL A   1      37.088  32.223  28.772  1.00  0.00     0.009 A 
ATOM     50  C   UNL A   1      35.008  30.490  28.114  1.00  0.00     0.001 A 
ATOM     51  C   UNL A   1      36.020  32.679  27.998  1.00  0.00     0.001 A 
ATOM     52  C   UNL A   1      34.984  31.810  27.663  1.00  0.00     0.000 A 
ENDBRANCH  28  47
BRANCH  40  53
ATOM     53  C   UNL A   1      39.013  31.956  35.862  1.00  0.00    -0.014 A 
ATOM     54  C   UNL A   1      39.299  33.322  36.000  1.00  0.00     0.009 A 
ATOM     55  C   UNL A   1      38.110  31.348  36.748  1.00  0.00     0.009 A 
ATOM     56  C   UNL A   1      38.707  34.061  37.026  1.00  0.00     0.001 A 
ATOM     57  C   UNL A   1      37.505  32.095  37.757  1.00  0.00     0.001 A 
ATOM     58  C   UNL A   1      37.809  33.449  37.899  1.00  0.00     0.000 A 
ENDBRANCH  40  53
ENDBRANCH  14  15
ENDBRANCH   7   9
ENDBRANCH   6   7
ENDBRANCH   5   6
ENDBRANCH   4   5
ENDBRANCH   3   4
ENDBRANCH   2   3
ENDBRANCH   1   2
BRANCH   1  59
ATOM     59  O   UNL A   1      38.972  21.548  25.539  1.00  0.00    -0.376 OA
BRANCH  59  60
ATOM     60  C   UNL A   1      37.835  22.352  25.840  1.00  0.00     0.202 C 
BRANCH  60  61
ATOM     61  C   UNL A   1      36.475  21.645  25.829  1.00  0.00     0.261 C 
BRANCH  61  62
ATOM     62  O   UNL A   1      35.811  21.597  24.554  1.00  0.00    -0.460 OA
BRANCH  62  63
ATOM     63  C   UNL A   1      34.484  21.342  24.635  1.00  0.00     0.339 C 
ATOM     64  O   UNL A   1      33.917  20.266  24.498  1.00  0.00    -0.246 OA
BRANCH  63  65
ATOM     65  C   UNL A   1      33.722  22.573  24.859  1.00  0.00     0.080 A 
ATOM     66  C   UNL A   1      33.477  23.443  23.786  1.00  0.00     0.037 A 
ATOM     67  C   UNL A   1      33.451  22.976  26.170  1.00  0.00     0.055 A 
ATOM     68  C   UNL A   1      32.986  24.735  24.039  1.00  0.00     0.068 A 
ATOM     69  C   UNL A   1      32.983  24.268  26.409  1.00  0.00     0.023 A 
ATOM     70  Cl  UNL A   1      33.688  21.936  27.527  1.00  0.00    -0.083 Cl
ATOM     71  C   UNL A   1      32.766  25.155  25.350  1.00  0.00     0.022 A 
BRANCH  68  72
ATOM     72  S   UNL A   1      32.753  25.805  22.634  1.00  0.00     0.183 S 
ATOM     73  O   UNL A   1      34.029  25.776  21.937  1.00  0.00    -0.223 OA
ATOM     74  O   UNL A   1      31.555  25.336  21.969  1.00  0.00    -0.223 OA
BRANCH  72  75
ATOM     75  C   UNL A   1      32.508  27.488  23.157  1.00  0.00     0.191 C 
BRANCH  75  76
ATOM     76  C   UNL A   1      31.074  27.942  23.112  1.00  0.00     0.045 C 
ATOM     77  Cl  UNL A   1      30.035  27.129  24.254  1.00  0.00    -0.087 Cl
ATOM     78  C   UNL A   1      30.615  28.971  22.387  1.00  0.00     0.097 C 
ATOM     79  Cl  UNL A   1      29.001  29.550  22.373  1.00  0.00    -0.092 Cl
ENDBRANCH  75  76
ENDBRANCH  72  75
ENDBRANCH  68  72
ENDBRANCH  63  65
ENDBRANCH  62  63
ENDBRANCH  61  62
ENDBRANCH  60  61
ENDBRANCH  59  60
ENDBRANCH   1  59
TORSDOF 20
ENDMDL
MODEL 3
REMARK VINA RESULT:      -9.3      3.748      8.527
REMARK SMILES O=C(OCCOCCOCCOC(=O)c1cc(S(=O)(=O)C/C(Cl)=C/Cl)ccc1Cl)c1ccc(-c2c3nc(c(-c4ccccc4)c4ccc([nH]4)c(-c4ccccc4)c4nc(c(-c5ccccc5)c5ccc2[nH]5)C=C4)C=C3)cc1
REMARK SMILES IDX 8 1 7 2 6 3 5 4 4 5 3 6 2 7 1 8 30 9 31 10 77 11 32 12 76 13
REMARK SMILES IDX 33 14 34 15 35 16 70 17 36 18 75 19 69 20 71 21 37 22 74 23
REMARK SMILES IDX 68 24 67 25 38 27 60 28 45 29 59 30 46 31 49 32 58 33 72 34
REMARK SMILES IDX 47 35 48 36 57 38 73 39 50 40 39 41 40 42 44 43 41 44 43 45
REMARK SMILES IDX 42 46 61 47 62 48 66 49 63 50 65 51 64 52 51 53 52 54 56 55
REMARK SMILES IDX 53 56 55 57 54 58 9 59 10 60 11 61 12 62 13 63 14 64 15 65
REMARK SMILES IDX 16 66 28 67 17 68 27 69 29 70 26 71 18 72 19 73 20 74 21 75
REMARK SMILES IDX 22 76 23 77 24 78 25 79
REMARK H PARENT 71 26 49 37
REMARK Flexibility Score: inf
ROOT
ATOM      1  C   UNL A   1      34.278  31.326  27.712  1.00  0.00     0.188 C 
ENDROOT
BRANCH   1   2
ATOM      2  C   UNL A   1      35.244  32.468  28.034  1.00  0.00     0.188 C 
BRANCH   2   3
ATOM      3  O   UNL A   1      34.669  33.732  27.673  1.00  0.00    -0.376 OA
BRANCH   3   4
ATOM      4  C   UNL A   1      33.356  33.937  28.204  1.00  0.00     0.202 C 
BRANCH   4   5
ATOM      5  C   UNL A   1      33.229  35.187  29.082  1.00  0.00     0.261 C 
BRANCH   5   6
ATOM      6  O   UNL A   1      32.958  34.852  30.452  1.00  0.00    -0.460 OA
BRANCH   6   7
ATOM      7  C   UNL A   1      33.835  34.759  31.482  1.00  0.00     0.338 C 
ATOM      8  O   UNL A   1      33.620  35.426  32.493  1.00  0.00    -0.246 OA
BRANCH   7   9
ATOM      9  C   UNL A   1      35.021  33.844  31.488  1.00  0.00     0.060 A 
ATOM     10  C   UNL A   1      35.034  32.533  31.966  1.00  0.00     0.016 A 
ATOM     11  C   UNL A   1      36.209  34.343  30.924  1.00  0.00     0.016 A 
ATOM     12  C   UNL A   1      36.209  31.790  32.015  1.00  0.00     0.010 A 
ATOM     13  C   UNL A   1      37.381  33.580  30.912  1.00  0.00     0.010 A 
ATOM     14  C   UNL A   1      37.395  32.312  31.501  1.00  0.00    -0.014 A 
BRANCH  14  15
ATOM     15  C   UNL A   1      38.649  31.557  31.694  1.00  0.00     0.031 A 
ATOM     16  C   UNL A   1      39.510  31.878  32.880  1.00  0.00     0.074 A 
ATOM     17  C   UNL A   1      38.946  30.517  30.894  1.00  0.00     0.049 A 
ATOM     18  N   UNL A   1      40.629  31.320  33.263  1.00  0.00    -0.248 NA
ATOM     19  C   UNL A   1      39.034  32.951  33.769  1.00  0.00     0.031 C 
ATOM     20  C   UNL A   1      38.116  30.046  29.784  1.00  0.00     0.029 A 
ATOM     21  N   UNL A   1      40.004  29.647  30.915  1.00  0.00    -0.354 N 
ATOM     22  C   UNL A   1      40.993  31.980  34.429  1.00  0.00     0.074 A 
ATOM     23  C   UNL A   1      39.992  32.990  34.682  1.00  0.00     0.031 C 
ATOM     24  C   UNL A   1      38.688  28.956  29.249  1.00  0.00     0.029 A 
ATOM     25  C   UNL A   1      39.948  28.693  29.931  1.00  0.00     0.049 A 
ATOM     26  H   UNL A   1      40.735  29.702  31.573  1.00  0.00     0.167 HD
ATOM     27  C   UNL A   1      42.067  31.759  35.221  1.00  0.00     0.031 A 
ATOM     28  C   UNL A   1      40.821  27.724  29.602  1.00  0.00     0.031 A 
ATOM     29  C   UNL A   1      43.070  30.767  34.953  1.00  0.00     0.049 A 
ATOM     30  C   UNL A   1      42.064  27.571  30.429  1.00  0.00     0.074 A 
ATOM     31  C   UNL A   1      44.230  30.496  35.654  1.00  0.00     0.029 A 
ATOM     32  N   UNL A   1      43.025  29.880  33.886  1.00  0.00    -0.354 N 
ATOM     33  N   UNL A   1      42.420  28.230  31.505  1.00  0.00    -0.248 NA
ATOM     34  C   UNL A   1      43.022  26.544  30.002  1.00  0.00     0.031 C 
ATOM     35  C   UNL A   1      44.909  29.470  34.986  1.00  0.00     0.029 A 
ATOM     36  C   UNL A   1      44.148  29.073  33.897  1.00  0.00     0.049 A 
ATOM     37  H   UNL A   1      42.301  29.834  33.220  1.00  0.00     0.167 HD
ATOM     38  C   UNL A   1      43.637  27.690  31.894  1.00  0.00     0.074 A 
ATOM     39  C   UNL A   1      43.947  26.636  30.948  1.00  0.00     0.031 C 
ATOM     40  C   UNL A   1      44.429  28.036  32.938  1.00  0.00     0.031 A 
BRANCH  27  41
ATOM     41  C   UNL A   1      42.223  32.662  36.409  1.00  0.00    -0.014 A 
ATOM     42  C   UNL A   1      41.690  32.319  37.662  1.00  0.00     0.009 A 
ATOM     43  C   UNL A   1      42.878  33.894  36.262  1.00  0.00     0.009 A 
ATOM     44  C   UNL A   1      41.775  33.211  38.733  1.00  0.00     0.001 A 
ATOM     45  C   UNL A   1      42.980  34.774  37.339  1.00  0.00     0.001 A 
ATOM     46  C   UNL A   1      42.420  34.437  38.571  1.00  0.00     0.000 A 
ENDBRANCH  27  41
BRANCH  28  47
ATOM     47  C   UNL A   1      40.566  26.865  28.417  1.00  0.00    -0.014 A 
ATOM     48  C   UNL A   1      41.113  27.177  27.163  1.00  0.00     0.009 A 
ATOM     49  C   UNL A   1      39.771  25.713  28.541  1.00  0.00     0.009 A 
ATOM     50  C   UNL A   1      40.855  26.362  26.057  1.00  0.00     0.001 A 
ATOM     51  C   UNL A   1      39.536  24.886  27.440  1.00  0.00     0.001 A 
ATOM     52  C   UNL A   1      40.072  25.216  26.197  1.00  0.00     0.000 A 
ENDBRANCH  28  47
BRANCH  40  53
ATOM     53  C   UNL A   1      45.693  27.250  33.116  1.00  0.00    -0.014 A 
ATOM     54  C   UNL A   1      45.707  26.066  33.868  1.00  0.00     0.009 A 
ATOM     55  C   UNL A   1      46.872  27.681  32.488  1.00  0.00     0.009 A 
ATOM     56  C   UNL A   1      46.890  25.339  34.008  1.00  0.00     0.001 A 
ATOM     57  C   UNL A   1      48.046  26.940  32.612  1.00  0.00     0.001 A 
ATOM     58  C   UNL A   1      48.055  25.774  33.377  1.00  0.00     0.000 A 
ENDBRANCH  40  53
ENDBRANCH  14  15
ENDBRANCH   7   9
ENDBRANCH   6   7
ENDBRANCH   5   6
ENDBRANCH   4   5
ENDBRANCH   3   4
ENDBRANCH   2   3
ENDBRANCH   1   2
BRANCH   1  59
ATOM     59  O   UNL A   1      34.827  30.015  27.861  1.00  0.00    -0.376 OA
BRANCH  59  60
ATOM     60  C   UNL A   1      34.343  29.005  26.982  1.00  0.00     0.202 C 
BRANCH  60  61
ATOM     61  C   UNL A   1      32.869  28.615  27.134  1.00  0.00     0.261 C 
BRANCH  61  62
ATOM     62  O   UNL A   1      32.015  28.972  26.033  1.00  0.00    -0.460 OA
BRANCH  62  63
ATOM     63  C   UNL A   1      32.552  28.719  24.817  1.00  0.00     0.339 C 
ATOM     64  O   UNL A   1      33.295  29.437  24.161  1.00  0.00    -0.246 OA
BRANCH  63  65
ATOM     65  C   UNL A   1      32.081  27.436  24.288  1.00  0.00     0.080 A 
ATOM     66  C   UNL A   1      32.934  26.323  24.310  1.00  0.00     0.037 A 
ATOM     67  C   UNL A   1      30.887  27.396  23.565  1.00  0.00     0.055 A 
ATOM     68  C   UNL A   1      32.593  25.174  23.575  1.00  0.00     0.068 A 
ATOM     69  C   UNL A   1      30.570  26.258  22.822  1.00  0.00     0.023 A 
ATOM     70  Cl  UNL A   1      29.776  28.717  23.535  1.00  0.00    -0.083 Cl
ATOM     71  C   UNL A   1      31.427  25.154  22.812  1.00  0.00     0.022 A 
BRANCH  68  72
ATOM     72  S   UNL A   1      33.749  23.819  23.603  1.00  0.00     0.183 S 
ATOM     73  O   UNL A   1      32.921  22.635  23.763  1.00  0.00    -0.223 OA
ATOM     74  O   UNL A   1      34.571  23.971  22.420  1.00  0.00    -0.223 OA
BRANCH  72  75
ATOM     75  C   UNL A   1      34.786  23.904  25.047  1.00  0.00     0.191 C 
BRANCH  75  76
ATOM     76  C   UNL A   1      35.456  22.604  25.399  1.00  0.00     0.045 C 
ATOM     77  Cl  UNL A   1      34.770  21.805  26.791  1.00  0.00    -0.087 Cl
ATOM     78  C   UNL A   1      36.395  21.997  24.661  1.00  0.00     0.097 C 
ATOM     79  Cl  UNL A   1      37.121  20.482  25.005  1.00  0.00    -0.092 Cl
ENDBRANCH  75  76
ENDBRANCH  72  75
ENDBRANCH  68  72
ENDBRANCH  63  65
ENDBRANCH  62  63
ENDBRANCH  61  62
ENDBRANCH  60  61
ENDBRANCH  59  60
ENDBRANCH   1  59
TORSDOF 20
ENDMDL
