MODEL 1
REMARK VINA RESULT:      -9.6      0.000      0.000
REMARK SMILES Cc1ccc(-c2nn(CCC(=O)OCCOCCOCCOC(=O)c3ccc(-c4c5nc(c(-c6ccccc6)c6ccc([nH]6)c(-c6ccccc6)c6nc(c(-c7ccccc7)c7ccc4[nH]7)C=C6)C=C5)cc3)c(=O)c3noc(C)c23)cc1C
REMARK SMILES IDX 17 1 16 2 15 3 14 4 13 5 11 6 12 7 10 8 9 9 8 10 6 11 7 12
REMARK SMILES IDX 80 13 75 14 78 15 73 16 76 17 77 18 79 19 74 20 5 21 1 22
REMARK SMILES IDX 2 23 3 24 82 25 4 26 81 27 83 28 18 29 19 30 20 31 21 32
REMARK SMILES IDX 22 33 23 34 24 35 25 36 26 37 72 38 27 39 71 40 28 41 29 42
REMARK SMILES IDX 30 43 65 44 31 45 70 46 64 47 66 48 32 49 69 50 63 51 62 52
REMARK SMILES IDX 33 54 55 55 40 56 54 57 41 58 44 59 53 60 67 61 42 62 43 63
REMARK SMILES IDX 52 65 68 66 45 67 34 68 35 69 39 70 36 71 38 72 37 73 56 74
REMARK SMILES IDX 57 75 61 76 58 77 60 78 59 79 46 80 47 81 51 82 48 83 50 84
REMARK SMILES IDX 49 85
REMARK H PARENT 66 53 44 64
REMARK Flexibility Score: inf
ROOT
ATOM      1  C   UNL A   1      37.368  21.085  24.907  1.00  0.00     0.188 C 
ENDROOT
BRANCH   1   2
ATOM      2  O   UNL A   1      37.003  22.390  24.485  1.00  0.00    -0.376 OA
BRANCH   2   3
ATOM      3  C   UNL A   1      35.634  22.746  24.706  1.00  0.00     0.202 C 
BRANCH   3   4
ATOM      4  C   UNL A   1      35.184  22.999  26.169  1.00  0.00     0.261 C 
BRANCH   4   5
ATOM      5  O   UNL A   1      34.389  21.942  26.765  1.00  0.00    -0.463 OA
BRANCH   5   6
ATOM      6  C   UNL A   1      33.126  22.236  27.153  1.00  0.00     0.307 C 
ATOM      7  O   UNL A   1      32.825  22.686  28.254  1.00  0.00    -0.252 OA
BRANCH   6   8
ATOM      8  C   UNL A   1      32.090  21.963  26.075  1.00  0.00     0.146 C 
BRANCH   8   9
ATOM      9  C   UNL A   1      31.184  23.112  25.610  1.00  0.00     0.160 C 
BRANCH   9  10
ATOM     10  N   UNL A   1      31.831  24.167  24.825  1.00  0.00    -0.227 N 
ATOM     11  C   UNL A   1      32.577  26.395  24.869  1.00  0.00     0.104 A 
ATOM     12  N   UNL A   1      31.987  25.401  25.476  1.00  0.00    -0.169 NA
ATOM     13  C   UNL A   1      33.013  26.260  23.508  1.00  0.00     0.078 A 
ATOM     14  C   UNL A   1      32.926  25.017  22.883  1.00  0.00     0.183 A 
ATOM     15  C   UNL A   1      33.537  27.085  22.541  1.00  0.00     0.143 A 
ATOM     16  C   UNL A   1      32.400  23.873  23.573  1.00  0.00     0.296 A 
ATOM     17  N   UNL A   1      33.356  25.044  21.617  1.00  0.00    -0.074 NA
ATOM     18  O   UNL A   1      33.740  26.356  21.404  1.00  0.00    -0.360 OA
ATOM     19  C   UNL A   1      33.897  28.509  22.432  1.00  0.00     0.091 C 
ATOM     20  O   UNL A   1      32.450  22.759  23.072  1.00  0.00    -0.265 OA
BRANCH  11  21
ATOM     21  C   UNL A   1      32.772  27.663  25.567  1.00  0.00     0.003 A 
ATOM     22  C   UNL A   1      33.397  31.324  27.713  1.00  0.00     0.044 C 
ATOM     23  C   UNL A   1      33.205  30.033  26.966  1.00  0.00    -0.048 A 
ATOM     24  C   UNL A   1      31.966  29.783  26.344  1.00  0.00     0.004 A 
ATOM     25  C   UNL A   1      34.237  29.078  26.872  1.00  0.00    -0.048 A 
ATOM     26  C   UNL A   1      31.744  28.598  25.643  1.00  0.00     0.011 A 
ATOM     27  C   UNL A   1      34.013  27.902  26.150  1.00  0.00     0.014 A 
ATOM     28  C   UNL A   1      35.585  29.228  27.516  1.00  0.00     0.044 C 
ENDBRANCH  11  21
ENDBRANCH   9  10
ENDBRANCH   8   9
ENDBRANCH   6   8
ENDBRANCH   5   6
ENDBRANCH   4   5
ENDBRANCH   3   4
ENDBRANCH   2   3
ENDBRANCH   1   2
BRANCH   1  29
ATOM     29  C   UNL A   1      38.722  20.959  25.581  1.00  0.00     0.188 C 
BRANCH  29  30
ATOM     30  O   UNL A   1      39.303  22.188  26.013  1.00  0.00    -0.376 OA
BRANCH  30  31
ATOM     31  C   UNL A   1      40.555  22.082  26.685  1.00  0.00     0.202 C 
BRANCH  31  32
ATOM     32  C   UNL A   1      41.195  23.419  27.102  1.00  0.00     0.261 C 
BRANCH  32  33
ATOM     33  O   UNL A   1      40.777  24.547  26.319  1.00  0.00    -0.460 OA
BRANCH  33  34
ATOM     34  C   UNL A   1      41.563  25.639  26.483  1.00  0.00     0.338 C 
ATOM     35  O   UNL A   1      42.663  25.842  25.995  1.00  0.00    -0.246 OA
BRANCH  34  36
ATOM     36  C   UNL A   1      40.869  26.640  27.305  1.00  0.00     0.060 A 
ATOM     37  C   UNL A   1      41.588  27.337  28.286  1.00  0.00     0.016 A 
ATOM     38  C   UNL A   1      39.488  26.761  27.216  1.00  0.00     0.016 A 
ATOM     39  C   UNL A   1      40.914  28.110  29.232  1.00  0.00     0.010 A 
ATOM     40  C   UNL A   1      38.818  27.482  28.199  1.00  0.00     0.010 A 
ATOM     41  C   UNL A   1      39.517  28.140  29.233  1.00  0.00    -0.014 A 
BRANCH  41  42
ATOM     42  C   UNL A   1      38.801  28.865  30.320  1.00  0.00     0.031 A 
ATOM     43  C   UNL A   1      39.215  28.432  31.689  1.00  0.00     0.074 A 
ATOM     44  C   UNL A   1      38.328  30.125  30.140  1.00  0.00     0.049 A 
ATOM     45  N   UNL A   1      40.350  28.832  32.184  1.00  0.00    -0.248 NA
ATOM     46  C   UNL A   1      38.627  27.308  32.414  1.00  0.00     0.031 C 
ATOM     47  C   UNL A   1      38.816  31.012  29.070  1.00  0.00     0.029 A 
ATOM     48  N   UNL A   1      37.551  30.960  30.925  1.00  0.00    -0.354 N 
ATOM     49  C   UNL A   1      40.698  27.957  33.189  1.00  0.00     0.074 A 
ATOM     50  C   UNL A   1      39.566  27.070  33.350  1.00  0.00     0.031 C 
ATOM     51  C   UNL A   1      38.487  32.284  29.369  1.00  0.00     0.029 A 
ATOM     52  C   UNL A   1      37.655  32.313  30.574  1.00  0.00     0.049 A 
ATOM     53  H   UNL A   1      36.980  30.635  31.660  1.00  0.00     0.167 HD
ATOM     54  C   UNL A   1      41.926  27.994  33.771  1.00  0.00     0.031 A 
ATOM     55  C   UNL A   1      37.691  33.361  31.451  1.00  0.00     0.031 A 
ATOM     56  C   UNL A   1      42.859  28.917  33.187  1.00  0.00     0.049 A 
ATOM     57  C   UNL A   1      38.997  33.120  32.162  1.00  0.00     0.074 A 
ATOM     58  C   UNL A   1      43.938  28.873  32.329  1.00  0.00     0.029 A 
ATOM     59  N   UNL A   1      42.690  30.252  33.453  1.00  0.00    -0.354 N 
ATOM     60  N   UNL A   1      40.194  33.375  31.716  1.00  0.00    -0.248 NA
ATOM     61  C   UNL A   1      38.948  32.233  33.325  1.00  0.00     0.031 C 
ATOM     62  C   UNL A   1      44.036  30.187  31.770  1.00  0.00     0.029 A 
ATOM     63  C   UNL A   1      42.995  30.943  32.308  1.00  0.00     0.049 A 
ATOM     64  H   UNL A   1      42.403  30.644  34.309  1.00  0.00     0.167 HD
ATOM     65  C   UNL A   1      41.024  32.444  32.340  1.00  0.00     0.074 A 
ATOM     66  C   UNL A   1      40.195  31.789  33.334  1.00  0.00     0.031 C 
ATOM     67  C   UNL A   1      42.277  32.129  31.900  1.00  0.00     0.031 A 
BRANCH  54  68
ATOM     68  C   UNL A   1      42.277  27.318  35.033  1.00  0.00    -0.014 A 
ATOM     69  C   UNL A   1      43.249  26.307  34.940  1.00  0.00     0.009 A 
ATOM     70  C   UNL A   1      41.547  27.458  36.215  1.00  0.00     0.009 A 
ATOM     71  C   UNL A   1      43.459  25.418  35.988  1.00  0.00     0.001 A 
ATOM     72  C   UNL A   1      41.774  26.573  37.276  1.00  0.00     0.001 A 
ATOM     73  C   UNL A   1      42.715  25.547  37.155  1.00  0.00     0.000 A 
ENDBRANCH  54  68
BRANCH  55  74
ATOM     74  C   UNL A   1      36.457  33.720  32.224  1.00  0.00    -0.014 A 
ATOM     75  C   UNL A   1      36.351  34.999  32.800  1.00  0.00     0.009 A 
ATOM     76  C   UNL A   1      35.403  32.821  32.469  1.00  0.00     0.009 A 
ATOM     77  C   UNL A   1      35.194  35.397  33.483  1.00  0.00     0.001 A 
ATOM     78  C   UNL A   1      34.231  33.227  33.120  1.00  0.00     0.001 A 
ATOM     79  C   UNL A   1      34.121  34.522  33.612  1.00  0.00     0.000 A 
ENDBRANCH  55  74
BRANCH  67  80
ATOM     80  C   UNL A   1      42.824  32.961  30.784  1.00  0.00    -0.014 A 
ATOM     81  C   UNL A   1      43.434  34.190  31.065  1.00  0.00     0.009 A 
ATOM     82  C   UNL A   1      42.810  32.498  29.457  1.00  0.00     0.009 A 
ATOM     83  C   UNL A   1      44.054  34.921  30.050  1.00  0.00     0.001 A 
ATOM     84  C   UNL A   1      43.443  33.223  28.445  1.00  0.00     0.001 A 
ATOM     85  C   UNL A   1      44.072  34.431  28.745  1.00  0.00     0.000 A 
ENDBRANCH  67  80
ENDBRANCH  41  42
ENDBRANCH  34  36
ENDBRANCH  33  34
ENDBRANCH  32  33
ENDBRANCH  31  32
ENDBRANCH  30  31
ENDBRANCH  29  30
ENDBRANCH   1  29
TORSDOF 20
ENDMDL
MODEL 2
REMARK VINA RESULT:      -9.6      3.536      8.257
REMARK SMILES Cc1ccc(-c2nn(CCC(=O)OCCOCCOCCOC(=O)c3ccc(-c4c5nc(c(-c6ccccc6)c6ccc([nH]6)c(-c6ccccc6)c6nc(c(-c7ccccc7)c7ccc4[nH]7)C=C6)C=C5)cc3)c(=O)c3noc(C)c23)cc1C
REMARK SMILES IDX 17 1 16 2 15 3 14 4 13 5 11 6 12 7 10 8 9 9 8 10 6 11 7 12
REMARK SMILES IDX 80 13 75 14 78 15 73 16 76 17 77 18 79 19 74 20 5 21 1 22
REMARK SMILES IDX 2 23 3 24 82 25 4 26 81 27 83 28 18 29 19 30 20 31 21 32
REMARK SMILES IDX 22 33 23 34 24 35 25 36 26 37 72 38 27 39 71 40 28 41 29 42
REMARK SMILES IDX 30 43 65 44 31 45 70 46 64 47 66 48 32 49 69 50 63 51 62 52
REMARK SMILES IDX 33 54 55 55 40 56 54 57 41 58 44 59 53 60 67 61 42 62 43 63
REMARK SMILES IDX 52 65 68 66 45 67 34 68 35 69 39 70 36 71 38 72 37 73 56 74
REMARK SMILES IDX 57 75 61 76 58 77 60 78 59 79 46 80 47 81 51 82 48 83 50 84
REMARK SMILES IDX 49 85
REMARK H PARENT 66 53 44 64
REMARK Flexibility Score: inf
ROOT
ATOM      1  C   UNL A   1      36.542  30.206  27.899  1.00  0.00     0.188 C 
ENDROOT
BRANCH   1   2
ATOM      2  O   UNL A   1      35.675  29.135  27.561  1.00  0.00    -0.376 OA
BRANCH   2   3
ATOM      3  C   UNL A   1      34.389  29.521  27.060  1.00  0.00     0.202 C 
BRANCH   3   4
ATOM      4  C   UNL A   1      33.887  28.836  25.762  1.00  0.00     0.261 C 
BRANCH   4   5
ATOM      5  O   UNL A   1      32.857  29.557  25.038  1.00  0.00    -0.463 OA
BRANCH   5   6
ATOM      6  C   UNL A   1      32.376  29.006  23.899  1.00  0.00     0.307 C 
ATOM      7  O   UNL A   1      31.310  29.312  23.376  1.00  0.00    -0.252 OA
BRANCH   6   8
ATOM      8  C   UNL A   1      33.302  27.957  23.304  1.00  0.00     0.146 C 
BRANCH   8   9
ATOM      9  C   UNL A   1      32.749  26.551  23.028  1.00  0.00     0.160 C 
BRANCH   9  10
ATOM     10  N   UNL A   1      32.828  25.597  24.136  1.00  0.00    -0.227 N 
ATOM     11  C   UNL A   1      34.220  24.053  25.231  1.00  0.00     0.104 A 
ATOM     12  N   UNL A   1      34.043  24.904  24.258  1.00  0.00    -0.169 NA
ATOM     13  C   UNL A   1      33.154  23.765  26.148  1.00  0.00     0.078 A 
ATOM     14  C   UNL A   1      31.973  24.500  26.075  1.00  0.00     0.183 A 
ATOM     15  C   UNL A   1      32.934  22.878  27.175  1.00  0.00     0.143 A 
ATOM     16  C   UNL A   1      31.801  25.536  25.095  1.00  0.00     0.296 A 
ATOM     17  N   UNL A   1      31.067  24.116  26.981  1.00  0.00    -0.074 NA
ATOM     18  O   UNL A   1      31.678  23.086  27.674  1.00  0.00    -0.360 OA
ATOM     19  C   UNL A   1      33.682  21.790  27.828  1.00  0.00     0.091 C 
ATOM     20  O   UNL A   1      30.823  26.269  25.120  1.00  0.00    -0.265 OA
BRANCH  11  21
ATOM     21  C   UNL A   1      35.502  23.366  25.374  1.00  0.00     0.003 A 
ATOM     22  C   UNL A   1      39.322  21.455  25.758  1.00  0.00     0.044 C 
ATOM     23  C   UNL A   1      37.993  22.148  25.638  1.00  0.00    -0.048 A 
ATOM     24  C   UNL A   1      36.925  21.471  25.017  1.00  0.00     0.004 A 
ATOM     25  C   UNL A   1      37.795  23.451  26.138  1.00  0.00    -0.048 A 
ATOM     26  C   UNL A   1      35.676  22.077  24.883  1.00  0.00     0.011 A 
ATOM     27  C   UNL A   1      36.535  24.042  26.017  1.00  0.00     0.014 A 
ATOM     28  C   UNL A   1      38.867  24.274  26.793  1.00  0.00     0.044 C 
ENDBRANCH  11  21
ENDBRANCH   9  10
ENDBRANCH   8   9
ENDBRANCH   6   8
ENDBRANCH   5   6
ENDBRANCH   4   5
ENDBRANCH   3   4
ENDBRANCH   2   3
ENDBRANCH   1   2
BRANCH   1  29
ATOM     29  C   UNL A   1      37.134  30.165  29.296  1.00  0.00     0.188 C 
BRANCH  29  30
ATOM     30  O   UNL A   1      37.897  31.312  29.667  1.00  0.00    -0.376 OA
BRANCH  30  31
ATOM     31  C   UNL A   1      37.519  31.942  30.887  1.00  0.00     0.202 C 
BRANCH  31  32
ATOM     32  C   UNL A   1      37.277  30.990  32.074  1.00  0.00     0.261 C 
BRANCH  32  33
ATOM     33  O   UNL A   1      38.471  30.416  32.627  1.00  0.00    -0.460 OA
BRANCH  33  34
ATOM     34  C   UNL A   1      38.435  29.063  32.703  1.00  0.00     0.338 C 
ATOM     35  O   UNL A   1      37.468  28.359  32.945  1.00  0.00    -0.246 OA
BRANCH  34  36
ATOM     36  C   UNL A   1      39.753  28.504  32.370  1.00  0.00     0.060 A 
ATOM     37  C   UNL A   1      40.621  28.137  33.408  1.00  0.00     0.016 A 
ATOM     38  C   UNL A   1      40.185  28.506  31.051  1.00  0.00     0.016 A 
ATOM     39  C   UNL A   1      41.954  27.833  33.132  1.00  0.00     0.010 A 
ATOM     40  C   UNL A   1      41.529  28.263  30.789  1.00  0.00     0.010 A 
ATOM     41  C   UNL A   1      42.435  27.952  31.825  1.00  0.00    -0.014 A 
BRANCH  41  42
ATOM     42  C   UNL A   1      43.886  27.748  31.557  1.00  0.00     0.031 A 
ATOM     43  C   UNL A   1      44.150  26.832  30.406  1.00  0.00     0.074 A 
ATOM     44  C   UNL A   1      44.806  28.698  31.869  1.00  0.00     0.049 A 
ATOM     45  N   UNL A   1      43.994  27.256  29.186  1.00  0.00    -0.248 NA
ATOM     46  C   UNL A   1      44.235  25.377  30.510  1.00  0.00     0.031 C 
ATOM     47  C   UNL A   1      44.447  30.108  32.095  1.00  0.00     0.029 A 
ATOM     48  N   UNL A   1      46.190  28.716  31.831  1.00  0.00    -0.354 N 
ATOM     49  C   UNL A   1      43.833  26.152  28.378  1.00  0.00     0.074 A 
ATOM     50  C   UNL A   1      44.064  25.004  29.228  1.00  0.00     0.031 C 
ATOM     51  C   UNL A   1      45.555  30.867  31.984  1.00  0.00     0.029 A 
ATOM     52  C   UNL A   1      46.730  30.010  31.813  1.00  0.00     0.049 A 
ATOM     53  H   UNL A   1      46.741  27.900  31.816  1.00  0.00     0.167 HD
ATOM     54  C   UNL A   1      43.458  26.271  27.077  1.00  0.00     0.031 A 
ATOM     55  C   UNL A   1      47.814  30.408  31.081  1.00  0.00     0.031 A 
ATOM     56  C   UNL A   1      43.130  27.602  26.647  1.00  0.00     0.049 A 
ATOM     57  C   UNL A   1      47.301  30.264  29.672  1.00  0.00     0.074 A 
ATOM     58  C   UNL A   1      41.993  28.347  26.410  1.00  0.00     0.029 A 
ATOM     59  N   UNL A   1      44.162  28.479  26.432  1.00  0.00    -0.354 N 
ATOM     60  N   UNL A   1      46.501  31.074  29.039  1.00  0.00    -0.248 NA
ATOM     61  C   UNL A   1      47.454  28.944  29.059  1.00  0.00     0.031 C 
ATOM     62  C   UNL A   1      42.399  29.714  26.538  1.00  0.00     0.029 A 
ATOM     63  C   UNL A   1      43.754  29.713  26.868  1.00  0.00     0.049 A 
ATOM     64  H   UNL A   1      45.037  28.262  26.037  1.00  0.00     0.167 HD
ATOM     65  C   UNL A   1      45.813  30.273  28.128  1.00  0.00     0.074 A 
ATOM     66  C   UNL A   1      46.465  28.979  28.178  1.00  0.00     0.031 C 
ATOM     67  C   UNL A   1      44.647  30.643  27.522  1.00  0.00     0.031 A 
BRANCH  54  68
ATOM     68  C   UNL A   1      43.556  25.196  26.074  1.00  0.00    -0.014 A 
ATOM     69  C   UNL A   1      42.526  24.238  26.096  1.00  0.00     0.009 A 
ATOM     70  C   UNL A   1      44.696  24.956  25.304  1.00  0.00     0.009 A 
ATOM     71  C   UNL A   1      42.649  23.040  25.401  1.00  0.00     0.001 A 
ATOM     72  C   UNL A   1      44.809  23.756  24.590  1.00  0.00     0.001 A 
ATOM     73  C   UNL A   1      43.795  22.796  24.654  1.00  0.00     0.000 A 
ENDBRANCH  54  68
BRANCH  55  74
ATOM     74  C   UNL A   1      49.179  29.909  31.450  1.00  0.00    -0.014 A 
ATOM     75  C   UNL A   1      50.306  30.427  30.787  1.00  0.00     0.009 A 
ATOM     76  C   UNL A   1      49.406  28.890  32.393  1.00  0.00     0.009 A 
ATOM     77  C   UNL A   1      51.603  30.031  31.137  1.00  0.00     0.001 A 
ATOM     78  C   UNL A   1      50.703  28.518  32.771  1.00  0.00     0.001 A 
ATOM     79  C   UNL A   1      51.802  29.102  32.153  1.00  0.00     0.000 A 
ENDBRANCH  55  74
BRANCH  67  80
ATOM     80  C   UNL A   1      44.196  32.051  27.741  1.00  0.00    -0.014 A 
ATOM     81  C   UNL A   1      44.316  32.990  26.708  1.00  0.00     0.009 A 
ATOM     82  C   UNL A   1      43.576  32.439  28.941  1.00  0.00     0.009 A 
ATOM     83  C   UNL A   1      43.792  34.276  26.855  1.00  0.00     0.001 A 
ATOM     84  C   UNL A   1      43.039  33.721  29.081  1.00  0.00     0.001 A 
ATOM     85  C   UNL A   1      43.140  34.635  28.034  1.00  0.00     0.000 A 
ENDBRANCH  67  80
ENDBRANCH  41  42
ENDBRANCH  34  36
ENDBRANCH  33  34
ENDBRANCH  32  33
ENDBRANCH  31  32
ENDBRANCH  30  31
ENDBRANCH  29  30
ENDBRANCH   1  29
TORSDOF 20
ENDMDL
MODEL 3
REMARK VINA RESULT:      -9.4      2.833      5.692
REMARK SMILES Cc1ccc(-c2nn(CCC(=O)OCCOCCOCCOC(=O)c3ccc(-c4c5nc(c(-c6ccccc6)c6ccc([nH]6)c(-c6ccccc6)c6nc(c(-c7ccccc7)c7ccc4[nH]7)C=C6)C=C5)cc3)c(=O)c3noc(C)c23)cc1C
REMARK SMILES IDX 17 1 16 2 15 3 14 4 13 5 11 6 12 7 10 8 9 9 8 10 6 11 7 12
REMARK SMILES IDX 80 13 75 14 78 15 73 16 76 17 77 18 79 19 74 20 5 21 1 22
REMARK SMILES IDX 2 23 3 24 82 25 4 26 81 27 83 28 18 29 19 30 20 31 21 32
REMARK SMILES IDX 22 33 23 34 24 35 25 36 26 37 72 38 27 39 71 40 28 41 29 42
REMARK SMILES IDX 30 43 65 44 31 45 70 46 64 47 66 48 32 49 69 50 63 51 62 52
REMARK SMILES IDX 33 54 55 55 40 56 54 57 41 58 44 59 53 60 67 61 42 62 43 63
REMARK SMILES IDX 52 65 68 66 45 67 34 68 35 69 39 70 36 71 38 72 37 73 56 74
REMARK SMILES IDX 57 75 61 76 58 77 60 78 59 79 46 80 47 81 51 82 48 83 50 84
REMARK SMILES IDX 49 85
REMARK H PARENT 66 53 44 64
REMARK Flexibility Score: inf
ROOT
ATOM      1  C   UNL A   1      32.602  27.067  24.706  1.00  0.00     0.188 C 
ENDROOT
BRANCH   1   2
ATOM      2  O   UNL A   1      31.888  25.932  25.170  1.00  0.00    -0.376 OA
BRANCH   2   3
ATOM      3  C   UNL A   1      30.948  25.377  24.243  1.00  0.00     0.202 C 
BRANCH   3   4
ATOM      4  C   UNL A   1      31.506  24.498  23.092  1.00  0.00     0.261 C 
BRANCH   4   5
ATOM      5  O   UNL A   1      32.651  23.677  23.438  1.00  0.00    -0.463 OA
BRANCH   5   6
ATOM      6  C   UNL A   1      33.867  24.051  22.975  1.00  0.00     0.307 C 
ATOM      7  O   UNL A   1      34.059  24.991  22.210  1.00  0.00    -0.252 OA
BRANCH   6   8
ATOM      8  C   UNL A   1      35.001  23.190  23.506  1.00  0.00     0.146 C 
BRANCH   8   9
ATOM      9  C   UNL A   1      35.256  23.151  25.019  1.00  0.00     0.160 C 
BRANCH   9  10
ATOM     10  N   UNL A   1      36.632  22.866  25.435  1.00  0.00    -0.227 N 
ATOM     11  C   UNL A   1      38.571  23.794  26.383  1.00  0.00     0.104 A 
ATOM     12  N   UNL A   1      37.348  23.954  25.959  1.00  0.00    -0.169 NA
ATOM     13  C   UNL A   1      39.223  22.521  26.258  1.00  0.00     0.078 A 
ATOM     14  C   UNL A   1      38.495  21.422  25.806  1.00  0.00     0.183 A 
ATOM     15  C   UNL A   1      40.487  22.022  26.467  1.00  0.00     0.143 A 
ATOM     16  C   UNL A   1      37.107  21.542  25.455  1.00  0.00     0.296 A 
ATOM     17  N   UNL A   1      39.232  20.309  25.728  1.00  0.00    -0.074 NA
ATOM     18  O   UNL A   1      40.494  20.693  26.146  1.00  0.00    -0.360 OA
ATOM     19  C   UNL A   1      41.786  22.553  26.914  1.00  0.00     0.091 C 
ATOM     20  O   UNL A   1      36.438  20.554  25.190  1.00  0.00    -0.265 OA
BRANCH  11  21
ATOM     21  C   UNL A   1      39.295  24.922  26.964  1.00  0.00     0.003 A 
ATOM     22  C   UNL A   1      41.311  28.281  28.711  1.00  0.00     0.044 C 
ATOM     23  C   UNL A   1      40.589  27.100  28.123  1.00  0.00    -0.048 A 
ATOM     24  C   UNL A   1      40.936  26.663  26.829  1.00  0.00     0.004 A 
ATOM     25  C   UNL A   1      39.583  26.421  28.840  1.00  0.00    -0.048 A 
ATOM     26  C   UNL A   1      40.292  25.573  26.245  1.00  0.00     0.011 A 
ATOM     27  C   UNL A   1      38.956  25.318  28.255  1.00  0.00     0.014 A 
ATOM     28  C   UNL A   1      39.115  26.815  30.211  1.00  0.00     0.044 C 
ENDBRANCH  11  21
ENDBRANCH   9  10
ENDBRANCH   8   9
ENDBRANCH   6   8
ENDBRANCH   5   6
ENDBRANCH   4   5
ENDBRANCH   3   4
ENDBRANCH   2   3
ENDBRANCH   1   2
BRANCH   1  29
ATOM     29  C   UNL A   1      32.393  28.350  25.489  1.00  0.00     0.188 C 
BRANCH  29  30
ATOM     30  O   UNL A   1      33.559  29.153  25.662  1.00  0.00    -0.376 OA
BRANCH  30  31
ATOM     31  C   UNL A   1      33.390  30.336  26.438  1.00  0.00     0.202 C 
BRANCH  31  32
ATOM     32  C   UNL A   1      34.294  30.446  27.680  1.00  0.00     0.261 C 
BRANCH  32  33
ATOM     33  O   UNL A   1      35.182  29.334  27.867  1.00  0.00    -0.460 OA
BRANCH  33  34
ATOM     34  C   UNL A   1      36.481  29.634  27.626  1.00  0.00     0.338 C 
ATOM     35  O   UNL A   1      37.011  29.826  26.544  1.00  0.00    -0.246 OA
BRANCH  34  36
ATOM     36  C   UNL A   1      37.208  29.780  28.896  1.00  0.00     0.060 A 
ATOM     37  C   UNL A   1      36.559  29.456  30.096  1.00  0.00     0.016 A 
ATOM     38  C   UNL A   1      38.454  30.392  28.906  1.00  0.00     0.016 A 
ATOM     39  C   UNL A   1      37.131  29.807  31.318  1.00  0.00     0.010 A 
ATOM     40  C   UNL A   1      38.989  30.796  30.124  1.00  0.00     0.010 A 
ATOM     41  C   UNL A   1      38.324  30.536  31.342  1.00  0.00    -0.014 A 
BRANCH  41  42
ATOM     42  C   UNL A   1      38.864  31.016  32.644  1.00  0.00     0.031 A 
ATOM     43  C   UNL A   1      40.048  30.237  33.114  1.00  0.00     0.074 A 
ATOM     44  C   UNL A   1      38.727  32.310  33.035  1.00  0.00     0.049 A 
ATOM     45  N   UNL A   1      41.214  30.430  32.571  1.00  0.00    -0.248 NA
ATOM     46  C   UNL A   1      39.969  29.008  33.903  1.00  0.00     0.031 C 
ATOM     47  C   UNL A   1      38.430  33.399  32.088  1.00  0.00     0.029 A 
ATOM     48  N   UNL A   1      39.027  32.975  34.211  1.00  0.00    -0.354 N 
ATOM     49  C   UNL A   1      41.982  29.315  32.825  1.00  0.00     0.074 A 
ATOM     50  C   UNL A   1      41.198  28.489  33.717  1.00  0.00     0.031 C 
ATOM     51  C   UNL A   1      38.745  34.577  32.661  1.00  0.00     0.029 A 
ATOM     52  C   UNL A   1      39.141  34.363  34.055  1.00  0.00     0.049 A 
ATOM     53  H   UNL A   1      39.151  32.516  35.075  1.00  0.00     0.167 HD
ATOM     54  C   UNL A   1      43.188  29.130  32.224  1.00  0.00     0.031 A 
ATOM     55  C   UNL A   1      40.063  35.159  34.674  1.00  0.00     0.031 A 
ATOM     56  C   UNL A   1      43.540  30.107  31.231  1.00  0.00     0.049 A 
ATOM     57  C   UNL A   1      41.350  34.670  34.062  1.00  0.00     0.074 A 
ATOM     58  C   UNL A   1      43.553  30.205  29.855  1.00  0.00     0.029 A 
ATOM     59  N   UNL A   1      43.943  31.344  31.665  1.00  0.00    -0.354 N 
ATOM     60  N   UNL A   1      41.815  34.950  32.878  1.00  0.00    -0.248 NA
ATOM     61  C   UNL A   1      41.988  33.530  34.722  1.00  0.00     0.031 C 
ATOM     62  C   UNL A   1      43.498  31.608  29.572  1.00  0.00     0.029 A 
ATOM     63  C   UNL A   1      43.431  32.273  30.795  1.00  0.00     0.049 A 
ATOM     64  H   UNL A   1      44.498  31.531  32.455  1.00  0.00     0.167 HD
ATOM     65  C   UNL A   1      42.583  33.843  32.514  1.00  0.00     0.074 A 
ATOM     66  C   UNL A   1      42.664  33.019  33.704  1.00  0.00     0.031 C 
ATOM     67  C   UNL A   1      42.955  33.567  31.230  1.00  0.00     0.031 A 
BRANCH  54  68
ATOM     68  C   UNL A   1      44.196  28.145  32.653  1.00  0.00    -0.014 A 
ATOM     69  C   UNL A   1      44.176  26.910  31.980  1.00  0.00     0.009 A 
ATOM     70  C   UNL A   1      44.971  28.282  33.806  1.00  0.00     0.009 A 
ATOM     71  C   UNL A   1      44.877  25.816  32.474  1.00  0.00     0.001 A 
ATOM     72  C   UNL A   1      45.691  27.183  34.291  1.00  0.00     0.001 A 
ATOM     73  C   UNL A   1      45.630  25.951  33.635  1.00  0.00     0.000 A 
ENDBRANCH  54  68
BRANCH  55  74
ATOM     74  C   UNL A   1      39.963  35.396  36.151  1.00  0.00    -0.014 A 
ATOM     75  C   UNL A   1      40.751  36.399  36.745  1.00  0.00     0.009 A 
ATOM     76  C   UNL A   1      39.161  34.623  37.011  1.00  0.00     0.009 A 
ATOM     77  C   UNL A   1      40.649  36.692  38.111  1.00  0.00     0.001 A 
ATOM     78  C   UNL A   1      39.030  34.937  38.369  1.00  0.00     0.001 A 
ATOM     79  C   UNL A   1      39.763  35.984  38.915  1.00  0.00     0.000 A 
ENDBRANCH  55  74
BRANCH  67  80
ATOM     80  C   UNL A   1      42.647  34.610  30.204  1.00  0.00    -0.014 A 
ATOM     81  C   UNL A   1      41.406  34.605  29.556  1.00  0.00     0.009 A 
ATOM     82  C   UNL A   1      43.552  35.650  29.931  1.00  0.00     0.009 A 
ATOM     83  C   UNL A   1      41.057  35.639  28.685  1.00  0.00     0.001 A 
ATOM     84  C   UNL A   1      43.196  36.691  29.070  1.00  0.00     0.001 A 
ATOM     85  C   UNL A   1      41.946  36.688  28.455  1.00  0.00     0.000 A 
ENDBRANCH  67  80
ENDBRANCH  41  42
ENDBRANCH  34  36
ENDBRANCH  33  34
ENDBRANCH  32  33
ENDBRANCH  31  32
ENDBRANCH  30  31
ENDBRANCH  29  30
ENDBRANCH   1  29
TORSDOF 20
ENDMDL
