MODEL 1
REMARK VINA RESULT:      -9.0      0.000      0.000
REMARK SMILES O=C(OCCOCCOCCOC(=O)[C@@]1(c2ccccc2)CCCC[NH2+]1)c1ccc(-c2c3nc(c(-c4ccccc4)c4ccc([nH]4)c(-c4ccccc4)c4nc(c(-c5ccccc5)c5ccc2[nH]5)C=C4)C=C3)cc1
REMARK SMILES IDX 7 1 6 2 5 3 4 4 3 5 2 6 1 7 27 8 28 9 74 10 29 11 73 12
REMARK SMILES IDX 30 13 31 14 32 15 67 16 33 17 72 18 66 19 68 20 34 21 71 22
REMARK SMILES IDX 65 23 64 24 35 26 57 27 42 28 56 29 43 30 46 31 55 32 69 33
REMARK SMILES IDX 44 34 45 35 54 37 70 38 47 39 36 40 37 41 41 42 38 43 40 44
REMARK SMILES IDX 39 45 58 46 59 47 63 48 60 49 62 50 61 51 48 52 49 53 53 54
REMARK SMILES IDX 50 55 52 56 51 57 8 58 9 59 10 60 11 61 12 62 13 63 14 64
REMARK SMILES IDX 15 65 22 66 26 67 23 68 25 69 24 72 16 73 17 74 21 75 18 76
REMARK SMILES IDX 20 77 19 78
REMARK H PARENT 68 25 46 36 26 70 26 71
REMARK Flexibility Score: inf
ROOT
ATOM      1  C   UNL A   1      32.873  35.773  29.401  1.00  0.00     0.188 C 
ENDROOT
BRANCH   1   2
ATOM      2  O   UNL A   1      33.831  35.002  28.663  1.00  0.00    -0.376 OA
BRANCH   2   3
ATOM      3  C   UNL A   1      33.713  33.589  28.885  1.00  0.00     0.202 C 
BRANCH   3   4
ATOM      4  C   UNL A   1      34.112  32.686  27.701  1.00  0.00     0.261 C 
BRANCH   4   5
ATOM      5  O   UNL A   1      33.635  31.333  27.807  1.00  0.00    -0.460 OA
BRANCH   5   6
ATOM      6  C   UNL A   1      34.317  30.175  27.650  1.00  0.00     0.338 C 
ATOM      7  O   UNL A   1      33.736  29.222  27.116  1.00  0.00    -0.246 OA
BRANCH   6   8
ATOM      8  C   UNL A   1      35.730  29.962  28.082  1.00  0.00     0.060 A 
ATOM      9  C   UNL A   1      36.854  30.145  27.277  1.00  0.00     0.016 A 
ATOM     10  C   UNL A   1      35.939  29.605  29.427  1.00  0.00     0.016 A 
ATOM     11  C   UNL A   1      38.134  29.875  27.743  1.00  0.00     0.010 A 
ATOM     12  C   UNL A   1      37.226  29.370  29.920  1.00  0.00     0.010 A 
ATOM     13  C   UNL A   1      38.322  29.456  29.058  1.00  0.00    -0.014 A 
BRANCH  13  14
ATOM     14  C   UNL A   1      39.656  28.955  29.435  1.00  0.00     0.031 A 
ATOM     15  C   UNL A   1      40.424  29.704  30.478  1.00  0.00     0.074 A 
ATOM     16  C   UNL A   1      40.095  27.780  28.958  1.00  0.00     0.049 A 
ATOM     17  N   UNL A   1      41.581  29.420  31.012  1.00  0.00    -0.248 NA
ATOM     18  C   UNL A   1      39.798  30.930  30.998  1.00  0.00     0.031 C 
ATOM     19  C   UNL A   1      39.368  26.939  28.012  1.00  0.00     0.029 A 
ATOM     20  N   UNL A   1      41.237  27.074  29.232  1.00  0.00    -0.354 N 
ATOM     21  C   UNL A   1      41.834  30.448  31.911  1.00  0.00     0.074 A 
ATOM     22  C   UNL A   1      40.718  31.363  31.843  1.00  0.00     0.031 C 
ATOM     23  C   UNL A   1      40.069  25.815  27.809  1.00  0.00     0.029 A 
ATOM     24  C   UNL A   1      41.304  25.871  28.573  1.00  0.00     0.049 A 
ATOM     25  H   UNL A   1      41.940  27.397  29.841  1.00  0.00     0.167 HD
ATOM     26  C   UNL A   1      42.911  30.613  32.711  1.00  0.00     0.031 A 
ATOM     27  C   UNL A   1      42.263  24.929  28.575  1.00  0.00     0.031 A 
ATOM     28  C   UNL A   1      44.027  29.708  32.733  1.00  0.00     0.049 A 
ATOM     29  C   UNL A   1      43.488  25.176  29.404  1.00  0.00     0.074 A 
ATOM     30  C   UNL A   1      45.203  29.799  33.453  1.00  0.00     0.029 A 
ATOM     31  N   UNL A   1      44.104  28.542  31.982  1.00  0.00    -0.354 N 
ATOM     32  N   UNL A   1      43.743  26.172  30.219  1.00  0.00    -0.248 NA
ATOM     33  C   UNL A   1      44.563  24.183  29.306  1.00  0.00     0.031 C 
ATOM     34  C   UNL A   1      46.017  28.719  33.092  1.00  0.00     0.029 A 
ATOM     35  C   UNL A   1      45.319  27.918  32.200  1.00  0.00     0.049 A 
ATOM     36  H   UNL A   1      43.397  28.209  31.384  1.00  0.00     0.167 HD
ATOM     37  C   UNL A   1      45.006  25.928  30.735  1.00  0.00     0.074 A 
ATOM     38  C   UNL A   1      45.450  24.670  30.163  1.00  0.00     0.031 C 
ATOM     39  C   UNL A   1      45.737  26.675  31.598  1.00  0.00     0.031 A 
BRANCH  26  40
ATOM     40  C   UNL A   1      42.948  31.873  33.529  1.00  0.00    -0.014 A 
ATOM     41  C   UNL A   1      42.475  31.911  34.852  1.00  0.00     0.009 A 
ATOM     42  C   UNL A   1      43.392  33.063  32.933  1.00  0.00     0.009 A 
ATOM     43  C   UNL A   1      42.393  33.125  35.538  1.00  0.00     0.001 A 
ATOM     44  C   UNL A   1      43.338  34.269  33.632  1.00  0.00     0.001 A 
ATOM     45  C   UNL A   1      42.823  34.303  34.927  1.00  0.00     0.000 A 
ENDBRANCH  26  40
BRANCH  27  46
ATOM     46  C   UNL A   1      42.121  23.700  27.747  1.00  0.00    -0.014 A 
ATOM     47  C   UNL A   1      41.520  22.544  28.269  1.00  0.00     0.009 A 
ATOM     48  C   UNL A   1      42.589  23.677  26.423  1.00  0.00     0.009 A 
ATOM     49  C   UNL A   1      41.407  21.389  27.488  1.00  0.00     0.001 A 
ATOM     50  C   UNL A   1      42.453  22.530  25.638  1.00  0.00     0.001 A 
ATOM     51  C   UNL A   1      41.867  21.385  26.172  1.00  0.00     0.000 A 
ENDBRANCH  27  46
BRANCH  39  52
ATOM     52  C   UNL A   1      47.081  26.132  31.981  1.00  0.00    -0.014 A 
ATOM     53  C   UNL A   1      47.258  25.391  33.160  1.00  0.00     0.009 A 
ATOM     54  C   UNL A   1      48.178  26.345  31.133  1.00  0.00     0.009 A 
ATOM     55  C   UNL A   1      48.521  24.904  33.499  1.00  0.00     0.001 A 
ATOM     56  C   UNL A   1      49.432  25.828  31.460  1.00  0.00     0.001 A 
ATOM     57  C   UNL A   1      49.604  25.118  32.647  1.00  0.00     0.000 A 
ENDBRANCH  39  52
ENDBRANCH  13  14
ENDBRANCH   6   8
ENDBRANCH   5   6
ENDBRANCH   4   5
ENDBRANCH   3   4
ENDBRANCH   2   3
ENDBRANCH   1   2
BRANCH   1  58
ATOM     58  C   UNL A   1      33.476  36.930  30.201  1.00  0.00     0.188 C 
BRANCH  58  59
ATOM     59  O   UNL A   1      33.002  37.104  31.530  1.00  0.00    -0.376 OA
BRANCH  59  60
ATOM     60  C   UNL A   1      33.984  37.161  32.554  1.00  0.00     0.202 C 
BRANCH  60  61
ATOM     61  C   UNL A   1      34.363  35.857  33.268  1.00  0.00     0.261 C 
BRANCH  61  62
ATOM     62  O   UNL A   1      35.721  35.401  33.103  1.00  0.00    -0.458 OA
BRANCH  62  63
ATOM     63  C   UNL A   1      35.979  34.167  33.643  1.00  0.00     0.373 C 
ATOM     64  O   UNL A   1      35.185  33.579  34.381  1.00  0.00    -0.244 OA
BRANCH  63  65
ATOM     65  C   UNL A   1      37.434  33.638  33.339  1.00  0.00     0.219 C 
ATOM     66  C   UNL A   1      38.400  34.539  34.167  1.00  0.00     0.087 C 
ATOM     67  N   UNL A   1      37.641  32.210  33.709  1.00  0.00    -0.328 N 
ATOM     68  C   UNL A   1      38.293  34.291  35.667  1.00  0.00     0.013 C 
ATOM     69  C   UNL A   1      37.825  31.888  35.122  1.00  0.00     0.261 C 
ATOM     70  H   UNL A   1      38.469  31.884  33.211  1.00  0.00     0.347 HD
ATOM     71  H   UNL A   1      36.765  31.751  33.455  1.00  0.00     0.347 HD
ATOM     72  C   UNL A   1      38.690  32.851  35.930  1.00  0.00     0.062 C 
BRANCH  65  73
ATOM     73  C   UNL A   1      37.681  33.781  31.809  1.00  0.00     0.024 A 
ATOM     74  C   UNL A   1      36.903  33.105  30.852  1.00  0.00     0.011 A 
ATOM     75  C   UNL A   1      38.713  34.607  31.313  1.00  0.00     0.011 A 
ATOM     76  C   UNL A   1      37.209  33.161  29.489  1.00  0.00     0.001 A 
ATOM     77  C   UNL A   1      39.018  34.666  29.950  1.00  0.00     0.001 A 
ATOM     78  C   UNL A   1      38.277  33.928  29.039  1.00  0.00     0.000 A 
ENDBRANCH  65  73
ENDBRANCH  63  65
ENDBRANCH  62  63
ENDBRANCH  61  62
ENDBRANCH  60  61
ENDBRANCH  59  60
ENDBRANCH  58  59
ENDBRANCH   1  58
TORSDOF 18
ENDMDL
MODEL 2
REMARK VINA RESULT:      -8.7      1.163      6.092
REMARK SMILES O=C(OCCOCCOCCOC(=O)[C@@]1(c2ccccc2)CCCC[NH2+]1)c1ccc(-c2c3nc(c(-c4ccccc4)c4ccc([nH]4)c(-c4ccccc4)c4nc(c(-c5ccccc5)c5ccc2[nH]5)C=C4)C=C3)cc1
REMARK SMILES IDX 7 1 6 2 5 3 4 4 3 5 2 6 1 7 27 8 28 9 74 10 29 11 73 12
REMARK SMILES IDX 30 13 31 14 32 15 67 16 33 17 72 18 66 19 68 20 34 21 71 22
REMARK SMILES IDX 65 23 64 24 35 26 57 27 42 28 56 29 43 30 46 31 55 32 69 33
REMARK SMILES IDX 44 34 45 35 54 37 70 38 47 39 36 40 37 41 41 42 38 43 40 44
REMARK SMILES IDX 39 45 58 46 59 47 63 48 60 49 62 50 61 51 48 52 49 53 53 54
REMARK SMILES IDX 50 55 52 56 51 57 8 58 9 59 10 60 11 61 12 62 13 63 14 64
REMARK SMILES IDX 15 65 22 66 26 67 23 68 25 69 24 72 16 73 17 74 21 75 18 76
REMARK SMILES IDX 20 77 19 78
REMARK H PARENT 68 25 46 36 26 70 26 71
REMARK Flexibility Score: inf
ROOT
ATOM      1  C   UNL A   1      32.927  35.373  29.657  1.00  0.00     0.188 C 
ENDROOT
BRANCH   1   2
ATOM      2  O   UNL A   1      34.048  35.729  28.836  1.00  0.00    -0.376 OA
BRANCH   2   3
ATOM      3  C   UNL A   1      34.531  34.642  28.033  1.00  0.00     0.202 C 
BRANCH   3   4
ATOM      4  C   UNL A   1      33.731  33.328  28.128  1.00  0.00     0.261 C 
BRANCH   4   5
ATOM      5  O   UNL A   1      34.448  32.247  28.751  1.00  0.00    -0.460 OA
BRANCH   5   6
ATOM      6  C   UNL A   1      34.785  31.041  28.239  1.00  0.00     0.338 C 
ATOM      7  O   UNL A   1      33.989  30.491  27.467  1.00  0.00    -0.246 OA
BRANCH   6   8
ATOM      8  C   UNL A   1      36.055  30.319  28.544  1.00  0.00     0.060 A 
ATOM      9  C   UNL A   1      36.325  29.629  29.726  1.00  0.00     0.016 A 
ATOM     10  C   UNL A   1      37.030  30.286  27.530  1.00  0.00     0.016 A 
ATOM     11  C   UNL A   1      37.555  29.027  29.952  1.00  0.00     0.010 A 
ATOM     12  C   UNL A   1      38.257  29.646  27.729  1.00  0.00     0.010 A 
ATOM     13  C   UNL A   1      38.538  29.060  28.966  1.00  0.00    -0.014 A 
BRANCH  13  14
ATOM     14  C   UNL A   1      39.896  28.622  29.334  1.00  0.00     0.031 A 
ATOM     15  C   UNL A   1      40.364  27.286  28.850  1.00  0.00     0.074 A 
ATOM     16  C   UNL A   1      40.731  29.466  29.959  1.00  0.00     0.049 A 
ATOM     17  N   UNL A   1      41.531  26.719  28.994  1.00  0.00    -0.248 NA
ATOM     18  C   UNL A   1      39.390  26.486  28.091  1.00  0.00     0.031 C 
ATOM     19  C   UNL A   1      40.387  30.820  30.381  1.00  0.00     0.029 A 
ATOM     20  N   UNL A   1      42.047  29.324  30.314  1.00  0.00    -0.354 N 
ATOM     21  C   UNL A   1      41.422  25.486  28.368  1.00  0.00     0.074 A 
ATOM     22  C   UNL A   1      40.076  25.381  27.853  1.00  0.00     0.031 C 
ATOM     23  C   UNL A   1      41.476  31.396  30.910  1.00  0.00     0.029 A 
ATOM     24  C   UNL A   1      42.576  30.447  30.901  1.00  0.00     0.049 A 
ATOM     25  H   UNL A   1      42.561  28.499  30.163  1.00  0.00     0.167 HD
ATOM     26  C   UNL A   1      42.364  24.522  28.247  1.00  0.00     0.031 A 
ATOM     27  C   UNL A   1      43.807  30.676  31.391  1.00  0.00     0.031 A 
ATOM     28  C   UNL A   1      43.684  24.633  28.801  1.00  0.00     0.049 A 
ATOM     29  C   UNL A   1      44.808  29.561  31.323  1.00  0.00     0.074 A 
ATOM     30  C   UNL A   1      44.706  23.701  28.801  1.00  0.00     0.029 A 
ATOM     31  N   UNL A   1      44.161  25.752  29.472  1.00  0.00    -0.354 N 
ATOM     32  N   UNL A   1      44.686  28.378  30.769  1.00  0.00    -0.248 NA
ATOM     33  C   UNL A   1      46.108  29.802  31.959  1.00  0.00     0.031 C 
ATOM     34  C   UNL A   1      45.779  24.235  29.523  1.00  0.00     0.029 A 
ATOM     35  C   UNL A   1      45.452  25.526  29.915  1.00  0.00     0.049 A 
ATOM     36  H   UNL A   1      43.654  26.584  29.612  1.00  0.00     0.167 HD
ATOM     37  C   UNL A   1      45.892  27.732  30.985  1.00  0.00     0.074 A 
ATOM     38  C   UNL A   1      46.744  28.669  31.693  1.00  0.00     0.031 C 
ATOM     39  C   UNL A   1      46.264  26.475  30.635  1.00  0.00     0.031 A 
BRANCH  26  40
ATOM     40  C   UNL A   1      41.932  23.248  27.579  1.00  0.00    -0.014 A 
ATOM     41  C   UNL A   1      41.251  22.238  28.281  1.00  0.00     0.009 A 
ATOM     42  C   UNL A   1      42.285  23.022  26.241  1.00  0.00     0.009 A 
ATOM     43  C   UNL A   1      40.986  21.010  27.671  1.00  0.00     0.001 A 
ATOM     44  C   UNL A   1      41.992  21.806  25.624  1.00  0.00     0.001 A 
ATOM     45  C   UNL A   1      41.358  20.794  26.344  1.00  0.00     0.000 A 
ENDBRANCH  26  40
BRANCH  27  46
ATOM     46  C   UNL A   1      44.145  31.986  32.013  1.00  0.00    -0.014 A 
ATOM     47  C   UNL A   1      44.770  32.998  31.269  1.00  0.00     0.009 A 
ATOM     48  C   UNL A   1      43.842  32.231  33.363  1.00  0.00     0.009 A 
ATOM     49  C   UNL A   1      45.098  34.219  31.867  1.00  0.00     0.001 A 
ATOM     50  C   UNL A   1      44.149  33.460  33.951  1.00  0.00     0.001 A 
ATOM     51  C   UNL A   1      44.782  34.451  33.205  1.00  0.00     0.000 A 
ENDBRANCH  27  46
BRANCH  39  52
ATOM     52  C   UNL A   1      47.658  26.063  31.003  1.00  0.00    -0.014 A 
ATOM     53  C   UNL A   1      47.959  25.573  32.284  1.00  0.00     0.009 A 
ATOM     54  C   UNL A   1      48.676  26.141  30.042  1.00  0.00     0.009 A 
ATOM     55  C   UNL A   1      49.266  25.204  32.604  1.00  0.00     0.001 A 
ATOM     56  C   UNL A   1      49.975  25.740  30.356  1.00  0.00     0.001 A 
ATOM     57  C   UNL A   1      50.270  25.283  31.639  1.00  0.00     0.000 A 
ENDBRANCH  39  52
ENDBRANCH  13  14
ENDBRANCH   6   8
ENDBRANCH   5   6
ENDBRANCH   4   5
ENDBRANCH   3   4
ENDBRANCH   2   3
ENDBRANCH   1   2
BRANCH   1  58
ATOM     58  C   UNL A   1      33.070  35.773  31.127  1.00  0.00     0.188 C 
BRANCH  58  59
ATOM     59  O   UNL A   1      33.325  34.725  32.053  1.00  0.00    -0.376 OA
BRANCH  59  60
ATOM     60  C   UNL A   1      34.675  34.303  32.182  1.00  0.00     0.202 C 
BRANCH  60  61
ATOM     61  C   UNL A   1      35.481  34.807  33.387  1.00  0.00     0.261 C 
BRANCH  61  62
ATOM     62  O   UNL A   1      36.326  33.844  34.047  1.00  0.00    -0.458 OA
BRANCH  62  63
ATOM     63  C   UNL A   1      37.668  34.125  33.987  1.00  0.00     0.373 C 
ATOM     64  O   UNL A   1      38.156  35.162  34.442  1.00  0.00    -0.244 OA
BRANCH  63  65
ATOM     65  C   UNL A   1      38.498  33.063  33.168  1.00  0.00     0.219 C 
ATOM     66  C   UNL A   1      39.931  33.072  33.783  1.00  0.00     0.087 C 
ATOM     67  N   UNL A   1      37.935  31.685  33.230  1.00  0.00    -0.328 N 
ATOM     68  C   UNL A   1      39.972  32.475  35.185  1.00  0.00     0.013 C 
ATOM     69  C   UNL A   1      38.156  30.909  34.448  1.00  0.00     0.261 C 
ATOM     70  H   UNL A   1      38.338  31.158  32.456  1.00  0.00     0.347 HD
ATOM     71  H   UNL A   1      36.925  31.821  33.193  1.00  0.00     0.347 HD
ATOM     72  C   UNL A   1      39.538  31.025  35.086  1.00  0.00     0.062 C 
BRANCH  65  73
ATOM     73  C   UNL A   1      38.507  33.514  31.678  1.00  0.00     0.024 A 
ATOM     74  C   UNL A   1      37.611  32.995  30.727  1.00  0.00     0.011 A 
ATOM     75  C   UNL A   1      39.431  34.477  31.216  1.00  0.00     0.011 A 
ATOM     76  C   UNL A   1      37.706  33.331  29.373  1.00  0.00     0.001 A 
ATOM     77  C   UNL A   1      39.525  34.817  29.863  1.00  0.00     0.001 A 
ATOM     78  C   UNL A   1      38.673  34.230  28.938  1.00  0.00     0.000 A 
ENDBRANCH  65  73
ENDBRANCH  63  65
ENDBRANCH  62  63
ENDBRANCH  61  62
ENDBRANCH  60  61
ENDBRANCH  59  60
ENDBRANCH  58  59
ENDBRANCH   1  58
TORSDOF 18
ENDMDL
MODEL 3
REMARK VINA RESULT:      -8.5      4.056      9.927
REMARK SMILES O=C(OCCOCCOCCOC(=O)[C@@]1(c2ccccc2)CCCC[NH2+]1)c1ccc(-c2c3nc(c(-c4ccccc4)c4ccc([nH]4)c(-c4ccccc4)c4nc(c(-c5ccccc5)c5ccc2[nH]5)C=C4)C=C3)cc1
REMARK SMILES IDX 7 1 6 2 5 3 4 4 3 5 2 6 1 7 27 8 28 9 74 10 29 11 73 12
REMARK SMILES IDX 30 13 31 14 32 15 67 16 33 17 72 18 66 19 68 20 34 21 71 22
REMARK SMILES IDX 65 23 64 24 35 26 57 27 42 28 56 29 43 30 46 31 55 32 69 33
REMARK SMILES IDX 44 34 45 35 54 37 70 38 47 39 36 40 37 41 41 42 38 43 40 44
REMARK SMILES IDX 39 45 58 46 59 47 63 48 60 49 62 50 61 51 48 52 49 53 53 54
REMARK SMILES IDX 50 55 52 56 51 57 8 58 9 59 10 60 11 61 12 62 13 63 14 64
REMARK SMILES IDX 15 65 22 66 26 67 23 68 25 69 24 72 16 73 17 74 21 75 18 76
REMARK SMILES IDX 20 77 19 78
REMARK H PARENT 68 25 46 36 26 70 26 71
REMARK Flexibility Score: inf
ROOT
ATOM      1  C   UNL A   1      33.468  22.237  24.707  1.00  0.00     0.188 C 
ENDROOT
BRANCH   1   2
ATOM      2  O   UNL A   1      34.228  21.023  24.767  1.00  0.00    -0.376 OA
BRANCH   2   3
ATOM      3  C   UNL A   1      35.630  21.242  24.981  1.00  0.00     0.202 C 
BRANCH   3   4
ATOM      4  C   UNL A   1      35.995  22.446  25.872  1.00  0.00     0.261 C 
BRANCH   4   5
ATOM      5  O   UNL A   1      37.185  23.142  25.461  1.00  0.00    -0.460 OA
BRANCH   5   6
ATOM      6  C   UNL A   1      38.420  23.120  26.015  1.00  0.00     0.338 C 
ATOM      7  O   UNL A   1      39.098  22.092  25.893  1.00  0.00    -0.246 OA
BRANCH   6   8
ATOM      8  C   UNL A   1      39.025  24.255  26.773  1.00  0.00     0.060 A 
ATOM      9  C   UNL A   1      38.867  24.485  28.140  1.00  0.00     0.016 A 
ATOM     10  C   UNL A   1      39.869  25.124  26.057  1.00  0.00     0.016 A 
ATOM     11  C   UNL A   1      39.423  25.596  28.759  1.00  0.00     0.010 A 
ATOM     12  C   UNL A   1      40.469  26.222  26.678  1.00  0.00     0.010 A 
ATOM     13  C   UNL A   1      40.201  26.487  28.024  1.00  0.00    -0.014 A 
BRANCH  13  14
ATOM     14  C   UNL A   1      40.568  27.765  28.658  1.00  0.00     0.031 A 
ATOM     15  C   UNL A   1      42.011  28.009  28.975  1.00  0.00     0.074 A 
ATOM     16  C   UNL A   1      39.651  28.733  28.808  1.00  0.00     0.049 A 
ATOM     17  N   UNL A   1      42.577  29.075  29.473  1.00  0.00    -0.248 NA
ATOM     18  C   UNL A   1      42.941  26.908  28.679  1.00  0.00     0.031 C 
ATOM     19  C   UNL A   1      38.244  28.613  28.438  1.00  0.00     0.029 A 
ATOM     20  N   UNL A   1      39.772  30.015  29.275  1.00  0.00    -0.354 N 
ATOM     21  C   UNL A   1      43.925  28.763  29.575  1.00  0.00     0.074 A 
ATOM     22  C   UNL A   1      44.091  27.409  29.099  1.00  0.00     0.031 C 
ATOM     23  C   UNL A   1      37.639  29.787  28.663  1.00  0.00     0.029 A 
ATOM     24  C   UNL A   1      38.596  30.724  29.226  1.00  0.00     0.049 A 
ATOM     25  H   UNL A   1      40.617  30.391  29.611  1.00  0.00     0.167 HD
ATOM     26  C   UNL A   1      44.931  29.539  30.039  1.00  0.00     0.031 A 
ATOM     27  C   UNL A   1      38.322  31.984  29.607  1.00  0.00     0.031 A 
ATOM     28  C   UNL A   1      44.735  30.869  30.544  1.00  0.00     0.049 A 
ATOM     29  C   UNL A   1      39.436  32.796  30.199  1.00  0.00     0.074 A 
ATOM     30  C   UNL A   1      45.662  31.732  31.099  1.00  0.00     0.029 A 
ATOM     31  N   UNL A   1      43.511  31.527  30.565  1.00  0.00    -0.354 N 
ATOM     32  N   UNL A   1      40.702  32.480  30.336  1.00  0.00    -0.248 NA
ATOM     33  C   UNL A   1      39.085  34.128  30.704  1.00  0.00     0.031 C 
ATOM     34  C   UNL A   1      44.988  32.887  31.509  1.00  0.00     0.029 A 
ATOM     35  C   UNL A   1      43.653  32.774  31.148  1.00  0.00     0.049 A 
ATOM     36  H   UNL A   1      42.668  31.159  30.216  1.00  0.00     0.167 HD
ATOM     37  C   UNL A   1      41.303  33.573  30.939  1.00  0.00     0.074 A 
ATOM     38  C   UNL A   1      40.266  34.574  31.112  1.00  0.00     0.031 C 
ATOM     39  C   UNL A   1      42.594  33.736  31.322  1.00  0.00     0.031 A 
BRANCH  26  40
ATOM     40  C   UNL A   1      46.289  28.901  30.105  1.00  0.00    -0.014 A 
ATOM     41  C   UNL A   1      47.094  28.752  28.962  1.00  0.00     0.009 A 
ATOM     42  C   UNL A   1      46.737  28.368  31.323  1.00  0.00     0.009 A 
ATOM     43  C   UNL A   1      48.289  28.032  29.029  1.00  0.00     0.001 A 
ATOM     44  C   UNL A   1      47.946  27.676  31.393  1.00  0.00     0.001 A 
ATOM     45  C   UNL A   1      48.714  27.494  30.244  1.00  0.00     0.000 A 
ENDBRANCH  26  40
BRANCH  27  46
ATOM     46  C   UNL A   1      36.945  32.534  29.478  1.00  0.00    -0.014 A 
ATOM     47  C   UNL A   1      36.547  33.216  28.318  1.00  0.00     0.009 A 
ATOM     48  C   UNL A   1      36.016  32.378  30.520  1.00  0.00     0.009 A 
ATOM     49  C   UNL A   1      35.256  33.744  28.212  1.00  0.00     0.001 A 
ATOM     50  C   UNL A   1      34.720  32.884  30.402  1.00  0.00     0.001 A 
ATOM     51  C   UNL A   1      34.342  33.572  29.251  1.00  0.00     0.000 A 
ENDBRANCH  27  46
BRANCH  39  52
ATOM     52  C   UNL A   1      42.945  35.054  31.945  1.00  0.00    -0.014 A 
ATOM     53  C   UNL A   1      42.756  35.285  33.317  1.00  0.00     0.009 A 
ATOM     54  C   UNL A   1      43.500  36.067  31.150  1.00  0.00     0.009 A 
ATOM     55  C   UNL A   1      43.082  36.523  33.872  1.00  0.00     0.001 A 
ATOM     56  C   UNL A   1      43.857  37.292  31.715  1.00  0.00     0.001 A 
ATOM     57  C   UNL A   1      43.637  37.522  33.072  1.00  0.00     0.000 A 
ENDBRANCH  39  52
ENDBRANCH  13  14
ENDBRANCH   6   8
ENDBRANCH   5   6
ENDBRANCH   4   5
ENDBRANCH   3   4
ENDBRANCH   2   3
ENDBRANCH   1   2
BRANCH   1  58
ATOM     58  C   UNL A   1      33.048  22.649  23.294  1.00  0.00     0.188 C 
BRANCH  58  59
ATOM     59  O   UNL A   1      32.575  23.980  23.130  1.00  0.00    -0.376 OA
BRANCH  59  60
ATOM     60  C   UNL A   1      32.845  24.603  21.883  1.00  0.00     0.202 C 
BRANCH  60  61
ATOM     61  C   UNL A   1      32.915  26.136  21.839  1.00  0.00     0.261 C 
BRANCH  61  62
ATOM     62  O   UNL A   1      33.219  26.805  23.078  1.00  0.00    -0.458 OA
BRANCH  62  63
ATOM     63  C   UNL A   1      32.717  28.077  23.180  1.00  0.00     0.373 C 
ATOM     64  O   UNL A   1      33.079  29.001  22.446  1.00  0.00    -0.244 OA
BRANCH  63  65
ATOM     65  C   UNL A   1      31.740  28.274  24.402  1.00  0.00     0.219 C 
ATOM     66  C   UNL A   1      30.586  29.188  23.886  1.00  0.00     0.087 C 
ATOM     67  N   UNL A   1      31.173  27.001  24.927  1.00  0.00    -0.328 N 
ATOM     68  C   UNL A   1      29.681  28.481  22.883  1.00  0.00     0.013 C 
ATOM     69  C   UNL A   1      30.093  26.369  24.173  1.00  0.00     0.261 C 
ATOM     70  H   UNL A   1      30.820  27.189  25.865  1.00  0.00     0.347 HD
ATOM     71  H   UNL A   1      31.946  26.336  24.871  1.00  0.00     0.347 HD
ATOM     72  C   UNL A   1      29.037  27.304  23.589  1.00  0.00     0.062 C 
BRANCH  65  73
ATOM     73  C   UNL A   1      32.545  28.953  25.548  1.00  0.00     0.024 A 
ATOM     74  C   UNL A   1      32.164  30.184  26.112  1.00  0.00     0.011 A 
ATOM     75  C   UNL A   1      33.709  28.350  26.075  1.00  0.00     0.011 A 
ATOM     76  C   UNL A   1      32.960  30.829  27.064  1.00  0.00     0.001 A 
ATOM     77  C   UNL A   1      34.503  28.993  27.029  1.00  0.00     0.001 A 
ATOM     78  C   UNL A   1      34.138  30.242  27.511  1.00  0.00     0.000 A 
ENDBRANCH  65  73
ENDBRANCH  63  65
ENDBRANCH  62  63
ENDBRANCH  61  62
ENDBRANCH  60  61
ENDBRANCH  59  60
ENDBRANCH  58  59
ENDBRANCH   1  58
TORSDOF 18
ENDMDL
