MODEL 1
REMARK VINA RESULT:      -9.4      0.000      0.000
REMARK SMILES CCN1C(=O)[C@@H](CC(=O)Nc2cccc(C(=O)OCCOCCOCCOC(=O)c3ccc(-c4c5nc(c(-c6ccccc6)c6ccc([nH]6)c(-c6ccccc6)c6nc(c(-c7ccccc7)c7ccc4[nH]7)C=C6)C=C5)cc3)c2)S/C1=[NH+]\c1cc(Cl)c(O)c(Cl)c1
REMARK SMILES IDX 21 1 20 2 19 3 18 4 16 5 17 6 15 7 11 8 12 9 78 10 13 11
REMARK SMILES IDX 14 12 10 13 8 14 9 15 7 17 6 18 3 19 4 20 80 21 5 22 79 23
REMARK SMILES IDX 81 24 2 26 1 27 82 28 83 29 90 30 84 31 88 32 85 33 86 34
REMARK SMILES IDX 89 35 87 36 22 38 23 39 24 40 25 41 26 42 27 43 28 44 29 45
REMARK SMILES IDX 30 46 31 47 77 48 32 49 76 50 33 51 34 52 35 53 70 54 36 55
REMARK SMILES IDX 75 56 69 57 71 58 37 59 74 60 68 61 67 62 38 64 60 65 45 66
REMARK SMILES IDX 59 67 46 68 49 69 58 70 72 71 47 72 48 73 57 75 73 76 50 77
REMARK SMILES IDX 39 78 40 79 44 80 41 81 43 82 42 83 61 84 62 85 66 86 63 87
REMARK SMILES IDX 65 88 64 89 51 90 52 91 56 92 53 93 55 94 54 95
REMARK H PARENT 10 16 81 25 87 37 71 63 49 74
REMARK Flexibility Score: inf
ROOT
ATOM      1  O   UNL A   1      37.243  30.750  28.785  1.00  0.00    -0.376 OA
ENDROOT
BRANCH   1   2
ATOM      2  C   UNL A   1      38.457  30.021  28.990  1.00  0.00     0.202 C 
BRANCH   2   3
ATOM      3  C   UNL A   1      38.828  29.022  27.859  1.00  0.00     0.261 C 
BRANCH   3   4
ATOM      4  O   UNL A   1      39.883  28.077  28.179  1.00  0.00    -0.460 OA
BRANCH   4   5
ATOM      5  C   UNL A   1      39.490  26.879  28.705  1.00  0.00     0.338 C 
ATOM      6  O   UNL A   1      38.751  26.702  29.661  1.00  0.00    -0.246 OA
BRANCH   5   7
ATOM      7  C   UNL A   1      40.194  25.751  28.037  1.00  0.00     0.062 A 
ATOM      8  C   UNL A   1      39.958  23.715  26.723  1.00  0.00     0.042 A 
ATOM      9  C   UNL A   1      41.286  23.397  27.043  1.00  0.00     0.026 A 
ATOM     10  C   UNL A   1      39.460  24.946  27.146  1.00  0.00     0.041 A 
ATOM     11  C   UNL A   1      42.063  24.249  27.839  1.00  0.00     0.003 A 
ATOM     12  C   UNL A   1      41.510  25.420  28.362  1.00  0.00     0.016 A 
BRANCH   8  13
ATOM     13  N   UNL A   1      39.227  22.703  26.072  1.00  0.00    -0.326 N 
ATOM     14  C   UNL A   1      37.923  22.481  25.758  1.00  0.00     0.226 C 
ATOM     15  O   UNL A   1      37.667  21.401  25.211  1.00  0.00    -0.275 OA
ATOM     16  H   UNL A   1      39.808  21.970  25.766  1.00  0.00     0.169 HD
BRANCH  14  17
ATOM     17  C   UNL A   1      36.790  23.425  26.077  1.00  0.00     0.128 C 
BRANCH  17  18
ATOM     18  C   UNL A   1      35.631  23.446  25.080  1.00  0.00     0.183 C 
ATOM     19  N   UNL A   1      33.431  23.345  26.053  1.00  0.00    -0.190 N 
ATOM     20  C   UNL A   1      34.395  24.173  25.563  1.00  0.00     0.324 C 
ATOM     21  C   UNL A   1      33.528  22.072  25.566  1.00  0.00     0.319 C 
ATOM     22  O   UNL A   1      34.299  25.379  25.409  1.00  0.00    -0.245 OA
ATOM     23  S   UNL A   1      34.982  21.825  24.627  1.00  0.00    -0.022 SA
ATOM     24  N   UNL A   1      32.576  21.227  25.776  1.00  0.00    -0.235 N 
ATOM     25  H   UNL A   1      31.858  21.430  26.417  1.00  0.00     0.313 HD
BRANCH  19  26
ATOM     26  C   UNL A   1      32.232  23.658  26.848  1.00  0.00     0.243 C 
ATOM     27  C   UNL A   1      31.074  24.495  26.352  1.00  0.00     0.054 C 
ENDBRANCH  19  26
BRANCH  24  28
ATOM     28  C   UNL A   1      32.584  20.028  25.080  1.00  0.00     0.128 A 
ATOM     29  C   UNL A   1      32.323  20.060  23.709  1.00  0.00     0.076 A 
ATOM     30  C   UNL A   1      32.890  18.835  25.725  1.00  0.00     0.076 A 
ATOM     31  C   UNL A   1      32.431  18.898  22.958  1.00  0.00     0.088 A 
ATOM     32  C   UNL A   1      33.008  17.678  24.971  1.00  0.00     0.088 A 
ATOM     33  Cl  UNL A   1      32.155  18.992  21.260  1.00  0.00    -0.080 Cl
ATOM     34  C   UNL A   1      32.789  17.705  23.587  1.00  0.00     0.153 A 
ATOM     35  Cl  UNL A   1      33.467  16.216  25.761  1.00  0.00    -0.080 Cl
BRANCH  34  36
ATOM     36  O   UNL A   1      32.941  16.565  22.842  1.00  0.00    -0.505 OA
ATOM     37  H   UNL A   1      32.528  16.496  22.003  1.00  0.00     0.293 HD
ENDBRANCH  34  36
ENDBRANCH  24  28
ENDBRANCH  17  18
ENDBRANCH  14  17
ENDBRANCH   8  13
ENDBRANCH   5   7
ENDBRANCH   4   5
ENDBRANCH   3   4
ENDBRANCH   2   3
ENDBRANCH   1   2
BRANCH   1  38
ATOM     38  C   UNL A   1      37.416  32.162  28.700  1.00  0.00     0.188 C 
BRANCH  38  39
ATOM     39  C   UNL A   1      36.911  32.998  29.885  1.00  0.00     0.188 C 
BRANCH  39  40
ATOM     40  O   UNL A   1      35.487  33.104  29.876  1.00  0.00    -0.376 OA
BRANCH  40  41
ATOM     41  C   UNL A   1      34.889  32.655  31.096  1.00  0.00     0.202 C 
BRANCH  41  42
ATOM     42  C   UNL A   1      35.571  33.313  32.300  1.00  0.00     0.261 C 
BRANCH  42  43
ATOM     43  O   UNL A   1      35.601  32.489  33.484  1.00  0.00    -0.460 OA
BRANCH  43  44
ATOM     44  C   UNL A   1      36.627  32.686  34.337  1.00  0.00     0.338 C 
ATOM     45  O   UNL A   1      36.579  33.280  35.401  1.00  0.00    -0.246 OA
BRANCH  44  46
ATOM     46  C   UNL A   1      37.848  32.010  33.825  1.00  0.00     0.060 A 
ATOM     47  C   UNL A   1      39.087  32.637  34.005  1.00  0.00     0.016 A 
ATOM     48  C   UNL A   1      37.783  30.805  33.118  1.00  0.00     0.016 A 
ATOM     49  C   UNL A   1      40.255  32.068  33.486  1.00  0.00     0.010 A 
ATOM     50  C   UNL A   1      38.949  30.246  32.576  1.00  0.00     0.010 A 
ATOM     51  C   UNL A   1      40.190  30.883  32.740  1.00  0.00    -0.014 A 
BRANCH  51  52
ATOM     52  C   UNL A   1      41.386  30.386  32.010  1.00  0.00     0.031 A 
ATOM     53  C   UNL A   1      42.048  29.113  32.467  1.00  0.00     0.074 A 
ATOM     54  C   UNL A   1      41.891  31.047  30.954  1.00  0.00     0.049 A 
ATOM     55  N   UNL A   1      43.124  28.524  32.006  1.00  0.00    -0.248 NA
ATOM     56  C   UNL A   1      41.409  28.409  33.590  1.00  0.00     0.031 C 
ATOM     57  C   UNL A   1      41.340  32.270  30.373  1.00  0.00     0.029 A 
ATOM     58  N   UNL A   1      42.999  30.779  30.187  1.00  0.00    -0.354 N 
ATOM     59  C   UNL A   1      43.293  27.385  32.783  1.00  0.00     0.074 A 
ATOM     60  C   UNL A   1      42.221  27.375  33.756  1.00  0.00     0.031 C 
ATOM     61  C   UNL A   1      42.120  32.653  29.346  1.00  0.00     0.029 A 
ATOM     62  C   UNL A   1      43.241  31.722  29.218  1.00  0.00     0.049 A 
ATOM     63  H   UNL A   1      43.567  29.986  30.320  1.00  0.00     0.167 HD
ATOM     64  C   UNL A   1      44.249  26.429  32.697  1.00  0.00     0.031 A 
ATOM     65  C   UNL A   1      44.259  31.834  28.342  1.00  0.00     0.031 A 
ATOM     66  C   UNL A   1      45.335  26.434  31.755  1.00  0.00     0.049 A 
ATOM     67  C   UNL A   1      45.361  30.808  28.327  1.00  0.00     0.074 A 
ATOM     68  C   UNL A   1      46.345  25.499  31.598  1.00  0.00     0.029 A 
ATOM     69  N   UNL A   1      45.564  27.428  30.819  1.00  0.00    -0.354 N 
ATOM     70  N   UNL A   1      45.492  29.722  29.048  1.00  0.00    -0.248 NA
ATOM     71  C   UNL A   1      46.455  31.025  27.367  1.00  0.00     0.031 C 
ATOM     72  C   UNL A   1      47.212  25.951  30.598  1.00  0.00     0.029 A 
ATOM     73  C   UNL A   1      46.712  27.141  30.097  1.00  0.00     0.049 A 
ATOM     74  H   UNL A   1      44.996  28.220  30.685  1.00  0.00     0.167 HD
ATOM     75  C   UNL A   1      46.664  29.114  28.609  1.00  0.00     0.074 A 
ATOM     76  C   UNL A   1      47.200  29.944  27.552  1.00  0.00     0.031 C 
ATOM     77  C   UNL A   1      47.240  27.967  29.043  1.00  0.00     0.031 A 
BRANCH  64  78
ATOM     78  C   UNL A   1      44.176  25.300  33.684  1.00  0.00    -0.014 A 
ATOM     79  C   UNL A   1      44.468  25.504  35.041  1.00  0.00     0.009 A 
ATOM     80  C   UNL A   1      43.779  24.024  33.255  1.00  0.00     0.009 A 
ATOM     81  C   UNL A   1      44.393  24.443  35.946  1.00  0.00     0.001 A 
ATOM     82  C   UNL A   1      43.683  22.971  34.166  1.00  0.00     0.001 A 
ATOM     83  C   UNL A   1      43.998  23.180  35.508  1.00  0.00     0.000 A 
ENDBRANCH  64  78
BRANCH  65  84
ATOM     84  C   UNL A   1      44.312  32.987  27.405  1.00  0.00    -0.014 A 
ATOM     85  C   UNL A   1      43.777  32.880  26.112  1.00  0.00     0.009 A 
ATOM     86  C   UNL A   1      44.942  34.183  27.785  1.00  0.00     0.009 A 
ATOM     87  C   UNL A   1      43.895  33.940  25.209  1.00  0.00     0.001 A 
ATOM     88  C   UNL A   1      45.035  35.249  26.888  1.00  0.00     0.001 A 
ATOM     89  C   UNL A   1      44.520  35.124  25.599  1.00  0.00     0.000 A 
ENDBRANCH  65  84
BRANCH  77  90
ATOM     90  C   UNL A   1      48.495  27.515  28.350  1.00  0.00    -0.014 A 
ATOM     91  C   UNL A   1      48.455  26.611  27.277  1.00  0.00     0.009 A 
ATOM     92  C   UNL A   1      49.738  28.029  28.757  1.00  0.00     0.009 A 
ATOM     93  C   UNL A   1      49.636  26.209  26.646  1.00  0.00     0.001 A 
ATOM     94  C   UNL A   1      50.913  27.644  28.109  1.00  0.00     0.001 A 
ATOM     95  C   UNL A   1      50.862  26.727  27.061  1.00  0.00     0.000 A 
ENDBRANCH  77  90
ENDBRANCH  51  52
ENDBRANCH  44  46
ENDBRANCH  43  44
ENDBRANCH  42  43
ENDBRANCH  41  42
ENDBRANCH  40  41
ENDBRANCH  39  40
ENDBRANCH  38  39
ENDBRANCH   1  38
TORSDOF 23
ENDMDL
MODEL 2
REMARK VINA RESULT:      -8.6      4.445     10.025
REMARK SMILES CCN1C(=O)[C@@H](CC(=O)Nc2cccc(C(=O)OCCOCCOCCOC(=O)c3ccc(-c4c5nc(c(-c6ccccc6)c6ccc([nH]6)c(-c6ccccc6)c6nc(c(-c7ccccc7)c7ccc4[nH]7)C=C6)C=C5)cc3)c2)S/C1=[NH+]\c1cc(Cl)c(O)c(Cl)c1
REMARK SMILES IDX 21 1 20 2 19 3 18 4 16 5 17 6 15 7 11 8 12 9 78 10 13 11
REMARK SMILES IDX 14 12 10 13 8 14 9 15 7 17 6 18 3 19 4 20 80 21 5 22 79 23
REMARK SMILES IDX 81 24 2 26 1 27 82 28 83 29 90 30 84 31 88 32 85 33 86 34
REMARK SMILES IDX 89 35 87 36 22 38 23 39 24 40 25 41 26 42 27 43 28 44 29 45
REMARK SMILES IDX 30 46 31 47 77 48 32 49 76 50 33 51 34 52 35 53 70 54 36 55
REMARK SMILES IDX 75 56 69 57 71 58 37 59 74 60 68 61 67 62 38 64 60 65 45 66
REMARK SMILES IDX 59 67 46 68 49 69 58 70 72 71 47 72 48 73 57 75 73 76 50 77
REMARK SMILES IDX 39 78 40 79 44 80 41 81 43 82 42 83 61 84 62 85 66 86 63 87
REMARK SMILES IDX 65 88 64 89 51 90 52 91 56 92 53 93 55 94 54 95
REMARK H PARENT 10 16 81 25 87 37 71 63 49 74
REMARK Flexibility Score: inf
ROOT
ATOM      1  O   UNL A   1      31.780  25.849  25.152  1.00  0.00    -0.376 OA
ENDROOT
BRANCH   1   2
ATOM      2  C   UNL A   1      32.824  25.267  25.939  1.00  0.00     0.202 C 
BRANCH   2   3
ATOM      3  C   UNL A   1      32.789  23.717  26.044  1.00  0.00     0.261 C 
BRANCH   3   4
ATOM      4  O   UNL A   1      34.061  23.079  26.333  1.00  0.00    -0.460 OA
BRANCH   4   5
ATOM      5  C   UNL A   1      34.789  22.656  25.257  1.00  0.00     0.338 C 
ATOM      6  O   UNL A   1      34.362  22.328  24.161  1.00  0.00    -0.246 OA
BRANCH   5   7
ATOM      7  C   UNL A   1      36.225  22.505  25.617  1.00  0.00     0.062 A 
ATOM      8  C   UNL A   1      38.370  23.627  25.882  1.00  0.00     0.042 A 
ATOM      9  C   UNL A   1      38.985  22.366  25.902  1.00  0.00     0.026 A 
ATOM     10  C   UNL A   1      36.978  23.674  25.839  1.00  0.00     0.041 A 
ATOM     11  C   UNL A   1      38.232  21.191  25.793  1.00  0.00     0.003 A 
ATOM     12  C   UNL A   1      36.847  21.257  25.623  1.00  0.00     0.016 A 
BRANCH   8  13
ATOM     13  N   UNL A   1      39.241  24.731  25.817  1.00  0.00    -0.326 N 
ATOM     14  C   UNL A   1      40.004  25.432  26.696  1.00  0.00     0.226 C 
ATOM     15  O   UNL A   1      40.607  26.411  26.240  1.00  0.00    -0.275 OA
ATOM     16  H   UNL A   1      39.316  25.086  24.902  1.00  0.00     0.169 HD
BRANCH  14  17
ATOM     17  C   UNL A   1      40.116  25.128  28.171  1.00  0.00     0.128 C 
BRANCH  17  18
ATOM     18  C   UNL A   1      41.456  24.562  28.642  1.00  0.00     0.183 C 
ATOM     19  N   UNL A   1      43.383  25.315  27.412  1.00  0.00    -0.190 N 
ATOM     20  C   UNL A   1      42.622  25.518  28.524  1.00  0.00     0.324 C 
ATOM     21  C   UNL A   1      43.277  24.044  26.921  1.00  0.00     0.319 C 
ATOM     22  O   UNL A   1      42.856  26.307  29.423  1.00  0.00    -0.245 OA
ATOM     23  S   UNL A   1      42.037  23.116  27.734  1.00  0.00    -0.022 SA
ATOM     24  N   UNL A   1      44.084  23.639  26.000  1.00  0.00    -0.235 N 
ATOM     25  H   UNL A   1      44.667  24.276  25.529  1.00  0.00     0.313 HD
BRANCH  19  26
ATOM     26  C   UNL A   1      44.411  26.174  26.803  1.00  0.00     0.243 C 
ATOM     27  C   UNL A   1      44.215  26.969  25.531  1.00  0.00     0.054 C 
ENDBRANCH  19  26
BRANCH  24  28
ATOM     28  C   UNL A   1      44.116  22.289  25.688  1.00  0.00     0.128 A 
ATOM     29  C   UNL A   1      45.323  21.741  25.252  1.00  0.00     0.076 A 
ATOM     30  C   UNL A   1      42.986  21.495  25.854  1.00  0.00     0.076 A 
ATOM     31  C   UNL A   1      45.425  20.374  25.037  1.00  0.00     0.088 A 
ATOM     32  C   UNL A   1      43.093  20.129  25.649  1.00  0.00     0.088 A 
ATOM     33  Cl  UNL A   1      46.949  19.732  24.551  1.00  0.00    -0.080 Cl
ATOM     34  C   UNL A   1      44.310  19.561  25.250  1.00  0.00     0.153 A 
ATOM     35  Cl  UNL A   1      41.712  19.137  25.933  1.00  0.00    -0.080 Cl
BRANCH  34  36
ATOM     36  O   UNL A   1      44.419  18.206  25.083  1.00  0.00    -0.505 OA
ATOM     37  H   UNL A   1      44.212  17.629  25.793  1.00  0.00     0.293 HD
ENDBRANCH  34  36
ENDBRANCH  24  28
ENDBRANCH  17  18
ENDBRANCH  14  17
ENDBRANCH   8  13
ENDBRANCH   5   7
ENDBRANCH   4   5
ENDBRANCH   3   4
ENDBRANCH   2   3
ENDBRANCH   1   2
BRANCH   1  38
ATOM     38  C   UNL A   1      32.116  27.106  24.573  1.00  0.00     0.188 C 
BRANCH  38  39
ATOM     39  C   UNL A   1      31.532  28.359  25.241  1.00  0.00     0.188 C 
BRANCH  39  40
ATOM     40  O   UNL A   1      32.256  28.703  26.422  1.00  0.00    -0.376 OA
BRANCH  40  41
ATOM     41  C   UNL A   1      31.900  29.990  26.937  1.00  0.00     0.202 C 
BRANCH  41  42
ATOM     42  C   UNL A   1      33.101  30.941  26.880  1.00  0.00     0.261 C 
BRANCH  42  43
ATOM     43  O   UNL A   1      33.966  30.867  28.031  1.00  0.00    -0.460 OA
BRANCH  43  44
ATOM     44  C   UNL A   1      35.198  30.354  27.835  1.00  0.00     0.338 C 
ATOM     45  O   UNL A   1      35.502  29.487  27.033  1.00  0.00    -0.246 OA
BRANCH  44  46
ATOM     46  C   UNL A   1      36.181  31.048  28.708  1.00  0.00     0.060 A 
ATOM     47  C   UNL A   1      37.212  30.297  29.287  1.00  0.00     0.016 A 
ATOM     48  C   UNL A   1      36.065  32.408  29.014  1.00  0.00     0.016 A 
ATOM     49  C   UNL A   1      38.123  30.897  30.164  1.00  0.00     0.010 A 
ATOM     50  C   UNL A   1      36.962  33.004  29.912  1.00  0.00     0.010 A 
ATOM     51  C   UNL A   1      37.986  32.248  30.507  1.00  0.00    -0.014 A 
BRANCH  51  52
ATOM     52  C   UNL A   1      38.813  32.838  31.592  1.00  0.00     0.031 A 
ATOM     53  C   UNL A   1      40.071  33.584  31.234  1.00  0.00     0.074 A 
ATOM     54  C   UNL A   1      38.465  32.718  32.886  1.00  0.00     0.049 A 
ATOM     55  N   UNL A   1      40.962  34.136  32.019  1.00  0.00    -0.248 NA
ATOM     56  C   UNL A   1      40.360  33.728  29.798  1.00  0.00     0.031 C 
ATOM     57  C   UNL A   1      37.261  32.059  33.386  1.00  0.00     0.029 A 
ATOM     58  N   UNL A   1      39.112  33.146  34.021  1.00  0.00    -0.354 N 
ATOM     59  C   UNL A   1      41.916  34.690  31.176  1.00  0.00     0.074 A 
ATOM     60  C   UNL A   1      41.507  34.390  29.820  1.00  0.00     0.031 C 
ATOM     61  C   UNL A   1      37.260  32.117  34.730  1.00  0.00     0.029 A 
ATOM     62  C   UNL A   1      38.477  32.787  35.185  1.00  0.00     0.049 A 
ATOM     63  H   UNL A   1      39.951  33.660  34.001  1.00  0.00     0.167 HD
ATOM     64  C   UNL A   1      43.033  35.388  31.495  1.00  0.00     0.031 A 
ATOM     65  C   UNL A   1      38.845  32.960  36.470  1.00  0.00     0.031 A 
ATOM     66  C   UNL A   1      43.470  35.674  32.834  1.00  0.00     0.049 A 
ATOM     67  C   UNL A   1      40.138  33.659  36.799  1.00  0.00     0.074 A 
ATOM     68  C   UNL A   1      44.589  36.381  33.244  1.00  0.00     0.029 A 
ATOM     69  N   UNL A   1      42.819  35.258  33.983  1.00  0.00    -0.354 N 
ATOM     70  N   UNL A   1      41.017  34.201  35.992  1.00  0.00    -0.248 NA
ATOM     71  C   UNL A   1      40.485  33.772  38.226  1.00  0.00     0.031 C 
ATOM     72  C   UNL A   1      44.640  36.352  34.642  1.00  0.00     0.029 A 
ATOM     73  C   UNL A   1      43.525  35.672  35.102  1.00  0.00     0.049 A 
ATOM     74  H   UNL A   1      41.980  34.744  34.003  1.00  0.00     0.167 HD
ATOM     75  C   UNL A   1      42.001  34.744  36.812  1.00  0.00     0.074 A 
ATOM     76  C   UNL A   1      41.608  34.476  38.178  1.00  0.00     0.031 C 
ATOM     77  C   UNL A   1      43.129  35.407  36.460  1.00  0.00     0.031 A 
BRANCH  64  78
ATOM     78  C   UNL A   1      43.887  35.867  30.356  1.00  0.00    -0.014 A 
ATOM     79  C   UNL A   1      45.037  35.165  29.966  1.00  0.00     0.009 A 
ATOM     80  C   UNL A   1      43.516  37.020  29.646  1.00  0.00     0.009 A 
ATOM     81  C   UNL A   1      45.818  35.625  28.904  1.00  0.00     0.001 A 
ATOM     82  C   UNL A   1      44.286  37.464  28.569  1.00  0.00     0.001 A 
ATOM     83  C   UNL A   1      45.440  36.771  28.205  1.00  0.00     0.000 A 
ENDBRANCH  64  78
BRANCH  65  84
ATOM     84  C   UNL A   1      37.989  32.438  37.567  1.00  0.00    -0.014 A 
ATOM     85  C   UNL A   1      37.447  33.309  38.526  1.00  0.00     0.009 A 
ATOM     86  C   UNL A   1      37.750  31.060  37.688  1.00  0.00     0.009 A 
ATOM     87  C   UNL A   1      36.705  32.807  39.597  1.00  0.00     0.001 A 
ATOM     88  C   UNL A   1      36.986  30.565  38.746  1.00  0.00     0.001 A 
ATOM     89  C   UNL A   1      36.472  31.436  39.704  1.00  0.00     0.000 A 
ENDBRANCH  65  84
BRANCH  77  90
ATOM     90  C   UNL A   1      44.001  35.931  37.568  1.00  0.00    -0.014 A 
ATOM     91  C   UNL A   1      43.991  37.287  37.929  1.00  0.00     0.009 A 
ATOM     92  C   UNL A   1      44.821  35.043  38.284  1.00  0.00     0.009 A 
ATOM     93  C   UNL A   1      44.809  37.748  38.965  1.00  0.00     0.001 A 
ATOM     94  C   UNL A   1      45.618  35.502  39.334  1.00  0.00     0.001 A 
ATOM     95  C   UNL A   1      45.619  36.856  39.667  1.00  0.00     0.000 A 
ENDBRANCH  77  90
ENDBRANCH  51  52
ENDBRANCH  44  46
ENDBRANCH  43  44
ENDBRANCH  42  43
ENDBRANCH  41  42
ENDBRANCH  40  41
ENDBRANCH  39  40
ENDBRANCH  38  39
ENDBRANCH   1  38
TORSDOF 23
ENDMDL
MODEL 3
REMARK VINA RESULT:      -8.5      5.986     10.668
REMARK SMILES CCN1C(=O)[C@@H](CC(=O)Nc2cccc(C(=O)OCCOCCOCCOC(=O)c3ccc(-c4c5nc(c(-c6ccccc6)c6ccc([nH]6)c(-c6ccccc6)c6nc(c(-c7ccccc7)c7ccc4[nH]7)C=C6)C=C5)cc3)c2)S/C1=[NH+]\c1cc(Cl)c(O)c(Cl)c1
REMARK SMILES IDX 21 1 20 2 19 3 18 4 16 5 17 6 15 7 11 8 12 9 78 10 13 11
REMARK SMILES IDX 14 12 10 13 8 14 9 15 7 17 6 18 3 19 4 20 80 21 5 22 79 23
REMARK SMILES IDX 81 24 2 26 1 27 82 28 83 29 90 30 84 31 88 32 85 33 86 34
REMARK SMILES IDX 89 35 87 36 22 38 23 39 24 40 25 41 26 42 27 43 28 44 29 45
REMARK SMILES IDX 30 46 31 47 77 48 32 49 76 50 33 51 34 52 35 53 70 54 36 55
REMARK SMILES IDX 75 56 69 57 71 58 37 59 74 60 68 61 67 62 38 64 60 65 45 66
REMARK SMILES IDX 59 67 46 68 49 69 58 70 72 71 47 72 48 73 57 75 73 76 50 77
REMARK SMILES IDX 39 78 40 79 44 80 41 81 43 82 42 83 61 84 62 85 66 86 63 87
REMARK SMILES IDX 65 88 64 89 51 90 52 91 56 92 53 93 55 94 54 95
REMARK H PARENT 10 16 81 25 87 37 71 63 49 74
REMARK Flexibility Score: inf
ROOT
ATOM      1  O   UNL A   1      44.647  40.865  31.744  1.00  0.00    -0.376 OA
ENDROOT
BRANCH   1   2
ATOM      2  C   UNL A   1      43.441  40.159  31.438  1.00  0.00     0.202 C 
BRANCH   2   3
ATOM      3  C   UNL A   1      42.826  40.470  30.045  1.00  0.00     0.261 C 
BRANCH   3   4
ATOM      4  O   UNL A   1      43.495  39.854  28.914  1.00  0.00    -0.460 OA
BRANCH   4   5
ATOM      5  C   UNL A   1      42.832  38.831  28.296  1.00  0.00     0.338 C 
ATOM      6  O   UNL A   1      41.624  38.702  28.178  1.00  0.00    -0.246 OA
BRANCH   5   7
ATOM      7  C   UNL A   1      43.781  37.768  27.868  1.00  0.00     0.062 A 
ATOM      8  C   UNL A   1      44.601  35.510  28.268  1.00  0.00     0.042 A 
ATOM      9  C   UNL A   1      45.707  35.808  27.458  1.00  0.00     0.026 A 
ATOM     10  C   UNL A   1      43.596  36.470  28.381  1.00  0.00     0.041 A 
ATOM     11  C   UNL A   1      45.844  37.063  26.852  1.00  0.00     0.003 A 
ATOM     12  C   UNL A   1      44.892  38.059  27.076  1.00  0.00     0.016 A 
BRANCH   8  13
ATOM     13  N   UNL A   1      44.664  34.288  28.964  1.00  0.00    -0.326 N 
ATOM     14  C   UNL A   1      45.429  33.166  28.910  1.00  0.00     0.226 C 
ATOM     15  O   UNL A   1      45.120  32.254  29.686  1.00  0.00    -0.275 OA
ATOM     16  H   UNL A   1      43.980  34.233  29.671  1.00  0.00     0.169 HD
BRANCH  14  17
ATOM     17  C   UNL A   1      46.569  32.949  27.945  1.00  0.00     0.128 C 
BRANCH  17  18
ATOM     18  C   UNL A   1      46.275  32.047  26.747  1.00  0.00     0.183 C 
ATOM     19  N   UNL A   1      44.373  30.592  26.993  1.00  0.00    -0.190 N 
ATOM     20  C   UNL A   1      44.806  31.786  26.498  1.00  0.00     0.324 C 
ATOM     21  C   UNL A   1      45.382  29.683  27.141  1.00  0.00     0.319 C 
ATOM     22  O   UNL A   1      44.153  32.567  25.828  1.00  0.00    -0.245 OA
ATOM     23  S   UNL A   1      46.959  30.382  26.856  1.00  0.00    -0.022 SA
ATOM     24  N   UNL A   1      45.105  28.451  27.405  1.00  0.00    -0.235 N 
ATOM     25  H   UNL A   1      44.193  28.186  27.663  1.00  0.00     0.313 HD
BRANCH  19  26
ATOM     26  C   UNL A   1      43.002  30.097  27.198  1.00  0.00     0.243 C 
ATOM     27  C   UNL A   1      42.168  29.425  26.131  1.00  0.00     0.054 C 
ENDBRANCH  19  26
BRANCH  24  28
ATOM     28  C   UNL A   1      46.116  27.507  27.316  1.00  0.00     0.128 A 
ATOM     29  C   UNL A   1      46.849  27.215  28.468  1.00  0.00     0.076 A 
ATOM     30  C   UNL A   1      46.358  26.835  26.123  1.00  0.00     0.076 A 
ATOM     31  C   UNL A   1      47.793  26.199  28.448  1.00  0.00     0.088 A 
ATOM     32  C   UNL A   1      47.293  25.813  26.108  1.00  0.00     0.088 A 
ATOM     33  Cl  UNL A   1      48.637  25.835  29.906  1.00  0.00    -0.080 Cl
ATOM     34  C   UNL A   1      48.007  25.484  27.268  1.00  0.00     0.153 A 
ATOM     35  Cl  UNL A   1      47.533  24.929  24.648  1.00  0.00    -0.080 Cl
BRANCH  34  36
ATOM     36  O   UNL A   1      48.905  24.449  27.257  1.00  0.00    -0.505 OA
ATOM     37  H   UNL A   1      49.152  24.052  26.444  1.00  0.00     0.293 HD
ENDBRANCH  34  36
ENDBRANCH  24  28
ENDBRANCH  17  18
ENDBRANCH  14  17
ENDBRANCH   8  13
ENDBRANCH   5   7
ENDBRANCH   4   5
ENDBRANCH   3   4
ENDBRANCH   2   3
ENDBRANCH   1   2
BRANCH   1  38
ATOM     38  C   UNL A   1      44.459  42.249  32.028  1.00  0.00     0.188 C 
BRANCH  38  39
ATOM     39  C   UNL A   1      44.673  42.698  33.481  1.00  0.00     0.188 C 
BRANCH  39  40
ATOM     40  O   UNL A   1      45.179  41.631  34.284  1.00  0.00    -0.376 OA
BRANCH  40  41
ATOM     41  C   UNL A   1      44.333  41.324  35.397  1.00  0.00     0.202 C 
BRANCH  41  42
ATOM     42  C   UNL A   1      44.717  39.972  36.005  1.00  0.00     0.261 C 
BRANCH  42  43
ATOM     43  O   UNL A   1      44.171  38.834  35.307  1.00  0.00    -0.460 OA
BRANCH  43  44
ATOM     44  C   UNL A   1      43.845  37.760  36.054  1.00  0.00     0.338 C 
ATOM     45  O   UNL A   1      43.965  37.656  37.263  1.00  0.00    -0.246 OA
BRANCH  44  46
ATOM     46  C   UNL A   1      43.242  36.709  35.192  1.00  0.00     0.060 A 
ATOM     47  C   UNL A   1      42.532  35.668  35.803  1.00  0.00     0.016 A 
ATOM     48  C   UNL A   1      43.418  36.701  33.805  1.00  0.00     0.016 A 
ATOM     49  C   UNL A   1      41.999  34.624  35.036  1.00  0.00     0.010 A 
ATOM     50  C   UNL A   1      42.907  35.644  33.039  1.00  0.00     0.010 A 
ATOM     51  C   UNL A   1      42.210  34.589  33.652  1.00  0.00    -0.014 A 
BRANCH  51  52
ATOM     52  C   UNL A   1      41.834  33.386  32.863  1.00  0.00     0.031 A 
ATOM     53  C   UNL A   1      42.814  32.249  32.747  1.00  0.00     0.074 A 
ATOM     54  C   UNL A   1      40.640  33.290  32.251  1.00  0.00     0.049 A 
ATOM     55  N   UNL A   1      42.712  31.130  32.074  1.00  0.00    -0.248 NA
ATOM     56  C   UNL A   1      44.076  32.394  33.490  1.00  0.00     0.031 C 
ATOM     57  C   UNL A   1      39.575  34.290  32.303  1.00  0.00     0.029 A 
ATOM     58  N   UNL A   1      40.132  32.296  31.450  1.00  0.00    -0.354 N 
ATOM     59  C   UNL A   1      43.894  30.439  32.310  1.00  0.00     0.074 A 
ATOM     60  C   UNL A   1      44.707  31.273  33.170  1.00  0.00     0.031 C 
ATOM     61  C   UNL A   1      38.542  33.862  31.555  1.00  0.00     0.029 A 
ATOM     62  C   UNL A   1      38.885  32.576  30.948  1.00  0.00     0.049 A 
ATOM     63  H   UNL A   1      40.617  31.462  31.254  1.00  0.00     0.167 HD
ATOM     64  C   UNL A   1      44.274  29.220  31.856  1.00  0.00     0.031 A 
ATOM     65  C   UNL A   1      38.116  31.887  30.081  1.00  0.00     0.031 A 
ATOM     66  C   UNL A   1      43.494  28.388  30.981  1.00  0.00     0.049 A 
ATOM     67  C   UNL A   1      38.599  30.576  29.519  1.00  0.00     0.074 A 
ATOM     68  C   UNL A   1      43.804  27.135  30.479  1.00  0.00     0.029 A 
ATOM     69  N   UNL A   1      42.255  28.728  30.466  1.00  0.00    -0.354 N 
ATOM     70  N   UNL A   1      39.707  29.923  29.772  1.00  0.00    -0.248 NA
ATOM     71  C   UNL A   1      37.717  29.906  28.549  1.00  0.00     0.031 C 
ATOM     72  C   UNL A   1      42.773  26.737  29.621  1.00  0.00     0.029 A 
ATOM     73  C   UNL A   1      41.798  27.720  29.632  1.00  0.00     0.049 A 
ATOM     74  H   UNL A   1      41.770  29.561  30.662  1.00  0.00     0.167 HD
ATOM     75  C   UNL A   1      39.639  28.755  29.019  1.00  0.00     0.074 A 
ATOM     76  C   UNL A   1      38.379  28.783  28.308  1.00  0.00     0.031 C 
ATOM     77  C   UNL A   1      40.542  27.749  28.929  1.00  0.00     0.031 A 
BRANCH  64  78
ATOM     78  C   UNL A   1      45.626  28.724  32.282  1.00  0.00    -0.014 A 
ATOM     79  C   UNL A   1      45.758  27.738  33.271  1.00  0.00     0.009 A 
ATOM     80  C   UNL A   1      46.779  29.228  31.661  1.00  0.00     0.009 A 
ATOM     81  C   UNL A   1      47.024  27.288  33.654  1.00  0.00     0.001 A 
ATOM     82  C   UNL A   1      48.042  28.759  32.029  1.00  0.00     0.001 A 
ATOM     83  C   UNL A   1      48.162  27.796  33.030  1.00  0.00     0.000 A 
ENDBRANCH  64  78
BRANCH  65  84
ATOM     84  C   UNL A   1      36.799  32.431  29.658  1.00  0.00    -0.014 A 
ATOM     85  C   UNL A   1      35.650  32.201  30.432  1.00  0.00     0.009 A 
ATOM     86  C   UNL A   1      36.677  33.139  28.453  1.00  0.00     0.009 A 
ATOM     87  C   UNL A   1      34.402  32.650  29.993  1.00  0.00     0.001 A 
ATOM     88  C   UNL A   1      35.432  33.608  28.030  1.00  0.00     0.001 A 
ATOM     89  C   UNL A   1      34.295  33.355  28.795  1.00  0.00     0.000 A 
ENDBRANCH  65  84
BRANCH  77  90
ATOM     90  C   UNL A   1      40.186  26.571  28.065  1.00  0.00    -0.014 A 
ATOM     91  C   UNL A   1      40.737  26.408  26.784  1.00  0.00     0.009 A 
ATOM     92  C   UNL A   1      39.308  25.590  28.556  1.00  0.00     0.009 A 
ATOM     93  C   UNL A   1      40.392  25.303  26.002  1.00  0.00     0.001 A 
ATOM     94  C   UNL A   1      38.986  24.474  27.781  1.00  0.00     0.001 A 
ATOM     95  C   UNL A   1      39.520  24.336  26.501  1.00  0.00     0.000 A 
ENDBRANCH  77  90
ENDBRANCH  51  52
ENDBRANCH  44  46
ENDBRANCH  43  44
ENDBRANCH  42  43
ENDBRANCH  41  42
ENDBRANCH  40  41
ENDBRANCH  39  40
ENDBRANCH  38  39
ENDBRANCH   1  38
TORSDOF 23
ENDMDL
