MODEL 1
REMARK VINA RESULT:     -10.4      0.000      0.000
REMARK SMILES Cc1c(Cl)cccc1NC(=O)C[C@](C)(C(=O)OCCOCCOCCOC(=O)c1ccc(-c2c3nc(c(-c4ccccc4)c4ccc([nH]4)c(-c4ccccc4)c4nc(c(-c5ccccc5)c5ccc2[nH]5)C=C4)C=C3)cc1)c1ccccc1
REMARK SMILES IDX 21 1 20 2 19 3 18 4 17 5 15 6 16 7 13 8 14 9 12 10 10 11
REMARK SMILES IDX 9 12 11 14 8 15 1 16 2 17 3 18 4 19 5 20 7 21 6 22 77 23
REMARK SMILES IDX 78 24 82 25 79 26 81 27 80 28 22 29 23 30 24 31 25 32 26 33
REMARK SMILES IDX 27 34 28 35 29 36 30 37 76 38 31 39 75 40 32 41 33 42 34 43
REMARK SMILES IDX 69 44 35 45 74 46 68 47 70 48 36 49 73 50 67 51 66 52 37 54
REMARK SMILES IDX 59 55 44 56 58 57 45 58 48 59 57 60 71 61 46 62 47 63 56 65
REMARK SMILES IDX 72 66 49 67 38 68 39 69 43 70 40 71 42 72 41 73 60 74 61 75
REMARK SMILES IDX 65 76 62 77 64 78 63 79 50 80 51 81 55 82 52 83 54 84 53 85
REMARK H PARENT 9 13 70 53 48 64
REMARK Flexibility Score: inf
ROOT
ATOM      1  C   UNL A   1      39.515  21.097  25.724  1.00  0.00     0.188 C 
ENDROOT
BRANCH   1   2
ATOM      2  O   UNL A   1      38.560  22.136  25.917  1.00  0.00    -0.376 OA
BRANCH   2   3
ATOM      3  C   UNL A   1      37.179  21.805  25.799  1.00  0.00     0.202 C 
BRANCH   3   4
ATOM      4  C   UNL A   1      36.192  22.968  25.660  1.00  0.00     0.261 C 
BRANCH   4   5
ATOM      5  O   UNL A   1      34.800  22.591  25.746  1.00  0.00    -0.463 OA
BRANCH   5   6
ATOM      6  C   UNL A   1      34.087  22.721  24.597  1.00  0.00     0.316 C 
ATOM      7  O   UNL A   1      34.353  22.086  23.579  1.00  0.00    -0.251 OA
BRANCH   6   8
ATOM      8  C   UNL A   1      32.902  23.734  24.655  1.00  0.00     0.099 C 
ATOM      9  C   UNL A   1      31.527  23.215  24.146  1.00  0.00     0.029 C 
BRANCH   8  10
ATOM     10  C   UNL A   1      32.722  24.132  26.159  1.00  0.00     0.123 C 
BRANCH  10  11
ATOM     11  C   UNL A   1      31.313  24.355  26.708  1.00  0.00     0.225 C 
ATOM     12  N   UNL A   1      30.547  25.464  26.492  1.00  0.00    -0.326 N 
ATOM     13  H   UNL A   1      29.615  25.339  26.782  1.00  0.00     0.169 HD
ATOM     14  O   UNL A   1      30.792  23.462  27.389  1.00  0.00    -0.275 OA
BRANCH  12  15
ATOM     15  C   UNL A   1      30.777  26.743  25.953  1.00  0.00     0.045 A 
ATOM     16  C   UNL A   1      29.366  26.150  23.881  1.00  0.00     0.048 C 
ATOM     17  C   UNL A   1      30.256  27.077  24.675  1.00  0.00    -0.009 A 
ATOM     18  C   UNL A   1      30.590  28.336  24.118  1.00  0.00     0.046 A 
ATOM     19  Cl  UNL A   1      30.056  28.811  22.540  1.00  0.00    -0.084 Cl
ATOM     20  C   UNL A   1      31.378  29.249  24.815  1.00  0.00     0.021 A 
ATOM     21  C   UNL A   1      31.484  27.712  26.670  1.00  0.00     0.026 A 
ATOM     22  C   UNL A   1      31.801  28.948  26.101  1.00  0.00     0.004 A 
ENDBRANCH  12  15
ENDBRANCH  10  11
ENDBRANCH   8  10
BRANCH   8  23
ATOM     23  C   UNL A   1      33.192  24.980  23.746  1.00  0.00    -0.030 A 
ATOM     24  C   UNL A   1      33.915  26.085  24.248  1.00  0.00     0.005 A 
ATOM     25  C   UNL A   1      32.662  25.106  22.448  1.00  0.00     0.005 A 
ATOM     26  C   UNL A   1      34.061  27.262  23.503  1.00  0.00     0.000 A 
ATOM     27  C   UNL A   1      32.833  26.273  21.696  1.00  0.00     0.000 A 
ATOM     28  C   UNL A   1      33.517  27.358  22.228  1.00  0.00     0.000 A 
ENDBRANCH   8  23
ENDBRANCH   6   8
ENDBRANCH   5   6
ENDBRANCH   4   5
ENDBRANCH   3   4
ENDBRANCH   2   3
ENDBRANCH   1   2
BRANCH   1  29
ATOM     29  C   UNL A   1      40.833  21.172  26.511  1.00  0.00     0.188 C 
BRANCH  29  30
ATOM     30  O   UNL A   1      41.935  20.577  25.869  1.00  0.00    -0.376 OA
BRANCH  30  31
ATOM     31  C   UNL A   1      42.341  19.295  26.301  1.00  0.00     0.202 C 
BRANCH  31  32
ATOM     32  C   UNL A   1      43.418  18.549  25.497  1.00  0.00     0.261 C 
BRANCH  32  33
ATOM     33  O   UNL A   1      43.892  19.190  24.301  1.00  0.00    -0.460 OA
BRANCH  33  34
ATOM     34  C   UNL A   1      45.170  19.632  24.270  1.00  0.00     0.338 C 
ATOM     35  O   UNL A   1      46.132  19.067  23.778  1.00  0.00    -0.246 OA
BRANCH  34  36
ATOM     36  C   UNL A   1      45.138  21.053  24.701  1.00  0.00     0.060 A 
ATOM     37  C   UNL A   1      44.661  22.031  23.812  1.00  0.00     0.016 A 
ATOM     38  C   UNL A   1      45.465  21.400  26.015  1.00  0.00     0.016 A 
ATOM     39  C   UNL A   1      44.505  23.353  24.239  1.00  0.00     0.010 A 
ATOM     40  C   UNL A   1      45.341  22.727  26.431  1.00  0.00     0.010 A 
ATOM     41  C   UNL A   1      44.876  23.712  25.543  1.00  0.00    -0.014 A 
BRANCH  41  42
ATOM     42  C   UNL A   1      44.982  25.137  25.938  1.00  0.00     0.031 A 
ATOM     43  C   UNL A   1      46.336  25.783  25.873  1.00  0.00     0.074 A 
ATOM     44  C   UNL A   1      43.924  25.832  26.390  1.00  0.00     0.049 A 
ATOM     45  N   UNL A   1      46.715  26.964  26.288  1.00  0.00    -0.248 NA
ATOM     46  C   UNL A   1      47.408  24.979  25.265  1.00  0.00     0.031 C 
ATOM     47  C   UNL A   1      42.551  25.341  26.456  1.00  0.00     0.029 A 
ATOM     48  N   UNL A   1      43.852  27.108  26.892  1.00  0.00    -0.354 N 
ATOM     49  C   UNL A   1      48.073  27.037  26.006  1.00  0.00     0.074 A 
ATOM     50  C   UNL A   1      48.453  25.781  25.400  1.00  0.00     0.031 C 
ATOM     51  C   UNL A   1      41.767  26.309  26.965  1.00  0.00     0.029 A 
ATOM     52  C   UNL A   1      42.594  27.465  27.310  1.00  0.00     0.049 A 
ATOM     53  H   UNL A   1      44.629  27.710  26.947  1.00  0.00     0.167 HD
ATOM     54  C   UNL A   1      48.932  28.057  26.239  1.00  0.00     0.031 A 
ATOM     55  C   UNL A   1      42.168  28.584  27.931  1.00  0.00     0.031 A 
ATOM     56  C   UNL A   1      48.567  29.288  26.884  1.00  0.00     0.049 A 
ATOM     57  C   UNL A   1      43.166  29.656  28.291  1.00  0.00     0.074 A 
ATOM     58  C   UNL A   1      49.368  30.378  27.178  1.00  0.00     0.029 A 
ATOM     59  N   UNL A   1      47.296  29.584  27.350  1.00  0.00    -0.354 N 
ATOM     60  N   UNL A   1      44.447  29.722  28.015  1.00  0.00    -0.248 NA
ATOM     61  C   UNL A   1      42.661  30.798  29.068  1.00  0.00     0.031 C 
ATOM     62  C   UNL A   1      48.592  31.310  27.875  1.00  0.00     0.029 A 
ATOM     63  C   UNL A   1      47.296  30.826  27.961  1.00  0.00     0.049 A 
ATOM     64  H   UNL A   1      46.510  28.998  27.259  1.00  0.00     0.167 HD
ATOM     65  C   UNL A   1      44.894  30.918  28.566  1.00  0.00     0.074 A 
ATOM     66  C   UNL A   1      43.746  31.553  29.179  1.00  0.00     0.031 C 
ATOM     67  C   UNL A   1      46.145  31.442  28.568  1.00  0.00     0.031 A 
BRANCH  54  68
ATOM     68  C   UNL A   1      50.364  27.839  25.845  1.00  0.00    -0.014 A 
ATOM     69  C   UNL A   1      51.302  27.329  26.756  1.00  0.00     0.009 A 
ATOM     70  C   UNL A   1      50.784  28.164  24.545  1.00  0.00     0.009 A 
ATOM     71  C   UNL A   1      52.641  27.190  26.388  1.00  0.00     0.001 A 
ATOM     72  C   UNL A   1      52.117  27.996  24.171  1.00  0.00     0.001 A 
ATOM     73  C   UNL A   1      53.047  27.522  25.095  1.00  0.00     0.000 A 
ENDBRANCH  54  68
BRANCH  55  74
ATOM     74  C   UNL A   1      40.734  28.748  28.291  1.00  0.00    -0.014 A 
ATOM     75  C   UNL A   1      40.258  28.293  29.530  1.00  0.00     0.009 A 
ATOM     76  C   UNL A   1      39.827  29.330  27.390  1.00  0.00     0.009 A 
ATOM     77  C   UNL A   1      38.902  28.401  29.853  1.00  0.00     0.001 A 
ATOM     78  C   UNL A   1      38.478  29.462  27.728  1.00  0.00     0.001 A 
ATOM     79  C   UNL A   1      38.015  28.991  28.955  1.00  0.00     0.000 A 
ENDBRANCH  55  74
BRANCH  67  80
ATOM     80  C   UNL A   1      46.337  32.779  29.227  1.00  0.00    -0.014 A 
ATOM     81  C   UNL A   1      46.721  32.878  30.573  1.00  0.00     0.009 A 
ATOM     82  C   UNL A   1      46.201  33.953  28.470  1.00  0.00     0.009 A 
ATOM     83  C   UNL A   1      46.943  34.130  31.153  1.00  0.00     0.001 A 
ATOM     84  C   UNL A   1      46.449  35.201  29.045  1.00  0.00     0.001 A 
ATOM     85  C   UNL A   1      46.814  35.288  30.387  1.00  0.00     0.000 A 
ENDBRANCH  67  80
ENDBRANCH  41  42
ENDBRANCH  34  36
ENDBRANCH  33  34
ENDBRANCH  32  33
ENDBRANCH  31  32
ENDBRANCH  30  31
ENDBRANCH  29  30
ENDBRANCH   1  29
TORSDOF 21
ENDMDL
MODEL 2
REMARK VINA RESULT:     -10.3      3.923      6.070
REMARK SMILES Cc1c(Cl)cccc1NC(=O)C[C@](C)(C(=O)OCCOCCOCCOC(=O)c1ccc(-c2c3nc(c(-c4ccccc4)c4ccc([nH]4)c(-c4ccccc4)c4nc(c(-c5ccccc5)c5ccc2[nH]5)C=C4)C=C3)cc1)c1ccccc1
REMARK SMILES IDX 21 1 20 2 19 3 18 4 17 5 15 6 16 7 13 8 14 9 12 10 10 11
REMARK SMILES IDX 9 12 11 14 8 15 1 16 2 17 3 18 4 19 5 20 7 21 6 22 77 23
REMARK SMILES IDX 78 24 82 25 79 26 81 27 80 28 22 29 23 30 24 31 25 32 26 33
REMARK SMILES IDX 27 34 28 35 29 36 30 37 76 38 31 39 75 40 32 41 33 42 34 43
REMARK SMILES IDX 69 44 35 45 74 46 68 47 70 48 36 49 73 50 67 51 66 52 37 54
REMARK SMILES IDX 59 55 44 56 58 57 45 58 48 59 57 60 71 61 46 62 47 63 56 65
REMARK SMILES IDX 72 66 49 67 38 68 39 69 43 70 40 71 42 72 41 73 60 74 61 75
REMARK SMILES IDX 65 76 62 77 64 78 63 79 50 80 51 81 55 82 52 83 54 84 53 85
REMARK H PARENT 9 13 70 53 48 64
REMARK Flexibility Score: inf
ROOT
ATOM      1  C   UNL A   1      39.116  21.136  25.924  1.00  0.00     0.188 C 
ENDROOT
BRANCH   1   2
ATOM      2  O   UNL A   1      37.780  21.563  25.682  1.00  0.00    -0.376 OA
BRANCH   2   3
ATOM      3  C   UNL A   1      36.901  20.665  25.010  1.00  0.00     0.202 C 
BRANCH   3   4
ATOM      4  C   UNL A   1      35.400  20.956  25.104  1.00  0.00     0.261 C 
BRANCH   4   5
ATOM      5  O   UNL A   1      35.069  22.335  25.376  1.00  0.00    -0.463 OA
BRANCH   5   6
ATOM      6  C   UNL A   1      34.613  23.048  24.313  1.00  0.00     0.316 C 
ATOM      7  O   UNL A   1      35.222  23.103  23.247  1.00  0.00    -0.251 OA
BRANCH   6   8
ATOM      8  C   UNL A   1      33.263  23.795  24.537  1.00  0.00     0.099 C 
ATOM      9  C   UNL A   1      31.979  23.046  24.080  1.00  0.00     0.029 C 
BRANCH   8  10
ATOM     10  C   UNL A   1      33.133  24.043  26.078  1.00  0.00     0.123 C 
BRANCH  10  11
ATOM     11  C   UNL A   1      31.742  24.141  26.704  1.00  0.00     0.225 C 
ATOM     12  N   UNL A   1      30.900  25.209  26.596  1.00  0.00    -0.326 N 
ATOM     13  H   UNL A   1      29.993  25.008  26.918  1.00  0.00     0.169 HD
ATOM     14  O   UNL A   1      31.310  23.175  27.347  1.00  0.00    -0.275 OA
BRANCH  12  15
ATOM     15  C   UNL A   1      31.025  26.532  26.131  1.00  0.00     0.045 A 
ATOM     16  C   UNL A   1      29.491  26.001  24.132  1.00  0.00     0.048 C 
ATOM     17  C   UNL A   1      30.392  26.921  24.921  1.00  0.00    -0.009 A 
ATOM     18  C   UNL A   1      30.620  28.229  24.430  1.00  0.00     0.046 A 
ATOM     19  Cl  UNL A   1      29.944  28.778  22.932  1.00  0.00    -0.084 Cl
ATOM     20  C   UNL A   1      31.414  29.136  25.128  1.00  0.00     0.021 A 
ATOM     21  C   UNL A   1      31.737  27.488  26.859  1.00  0.00     0.026 A 
ATOM     22  C   UNL A   1      31.949  28.775  26.357  1.00  0.00     0.004 A 
ENDBRANCH  12  15
ENDBRANCH  10  11
ENDBRANCH   8  10
BRANCH   8  23
ATOM     23  C   UNL A   1      33.227  25.134  23.720  1.00  0.00    -0.030 A 
ATOM     24  C   UNL A   1      32.540  25.209  22.488  1.00  0.00     0.005 A 
ATOM     25  C   UNL A   1      33.956  26.274  24.109  1.00  0.00     0.005 A 
ATOM     26  C   UNL A   1      32.616  26.349  21.676  1.00  0.00     0.000 A 
ATOM     27  C   UNL A   1      34.007  27.421  23.310  1.00  0.00     0.000 A 
ATOM     28  C   UNL A   1      33.352  27.454  22.086  1.00  0.00     0.000 A 
ENDBRANCH   8  23
ENDBRANCH   6   8
ENDBRANCH   5   6
ENDBRANCH   4   5
ENDBRANCH   3   4
ENDBRANCH   2   3
ENDBRANCH   1   2
BRANCH   1  29
ATOM     29  C   UNL A   1      39.993  21.992  26.851  1.00  0.00     0.188 C 
BRANCH  29  30
ATOM     30  O   UNL A   1      41.253  21.437  27.145  1.00  0.00    -0.376 OA
BRANCH  30  31
ATOM     31  C   UNL A   1      41.944  20.776  26.105  1.00  0.00     0.202 C 
BRANCH  31  32
ATOM     32  C   UNL A   1      43.085  21.516  25.387  1.00  0.00     0.261 C 
BRANCH  32  33
ATOM     33  O   UNL A   1      42.814  22.862  24.960  1.00  0.00    -0.460 OA
BRANCH  33  34
ATOM     34  C   UNL A   1      43.807  23.778  25.049  1.00  0.00     0.338 C 
ATOM     35  O   UNL A   1      44.740  23.930  24.278  1.00  0.00    -0.246 OA
BRANCH  34  36
ATOM     36  C   UNL A   1      43.402  24.739  26.106  1.00  0.00     0.060 A 
ATOM     37  C   UNL A   1      42.758  24.261  27.260  1.00  0.00     0.016 A 
ATOM     38  C   UNL A   1      43.761  26.087  26.011  1.00  0.00     0.016 A 
ATOM     39  C   UNL A   1      42.481  25.129  28.320  1.00  0.00     0.010 A 
ATOM     40  C   UNL A   1      43.453  26.959  27.056  1.00  0.00     0.010 A 
ATOM     41  C   UNL A   1      42.799  26.490  28.208  1.00  0.00    -0.014 A 
BRANCH  41  42
ATOM     42  C   UNL A   1      42.277  27.475  29.185  1.00  0.00     0.031 A 
ATOM     43  C   UNL A   1      43.046  27.673  30.459  1.00  0.00     0.074 A 
ATOM     44  C   UNL A   1      41.129  28.144  28.979  1.00  0.00     0.049 A 
ATOM     45  N   UNL A   1      42.732  28.368  31.522  1.00  0.00    -0.248 NA
ATOM     46  C   UNL A   1      44.342  26.982  30.547  1.00  0.00     0.031 C 
ATOM     47  C   UNL A   1      40.315  28.081  27.769  1.00  0.00     0.029 A 
ATOM     48  N   UNL A   1      40.446  29.004  29.803  1.00  0.00    -0.354 N 
ATOM     49  C   UNL A   1      43.784  28.184  32.410  1.00  0.00     0.074 A 
ATOM     50  C   UNL A   1      44.735  27.303  31.769  1.00  0.00     0.031 C 
ATOM     51  C   UNL A   1      39.242  28.878  27.926  1.00  0.00     0.029 A 
ATOM     52  C   UNL A   1      39.266  29.459  29.267  1.00  0.00     0.049 A 
ATOM     53  H   UNL A   1      40.770  29.269  30.694  1.00  0.00     0.167 HD
ATOM     54  C   UNL A   1      43.940  28.694  33.653  1.00  0.00     0.031 A 
ATOM     55  C   UNL A   1      38.303  30.230  29.812  1.00  0.00     0.031 A 
ATOM     56  C   UNL A   1      42.975  29.532  34.310  1.00  0.00     0.049 A 
ATOM     57  C   UNL A   1      38.443  30.688  31.243  1.00  0.00     0.074 A 
ATOM     58  C   UNL A   1      43.035  30.089  35.575  1.00  0.00     0.029 A 
ATOM     59  N   UNL A   1      41.764  29.918  33.757  1.00  0.00    -0.354 N 
ATOM     60  N   UNL A   1      39.442  30.515  32.074  1.00  0.00    -0.248 NA
ATOM     61  C   UNL A   1      37.308  31.428  31.815  1.00  0.00     0.031 C 
ATOM     62  C   UNL A   1      41.833  30.766  35.808  1.00  0.00     0.029 A 
ATOM     63  C   UNL A   1      41.052  30.678  34.667  1.00  0.00     0.049 A 
ATOM     64  H   UNL A   1      41.458  29.685  32.850  1.00  0.00     0.167 HD
ATOM     65  C   UNL A   1      39.066  31.141  33.258  1.00  0.00     0.074 A 
ATOM     66  C   UNL A   1      37.753  31.710  33.033  1.00  0.00     0.031 C 
ATOM     67  C   UNL A   1      39.746  31.234  34.427  1.00  0.00     0.031 A 
BRANCH  54  68
ATOM     68  C   UNL A   1      45.183  28.297  34.396  1.00  0.00    -0.014 A 
ATOM     69  C   UNL A   1      46.357  29.062  34.314  1.00  0.00     0.009 A 
ATOM     70  C   UNL A   1      45.183  27.132  35.178  1.00  0.00     0.009 A 
ATOM     71  C   UNL A   1      47.520  28.644  34.965  1.00  0.00     0.001 A 
ATOM     72  C   UNL A   1      46.337  26.732  35.851  1.00  0.00     0.001 A 
ATOM     73  C   UNL A   1      47.508  27.480  35.734  1.00  0.00     0.000 A 
ENDBRANCH  54  68
BRANCH  55  74
ATOM     74  C   UNL A   1      37.097  30.600  29.025  1.00  0.00    -0.014 A 
ATOM     75  C   UNL A   1      36.910  31.923  28.594  1.00  0.00     0.009 A 
ATOM     76  C   UNL A   1      36.111  29.646  28.726  1.00  0.00     0.009 A 
ATOM     77  C   UNL A   1      35.755  32.286  27.895  1.00  0.00     0.001 A 
ATOM     78  C   UNL A   1      34.971  30.006  28.003  1.00  0.00     0.001 A 
ATOM     79  C   UNL A   1      34.790  31.326  27.596  1.00  0.00     0.000 A 
ENDBRANCH  55  74
BRANCH  67  80
ATOM     80  C   UNL A   1      39.098  31.999  35.548  1.00  0.00    -0.014 A 
ATOM     81  C   UNL A   1      39.231  33.391  35.652  1.00  0.00     0.009 A 
ATOM     82  C   UNL A   1      38.286  31.322  36.472  1.00  0.00     0.009 A 
ATOM     83  C   UNL A   1      38.581  34.088  36.673  1.00  0.00     0.001 A 
ATOM     84  C   UNL A   1      37.615  32.024  37.475  1.00  0.00     0.001 A 
ATOM     85  C   UNL A   1      37.768  33.406  37.578  1.00  0.00     0.000 A 
ENDBRANCH  67  80
ENDBRANCH  41  42
ENDBRANCH  34  36
ENDBRANCH  33  34
ENDBRANCH  32  33
ENDBRANCH  31  32
ENDBRANCH  30  31
ENDBRANCH  29  30
ENDBRANCH   1  29
TORSDOF 21
ENDMDL
MODEL 3
REMARK VINA RESULT:     -10.0      4.988      8.547
REMARK SMILES Cc1c(Cl)cccc1NC(=O)C[C@](C)(C(=O)OCCOCCOCCOC(=O)c1ccc(-c2c3nc(c(-c4ccccc4)c4ccc([nH]4)c(-c4ccccc4)c4nc(c(-c5ccccc5)c5ccc2[nH]5)C=C4)C=C3)cc1)c1ccccc1
REMARK SMILES IDX 21 1 20 2 19 3 18 4 17 5 15 6 16 7 13 8 14 9 12 10 10 11
REMARK SMILES IDX 9 12 11 14 8 15 1 16 2 17 3 18 4 19 5 20 7 21 6 22 77 23
REMARK SMILES IDX 78 24 82 25 79 26 81 27 80 28 22 29 23 30 24 31 25 32 26 33
REMARK SMILES IDX 27 34 28 35 29 36 30 37 76 38 31 39 75 40 32 41 33 42 34 43
REMARK SMILES IDX 69 44 35 45 74 46 68 47 70 48 36 49 73 50 67 51 66 52 37 54
REMARK SMILES IDX 59 55 44 56 58 57 45 58 48 59 57 60 71 61 46 62 47 63 56 65
REMARK SMILES IDX 72 66 49 67 38 68 39 69 43 70 40 71 42 72 41 73 60 74 61 75
REMARK SMILES IDX 65 76 62 77 64 78 63 79 50 80 51 81 55 82 52 83 54 84 53 85
REMARK H PARENT 9 13 70 53 48 64
REMARK Flexibility Score: inf
ROOT
ATOM      1  C   UNL A   1      38.963  21.650  25.874  1.00  0.00     0.188 C 
ENDROOT
BRANCH   1   2
ATOM      2  O   UNL A   1      37.948  21.306  24.937  1.00  0.00    -0.376 OA
BRANCH   2   3
ATOM      3  C   UNL A   1      36.668  20.933  25.442  1.00  0.00     0.202 C 
BRANCH   3   4
ATOM      4  C   UNL A   1      35.767  22.058  25.962  1.00  0.00     0.261 C 
BRANCH   4   5
ATOM      5  O   UNL A   1      34.403  22.004  25.491  1.00  0.00    -0.463 OA
BRANCH   5   6
ATOM      6  C   UNL A   1      34.133  22.756  24.392  1.00  0.00     0.316 C 
ATOM      7  O   UNL A   1      34.785  22.665  23.354  1.00  0.00    -0.251 OA
BRANCH   6   8
ATOM      8  C   UNL A   1      32.936  23.744  24.535  1.00  0.00     0.099 C 
ATOM      9  C   UNL A   1      31.547  23.214  24.080  1.00  0.00     0.029 C 
BRANCH   8  10
ATOM     10  C   UNL A   1      32.823  24.100  26.056  1.00  0.00     0.123 C 
BRANCH  10  11
ATOM     11  C   UNL A   1      31.439  24.295  26.677  1.00  0.00     0.225 C 
ATOM     12  N   UNL A   1      30.646  25.392  26.511  1.00  0.00    -0.326 N 
ATOM     13  H   UNL A   1      29.732  25.249  26.844  1.00  0.00     0.169 HD
ATOM     14  O   UNL A   1      30.967  23.386  27.373  1.00  0.00    -0.275 OA
BRANCH  12  15
ATOM     15  C   UNL A   1      30.828  26.680  25.973  1.00  0.00     0.045 A 
ATOM     16  C   UNL A   1      29.337  26.079  23.961  1.00  0.00     0.048 C 
ATOM     17  C   UNL A   1      30.245  27.016  24.724  1.00  0.00    -0.009 A 
ATOM     18  C   UNL A   1      30.530  28.285  24.164  1.00  0.00     0.046 A 
ATOM     19  Cl  UNL A   1      29.917  28.764  22.615  1.00  0.00    -0.084 Cl
ATOM     20  C   UNL A   1      31.332  29.206  24.833  1.00  0.00     0.021 A 
ATOM     21  C   UNL A   1      31.549  27.655  26.667  1.00  0.00     0.026 A 
ATOM     22  C   UNL A   1      31.818  28.902  26.097  1.00  0.00     0.004 A 
ENDBRANCH  12  15
ENDBRANCH  10  11
ENDBRANCH   8  10
BRANCH   8  23
ATOM     23  C   UNL A   1      33.160  25.019  23.648  1.00  0.00    -0.030 A 
ATOM     24  C   UNL A   1      33.891  26.122  24.142  1.00  0.00     0.005 A 
ATOM     25  C   UNL A   1      32.561  25.171  22.382  1.00  0.00     0.005 A 
ATOM     26  C   UNL A   1      33.981  27.321  23.423  1.00  0.00     0.000 A 
ATOM     27  C   UNL A   1      32.675  26.361  21.655  1.00  0.00     0.000 A 
ATOM     28  C   UNL A   1      33.370  27.442  22.181  1.00  0.00     0.000 A 
ENDBRANCH   8  23
ENDBRANCH   6   8
ENDBRANCH   5   6
ENDBRANCH   4   5
ENDBRANCH   3   4
ENDBRANCH   2   3
ENDBRANCH   1   2
BRANCH   1  29
ATOM     29  C   UNL A   1      40.071  20.622  26.149  1.00  0.00     0.188 C 
BRANCH  29  30
ATOM     30  O   UNL A   1      41.380  21.136  26.077  1.00  0.00    -0.376 OA
BRANCH  30  31
ATOM     31  C   UNL A   1      41.672  22.307  26.813  1.00  0.00     0.202 C 
BRANCH  31  32
ATOM     32  C   UNL A   1      42.203  23.539  26.063  1.00  0.00     0.261 C 
BRANCH  32  33
ATOM     33  O   UNL A   1      41.335  24.683  26.003  1.00  0.00    -0.460 OA
BRANCH  33  34
ATOM     34  C   UNL A   1      41.893  25.908  25.858  1.00  0.00     0.338 C 
ATOM     35  O   UNL A   1      42.295  26.416  24.825  1.00  0.00    -0.246 OA
BRANCH  34  36
ATOM     36  C   UNL A   1      41.676  26.626  27.139  1.00  0.00     0.060 A 
ATOM     37  C   UNL A   1      40.677  26.177  28.019  1.00  0.00     0.016 A 
ATOM     38  C   UNL A   1      42.532  27.663  27.522  1.00  0.00     0.016 A 
ATOM     39  C   UNL A   1      40.538  26.760  29.282  1.00  0.00     0.010 A 
ATOM     40  C   UNL A   1      42.370  28.267  28.770  1.00  0.00     0.010 A 
ATOM     41  C   UNL A   1      41.365  27.830  29.650  1.00  0.00    -0.014 A 
BRANCH  41  42
ATOM     42  C   UNL A   1      41.068  28.641  30.855  1.00  0.00     0.031 A 
ATOM     43  C   UNL A   1      39.951  29.640  30.770  1.00  0.00     0.074 A 
ATOM     44  C   UNL A   1      41.796  28.536  31.980  1.00  0.00     0.049 A 
ATOM     45  N   UNL A   1      39.585  30.554  31.630  1.00  0.00    -0.248 NA
ATOM     46  C   UNL A   1      39.145  29.606  29.539  1.00  0.00     0.031 C 
ATOM     47  C   UNL A   1      42.871  27.577  32.211  1.00  0.00     0.029 A 
ATOM     48  N   UNL A   1      41.738  29.266  33.143  1.00  0.00    -0.354 N 
ATOM     49  C   UNL A   1      38.517  31.214  31.037  1.00  0.00     0.074 A 
ATOM     50  C   UNL A   1      38.303  30.607  29.743  1.00  0.00     0.031 C 
ATOM     51  C   UNL A   1      43.370  27.771  33.446  1.00  0.00     0.029 A 
ATOM     52  C   UNL A   1      42.686  28.904  34.068  1.00  0.00     0.049 A 
ATOM     53  H   UNL A   1      41.079  29.980  33.299  1.00  0.00     0.167 HD
ATOM     54  C   UNL A   1      37.783  32.243  31.523  1.00  0.00     0.031 A 
ATOM     55  C   UNL A   1      42.987  29.449  35.264  1.00  0.00     0.031 A 
ATOM     56  C   UNL A   1      38.022  32.879  32.789  1.00  0.00     0.049 A 
ATOM     57  C   UNL A   1      42.236  30.671  35.731  1.00  0.00     0.074 A 
ATOM     58  C   UNL A   1      37.342  33.937  33.364  1.00  0.00     0.029 A 
ATOM     59  N   UNL A   1      39.033  32.524  33.667  1.00  0.00    -0.354 N 
ATOM     60  N   UNL A   1      41.223  31.286  35.169  1.00  0.00    -0.248 NA
ATOM     61  C   UNL A   1      42.687  31.286  36.989  1.00  0.00     0.031 C 
ATOM     62  C   UNL A   1      37.980  34.260  34.567  1.00  0.00     0.029 A 
ATOM     63  C   UNL A   1      39.019  33.364  34.766  1.00  0.00     0.049 A 
ATOM     64  H   UNL A   1      39.668  31.783  33.529  1.00  0.00     0.167 HD
ATOM     65  C   UNL A   1      40.904  32.345  36.012  1.00  0.00     0.074 A 
ATOM     66  C   UNL A   1      41.821  32.281  37.131  1.00  0.00     0.031 C 
ATOM     67  C   UNL A   1      39.940  33.288  35.870  1.00  0.00     0.031 A 
BRANCH  54  68
ATOM     68  C   UNL A   1      36.693  32.774  30.637  1.00  0.00    -0.014 A 
ATOM     69  C   UNL A   1      36.964  33.719  29.635  1.00  0.00     0.009 A 
ATOM     70  C   UNL A   1      35.373  32.333  30.818  1.00  0.00     0.009 A 
ATOM     71  C   UNL A   1      35.927  34.244  28.861  1.00  0.00     0.001 A 
ATOM     72  C   UNL A   1      34.344  32.838  30.024  1.00  0.00     0.001 A 
ATOM     73  C   UNL A   1      34.619  33.802  29.055  1.00  0.00     0.000 A 
ENDBRANCH  54  68
BRANCH  55  74
ATOM     74  C   UNL A   1      44.072  28.875  36.104  1.00  0.00    -0.014 A 
ATOM     75  C   UNL A   1      45.388  29.348  35.981  1.00  0.00     0.009 A 
ATOM     76  C   UNL A   1      43.810  27.832  37.007  1.00  0.00     0.009 A 
ATOM     77  C   UNL A   1      46.420  28.778  36.733  1.00  0.00     0.001 A 
ATOM     78  C   UNL A   1      44.839  27.284  37.777  1.00  0.00     0.001 A 
ATOM     79  C   UNL A   1      46.143  27.752  37.634  1.00  0.00     0.000 A 
ENDBRANCH  55  74
BRANCH  67  80
ATOM     80  C   UNL A   1      39.806  34.313  36.961  1.00  0.00    -0.014 A 
ATOM     81  C   UNL A   1      40.366  35.593  36.831  1.00  0.00     0.009 A 
ATOM     82  C   UNL A   1      39.047  34.015  38.105  1.00  0.00     0.009 A 
ATOM     83  C   UNL A   1      40.188  36.547  37.836  1.00  0.00     0.001 A 
ATOM     84  C   UNL A   1      38.847  34.980  39.094  1.00  0.00     0.001 A 
ATOM     85  C   UNL A   1      39.423  36.242  38.962  1.00  0.00     0.000 A 
ENDBRANCH  67  80
ENDBRANCH  41  42
ENDBRANCH  34  36
ENDBRANCH  33  34
ENDBRANCH  32  33
ENDBRANCH  31  32
ENDBRANCH  30  31
ENDBRANCH  29  30
ENDBRANCH   1  29
TORSDOF 21
ENDMDL
