MODEL 1
REMARK VINA RESULT:      -9.8      0.000      0.000
REMARK SMILES O=C(CCc1cccnc1)Nc1ccsc1C(=O)OCCOCCOCCOC(=O)c1ccc(-c2c3nc(c(-c4ccccc4)c4ccc([nH]4)c(-c4ccccc4)c4nc(c(-c5ccccc5)c5ccc2[nH]5)C=C4)C=C3)cc1
REMARK SMILES IDX 23 1 22 2 21 3 20 4 19 5 17 6 18 7 16 8 12 9 13 10 14 11
REMARK SMILES IDX 15 12 11 13 1 14 2 15 3 17 4 18 5 19 6 20 10 21 7 22 9 23
REMARK SMILES IDX 8 24 24 25 25 26 26 27 27 28 28 29 29 30 30 31 31 32 32 33
REMARK SMILES IDX 78 34 33 35 77 36 34 37 35 38 36 39 71 40 37 41 76 42 70 43
REMARK SMILES IDX 72 44 38 45 75 46 69 47 68 48 39 50 61 51 46 52 60 53 47 54
REMARK SMILES IDX 50 55 59 56 73 57 48 58 49 59 58 61 74 62 51 63 40 64 41 65
REMARK SMILES IDX 45 66 42 67 44 68 43 69 62 70 63 71 67 72 64 73 66 74 65 75
REMARK SMILES IDX 52 76 53 77 57 78 54 79 56 80 55 81
REMARK H PARENT 11 16 72 49 50 60
REMARK Flexibility Score: inf
ROOT
ATOM      1  C   UNL A   1      36.988  22.904  25.291  1.00  0.00     0.188 C 
ENDROOT
BRANCH   1   2
ATOM      2  O   UNL A   1      36.319  24.083  24.860  1.00  0.00    -0.376 OA
BRANCH   2   3
ATOM      3  C   UNL A   1      34.935  24.223  25.171  1.00  0.00     0.202 C 
BRANCH   3   4
ATOM      4  C   UNL A   1      34.149  25.212  24.307  1.00  0.00     0.261 C 
BRANCH   4   5
ATOM      5  O   UNL A   1      33.581  24.565  23.152  1.00  0.00    -0.459 OA
BRANCH   5   6
ATOM      6  C   UNL A   1      32.916  25.419  22.315  1.00  0.00     0.350 C 
ATOM      7  O   UNL A   1      33.292  25.684  21.178  1.00  0.00    -0.245 OA
BRANCH   6   8
ATOM      8  C   UNL A   1      31.648  25.805  22.904  1.00  0.00     0.136 A 
ATOM      9  C   UNL A   1      30.650  25.081  23.549  1.00  0.00     0.066 A 
ATOM     10  C   UNL A   1      29.532  25.923  23.861  1.00  0.00     0.039 A 
ATOM     11  C   UNL A   1      29.707  27.229  23.468  1.00  0.00     0.068 A 
ATOM     12  S   UNL A   1      31.223  27.468  22.741  1.00  0.00    -0.135 S 
BRANCH   9  13
ATOM     13  N   UNL A   1      30.765  23.723  23.870  1.00  0.00    -0.325 N 
ATOM     14  O   UNL A   1      31.183  23.899  26.147  1.00  0.00    -0.275 OA
ATOM     15  C   UNL A   1      31.130  23.235  25.111  1.00  0.00     0.224 C 
ATOM     16  H   UNL A   1      30.571  23.069  23.160  1.00  0.00     0.169 HD
BRANCH  15  17
ATOM     17  C   UNL A   1      31.601  21.787  25.140  1.00  0.00     0.105 C 
BRANCH  17  18
ATOM     18  C   UNL A   1      32.731  21.416  24.185  1.00  0.00     0.047 C 
BRANCH  18  19
ATOM     19  C   UNL A   1      32.969  19.949  23.935  1.00  0.00    -0.029 A 
ATOM     20  C   UNL A   1      32.237  19.293  22.940  1.00  0.00     0.007 A 
ATOM     21  C   UNL A   1      33.865  19.176  24.670  1.00  0.00     0.114 A 
ATOM     22  C   UNL A   1      32.453  17.942  22.692  1.00  0.00     0.020 A 
ATOM     23  N   UNL A   1      34.122  17.873  24.424  1.00  0.00    -0.264 NA
ATOM     24  C   UNL A   1      33.410  17.284  23.442  1.00  0.00     0.111 A 
ENDBRANCH  18  19
ENDBRANCH  17  18
ENDBRANCH  15  17
ENDBRANCH   9  13
ENDBRANCH   6   8
ENDBRANCH   5   6
ENDBRANCH   4   5
ENDBRANCH   3   4
ENDBRANCH   2   3
ENDBRANCH   1   2
BRANCH   1  25
ATOM     25  C   UNL A   1      36.718  21.586  24.539  1.00  0.00     0.188 C 
BRANCH  25  26
ATOM     26  O   UNL A   1      37.542  20.490  24.923  1.00  0.00    -0.376 OA
BRANCH  26  27
ATOM     27  C   UNL A   1      38.772  20.855  25.542  1.00  0.00     0.202 C 
BRANCH  27  28
ATOM     28  C   UNL A   1      39.565  19.646  26.048  1.00  0.00     0.261 C 
BRANCH  28  29
ATOM     29  O   UNL A   1      40.717  19.327  25.252  1.00  0.00    -0.460 OA
BRANCH  29  30
ATOM     30  C   UNL A   1      41.878  19.139  25.917  1.00  0.00     0.338 C 
ATOM     31  O   UNL A   1      42.483  18.092  26.066  1.00  0.00    -0.246 OA
BRANCH  30  32
ATOM     32  C   UNL A   1      42.403  20.467  26.289  1.00  0.00     0.060 A 
ATOM     33  C   UNL A   1      42.283  20.887  27.620  1.00  0.00     0.016 A 
ATOM     34  C   UNL A   1      43.032  21.277  25.339  1.00  0.00     0.016 A 
ATOM     35  C   UNL A   1      42.778  22.136  27.998  1.00  0.00     0.010 A 
ATOM     36  C   UNL A   1      43.505  22.535  25.714  1.00  0.00     0.010 A 
ATOM     37  C   UNL A   1      43.359  22.978  27.038  1.00  0.00    -0.014 A 
BRANCH  37  38
ATOM     38  C   UNL A   1      43.641  24.391  27.374  1.00  0.00     0.031 A 
ATOM     39  C   UNL A   1      45.069  24.861  27.330  1.00  0.00     0.074 A 
ATOM     40  C   UNL A   1      42.658  25.243  27.712  1.00  0.00     0.049 A 
ATOM     41  N   UNL A   1      45.558  26.050  27.570  1.00  0.00    -0.248 NA
ATOM     42  C   UNL A   1      46.078  23.854  26.961  1.00  0.00     0.031 C 
ATOM     43  C   UNL A   1      41.234  24.920  27.770  1.00  0.00     0.029 A 
ATOM     44  N   UNL A   1      42.722  26.565  28.076  1.00  0.00    -0.354 N 
ATOM     45  C   UNL A   1      46.927  25.937  27.364  1.00  0.00     0.074 A 
ATOM     46  C   UNL A   1      47.195  24.561  27.013  1.00  0.00     0.031 C 
ATOM     47  C   UNL A   1      40.556  26.018  28.155  1.00  0.00     0.029 A 
ATOM     48  C   UNL A   1      41.501  27.110  28.386  1.00  0.00     0.049 A 
ATOM     49  H   UNL A   1      43.563  27.075  28.110  1.00  0.00     0.167 HD
ATOM     50  C   UNL A   1      47.878  26.896  27.450  1.00  0.00     0.031 A 
ATOM     51  C   UNL A   1      41.188  28.347  28.815  1.00  0.00     0.031 A 
ATOM     52  C   UNL A   1      47.628  28.255  27.842  1.00  0.00     0.049 A 
ATOM     53  C   UNL A   1      42.277  29.371  28.994  1.00  0.00     0.074 A 
ATOM     54  C   UNL A   1      48.530  29.296  27.969  1.00  0.00     0.029 A 
ATOM     55  N   UNL A   1      46.384  28.755  28.186  1.00  0.00    -0.354 N 
ATOM     56  N   UNL A   1      43.562  29.265  28.755  1.00  0.00    -0.248 NA
ATOM     57  C   UNL A   1      41.868  30.692  29.498  1.00  0.00     0.031 C 
ATOM     58  C   UNL A   1      47.835  30.419  28.431  1.00  0.00     0.029 A 
ATOM     59  C   UNL A   1      46.496  30.086  28.548  1.00  0.00     0.049 A 
ATOM     60  H   UNL A   1      45.544  28.240  28.177  1.00  0.00     0.167 HD
ATOM     61  C   UNL A   1      44.107  30.509  29.048  1.00  0.00     0.074 A 
ATOM     62  C   UNL A   1      43.014  31.357  29.474  1.00  0.00     0.031 C 
ATOM     63  C   UNL A   1      45.397  30.916  28.965  1.00  0.00     0.031 A 
BRANCH  50  64
ATOM     64  C   UNL A   1      49.284  26.487  27.131  1.00  0.00    -0.014 A 
ATOM     65  C   UNL A   1      50.154  26.055  28.146  1.00  0.00     0.009 A 
ATOM     66  C   UNL A   1      49.742  26.522  25.806  1.00  0.00     0.009 A 
ATOM     67  C   UNL A   1      51.466  25.693  27.840  1.00  0.00     0.001 A 
ATOM     68  C   UNL A   1      51.049  26.140  25.502  1.00  0.00     0.001 A 
ATOM     69  C   UNL A   1      51.912  25.732  26.520  1.00  0.00     0.000 A 
ENDBRANCH  50  64
BRANCH  51  70
ATOM     70  C   UNL A   1      39.777  28.703  29.119  1.00  0.00    -0.014 A 
ATOM     71  C   UNL A   1      39.227  28.423  30.379  1.00  0.00     0.009 A 
ATOM     72  C   UNL A   1      38.961  29.276  28.132  1.00  0.00     0.009 A 
ATOM     73  C   UNL A   1      37.880  28.685  30.635  1.00  0.00     0.001 A 
ATOM     74  C   UNL A   1      37.620  29.558  28.400  1.00  0.00     0.001 A 
ATOM     75  C   UNL A   1      37.078  29.253  29.647  1.00  0.00     0.000 A 
ENDBRANCH  51  70
BRANCH  63  76
ATOM     76  C   UNL A   1      45.691  32.348  29.307  1.00  0.00    -0.014 A 
ATOM     77  C   UNL A   1      46.038  32.728  30.612  1.00  0.00     0.009 A 
ATOM     78  C   UNL A   1      45.666  33.322  28.296  1.00  0.00     0.009 A 
ATOM     79  C   UNL A   1      46.326  34.063  30.904  1.00  0.00     0.001 A 
ATOM     80  C   UNL A   1      45.977  34.650  28.586  1.00  0.00     0.001 A 
ATOM     81  C   UNL A   1      46.299  35.021  29.890  1.00  0.00     0.000 A 
ENDBRANCH  63  76
ENDBRANCH  37  38
ENDBRANCH  30  32
ENDBRANCH  29  30
ENDBRANCH  28  29
ENDBRANCH  27  28
ENDBRANCH  26  27
ENDBRANCH  25  26
ENDBRANCH   1  25
TORSDOF 21
ENDMDL
MODEL 2
REMARK VINA RESULT:      -9.8      1.356      5.984
REMARK SMILES O=C(CCc1cccnc1)Nc1ccsc1C(=O)OCCOCCOCCOC(=O)c1ccc(-c2c3nc(c(-c4ccccc4)c4ccc([nH]4)c(-c4ccccc4)c4nc(c(-c5ccccc5)c5ccc2[nH]5)C=C4)C=C3)cc1
REMARK SMILES IDX 23 1 22 2 21 3 20 4 19 5 17 6 18 7 16 8 12 9 13 10 14 11
REMARK SMILES IDX 15 12 11 13 1 14 2 15 3 17 4 18 5 19 6 20 10 21 7 22 9 23
REMARK SMILES IDX 8 24 24 25 25 26 26 27 27 28 28 29 29 30 30 31 31 32 32 33
REMARK SMILES IDX 78 34 33 35 77 36 34 37 35 38 36 39 71 40 37 41 76 42 70 43
REMARK SMILES IDX 72 44 38 45 75 46 69 47 68 48 39 50 61 51 46 52 60 53 47 54
REMARK SMILES IDX 50 55 59 56 73 57 48 58 49 59 58 61 74 62 51 63 40 64 41 65
REMARK SMILES IDX 45 66 42 67 44 68 43 69 62 70 63 71 67 72 64 73 66 74 65 75
REMARK SMILES IDX 52 76 53 77 57 78 54 79 56 80 55 81
REMARK H PARENT 11 16 72 49 50 60
REMARK Flexibility Score: inf
ROOT
ATOM      1  C   UNL A   1      36.491  23.420  25.081  1.00  0.00     0.188 C 
ENDROOT
BRANCH   1   2
ATOM      2  O   UNL A   1      35.469  24.327  25.477  1.00  0.00    -0.376 OA
BRANCH   2   3
ATOM      3  C   UNL A   1      34.615  24.861  24.469  1.00  0.00     0.202 C 
BRANCH   3   4
ATOM      4  C   UNL A   1      34.548  24.072  23.159  1.00  0.00     0.261 C 
BRANCH   4   5
ATOM      5  O   UNL A   1      33.218  24.084  22.605  1.00  0.00    -0.459 OA
BRANCH   5   6
ATOM      6  C   UNL A   1      32.823  25.312  22.151  1.00  0.00     0.350 C 
ATOM      7  O   UNL A   1      33.338  25.880  21.196  1.00  0.00    -0.245 OA
BRANCH   6   8
ATOM      8  C   UNL A   1      31.622  25.736  22.848  1.00  0.00     0.136 A 
ATOM      9  C   UNL A   1      30.657  25.040  23.568  1.00  0.00     0.066 A 
ATOM     10  C   UNL A   1      29.599  25.918  23.979  1.00  0.00     0.039 A 
ATOM     11  C   UNL A   1      29.787  27.221  23.584  1.00  0.00     0.068 A 
ATOM     12  S   UNL A   1      31.245  27.414  22.734  1.00  0.00    -0.135 S 
BRANCH   9  13
ATOM     13  N   UNL A   1      30.749  23.676  23.868  1.00  0.00    -0.325 N 
ATOM     14  O   UNL A   1      31.580  23.812  26.032  1.00  0.00    -0.275 OA
ATOM     15  C   UNL A   1      31.304  23.159  25.025  1.00  0.00     0.224 C 
ATOM     16  H   UNL A   1      30.394  23.039  23.208  1.00  0.00     0.169 HD
BRANCH  15  17
ATOM     17  C   UNL A   1      31.688  21.687  24.974  1.00  0.00     0.105 C 
BRANCH  17  18
ATOM     18  C   UNL A   1      32.199  21.160  23.637  1.00  0.00     0.047 C 
BRANCH  18  19
ATOM     19  C   UNL A   1      32.708  19.741  23.604  1.00  0.00    -0.029 A 
ATOM     20  C   UNL A   1      33.617  19.313  24.576  1.00  0.00     0.007 A 
ATOM     21  C   UNL A   1      32.352  18.816  22.625  1.00  0.00     0.114 A 
ATOM     22  C   UNL A   1      34.088  18.004  24.563  1.00  0.00     0.020 A 
ATOM     23  N   UNL A   1      32.763  17.530  22.611  1.00  0.00    -0.264 NA
ATOM     24  C   UNL A   1      33.623  17.152  23.579  1.00  0.00     0.111 A 
ENDBRANCH  18  19
ENDBRANCH  17  18
ENDBRANCH  15  17
ENDBRANCH   9  13
ENDBRANCH   6   8
ENDBRANCH   5   6
ENDBRANCH   4   5
ENDBRANCH   3   4
ENDBRANCH   2   3
ENDBRANCH   1   2
BRANCH   1  25
ATOM     25  C   UNL A   1      36.398  21.954  25.547  1.00  0.00     0.188 C 
BRANCH  25  26
ATOM     26  O   UNL A   1      37.345  21.070  24.958  1.00  0.00    -0.376 OA
BRANCH  26  27
ATOM     27  C   UNL A   1      38.593  20.989  25.641  1.00  0.00     0.202 C 
BRANCH  27  28
ATOM     28  C   UNL A   1      39.312  19.656  25.410  1.00  0.00     0.261 C 
BRANCH  28  29
ATOM     29  O   UNL A   1      40.371  19.392  26.344  1.00  0.00    -0.460 OA
BRANCH  29  30
ATOM     30  C   UNL A   1      41.608  19.801  25.987  1.00  0.00     0.338 C 
ATOM     31  O   UNL A   1      42.375  19.249  25.219  1.00  0.00    -0.246 OA
BRANCH  30  32
ATOM     32  C   UNL A   1      41.813  21.151  26.547  1.00  0.00     0.060 A 
ATOM     33  C   UNL A   1      42.176  22.189  25.680  1.00  0.00     0.016 A 
ATOM     34  C   UNL A   1      41.622  21.395  27.910  1.00  0.00     0.016 A 
ATOM     35  C   UNL A   1      42.370  23.475  26.184  1.00  0.00     0.010 A 
ATOM     36  C   UNL A   1      41.837  22.677  28.416  1.00  0.00     0.010 A 
ATOM     37  C   UNL A   1      42.235  23.715  27.559  1.00  0.00    -0.014 A 
BRANCH  37  38
ATOM     38  C   UNL A   1      42.692  25.002  28.130  1.00  0.00     0.031 A 
ATOM     39  C   UNL A   1      41.672  26.085  28.349  1.00  0.00     0.074 A 
ATOM     40  C   UNL A   1      43.981  25.211  28.449  1.00  0.00     0.049 A 
ATOM     41  N   UNL A   1      41.831  27.285  28.844  1.00  0.00    -0.248 NA
ATOM     42  C   UNL A   1      40.288  25.768  27.959  1.00  0.00     0.031 C 
ATOM     43  C   UNL A   1      45.062  24.238  28.307  1.00  0.00     0.029 A 
ATOM     44  N   UNL A   1      44.594  26.329  28.958  1.00  0.00    -0.354 N 
ATOM     45  C   UNL A   1      40.566  27.858  28.843  1.00  0.00     0.074 A 
ATOM     46  C   UNL A   1      39.658  26.891  28.267  1.00  0.00     0.031 C 
ATOM     47  C   UNL A   1      46.212  24.805  28.716  1.00  0.00     0.029 A 
ATOM     48  C   UNL A   1      45.949  26.183  29.129  1.00  0.00     0.049 A 
ATOM     49  H   UNL A   1      44.109  27.156  29.179  1.00  0.00     0.167 HD
ATOM     50  C   UNL A   1      40.188  29.079  29.289  1.00  0.00     0.031 A 
ATOM     51  C   UNL A   1      46.867  27.068  29.560  1.00  0.00     0.031 A 
ATOM     52  C   UNL A   1      41.088  30.063  29.819  1.00  0.00     0.049 A 
ATOM     53  C   UNL A   1      46.435  28.453  29.962  1.00  0.00     0.074 A 
ATOM     54  C   UNL A   1      40.801  31.333  30.286  1.00  0.00     0.029 A 
ATOM     55  N   UNL A   1      42.457  29.891  29.938  1.00  0.00    -0.354 N 
ATOM     56  N   UNL A   1      45.231  28.969  29.996  1.00  0.00    -0.248 NA
ATOM     57  C   UNL A   1      47.496  29.378  30.392  1.00  0.00     0.031 C 
ATOM     58  C   UNL A   1      42.004  31.946  30.650  1.00  0.00     0.029 A 
ATOM     59  C   UNL A   1      43.033  31.040  30.451  1.00  0.00     0.049 A 
ATOM     60  H   UNL A   1      42.948  29.073  29.692  1.00  0.00     0.167 HD
ATOM     61  C   UNL A   1      45.385  30.263  30.480  1.00  0.00     0.074 A 
ATOM     62  C   UNL A   1      46.797  30.452  30.733  1.00  0.00     0.031 C 
ATOM     63  C   UNL A   1      44.440  31.209  30.701  1.00  0.00     0.031 A 
BRANCH  50  64
ATOM     64  C   UNL A   1      38.731  29.415  29.193  1.00  0.00    -0.014 A 
ATOM     65  C   UNL A   1      38.182  29.899  27.995  1.00  0.00     0.009 A 
ATOM     66  C   UNL A   1      37.895  29.236  30.305  1.00  0.00     0.009 A 
ATOM     67  C   UNL A   1      36.827  30.224  27.922  1.00  0.00     0.001 A 
ATOM     68  C   UNL A   1      36.537  29.544  30.223  1.00  0.00     0.001 A 
ATOM     69  C   UNL A   1      36.005  30.044  29.034  1.00  0.00     0.000 A 
ENDBRANCH  50  64
BRANCH  51  70
ATOM     70  C   UNL A   1      48.301  26.685  29.635  1.00  0.00    -0.014 A 
ATOM     71  C   UNL A   1      49.156  26.910  28.546  1.00  0.00     0.009 A 
ATOM     72  C   UNL A   1      48.807  26.048  30.778  1.00  0.00     0.009 A 
ATOM     73  C   UNL A   1      50.483  26.477  28.589  1.00  0.00     0.001 A 
ATOM     74  C   UNL A   1      50.142  25.638  30.826  1.00  0.00     0.001 A 
ATOM     75  C   UNL A   1      50.975  25.843  29.729  1.00  0.00     0.000 A 
ENDBRANCH  51  70
BRANCH  63  76
ATOM     76  C   UNL A   1      44.897  32.518  31.277  1.00  0.00    -0.014 A 
ATOM     77  C   UNL A   1      45.140  32.663  32.651  1.00  0.00     0.009 A 
ATOM     78  C   UNL A   1      45.131  33.607  30.423  1.00  0.00     0.009 A 
ATOM     79  C   UNL A   1      45.582  33.884  33.162  1.00  0.00     0.001 A 
ATOM     80  C   UNL A   1      45.595  34.819  30.934  1.00  0.00     0.001 A 
ATOM     81  C   UNL A   1      45.812  34.960  32.303  1.00  0.00     0.000 A 
ENDBRANCH  63  76
ENDBRANCH  37  38
ENDBRANCH  30  32
ENDBRANCH  29  30
ENDBRANCH  28  29
ENDBRANCH  27  28
ENDBRANCH  26  27
ENDBRANCH  25  26
ENDBRANCH   1  25
TORSDOF 21
ENDMDL
MODEL 3
REMARK VINA RESULT:      -9.8      6.172     10.773
REMARK SMILES O=C(CCc1cccnc1)Nc1ccsc1C(=O)OCCOCCOCCOC(=O)c1ccc(-c2c3nc(c(-c4ccccc4)c4ccc([nH]4)c(-c4ccccc4)c4nc(c(-c5ccccc5)c5ccc2[nH]5)C=C4)C=C3)cc1
REMARK SMILES IDX 23 1 22 2 21 3 20 4 19 5 17 6 18 7 16 8 12 9 13 10 14 11
REMARK SMILES IDX 15 12 11 13 1 14 2 15 3 17 4 18 5 19 6 20 10 21 7 22 9 23
REMARK SMILES IDX 8 24 24 25 25 26 26 27 27 28 28 29 29 30 30 31 31 32 32 33
REMARK SMILES IDX 78 34 33 35 77 36 34 37 35 38 36 39 71 40 37 41 76 42 70 43
REMARK SMILES IDX 72 44 38 45 75 46 69 47 68 48 39 50 61 51 46 52 60 53 47 54
REMARK SMILES IDX 50 55 59 56 73 57 48 58 49 59 58 61 74 62 51 63 40 64 41 65
REMARK SMILES IDX 45 66 42 67 44 68 43 69 62 70 63 71 67 72 64 73 66 74 65 75
REMARK SMILES IDX 52 76 53 77 57 78 54 79 56 80 55 81
REMARK H PARENT 11 16 72 49 50 60
REMARK Flexibility Score: inf
ROOT
ATOM      1  C   UNL A   1      34.429  31.878  28.240  1.00  0.00     0.188 C 
ENDROOT
BRANCH   1   2
ATOM      2  O   UNL A   1      33.187  31.633  27.592  1.00  0.00    -0.376 OA
BRANCH   2   3
ATOM      3  C   UNL A   1      32.857  30.288  27.255  1.00  0.00     0.202 C 
BRANCH   3   4
ATOM      4  C   UNL A   1      34.000  29.437  26.696  1.00  0.00     0.261 C 
BRANCH   4   5
ATOM      5  O   UNL A   1      33.700  28.958  25.371  1.00  0.00    -0.459 OA
BRANCH   5   6
ATOM      6  C   UNL A   1      33.046  27.757  25.355  1.00  0.00     0.350 C 
ATOM      7  O   UNL A   1      33.221  26.878  26.192  1.00  0.00    -0.245 OA
BRANCH   6   8
ATOM      8  C   UNL A   1      32.019  27.763  24.329  1.00  0.00     0.136 A 
ATOM      9  C   UNL A   1      31.661  26.839  23.352  1.00  0.00     0.066 A 
ATOM     10  C   UNL A   1      30.629  27.368  22.507  1.00  0.00     0.039 A 
ATOM     11  C   UNL A   1      30.233  28.636  22.861  1.00  0.00     0.068 A 
ATOM     12  S   UNL A   1      31.076  29.201  24.222  1.00  0.00    -0.135 S 
BRANCH   9  13
ATOM     13  N   UNL A   1      32.222  25.561  23.253  1.00  0.00    -0.325 N 
ATOM     14  O   UNL A   1      33.574  25.874  21.392  1.00  0.00    -0.275 OA
ATOM     15  C   UNL A   1      33.045  25.138  22.224  1.00  0.00     0.224 C 
ATOM     16  H   UNL A   1      32.015  24.916  23.967  1.00  0.00     0.169 HD
BRANCH  15  17
ATOM     17  C   UNL A   1      33.198  23.630  22.077  1.00  0.00     0.105 C 
BRANCH  17  18
ATOM     18  C   UNL A   1      33.232  22.817  23.366  1.00  0.00     0.047 C 
BRANCH  18  19
ATOM     19  C   UNL A   1      34.579  22.338  23.845  1.00  0.00    -0.029 A 
ATOM     20  C   UNL A   1      34.650  21.263  24.737  1.00  0.00     0.007 A 
ATOM     21  C   UNL A   1      35.784  22.933  23.479  1.00  0.00     0.114 A 
ATOM     22  C   UNL A   1      35.887  20.805  25.180  1.00  0.00     0.020 A 
ATOM     23  N   UNL A   1      36.999  22.484  23.863  1.00  0.00    -0.264 NA
ATOM     24  C   UNL A   1      37.024  21.432  24.706  1.00  0.00     0.111 A 
ENDBRANCH  18  19
ENDBRANCH  17  18
ENDBRANCH  15  17
ENDBRANCH   9  13
ENDBRANCH   6   8
ENDBRANCH   5   6
ENDBRANCH   4   5
ENDBRANCH   3   4
ENDBRANCH   2   3
ENDBRANCH   1   2
BRANCH   1  25
ATOM     25  C   UNL A   1      34.451  32.818  29.462  1.00  0.00     0.188 C 
BRANCH  25  26
ATOM     26  O   UNL A   1      34.635  34.197  29.162  1.00  0.00    -0.376 OA
BRANCH  26  27
ATOM     27  C   UNL A   1      33.452  34.885  28.763  1.00  0.00     0.202 C 
BRANCH  27  28
ATOM     28  C   UNL A   1      32.957  35.878  29.820  1.00  0.00     0.261 C 
BRANCH  28  29
ATOM     29  O   UNL A   1      32.414  35.259  30.996  1.00  0.00    -0.460 OA
BRANCH  29  30
ATOM     30  C   UNL A   1      32.799  35.776  32.183  1.00  0.00     0.338 C 
ATOM     31  O   UNL A   1      32.200  36.590  32.863  1.00  0.00    -0.246 OA
BRANCH  30  32
ATOM     32  C   UNL A   1      34.001  35.041  32.623  1.00  0.00     0.060 A 
ATOM     33  C   UNL A   1      35.252  35.651  32.468  1.00  0.00     0.016 A 
ATOM     34  C   UNL A   1      33.891  33.777  33.208  1.00  0.00     0.016 A 
ATOM     35  C   UNL A   1      36.404  34.980  32.883  1.00  0.00     0.010 A 
ATOM     36  C   UNL A   1      35.045  33.099  33.602  1.00  0.00     0.010 A 
ATOM     37  C   UNL A   1      36.306  33.688  33.419  1.00  0.00    -0.014 A 
BRANCH  37  38
ATOM     38  C   UNL A   1      37.529  32.877  33.612  1.00  0.00     0.031 A 
ATOM     39  C   UNL A   1      38.341  33.100  34.858  1.00  0.00     0.074 A 
ATOM     40  C   UNL A   1      37.915  31.962  32.706  1.00  0.00     0.049 A 
ATOM     41  N   UNL A   1      39.437  32.505  35.250  1.00  0.00    -0.248 NA
ATOM     42  C   UNL A   1      37.845  34.130  35.786  1.00  0.00     0.031 C 
ATOM     43  C   UNL A   1      37.207  31.634  31.471  1.00  0.00     0.029 A 
ATOM     44  N   UNL A   1      39.017  31.142  32.695  1.00  0.00    -0.354 N 
ATOM     45  C   UNL A   1      39.751  33.075  36.477  1.00  0.00     0.074 A 
ATOM     46  C   UNL A   1      38.752  34.084  36.748  1.00  0.00     0.031 C 
ATOM     47  C   UNL A   1      37.897  30.682  30.815  1.00  0.00     0.029 A 
ATOM     48  C   UNL A   1      39.101  30.350  31.576  1.00  0.00     0.049 A 
ATOM     49  H   UNL A   1      39.682  31.123  33.419  1.00  0.00     0.167 HD
ATOM     50  C   UNL A   1      40.775  32.780  37.311  1.00  0.00     0.031 A 
ATOM     51  C   UNL A   1      40.048  29.466  31.210  1.00  0.00     0.031 A 
ATOM     52  C   UNL A   1      41.797  31.812  37.030  1.00  0.00     0.049 A 
ATOM     53  C   UNL A   1      41.229  29.224  32.112  1.00  0.00     0.074 A 
ATOM     54  C   UNL A   1      42.882  31.452  37.809  1.00  0.00     0.029 A 
ATOM     55  N   UNL A   1      41.868  31.061  35.869  1.00  0.00    -0.354 N 
ATOM     56  N   UNL A   1      41.492  29.738  33.289  1.00  0.00    -0.248 NA
ATOM     57  C   UNL A   1      42.243  28.271  31.633  1.00  0.00     0.031 C 
ATOM     58  C   UNL A   1      43.634  30.509  37.099  1.00  0.00     0.029 A 
ATOM     59  C   UNL A   1      42.991  30.253  35.899  1.00  0.00     0.049 A 
ATOM     60  H   UNL A   1      41.218  31.097  35.131  1.00  0.00     0.167 HD
ATOM     61  C   UNL A   1      42.681  29.149  33.703  1.00  0.00     0.074 A 
ATOM     62  C   UNL A   1      43.084  28.233  32.658  1.00  0.00     0.031 C 
ATOM     63  C   UNL A   1      43.374  29.344  34.851  1.00  0.00     0.031 A 
BRANCH  50  64
ATOM     64  C   UNL A   1      40.841  33.542  38.600  1.00  0.00    -0.014 A 
ATOM     65  C   UNL A   1      41.550  34.751  38.684  1.00  0.00     0.009 A 
ATOM     66  C   UNL A   1      40.181  33.055  39.737  1.00  0.00     0.009 A 
ATOM     67  C   UNL A   1      41.619  35.443  39.893  1.00  0.00     0.001 A 
ATOM     68  C   UNL A   1      40.236  33.761  40.940  1.00  0.00     0.001 A 
ATOM     69  C   UNL A   1      40.960  34.950  41.019  1.00  0.00     0.000 A 
ENDBRANCH  50  64
BRANCH  51  70
ATOM     70  C   UNL A   1      39.937  28.737  29.920  1.00  0.00    -0.014 A 
ATOM     71  C   UNL A   1      39.396  27.444  29.877  1.00  0.00     0.009 A 
ATOM     72  C   UNL A   1      40.418  29.313  28.735  1.00  0.00     0.009 A 
ATOM     73  C   UNL A   1      39.365  26.730  28.678  1.00  0.00     0.001 A 
ATOM     74  C   UNL A   1      40.364  28.605  27.532  1.00  0.00     0.001 A 
ATOM     75  C   UNL A   1      39.848  27.311  27.506  1.00  0.00     0.000 A 
ENDBRANCH  51  70
BRANCH  63  76
ATOM     76  C   UNL A   1      44.618  28.527  35.053  1.00  0.00    -0.014 A 
ATOM     77  C   UNL A   1      45.859  28.956  34.560  1.00  0.00     0.009 A 
ATOM     78  C   UNL A   1      44.551  27.332  35.788  1.00  0.00     0.009 A 
ATOM     79  C   UNL A   1      47.005  28.189  34.775  1.00  0.00     0.001 A 
ATOM     80  C   UNL A   1      45.702  26.580  36.020  1.00  0.00     0.001 A 
ATOM     81  C   UNL A   1      46.926  27.004  35.508  1.00  0.00     0.000 A 
ENDBRANCH  63  76
ENDBRANCH  37  38
ENDBRANCH  30  32
ENDBRANCH  29  30
ENDBRANCH  28  29
ENDBRANCH  27  28
ENDBRANCH  26  27
ENDBRANCH  25  26
ENDBRANCH   1  25
TORSDOF 21
ENDMDL
