MODEL 1
REMARK VINA RESULT:     -10.9      0.000      0.000
REMARK SMILES Cc1cccc(C[NH+]2CCC(OCC(=O)OCCOCCOCCOC(=O)c3ccc(-c4c5nc(c(-c6ccccc6)c6ccc([nH]6)c(-c6ccccc6)c6nc(c(-c7ccccc7)c7ccc4[nH]7)C=C6)C=C5)cc3)CC2)n1
REMARK SMILES IDX 20 1 19 2 18 3 17 4 16 5 14 6 15 7 13 8 12 9 11 10 8 11 9 12
REMARK SMILES IDX 77 13 10 15 76 16 7 17 6 18 1 19 2 20 3 21 78 22 4 23 5 24
REMARK SMILES IDX 21 25 22 26 23 27 24 28 25 29 26 30 27 31 28 32 29 33 75 34
REMARK SMILES IDX 30 35 74 36 31 37 32 38 33 39 68 40 34 41 73 42 67 43 69 44
REMARK SMILES IDX 35 45 72 46 66 47 65 48 36 50 58 51 43 52 57 53 44 54 47 55
REMARK SMILES IDX 56 56 70 57 45 58 46 59 55 61 71 62 48 63 37 64 38 65 42 66
REMARK SMILES IDX 39 67 41 68 40 69 59 70 60 71 64 72 61 73 63 74 62 75 49 76
REMARK SMILES IDX 50 77 54 78 51 79 53 80 52 81
REMARK H PARENT 8 14 69 49 47 60
REMARK Flexibility Score: inf
ROOT
ATOM      1  C   UNL A   1      35.213  33.366  29.678  1.00  0.00     0.188 C 
ENDROOT
BRANCH   1   2
ATOM      2  O   UNL A   1      34.330  32.318  29.375  1.00  0.00    -0.376 OA
BRANCH   2   3
ATOM      3  C   UNL A   1      34.217  32.083  27.986  1.00  0.00     0.202 C 
BRANCH   3   4
ATOM      4  C   UNL A   1      33.795  30.659  27.524  1.00  0.00     0.261 C 
BRANCH   4   5
ATOM      5  O   UNL A   1      33.083  30.450  26.257  1.00  0.00    -0.462 OA
BRANCH   5   6
ATOM      6  C   UNL A   1      32.032  29.577  26.271  1.00  0.00     0.332 C 
ATOM      7  O   UNL A   1      31.738  28.917  27.268  1.00  0.00    -0.250 OA
BRANCH   6   8
ATOM      8  C   UNL A   1      31.195  29.384  24.930  1.00  0.00     0.283 C 
BRANCH   8   9
ATOM      9  O   UNL A   1      31.458  29.079  23.571  1.00  0.00    -0.366 OA
BRANCH   9  10
ATOM     10  C   UNL A   1      31.035  27.832  23.018  1.00  0.00     0.130 C 
ATOM     11  N   UNL A   1      31.528  24.757  23.495  1.00  0.00    -0.330 N 
ATOM     12  C   UNL A   1      31.769  25.538  22.149  1.00  0.00     0.265 C 
ATOM     13  C   UNL A   1      30.262  25.554  23.764  1.00  0.00     0.265 C 
ATOM     14  H   UNL A   1      32.397  24.642  24.017  1.00  0.00     0.348 HD
ATOM     15  C   UNL A   1      32.051  27.069  22.215  1.00  0.00     0.093 C 
ATOM     16  C   UNL A   1      30.594  26.978  24.146  1.00  0.00     0.093 C 
BRANCH  11  17
ATOM     17  C   UNL A   1      31.692  22.986  24.102  1.00  0.00     0.319 C 
BRANCH  17  18
ATOM     18  C   UNL A   1      33.087  21.845  24.809  1.00  0.00     0.095 A 
ATOM     19  C   UNL A   1      36.576  22.427  23.796  1.00  0.00     0.067 C 
ATOM     20  C   UNL A   1      35.481  21.920  24.694  1.00  0.00     0.038 A 
ATOM     21  C   UNL A   1      35.686  22.048  26.044  1.00  0.00     0.023 A 
ATOM     22  N   UNL A   1      34.238  21.671  24.121  1.00  0.00    -0.252 NA
ATOM     23  C   UNL A   1      34.624  21.714  26.816  1.00  0.00     0.004 A 
ATOM     24  C   UNL A   1      33.380  21.497  26.185  1.00  0.00     0.030 A 
ENDBRANCH  17  18
ENDBRANCH  11  17
ENDBRANCH   9  10
ENDBRANCH   8   9
ENDBRANCH   6   8
ENDBRANCH   5   6
ENDBRANCH   4   5
ENDBRANCH   3   4
ENDBRANCH   2   3
ENDBRANCH   1   2
BRANCH   1  25
ATOM     25  C   UNL A   1      34.628  34.598  30.377  1.00  0.00     0.188 C 
BRANCH  25  26
ATOM     26  O   UNL A   1      33.381  34.749  31.015  1.00  0.00    -0.376 OA
BRANCH  26  27
ATOM     27  C   UNL A   1      33.636  35.094  32.434  1.00  0.00     0.202 C 
BRANCH  27  28
ATOM     28  C   UNL A   1      33.865  33.801  33.346  1.00  0.00     0.261 C 
BRANCH  28  29
ATOM     29  O   UNL A   1      35.165  32.584  33.495  1.00  0.00    -0.460 OA
BRANCH  29  30
ATOM     30  C   UNL A   1      36.677  32.090  33.248  1.00  0.00     0.338 C 
ATOM     31  O   UNL A   1      37.393  32.240  34.249  1.00  0.00    -0.246 OA
BRANCH  30  32
ATOM     32  C   UNL A   1      37.587  31.232  31.895  1.00  0.00     0.060 A 
ATOM     33  C   UNL A   1      38.466  30.257  32.311  1.00  0.00     0.016 A 
ATOM     34  C   UNL A   1      37.409  30.926  30.468  1.00  0.00     0.016 A 
ATOM     35  C   UNL A   1      39.478  29.612  31.628  1.00  0.00     0.010 A 
ATOM     36  C   UNL A   1      38.268  30.205  29.643  1.00  0.00     0.010 A 
ATOM     37  C   UNL A   1      39.322  29.597  30.268  1.00  0.00    -0.014 A 
BRANCH  37  38
ATOM     38  C   UNL A   1      40.459  29.174  29.536  1.00  0.00     0.031 A 
ATOM     39  C   UNL A   1      41.504  30.212  29.467  1.00  0.00     0.074 A 
ATOM     40  C   UNL A   1      40.469  27.892  29.151  1.00  0.00     0.049 A 
ATOM     41  N   UNL A   1      42.643  30.165  28.865  1.00  0.00    -0.248 NA
ATOM     42  C   UNL A   1      41.227  31.498  30.156  1.00  0.00     0.031 C 
ATOM     43  C   UNL A   1      39.389  26.921  29.375  1.00  0.00     0.029 A 
ATOM     44  N   UNL A   1      41.435  27.202  28.526  1.00  0.00    -0.354 N 
ATOM     45  C   UNL A   1      43.200  31.412  29.076  1.00  0.00     0.074 A 
ATOM     46  C   UNL A   1      42.274  32.222  29.815  1.00  0.00     0.031 C 
ATOM     47  C   UNL A   1      39.774  25.735  28.877  1.00  0.00     0.029 A 
ATOM     48  C   UNL A   1      41.078  25.909  28.260  1.00  0.00     0.049 A 
ATOM     49  H   UNL A   1      42.309  27.586  28.284  1.00  0.00     0.167 HD
ATOM     50  C   UNL A   1      44.414  31.803  28.659  1.00  0.00     0.031 A 
ATOM     51  C   UNL A   1      41.769  25.021  27.539  1.00  0.00     0.031 A 
ATOM     52  C   UNL A   1      45.232  30.902  27.905  1.00  0.00     0.049 A 
ATOM     53  C   UNL A   1      43.081  25.523  27.005  1.00  0.00     0.074 A 
ATOM     54  C   UNL A   1      46.473  31.109  27.355  1.00  0.00     0.029 A 
ATOM     55  N   UNL A   1      44.849  29.594  27.594  1.00  0.00    -0.354 N 
ATOM     56  N   UNL A   1      43.632  26.711  27.161  1.00  0.00    -0.248 NA
ATOM     57  C   UNL A   1      43.864  24.587  26.210  1.00  0.00     0.031 C 
ATOM     58  C   UNL A   1      46.804  29.951  26.645  1.00  0.00     0.029 A 
ATOM     59  C   UNL A   1      45.817  28.985  26.832  1.00  0.00     0.049 A 
ATOM     60  H   UNL A   1      44.008  29.170  27.880  1.00  0.00     0.167 HD
ATOM     61  C   UNL A   1      44.848  26.663  26.509  1.00  0.00     0.074 A 
ATOM     62  C   UNL A   1      44.952  25.309  25.976  1.00  0.00     0.031 C 
ATOM     63  C   UNL A   1      45.799  27.620  26.351  1.00  0.00     0.031 A 
BRANCH  50  64
ATOM     64  C   UNL A   1      44.798  33.222  28.927  1.00  0.00    -0.014 A 
ATOM     65  C   UNL A   1      44.505  34.259  28.023  1.00  0.00     0.009 A 
ATOM     66  C   UNL A   1      45.554  33.513  30.070  1.00  0.00     0.009 A 
ATOM     67  C   UNL A   1      44.984  35.550  28.248  1.00  0.00     0.001 A 
ATOM     68  C   UNL A   1      45.997  34.813  30.313  1.00  0.00     0.001 A 
ATOM     69  C   UNL A   1      45.720  35.828  29.399  1.00  0.00     0.000 A 
ENDBRANCH  50  64
BRANCH  51  70
ATOM     70  C   UNL A   1      41.219  23.673  27.288  1.00  0.00    -0.014 A 
ATOM     71  C   UNL A   1      41.730  22.556  27.960  1.00  0.00     0.009 A 
ATOM     72  C   UNL A   1      40.135  23.496  26.408  1.00  0.00     0.009 A 
ATOM     73  C   UNL A   1      41.201  21.286  27.723  1.00  0.00     0.001 A 
ATOM     74  C   UNL A   1      39.583  22.231  26.200  1.00  0.00     0.001 A 
ATOM     75  C   UNL A   1      40.129  21.125  26.845  1.00  0.00     0.000 A 
ENDBRANCH  51  70
BRANCH  63  76
ATOM     76  C   UNL A   1      47.027  27.186  25.617  1.00  0.00    -0.014 A 
ATOM     77  C   UNL A   1      47.203  27.476  24.259  1.00  0.00     0.009 A 
ATOM     78  C   UNL A   1      48.040  26.528  26.330  1.00  0.00     0.009 A 
ATOM     79  C   UNL A   1      48.360  27.060  23.609  1.00  0.00     0.001 A 
ATOM     80  C   UNL A   1      49.219  26.168  25.692  1.00  0.00     0.001 A 
ATOM     81  C   UNL A   1      49.369  26.419  24.328  1.00  0.00     0.000 A 
ENDBRANCH  63  76
ENDBRANCH  37  38
ENDBRANCH  30  32
ENDBRANCH  29  30
ENDBRANCH  28  29
ENDBRANCH  27  28
ENDBRANCH  26  27
ENDBRANCH  25  26
ENDBRANCH   1  25
TORSDOF 21
ENDMDL
MODEL 2
REMARK VINA RESULT:     -10.4      3.279      8.436
REMARK SMILES Cc1cccc(C[NH+]2CCC(OCC(=O)OCCOCCOCCOC(=O)c3ccc(-c4c5nc(c(-c6ccccc6)c6ccc([nH]6)c(-c6ccccc6)c6nc(c(-c7ccccc7)c7ccc4[nH]7)C=C6)C=C5)cc3)CC2)n1
REMARK SMILES IDX 20 1 19 2 18 3 17 4 16 5 14 6 15 7 13 8 12 9 11 10 8 11 9 12
REMARK SMILES IDX 77 13 10 15 76 16 7 17 6 18 1 19 2 20 3 21 78 22 4 23 5 24
REMARK SMILES IDX 21 25 22 26 23 27 24 28 25 29 26 30 27 31 28 32 29 33 75 34
REMARK SMILES IDX 30 35 74 36 31 37 32 38 33 39 68 40 34 41 73 42 67 43 69 44
REMARK SMILES IDX 35 45 72 46 66 47 65 48 36 50 58 51 43 52 57 53 44 54 47 55
REMARK SMILES IDX 56 56 70 57 45 58 46 59 55 61 71 62 48 63 37 64 38 65 42 66
REMARK SMILES IDX 39 67 41 68 40 69 59 70 60 71 64 72 61 73 63 74 62 75 49 76
REMARK SMILES IDX 50 77 54 78 51 79 53 80 52 81
REMARK H PARENT 8 14 69 49 47 60
REMARK Flexibility Score: inf
ROOT
ATOM      1  C   UNL A   1      36.426  23.883  25.707  1.00  0.00     0.188 C 
ENDROOT
BRANCH   1   2
ATOM      2  O   UNL A   1      35.396  24.430  24.925  1.00  0.00    -0.376 OA
BRANCH   2   3
ATOM      3  C   UNL A   1      34.376  25.023  25.703  1.00  0.00     0.202 C 
BRANCH   3   4
ATOM      4  C   UNL A   1      33.982  26.493  25.382  1.00  0.00     0.261 C 
BRANCH   4   5
ATOM      5  O   UNL A   1      33.565  27.418  26.444  1.00  0.00    -0.462 OA
BRANCH   5   6
ATOM      6  C   UNL A   1      33.494  28.743  26.121  1.00  0.00     0.332 C 
ATOM      7  O   UNL A   1      33.730  29.633  26.939  1.00  0.00    -0.250 OA
BRANCH   6   8
ATOM      8  C   UNL A   1      33.046  29.136  24.644  1.00  0.00     0.283 C 
BRANCH   8   9
ATOM      9  O   UNL A   1      31.896  28.990  23.829  1.00  0.00    -0.366 OA
BRANCH   9  10
ATOM     10  C   UNL A   1      31.854  27.983  22.816  1.00  0.00     0.130 C 
ATOM     11  N   UNL A   1      32.623  24.947  22.481  1.00  0.00    -0.330 N 
ATOM     12  C   UNL A   1      33.151  26.141  21.600  1.00  0.00     0.265 C 
ATOM     13  C   UNL A   1      31.233  25.559  22.529  1.00  0.00     0.265 C 
ATOM     14  H   UNL A   1      33.295  24.697  23.207  1.00  0.00     0.348 HD
ATOM     15  C   UNL A   1      33.170  27.571  22.217  1.00  0.00     0.093 C 
ATOM     16  C   UNL A   1      31.217  26.786  23.412  1.00  0.00     0.093 C 
BRANCH  11  17
ATOM     17  C   UNL A   1      32.851  23.082  22.542  1.00  0.00     0.319 C 
BRANCH  17  18
ATOM     18  C   UNL A   1      32.764  21.679  23.873  1.00  0.00     0.095 A 
ATOM     19  C   UNL A   1      32.396  18.184  22.782  1.00  0.00     0.067 C 
ATOM     20  C   UNL A   1      32.779  19.284  23.733  1.00  0.00     0.038 A 
ATOM     21  C   UNL A   1      33.938  19.106  24.443  1.00  0.00     0.023 A 
ATOM     22  N   UNL A   1      32.139  20.512  23.592  1.00  0.00    -0.252 NA
ATOM     23  C   UNL A   1      34.326  20.176  25.180  1.00  0.00     0.004 A 
ATOM     24  C   UNL A   1      33.660  21.404  24.978  1.00  0.00     0.030 A 
ENDBRANCH  17  18
ENDBRANCH  11  17
ENDBRANCH   9  10
ENDBRANCH   8   9
ENDBRANCH   6   8
ENDBRANCH   5   6
ENDBRANCH   4   5
ENDBRANCH   3   4
ENDBRANCH   2   3
ENDBRANCH   1   2
BRANCH   1  25
ATOM     25  C   UNL A   1      37.206  22.704  25.115  1.00  0.00     0.188 C 
BRANCH  25  26
ATOM     26  O   UNL A   1      38.199  21.905  25.716  1.00  0.00    -0.376 OA
BRANCH  26  27
ATOM     27  C   UNL A   1      38.213  20.597  25.018  1.00  0.00     0.202 C 
BRANCH  27  28
ATOM     28  C   UNL A   1      39.204  19.547  25.705  1.00  0.00     0.261 C 
BRANCH  28  29
ATOM     29  O   UNL A   1      40.975  19.447  25.920  1.00  0.00    -0.460 OA
BRANCH  29  30
ATOM     30  C   UNL A   1      42.458  20.048  25.748  1.00  0.00     0.338 C 
ATOM     31  O   UNL A   1      43.307  19.165  25.550  1.00  0.00    -0.246 OA
BRANCH  30  32
ATOM     32  C   UNL A   1      43.203  21.730  25.640  1.00  0.00     0.060 A 
ATOM     33  C   UNL A   1      44.143  22.015  26.605  1.00  0.00     0.016 A 
ATOM     34  C   UNL A   1      43.457  22.759  24.622  1.00  0.00     0.016 A 
ATOM     35  C   UNL A   1      44.698  23.218  26.988  1.00  0.00     0.010 A 
ATOM     36  C   UNL A   1      44.092  23.986  24.798  1.00  0.00     0.010 A 
ATOM     37  C   UNL A   1      44.665  24.189  26.023  1.00  0.00    -0.014 A 
BRANCH  37  38
ATOM     38  C   UNL A   1      44.990  25.494  26.469  1.00  0.00     0.031 A 
ATOM     39  C   UNL A   1      43.837  26.188  27.071  1.00  0.00     0.074 A 
ATOM     40  C   UNL A   1      46.283  25.834  26.406  1.00  0.00     0.049 A 
ATOM     41  N   UNL A   1      43.781  27.384  27.550  1.00  0.00    -0.248 NA
ATOM     42  C   UNL A   1      42.553  25.444  27.127  1.00  0.00     0.031 C 
ATOM     43  C   UNL A   1      47.364  24.997  25.868  1.00  0.00     0.029 A 
ATOM     44  N   UNL A   1      46.887  26.955  26.828  1.00  0.00    -0.354 N 
ATOM     45  C   UNL A   1      42.462  27.544  27.934  1.00  0.00     0.074 A 
ATOM     46  C   UNL A   1      41.728  26.357  27.599  1.00  0.00     0.031 C 
ATOM     47  C   UNL A   1      48.523  25.661  26.002  1.00  0.00     0.029 A 
ATOM     48  C   UNL A   1      48.229  26.967  26.567  1.00  0.00     0.049 A 
ATOM     49  H   UNL A   1      46.414  27.691  27.280  1.00  0.00     0.167 HD
ATOM     50  C   UNL A   1      41.952  28.633  28.529  1.00  0.00     0.031 A 
ATOM     51  C   UNL A   1      49.069  27.991  26.747  1.00  0.00     0.031 A 
ATOM     52  C   UNL A   1      42.792  29.764  28.786  1.00  0.00     0.049 A 
ATOM     53  C   UNL A   1      48.444  29.229  27.325  1.00  0.00     0.074 A 
ATOM     54  C   UNL A   1      42.468  30.978  29.341  1.00  0.00     0.029 A 
ATOM     55  N   UNL A   1      44.154  29.795  28.478  1.00  0.00    -0.354 N 
ATOM     56  N   UNL A   1      47.189  29.428  27.678  1.00  0.00    -0.248 NA
ATOM     57  C   UNL A   1      49.325  30.370  27.535  1.00  0.00     0.031 C 
ATOM     58  C   UNL A   1      43.620  31.769  29.294  1.00  0.00     0.029 A 
ATOM     59  C   UNL A   1      44.687  31.019  28.803  1.00  0.00     0.049 A 
ATOM     60  H   UNL A   1      44.660  29.047  28.085  1.00  0.00     0.167 HD
ATOM     61  C   UNL A   1      47.128  30.712  28.183  1.00  0.00     0.074 A 
ATOM     62  C   UNL A   1      48.490  31.227  28.107  1.00  0.00     0.031 C 
ATOM     63  C   UNL A   1      46.071  31.416  28.668  1.00  0.00     0.031 A 
BRANCH  50  64
ATOM     64  C   UNL A   1      40.482  28.632  28.796  1.00  0.00    -0.014 A 
ATOM     65  C   UNL A   1      39.552  29.123  27.861  1.00  0.00     0.009 A 
ATOM     66  C   UNL A   1      40.023  28.215  30.052  1.00  0.00     0.009 A 
ATOM     67  C   UNL A   1      38.199  29.220  28.191  1.00  0.00     0.001 A 
ATOM     68  C   UNL A   1      38.665  28.274  30.364  1.00  0.00     0.001 A 
ATOM     69  C   UNL A   1      37.756  28.784  29.438  1.00  0.00     0.000 A 
ENDBRANCH  50  64
BRANCH  51  70
ATOM     70  C   UNL A   1      50.489  27.869  26.356  1.00  0.00    -0.014 A 
ATOM     71  C   UNL A   1      51.411  27.239  27.201  1.00  0.00     0.009 A 
ATOM     72  C   UNL A   1      50.928  28.338  25.104  1.00  0.00     0.009 A 
ATOM     73  C   UNL A   1      52.749  27.121  26.822  1.00  0.00     0.001 A 
ATOM     74  C   UNL A   1      52.258  28.187  24.712  1.00  0.00     0.001 A 
ATOM     75  C   UNL A   1      53.172  27.594  25.580  1.00  0.00     0.000 A 
ENDBRANCH  51  70
BRANCH  63  76
ATOM     76  C   UNL A   1      46.397  32.781  29.183  1.00  0.00    -0.014 A 
ATOM     77  C   UNL A   1      46.770  32.986  30.517  1.00  0.00     0.009 A 
ATOM     78  C   UNL A   1      46.381  33.860  28.287  1.00  0.00     0.009 A 
ATOM     79  C   UNL A   1      47.071  34.269  30.960  1.00  0.00     0.001 A 
ATOM     80  C   UNL A   1      46.740  35.129  28.720  1.00  0.00     0.001 A 
ATOM     81  C   UNL A   1      47.067  35.335  30.060  1.00  0.00     0.000 A 
ENDBRANCH  63  76
ENDBRANCH  37  38
ENDBRANCH  30  32
ENDBRANCH  29  30
ENDBRANCH  28  29
ENDBRANCH  27  28
ENDBRANCH  26  27
ENDBRANCH  25  26
ENDBRANCH   1  25
TORSDOF 21
ENDMDL
MODEL 3
REMARK VINA RESULT:     -10.4      4.418      9.385
REMARK SMILES Cc1cccc(C[NH+]2CCC(OCC(=O)OCCOCCOCCOC(=O)c3ccc(-c4c5nc(c(-c6ccccc6)c6ccc([nH]6)c(-c6ccccc6)c6nc(c(-c7ccccc7)c7ccc4[nH]7)C=C6)C=C5)cc3)CC2)n1
REMARK SMILES IDX 20 1 19 2 18 3 17 4 16 5 14 6 15 7 13 8 12 9 11 10 8 11 9 12
REMARK SMILES IDX 77 13 10 15 76 16 7 17 6 18 1 19 2 20 3 21 78 22 4 23 5 24
REMARK SMILES IDX 21 25 22 26 23 27 24 28 25 29 26 30 27 31 28 32 29 33 75 34
REMARK SMILES IDX 30 35 74 36 31 37 32 38 33 39 68 40 34 41 73 42 67 43 69 44
REMARK SMILES IDX 35 45 72 46 66 47 65 48 36 50 58 51 43 52 57 53 44 54 47 55
REMARK SMILES IDX 56 56 70 57 45 58 46 59 55 61 71 62 48 63 37 64 38 65 42 66
REMARK SMILES IDX 39 67 41 68 40 69 59 70 60 71 64 72 61 73 63 74 62 75 49 76
REMARK SMILES IDX 50 77 54 78 51 79 53 80 52 81
REMARK H PARENT 8 14 69 49 47 60
REMARK Flexibility Score: inf
ROOT
ATOM      1  C   UNL A   1      38.087  21.518  25.702  1.00  0.00     0.188 C 
ENDROOT
BRANCH   1   2
ATOM      2  O   UNL A   1      37.456  22.386  24.798  1.00  0.00    -0.376 OA
BRANCH   2   3
ATOM      3  C   UNL A   1      36.265  21.847  24.263  1.00  0.00     0.202 C 
BRANCH   3   4
ATOM      4  C   UNL A   1      35.508  20.781  25.107  1.00  0.00     0.261 C 
BRANCH   4   5
ATOM      5  O   UNL A   1      35.379  19.394  24.642  1.00  0.00    -0.462 OA
BRANCH   5   6
ATOM      6  C   UNL A   1      34.119  18.869  24.593  1.00  0.00     0.332 C 
ATOM      7  O   UNL A   1      33.897  17.724  24.199  1.00  0.00    -0.250 OA
BRANCH   6   8
ATOM      8  C   UNL A   1      32.899  19.799  25.022  1.00  0.00     0.283 C 
BRANCH   8   9
ATOM      9  O   UNL A   1      32.182  20.895  24.481  1.00  0.00    -0.366 OA
BRANCH   9  10
ATOM     10  C   UNL A   1      31.578  21.859  25.346  1.00  0.00     0.130 C 
ATOM     11  N   UNL A   1      32.032  24.852  26.216  1.00  0.00    -0.330 N 
ATOM     12  C   UNL A   1      31.967  23.606  27.176  1.00  0.00     0.265 C 
ATOM     13  C   UNL A   1      30.910  24.287  25.361  1.00  0.00     0.265 C 
ATOM     14  H   UNL A   1      32.997  25.111  26.009  1.00  0.00     0.348 HD
ATOM     15  C   UNL A   1      32.327  22.203  26.603  1.00  0.00     0.093 C 
ATOM     16  C   UNL A   1      31.392  23.100  24.559  1.00  0.00     0.093 C 
BRANCH  11  17
ATOM     17  C   UNL A   1      32.260  26.710  26.392  1.00  0.00     0.319 C 
BRANCH  17  18
ATOM     18  C   UNL A   1      32.219  28.266  25.242  1.00  0.00     0.095 A 
ATOM     19  C   UNL A   1      34.024  28.186  22.037  1.00  0.00     0.067 C 
ATOM     20  C   UNL A   1      32.979  28.671  23.003  1.00  0.00     0.038 A 
ATOM     21  C   UNL A   1      31.744  28.955  22.481  1.00  0.00     0.023 A 
ATOM     22  N   UNL A   1      33.221  28.489  24.362  1.00  0.00    -0.252 NA
ATOM     23  C   UNL A   1      30.791  29.251  23.398  1.00  0.00     0.004 A 
ATOM     24  C   UNL A   1      31.080  29.023  24.761  1.00  0.00     0.030 A 
ENDBRANCH  17  18
ENDBRANCH  11  17
ENDBRANCH   9  10
ENDBRANCH   8   9
ENDBRANCH   6   8
ENDBRANCH   5   6
ENDBRANCH   4   5
ENDBRANCH   3   4
ENDBRANCH   2   3
ENDBRANCH   1   2
BRANCH   1  25
ATOM     25  C   UNL A   1      39.526  21.853  26.111  1.00  0.00     0.188 C 
BRANCH  25  26
ATOM     26  O   UNL A   1      40.505  21.016  26.683  1.00  0.00    -0.376 OA
BRANCH  26  27
ATOM     27  C   UNL A   1      40.286  19.644  26.168  1.00  0.00     0.202 C 
BRANCH  27  28
ATOM     28  C   UNL A   1      41.649  18.823  26.015  1.00  0.00     0.261 C 
BRANCH  28  29
ATOM     29  O   UNL A   1      43.132  19.021  25.037  1.00  0.00    -0.460 OA
BRANCH  29  30
ATOM     30  C   UNL A   1      44.484  19.808  24.660  1.00  0.00     0.338 C 
ATOM     31  O   UNL A   1      45.298  19.089  24.059  1.00  0.00    -0.246 OA
BRANCH  30  32
ATOM     32  C   UNL A   1      45.084  21.546  24.778  1.00  0.00     0.060 A 
ATOM     33  C   UNL A   1      45.566  21.915  26.014  1.00  0.00     0.016 A 
ATOM     34  C   UNL A   1      45.624  22.587  23.892  1.00  0.00     0.016 A 
ATOM     35  C   UNL A   1      45.842  23.163  26.533  1.00  0.00     0.010 A 
ATOM     36  C   UNL A   1      46.050  23.865  24.248  1.00  0.00     0.010 A 
ATOM     37  C   UNL A   1      46.101  24.122  25.590  1.00  0.00    -0.014 A 
BRANCH  37  38
ATOM     38  C   UNL A   1      46.133  25.452  26.078  1.00  0.00     0.031 A 
ATOM     39  C   UNL A   1      47.474  26.058  25.979  1.00  0.00     0.074 A 
ATOM     40  C   UNL A   1      44.951  25.986  26.412  1.00  0.00     0.049 A 
ATOM     41  N   UNL A   1      47.853  27.233  26.351  1.00  0.00    -0.248 NA
ATOM     42  C   UNL A   1      48.553  25.220  25.398  1.00  0.00     0.031 C 
ATOM     43  C   UNL A   1      43.656  25.296  26.367  1.00  0.00     0.029 A 
ATOM     44  N   UNL A   1      44.669  27.233  26.818  1.00  0.00    -0.354 N 
ATOM     45  C   UNL A   1      49.208  27.264  26.078  1.00  0.00     0.074 A 
ATOM     46  C   UNL A   1      49.612  25.990  25.556  1.00  0.00     0.031 C 
ATOM     47  C   UNL A   1      42.699  26.161  26.743  1.00  0.00     0.029 A 
ATOM     48  C   UNL A   1      43.344  27.412  27.104  1.00  0.00     0.049 A 
ATOM     49  H   UNL A   1      45.345  27.945  26.900  1.00  0.00     0.167 HD
ATOM     50  C   UNL A   1      50.015  28.319  26.268  1.00  0.00     0.031 A 
ATOM     51  C   UNL A   1      42.784  28.495  27.651  1.00  0.00     0.031 A 
ATOM     52  C   UNL A   1      49.488  29.529  26.821  1.00  0.00     0.049 A 
ATOM     53  C   UNL A   1      43.734  29.622  27.940  1.00  0.00     0.074 A 
ATOM     54  C   UNL A   1      50.139  30.698  27.130  1.00  0.00     0.029 A 
ATOM     55  N   UNL A   1      48.142  29.698  27.157  1.00  0.00    -0.354 N 
ATOM     56  N   UNL A   1      45.033  29.679  27.720  1.00  0.00    -0.248 NA
ATOM     57  C   UNL A   1      43.164  30.821  28.540  1.00  0.00     0.031 C 
ATOM     58  C   UNL A   1      49.199  31.545  27.726  1.00  0.00     0.029 A 
ATOM     59  C   UNL A   1      47.941  30.944  27.699  1.00  0.00     0.049 A 
ATOM     60  H   UNL A   1      47.439  29.021  27.023  1.00  0.00     0.167 HD
ATOM     61  C   UNL A   1      45.440  30.935  28.126  1.00  0.00     0.074 A 
ATOM     62  C   UNL A   1      44.230  31.609  28.584  1.00  0.00     0.031 C 
ATOM     63  C   UNL A   1      46.677  31.500  28.130  1.00  0.00     0.031 A 
BRANCH  50  64
ATOM     64  C   UNL A   1      51.467  28.120  25.977  1.00  0.00    -0.014 A 
ATOM     65  C   UNL A   1      52.016  28.368  24.705  1.00  0.00     0.009 A 
ATOM     66  C   UNL A   1      52.290  27.584  26.976  1.00  0.00     0.009 A 
ATOM     67  C   UNL A   1      53.349  28.056  24.436  1.00  0.00     0.001 A 
ATOM     68  C   UNL A   1      53.632  27.311  26.716  1.00  0.00     0.001 A 
ATOM     69  C   UNL A   1      54.159  27.539  25.446  1.00  0.00     0.000 A 
ENDBRANCH  50  64
BRANCH  51  70
ATOM     70  C   UNL A   1      41.338  28.513  27.958  1.00  0.00    -0.014 A 
ATOM     71  C   UNL A   1      40.417  29.009  27.028  1.00  0.00     0.009 A 
ATOM     72  C   UNL A   1      40.860  27.983  29.171  1.00  0.00     0.009 A 
ATOM     73  C   UNL A   1      39.052  29.016  27.323  1.00  0.00     0.001 A 
ATOM     74  C   UNL A   1      39.492  27.959  29.448  1.00  0.00     0.001 A 
ATOM     75  C   UNL A   1      38.591  28.492  28.530  1.00  0.00     0.000 A 
ENDBRANCH  51  70
BRANCH  63  76
ATOM     76  C   UNL A   1      46.729  32.917  28.601  1.00  0.00    -0.014 A 
ATOM     77  C   UNL A   1      47.006  33.230  29.938  1.00  0.00     0.009 A 
ATOM     78  C   UNL A   1      46.554  33.945  27.663  1.00  0.00     0.009 A 
ATOM     79  C   UNL A   1      47.053  34.560  30.339  1.00  0.00     0.001 A 
ATOM     80  C   UNL A   1      46.660  35.272  28.057  1.00  0.00     0.001 A 
ATOM     81  C   UNL A   1      46.891  35.577  29.398  1.00  0.00     0.000 A 
ENDBRANCH  63  76
ENDBRANCH  37  38
ENDBRANCH  30  32
ENDBRANCH  29  30
ENDBRANCH  28  29
ENDBRANCH  27  28
ENDBRANCH  26  27
ENDBRANCH  25  26
ENDBRANCH   1  25
TORSDOF 21
ENDMDL
