MODEL 1
REMARK VINA RESULT:      -7.8      0.000      0.000
REMARK SMILES CCCCCCNC(=O)Oc1cccc(-c2ccc([C@H](C)C(=O)OCCOCCOCCOC(=O)c3ccc(-c4c5nc(c(-c6ccccc6)c6ccc([nH]6)c(-c6ccccc6)c6nc(c(-c7ccccc7)c7ccc4[nH]7)C=C6)C=C5)cc3)cc2F)c1
REMARK SMILES IDX 25 1 24 2 22 3 23 4 20 5 21 6 19 7 16 8 17 9 85 10 18 11
REMARK SMILES IDX 84 12 86 13 15 14 11 15 12 16 87 17 13 18 14 19 10 20 8 21
REMARK SMILES IDX 7 22 9 24 6 25 5 26 4 27 3 28 2 29 1 30 26 31 27 32 28 33
REMARK SMILES IDX 29 34 30 35 31 36 32 37 33 38 34 39 35 40 36 41 37 42 83 43
REMARK SMILES IDX 38 44 82 45 39 46 40 47 41 48 76 49 42 50 81 51 75 52 77 53
REMARK SMILES IDX 43 54 80 55 74 56 73 57 44 59 66 60 51 61 65 62 52 63 55 64
REMARK SMILES IDX 64 65 78 66 53 67 54 68 63 70 79 71 56 72 45 73 46 74 50 75
REMARK SMILES IDX 47 76 49 77 48 78 67 79 68 80 72 81 69 82 71 83 70 84 57 85
REMARK SMILES IDX 58 86 62 87 59 88 61 89 60 90
REMARK H PARENT 7 23 77 58 55 69
REMARK Flexibility Score: inf
ROOT
ATOM      1  C   UNL A   1      35.310  32.086  30.877  1.00  0.00     0.261 C 
ENDROOT
BRANCH   1   2
ATOM      2  O   UNL A   1      35.590  30.936  30.051  1.00  0.00    -0.463 OA
BRANCH   2   3
ATOM      3  C   UNL A   1      36.122  31.198  28.829  1.00  0.00     0.313 C 
ATOM      4  O   UNL A   1      35.467  31.240  27.790  1.00  0.00    -0.252 OA
BRANCH   3   5
ATOM      5  C   UNL A   1      37.649  31.383  28.820  1.00  0.00     0.126 C 
ATOM      6  C   UNL A   1      38.377  32.122  29.950  1.00  0.00     0.025 C 
BRANCH   5   7
ATOM      7  C   UNL A   1      38.263  30.022  28.636  1.00  0.00    -0.031 A 
ATOM      8  C   UNL A   1      39.463  27.521  28.351  1.00  0.00     0.018 A 
ATOM      9  C   UNL A   1      39.541  28.460  27.315  1.00  0.00     0.012 A 
ATOM     10  C   UNL A   1      38.783  27.860  29.528  1.00  0.00     0.131 A 
ATOM     11  C   UNL A   1      38.956  29.707  27.459  1.00  0.00     0.005 A 
ATOM     12  C   UNL A   1      38.184  29.097  29.678  1.00  0.00     0.044 A 
ATOM     13  F   UNL A   1      38.690  26.988  30.543  1.00  0.00    -0.206 F 
BRANCH   8  14
ATOM     14  C   UNL A   1      40.040  26.197  28.172  1.00  0.00    -0.012 A 
ATOM     15  C   UNL A   1      41.956  24.738  28.315  1.00  0.00     0.133 A 
ATOM     16  C   UNL A   1      41.188  23.657  27.892  1.00  0.00     0.047 A 
ATOM     17  C   UNL A   1      41.399  26.004  28.434  1.00  0.00     0.056 A 
ATOM     18  C   UNL A   1      39.832  23.841  27.622  1.00  0.00     0.004 A 
ATOM     19  C   UNL A   1      39.260  25.105  27.767  1.00  0.00     0.009 A 
BRANCH  15  20
ATOM     20  O   UNL A   1      43.330  24.537  28.489  1.00  0.00    -0.410 OA
BRANCH  20  21
ATOM     21  C   UNL A   1      43.751  23.340  29.052  1.00  0.00     0.412 C 
ATOM     22  N   UNL A   1      44.477  22.578  28.181  1.00  0.00    -0.321 N 
ATOM     23  H   UNL A   1      44.771  21.693  28.500  1.00  0.00     0.167 HD
ATOM     24  O   UNL A   1      43.533  22.957  30.194  1.00  0.00    -0.224 OA
BRANCH  22  25
ATOM     25  C   UNL A   1      44.855  22.950  26.836  1.00  0.00     0.119 C 
BRANCH  25  26
ATOM     26  C   UNL A   1      46.112  23.817  26.816  1.00  0.00     0.021 C 
BRANCH  26  27
ATOM     27  C   UNL A   1      46.453  24.417  25.448  1.00  0.00     0.002 C 
BRANCH  27  28
ATOM     28  C   UNL A   1      45.564  25.584  25.007  1.00  0.00    -0.000 C 
BRANCH  28  29
ATOM     29  C   UNL A   1      45.687  26.853  25.853  1.00  0.00    -0.003 C 
ATOM     30  C   UNL A   1      44.418  27.182  26.624  1.00  0.00     0.004 C 
ENDBRANCH  28  29
ENDBRANCH  27  28
ENDBRANCH  26  27
ENDBRANCH  25  26
ENDBRANCH  22  25
ENDBRANCH  20  21
ENDBRANCH  15  20
ENDBRANCH   8  14
ENDBRANCH   5   7
ENDBRANCH   3   5
ENDBRANCH   2   3
ENDBRANCH   1   2
BRANCH   1  31
ATOM     31  C   UNL A   1      34.664  33.291  30.172  1.00  0.00     0.202 C 
BRANCH  31  32
ATOM     32  O   UNL A   1      33.655  34.034  30.846  1.00  0.00    -0.376 OA
BRANCH  32  33
ATOM     33  C   UNL A   1      33.786  35.441  31.003  1.00  0.00     0.188 C 
BRANCH  33  34
ATOM     34  C   UNL A   1      33.937  36.039  32.408  1.00  0.00     0.188 C 
BRANCH  34  35
ATOM     35  O   UNL A   1      35.162  35.774  33.043  1.00  0.00    -0.376 OA
BRANCH  35  36
ATOM     36  C   UNL A   1      35.156  34.928  34.174  1.00  0.00     0.202 C 
BRANCH  36  37
ATOM     37  C   UNL A   1      35.496  33.441  33.979  1.00  0.00     0.261 C 
BRANCH  37  38
ATOM     38  O   UNL A   1      36.889  33.102  33.851  1.00  0.00    -0.460 OA
BRANCH  38  39
ATOM     39  C   UNL A   1      37.465  32.443  34.884  1.00  0.00     0.338 C 
ATOM     40  O   UNL A   1      37.029  32.336  36.015  1.00  0.00    -0.246 OA
BRANCH  39  41
ATOM     41  C   UNL A   1      38.608  31.657  34.349  1.00  0.00     0.060 A 
ATOM     42  C   UNL A   1      39.899  31.925  34.832  1.00  0.00     0.016 A 
ATOM     43  C   UNL A   1      38.413  30.669  33.382  1.00  0.00     0.016 A 
ATOM     44  C   UNL A   1      41.001  31.245  34.310  1.00  0.00     0.010 A 
ATOM     45  C   UNL A   1      39.522  30.006  32.842  1.00  0.00     0.010 A 
ATOM     46  C   UNL A   1      40.824  30.322  33.272  1.00  0.00    -0.014 A 
BRANCH  46  47
ATOM     47  C   UNL A   1      41.996  29.886  32.467  1.00  0.00     0.031 A 
ATOM     48  C   UNL A   1      42.682  28.601  32.862  1.00  0.00     0.074 A 
ATOM     49  C   UNL A   1      42.436  30.577  31.402  1.00  0.00     0.049 A 
ATOM     50  N   UNL A   1      43.748  28.036  32.357  1.00  0.00    -0.248 NA
ATOM     51  C   UNL A   1      42.079  27.857  33.982  1.00  0.00     0.031 C 
ATOM     52  C   UNL A   1      41.838  31.801  30.873  1.00  0.00     0.029 A 
ATOM     53  N   UNL A   1      43.508  30.341  30.573  1.00  0.00    -0.354 N 
ATOM     54  C   UNL A   1      43.951  26.882  33.105  1.00  0.00     0.074 A 
ATOM     55  C   UNL A   1      42.916  26.840  34.114  1.00  0.00     0.031 C 
ATOM     56  C   UNL A   1      42.559  32.215  29.814  1.00  0.00     0.029 A 
ATOM     57  C   UNL A   1      43.687  31.307  29.613  1.00  0.00     0.049 A 
ATOM     58  H   UNL A   1      44.092  29.553  30.660  1.00  0.00     0.167 HD
ATOM     59  C   UNL A   1      44.908  25.936  32.965  1.00  0.00     0.031 A 
ATOM     60  C   UNL A   1      44.663  31.450  28.693  1.00  0.00     0.031 A 
ATOM     61  C   UNL A   1      45.946  25.973  31.971  1.00  0.00     0.049 A 
ATOM     62  C   UNL A   1      45.768  30.426  28.614  1.00  0.00     0.074 A 
ATOM     63  C   UNL A   1      46.954  25.053  31.745  1.00  0.00     0.029 A 
ATOM     64  N   UNL A   1      46.112  26.988  31.044  1.00  0.00    -0.354 N 
ATOM     65  N   UNL A   1      45.936  29.329  29.311  1.00  0.00    -0.248 NA
ATOM     66  C   UNL A   1      46.818  30.661  27.608  1.00  0.00     0.031 C 
ATOM     67  C   UNL A   1      47.769  25.542  30.719  1.00  0.00     0.029 A 
ATOM     68  C   UNL A   1      47.225  26.731  30.261  1.00  0.00     0.049 A 
ATOM     69  H   UNL A   1      45.528  27.775  30.955  1.00  0.00     0.167 HD
ATOM     70  C   UNL A   1      47.084  28.727  28.804  1.00  0.00     0.074 A 
ATOM     71  C   UNL A   1      47.563  29.573  27.731  1.00  0.00     0.031 C 
ATOM     72  C   UNL A   1      47.687  27.576  29.190  1.00  0.00     0.031 A 
BRANCH  59  73
ATOM     73  C   UNL A   1      44.899  24.791  33.941  1.00  0.00    -0.014 A 
ATOM     74  C   UNL A   1      44.190  23.609  33.677  1.00  0.00     0.009 A 
ATOM     75  C   UNL A   1      45.643  24.888  35.127  1.00  0.00     0.009 A 
ATOM     76  C   UNL A   1      44.204  22.557  34.595  1.00  0.00     0.001 A 
ATOM     77  C   UNL A   1      45.680  23.823  36.029  1.00  0.00     0.001 A 
ATOM     78  C   UNL A   1      44.953  22.663  35.766  1.00  0.00     0.000 A 
ENDBRANCH  59  73
BRANCH  60  79
ATOM     79  C   UNL A   1      44.672  32.626  27.780  1.00  0.00    -0.014 A 
ATOM     80  C   UNL A   1      45.229  33.849  28.188  1.00  0.00     0.009 A 
ATOM     81  C   UNL A   1      44.071  32.548  26.513  1.00  0.00     0.009 A 
ATOM     82  C   UNL A   1      45.152  34.974  27.363  1.00  0.00     0.001 A 
ATOM     83  C   UNL A   1      44.025  33.665  25.677  1.00  0.00     0.001 A 
ATOM     84  C   UNL A   1      44.553  34.881  26.107  1.00  0.00     0.000 A 
ENDBRANCH  60  79
BRANCH  72  85
ATOM     85  C   UNL A   1      48.899  27.131  28.417  1.00  0.00    -0.014 A 
ATOM     86  C   UNL A   1      50.197  27.487  28.812  1.00  0.00     0.009 A 
ATOM     87  C   UNL A   1      48.736  26.303  27.294  1.00  0.00     0.009 A 
ATOM     88  C   UNL A   1      51.304  27.057  28.077  1.00  0.00     0.001 A 
ATOM     89  C   UNL A   1      49.845  25.846  26.580  1.00  0.00     0.001 A 
ATOM     90  C   UNL A   1      51.128  26.233  26.964  1.00  0.00     0.000 A 
ENDBRANCH  72  85
ENDBRANCH  46  47
ENDBRANCH  39  41
ENDBRANCH  38  39
ENDBRANCH  37  38
ENDBRANCH  36  37
ENDBRANCH  35  36
ENDBRANCH  34  35
ENDBRANCH  33  34
ENDBRANCH  32  33
ENDBRANCH  31  32
ENDBRANCH   1  31
TORSDOF 26
ENDMDL
MODEL 2
REMARK VINA RESULT:      -7.7      1.781      3.206
REMARK SMILES CCCCCCNC(=O)Oc1cccc(-c2ccc([C@H](C)C(=O)OCCOCCOCCOC(=O)c3ccc(-c4c5nc(c(-c6ccccc6)c6ccc([nH]6)c(-c6ccccc6)c6nc(c(-c7ccccc7)c7ccc4[nH]7)C=C6)C=C5)cc3)cc2F)c1
REMARK SMILES IDX 25 1 24 2 22 3 23 4 20 5 21 6 19 7 16 8 17 9 85 10 18 11
REMARK SMILES IDX 84 12 86 13 15 14 11 15 12 16 87 17 13 18 14 19 10 20 8 21
REMARK SMILES IDX 7 22 9 24 6 25 5 26 4 27 3 28 2 29 1 30 26 31 27 32 28 33
REMARK SMILES IDX 29 34 30 35 31 36 32 37 33 38 34 39 35 40 36 41 37 42 83 43
REMARK SMILES IDX 38 44 82 45 39 46 40 47 41 48 76 49 42 50 81 51 75 52 77 53
REMARK SMILES IDX 43 54 80 55 74 56 73 57 44 59 66 60 51 61 65 62 52 63 55 64
REMARK SMILES IDX 64 65 78 66 53 67 54 68 63 70 79 71 56 72 45 73 46 74 50 75
REMARK SMILES IDX 47 76 49 77 48 78 67 79 68 80 72 81 69 82 71 83 70 84 57 85
REMARK SMILES IDX 58 86 62 87 59 88 61 89 60 90
REMARK H PARENT 7 23 77 58 55 69
REMARK Flexibility Score: inf
ROOT
ATOM      1  C   UNL A   1      35.815  31.556  31.569  1.00  0.00     0.261 C 
ENDROOT
BRANCH   1   2
ATOM      2  O   UNL A   1      36.425  30.418  30.923  1.00  0.00    -0.463 OA
BRANCH   2   3
ATOM      3  C   UNL A   1      36.538  30.493  29.571  1.00  0.00     0.313 C 
ATOM      4  O   UNL A   1      35.673  30.106  28.788  1.00  0.00    -0.252 OA
BRANCH   3   5
ATOM      5  C   UNL A   1      37.879  31.053  29.069  1.00  0.00     0.126 C 
ATOM      6  C   UNL A   1      38.670  32.091  29.875  1.00  0.00     0.025 C 
BRANCH   5   7
ATOM      7  C   UNL A   1      38.767  29.878  28.760  1.00  0.00    -0.031 A 
ATOM      8  C   UNL A   1      40.479  27.746  28.213  1.00  0.00     0.018 A 
ATOM      9  C   UNL A   1      39.889  28.461  27.163  1.00  0.00     0.012 A 
ATOM     10  C   UNL A   1      40.201  28.122  29.534  1.00  0.00     0.131 A 
ATOM     11  C   UNL A   1      39.048  29.528  27.433  1.00  0.00     0.005 A 
ATOM     12  C   UNL A   1      39.353  29.177  29.815  1.00  0.00     0.044 A 
ATOM     13  F   UNL A   1      40.750  27.462  30.565  1.00  0.00    -0.206 F 
BRANCH   8  14
ATOM     14  C   UNL A   1      41.324  26.598  27.921  1.00  0.00    -0.012 A 
ATOM     15  C   UNL A   1      41.576  24.412  26.932  1.00  0.00     0.133 A 
ATOM     16  C   UNL A   1      42.921  24.384  27.290  1.00  0.00     0.047 A 
ATOM     17  C   UNL A   1      40.774  25.496  27.261  1.00  0.00     0.056 A 
ATOM     18  C   UNL A   1      43.478  25.477  27.955  1.00  0.00     0.004 A 
ATOM     19  C   UNL A   1      42.683  26.581  28.263  1.00  0.00     0.009 A 
BRANCH  15  20
ATOM     20  O   UNL A   1      41.030  23.263  26.348  1.00  0.00    -0.410 OA
BRANCH  20  21
ATOM     21  C   UNL A   1      40.354  22.369  27.168  1.00  0.00     0.412 C 
ATOM     22  N   UNL A   1      39.041  22.228  26.821  1.00  0.00    -0.321 N 
ATOM     23  H   UNL A   1      38.490  21.642  27.388  1.00  0.00     0.167 HD
ATOM     24  O   UNL A   1      40.828  21.744  28.107  1.00  0.00    -0.224 OA
BRANCH  22  25
ATOM     25  C   UNL A   1      38.386  22.859  25.697  1.00  0.00     0.119 C 
BRANCH  25  26
ATOM     26  C   UNL A   1      36.891  22.548  25.659  1.00  0.00     0.021 C 
BRANCH  26  27
ATOM     27  C   UNL A   1      35.979  23.772  25.791  1.00  0.00     0.002 C 
BRANCH  27  28
ATOM     28  C   UNL A   1      34.503  23.462  26.054  1.00  0.00    -0.000 C 
BRANCH  28  29
ATOM     29  C   UNL A   1      33.514  24.513  25.545  1.00  0.00    -0.003 C 
ATOM     30  C   UNL A   1      34.058  25.931  25.623  1.00  0.00     0.004 C 
ENDBRANCH  28  29
ENDBRANCH  27  28
ENDBRANCH  26  27
ENDBRANCH  25  26
ENDBRANCH  22  25
ENDBRANCH  20  21
ENDBRANCH  15  20
ENDBRANCH   8  14
ENDBRANCH   5   7
ENDBRANCH   3   5
ENDBRANCH   2   3
ENDBRANCH   1   2
BRANCH   1  31
ATOM     31  C   UNL A   1      35.026  32.515  30.662  1.00  0.00     0.202 C 
BRANCH  31  32
ATOM     32  O   UNL A   1      34.053  33.377  31.238  1.00  0.00    -0.376 OA
BRANCH  32  33
ATOM     33  C   UNL A   1      34.084  34.773  30.970  1.00  0.00     0.188 C 
BRANCH  33  34
ATOM     34  C   UNL A   1      34.205  35.768  32.132  1.00  0.00     0.188 C 
BRANCH  34  35
ATOM     35  O   UNL A   1      35.298  35.559  32.988  1.00  0.00    -0.376 OA
BRANCH  35  36
ATOM     36  C   UNL A   1      35.070  34.880  34.206  1.00  0.00     0.202 C 
BRANCH  36  37
ATOM     37  C   UNL A   1      36.015  33.732  34.596  1.00  0.00     0.261 C 
BRANCH  37  38
ATOM     38  O   UNL A   1      37.408  33.899  34.275  1.00  0.00    -0.460 OA
BRANCH  38  39
ATOM     39  C   UNL A   1      38.311  33.493  35.200  1.00  0.00     0.338 C 
ATOM     40  O   UNL A   1      38.237  33.641  36.405  1.00  0.00    -0.246 OA
BRANCH  39  41
ATOM     41  C   UNL A   1      39.298  32.612  34.523  1.00  0.00     0.060 A 
ATOM     42  C   UNL A   1      40.666  32.827  34.753  1.00  0.00     0.016 A 
ATOM     43  C   UNL A   1      38.885  31.585  33.672  1.00  0.00     0.016 A 
ATOM     44  C   UNL A   1      41.622  32.054  34.089  1.00  0.00     0.010 A 
ATOM     45  C   UNL A   1      39.843  30.828  32.989  1.00  0.00     0.010 A 
ATOM     46  C   UNL A   1      41.216  31.088  33.161  1.00  0.00    -0.014 A 
BRANCH  46  47
ATOM     47  C   UNL A   1      42.201  30.538  32.193  1.00  0.00     0.031 A 
ATOM     48  C   UNL A   1      42.765  29.166  32.464  1.00  0.00     0.074 A 
ATOM     49  C   UNL A   1      42.575  31.207  31.088  1.00  0.00     0.049 A 
ATOM     50  N   UNL A   1      43.672  28.491  31.805  1.00  0.00    -0.248 NA
ATOM     51  C   UNL A   1      42.233  28.464  33.645  1.00  0.00     0.031 C 
ATOM     52  C   UNL A   1      42.071  32.512  30.669  1.00  0.00     0.029 A 
ATOM     53  N   UNL A   1      43.484  30.868  30.113  1.00  0.00    -0.354 N 
ATOM     54  C   UNL A   1      43.827  27.296  32.498  1.00  0.00     0.074 A 
ATOM     55  C   UNL A   1      42.944  27.347  33.641  1.00  0.00     0.031 C 
ATOM     56  C   UNL A   1      42.686  32.871  29.527  1.00  0.00     0.029 A 
ATOM     57  C   UNL A   1      43.651  31.838  29.153  1.00  0.00     0.049 A 
ATOM     58  H   UNL A   1      43.970  30.012  30.103  1.00  0.00     0.167 HD
ATOM     59  C   UNL A   1      44.627  26.244  32.208  1.00  0.00     0.031 A 
ATOM     60  C   UNL A   1      44.501  31.891  28.108  1.00  0.00     0.031 A 
ATOM     61  C   UNL A   1      45.515  26.188  31.079  1.00  0.00     0.049 A 
ATOM     62  C   UNL A   1      45.446  30.742  27.857  1.00  0.00     0.074 A 
ATOM     63  C   UNL A   1      46.358  25.158  30.697  1.00  0.00     0.029 A 
ATOM     64  N   UNL A   1      45.681  27.205  30.155  1.00  0.00    -0.354 N 
ATOM     65  N   UNL A   1      45.568  29.609  28.504  1.00  0.00    -0.248 NA
ATOM     66  C   UNL A   1      46.369  30.881  26.718  1.00  0.00     0.031 C 
ATOM     67  C   UNL A   1      47.079  25.578  29.575  1.00  0.00     0.029 A 
ATOM     68  C   UNL A   1      46.633  26.840  29.219  1.00  0.00     0.049 A 
ATOM     69  H   UNL A   1      45.195  28.061  30.163  1.00  0.00     0.167 HD
ATOM     70  C   UNL A   1      46.549  28.887  27.831  1.00  0.00     0.074 A 
ATOM     71  C   UNL A   1      46.980  29.705  26.716  1.00  0.00     0.031 C 
ATOM     72  C   UNL A   1      47.048  27.658  28.108  1.00  0.00     0.031 A 
BRANCH  59  73
ATOM     73  C   UNL A   1      44.607  25.076  33.155  1.00  0.00    -0.014 A 
ATOM     74  C   UNL A   1      45.370  25.076  34.333  1.00  0.00     0.009 A 
ATOM     75  C   UNL A   1      43.783  23.974  32.879  1.00  0.00     0.009 A 
ATOM     76  C   UNL A   1      45.330  23.983  35.201  1.00  0.00     0.001 A 
ATOM     77  C   UNL A   1      43.721  22.896  33.764  1.00  0.00     0.001 A 
ATOM     78  C   UNL A   1      44.500  22.898  34.919  1.00  0.00     0.000 A 
ENDBRANCH  59  73
BRANCH  60  79
ATOM     79  C   UNL A   1      44.535  33.088  27.223  1.00  0.00    -0.014 A 
ATOM     80  C   UNL A   1      43.871  33.087  25.985  1.00  0.00     0.009 A 
ATOM     81  C   UNL A   1      45.280  34.221  27.587  1.00  0.00     0.009 A 
ATOM     82  C   UNL A   1      43.983  34.176  25.118  1.00  0.00     0.001 A 
ATOM     83  C   UNL A   1      45.363  35.323  26.733  1.00  0.00     0.001 A 
ATOM     84  C   UNL A   1      44.726  35.295  25.494  1.00  0.00     0.000 A 
ENDBRANCH  60  79
BRANCH  72  85
ATOM     85  C   UNL A   1      48.076  27.094  27.165  1.00  0.00    -0.014 A 
ATOM     86  C   UNL A   1      47.707  26.384  26.013  1.00  0.00     0.009 A 
ATOM     87  C   UNL A   1      49.440  27.316  27.416  1.00  0.00     0.009 A 
ATOM     88  C   UNL A   1      48.683  25.874  25.153  1.00  0.00     0.001 A 
ATOM     89  C   UNL A   1      50.412  26.835  26.538  1.00  0.00     0.001 A 
ATOM     90  C   UNL A   1      50.035  26.104  25.414  1.00  0.00     0.000 A 
ENDBRANCH  72  85
ENDBRANCH  46  47
ENDBRANCH  39  41
ENDBRANCH  38  39
ENDBRANCH  37  38
ENDBRANCH  36  37
ENDBRANCH  35  36
ENDBRANCH  34  35
ENDBRANCH  33  34
ENDBRANCH  32  33
ENDBRANCH  31  32
ENDBRANCH   1  31
TORSDOF 26
ENDMDL
MODEL 3
REMARK VINA RESULT:      -7.5      4.378     11.246
REMARK SMILES CCCCCCNC(=O)Oc1cccc(-c2ccc([C@H](C)C(=O)OCCOCCOCCOC(=O)c3ccc(-c4c5nc(c(-c6ccccc6)c6ccc([nH]6)c(-c6ccccc6)c6nc(c(-c7ccccc7)c7ccc4[nH]7)C=C6)C=C5)cc3)cc2F)c1
REMARK SMILES IDX 25 1 24 2 22 3 23 4 20 5 21 6 19 7 16 8 17 9 85 10 18 11
REMARK SMILES IDX 84 12 86 13 15 14 11 15 12 16 87 17 13 18 14 19 10 20 8 21
REMARK SMILES IDX 7 22 9 24 6 25 5 26 4 27 3 28 2 29 1 30 26 31 27 32 28 33
REMARK SMILES IDX 29 34 30 35 31 36 32 37 33 38 34 39 35 40 36 41 37 42 83 43
REMARK SMILES IDX 38 44 82 45 39 46 40 47 41 48 76 49 42 50 81 51 75 52 77 53
REMARK SMILES IDX 43 54 80 55 74 56 73 57 44 59 66 60 51 61 65 62 52 63 55 64
REMARK SMILES IDX 64 65 78 66 53 67 54 68 63 70 79 71 56 72 45 73 46 74 50 75
REMARK SMILES IDX 47 76 49 77 48 78 67 79 68 80 72 81 69 82 71 83 70 84 57 85
REMARK SMILES IDX 58 86 62 87 59 88 61 89 60 90
REMARK H PARENT 7 23 77 58 55 69
REMARK Flexibility Score: inf
ROOT
ATOM      1  C   UNL A   1      34.093  24.748  25.046  1.00  0.00     0.261 C 
ENDROOT
BRANCH   1   2
ATOM      2  O   UNL A   1      32.666  24.750  25.267  1.00  0.00    -0.463 OA
BRANCH   2   3
ATOM      3  C   UNL A   1      32.149  25.889  25.797  1.00  0.00     0.313 C 
ATOM      4  O   UNL A   1      31.708  25.974  26.941  1.00  0.00    -0.252 OA
BRANCH   3   5
ATOM      5  C   UNL A   1      32.094  27.082  24.828  1.00  0.00     0.126 C 
ATOM      6  C   UNL A   1      30.803  27.462  24.092  1.00  0.00     0.025 C 
BRANCH   5   7
ATOM      7  C   UNL A   1      32.619  28.283  25.569  1.00  0.00    -0.031 A 
ATOM      8  C   UNL A   1      33.581  30.465  27.013  1.00  0.00     0.018 A 
ATOM      9  C   UNL A   1      32.312  30.518  26.422  1.00  0.00     0.012 A 
ATOM     10  C   UNL A   1      34.350  29.303  26.873  1.00  0.00     0.131 A 
ATOM     11  C   UNL A   1      31.827  29.430  25.714  1.00  0.00     0.005 A 
ATOM     12  C   UNL A   1      33.882  28.216  26.158  1.00  0.00     0.044 A 
ATOM     13  F   UNL A   1      35.568  29.215  27.428  1.00  0.00    -0.206 F 
BRANCH   8  14
ATOM     14  C   UNL A   1      34.100  31.630  27.715  1.00  0.00    -0.012 A 
ATOM     15  C   UNL A   1      33.718  33.814  28.664  1.00  0.00     0.133 A 
ATOM     16  C   UNL A   1      35.037  33.873  29.106  1.00  0.00     0.047 A 
ATOM     17  C   UNL A   1      33.254  32.715  27.955  1.00  0.00     0.056 A 
ATOM     18  C   UNL A   1      35.891  32.798  28.865  1.00  0.00     0.004 A 
ATOM     19  C   UNL A   1      35.422  31.679  28.178  1.00  0.00     0.009 A 
BRANCH  15  20
ATOM     20  O   UNL A   1      32.916  34.947  28.843  1.00  0.00    -0.410 OA
BRANCH  20  21
ATOM     21  C   UNL A   1      33.538  36.186  28.914  1.00  0.00     0.412 C 
ATOM     22  N   UNL A   1      33.270  36.842  30.082  1.00  0.00    -0.321 N 
ATOM     23  H   UNL A   1      33.643  37.748  30.180  1.00  0.00     0.167 HD
ATOM     24  O   UNL A   1      34.261  36.686  28.062  1.00  0.00    -0.224 OA
BRANCH  22  25
ATOM     25  C   UNL A   1      32.489  36.329  31.185  1.00  0.00     0.119 C 
BRANCH  25  26
ATOM     26  C   UNL A   1      33.240  35.249  31.962  1.00  0.00     0.021 C 
BRANCH  26  27
ATOM     27  C   UNL A   1      34.518  35.732  32.655  1.00  0.00     0.002 C 
BRANCH  27  28
ATOM     28  C   UNL A   1      34.923  34.942  33.903  1.00  0.00    -0.000 C 
BRANCH  28  29
ATOM     29  C   UNL A   1      34.840  33.420  33.767  1.00  0.00    -0.003 C 
ATOM     30  C   UNL A   1      35.843  32.855  32.773  1.00  0.00     0.004 C 
ENDBRANCH  28  29
ENDBRANCH  27  28
ENDBRANCH  26  27
ENDBRANCH  25  26
ENDBRANCH  22  25
ENDBRANCH  20  21
ENDBRANCH  15  20
ENDBRANCH   8  14
ENDBRANCH   5   7
ENDBRANCH   3   5
ENDBRANCH   2   3
ENDBRANCH   1   2
BRANCH   1  31
ATOM     31  C   UNL A   1      34.860  23.513  25.547  1.00  0.00     0.202 C 
BRANCH  31  32
ATOM     32  O   UNL A   1      36.282  23.540  25.574  1.00  0.00    -0.376 OA
BRANCH  32  33
ATOM     33  C   UNL A   1      37.029  22.436  25.077  1.00  0.00     0.188 C 
BRANCH  33  34
ATOM     34  C   UNL A   1      38.319  22.009  25.789  1.00  0.00     0.188 C 
BRANCH  34  35
ATOM     35  O   UNL A   1      39.015  23.042  26.438  1.00  0.00    -0.376 OA
BRANCH  35  36
ATOM     36  C   UNL A   1      40.143  22.699  27.216  1.00  0.00     0.202 C 
BRANCH  36  37
ATOM     37  C   UNL A   1      41.267  23.735  27.377  1.00  0.00     0.261 C 
BRANCH  37  38
ATOM     38  O   UNL A   1      40.948  24.935  28.105  1.00  0.00    -0.460 OA
BRANCH  38  39
ATOM     39  C   UNL A   1      40.677  26.047  27.380  1.00  0.00     0.338 C 
ATOM     40  O   UNL A   1      40.265  26.089  26.236  1.00  0.00    -0.246 OA
BRANCH  39  41
ATOM     41  C   UNL A   1      40.729  27.217  28.296  1.00  0.00     0.060 A 
ATOM     42  C   UNL A   1      39.983  28.361  27.974  1.00  0.00     0.016 A 
ATOM     43  C   UNL A   1      41.504  27.189  29.457  1.00  0.00     0.016 A 
ATOM     44  C   UNL A   1      40.053  29.498  28.783  1.00  0.00     0.010 A 
ATOM     45  C   UNL A   1      41.593  28.338  30.252  1.00  0.00     0.010 A 
ATOM     46  C   UNL A   1      40.904  29.512  29.895  1.00  0.00    -0.014 A 
BRANCH  46  47
ATOM     47  C   UNL A   1      41.270  30.807  30.526  1.00  0.00     0.031 A 
ATOM     48  C   UNL A   1      42.341  31.636  29.863  1.00  0.00     0.074 A 
ATOM     49  C   UNL A   1      40.665  31.263  31.636  1.00  0.00     0.049 A 
ATOM     50  N   UNL A   1      42.873  32.770  30.241  1.00  0.00    -0.248 NA
ATOM     51  C   UNL A   1      42.886  31.108  28.599  1.00  0.00     0.031 C 
ATOM     52  C   UNL A   1      39.578  30.598  32.350  1.00  0.00     0.029 A 
ATOM     53  N   UNL A   1      40.894  32.408  32.364  1.00  0.00    -0.354 N 
ATOM     54  C   UNL A   1      43.821  33.081  29.274  1.00  0.00     0.074 A 
ATOM     55  C   UNL A   1      43.813  32.007  28.306  1.00  0.00     0.031 C 
ATOM     56  C   UNL A   1      39.241  31.341  33.421  1.00  0.00     0.029 A 
ATOM     57  C   UNL A   1      40.111  32.514  33.487  1.00  0.00     0.049 A 
ATOM     58  H   UNL A   1      41.557  33.087  32.103  1.00  0.00     0.167 HD
ATOM     59  C   UNL A   1      44.626  34.166  29.191  1.00  0.00     0.031 A 
ATOM     60  C   UNL A   1      40.114  33.442  34.466  1.00  0.00     0.031 A 
ATOM     61  C   UNL A   1      44.648  35.234  30.152  1.00  0.00     0.049 A 
ATOM     62  C   UNL A   1      41.081  34.597  34.395  1.00  0.00     0.074 A 
ATOM     63  C   UNL A   1      45.423  36.381  30.146  1.00  0.00     0.029 A 
ATOM     64  N   UNL A   1      43.867  35.283  31.294  1.00  0.00    -0.354 N 
ATOM     65  N   UNL A   1      41.957  34.893  33.465  1.00  0.00    -0.248 NA
ATOM     66  C   UNL A   1      41.052  35.555  35.513  1.00  0.00     0.031 C 
ATOM     67  C   UNL A   1      45.153  37.095  31.318  1.00  0.00     0.029 A 
ATOM     68  C   UNL A   1      44.160  36.427  32.016  1.00  0.00     0.049 A 
ATOM     69  H   UNL A   1      43.202  34.605  31.554  1.00  0.00     0.167 HD
ATOM     70  C   UNL A   1      42.553  36.084  33.866  1.00  0.00     0.074 A 
ATOM     71  C   UNL A   1      41.929  36.466  35.115  1.00  0.00     0.031 C 
ATOM     72  C   UNL A   1      43.527  36.801  33.254  1.00  0.00     0.031 A 
BRANCH  59  73
ATOM     73  C   UNL A   1      45.582  34.232  28.032  1.00  0.00    -0.014 A 
ATOM     74  C   UNL A   1      46.854  33.642  28.098  1.00  0.00     0.009 A 
ATOM     75  C   UNL A   1      45.188  34.866  26.843  1.00  0.00     0.009 A 
ATOM     76  C   UNL A   1      47.722  33.711  27.006  1.00  0.00     0.001 A 
ATOM     77  C   UNL A   1      46.046  34.906  25.743  1.00  0.00     0.001 A 
ATOM     78  C   UNL A   1      47.315  34.336  25.829  1.00  0.00     0.000 A 
ENDBRANCH  59  73
BRANCH  60  79
ATOM     79  C   UNL A   1      39.192  33.314  35.629  1.00  0.00    -0.014 A 
ATOM     80  C   UNL A   1      39.542  32.533  36.742  1.00  0.00     0.009 A 
ATOM     81  C   UNL A   1      37.930  33.930  35.607  1.00  0.00     0.009 A 
ATOM     82  C   UNL A   1      38.636  32.341  37.788  1.00  0.00     0.001 A 
ATOM     83  C   UNL A   1      37.039  33.766  36.669  1.00  0.00     0.001 A 
ATOM     84  C   UNL A   1      37.386  32.960  37.753  1.00  0.00     0.000 A 
ENDBRANCH  60  79
BRANCH  72  85
ATOM     85  C   UNL A   1      43.944  38.098  33.893  1.00  0.00    -0.014 A 
ATOM     86  C   UNL A   1      43.363  39.321  33.526  1.00  0.00     0.009 A 
ATOM     87  C   UNL A   1      44.909  38.086  34.914  1.00  0.00     0.009 A 
ATOM     88  C   UNL A   1      43.768  40.509  34.139  1.00  0.00     0.001 A 
ATOM     89  C   UNL A   1      45.287  39.270  35.549  1.00  0.00     0.001 A 
ATOM     90  C   UNL A   1      44.727  40.482  35.153  1.00  0.00     0.000 A 
ENDBRANCH  72  85
ENDBRANCH  46  47
ENDBRANCH  39  41
ENDBRANCH  38  39
ENDBRANCH  37  38
ENDBRANCH  36  37
ENDBRANCH  35  36
ENDBRANCH  34  35
ENDBRANCH  33  34
ENDBRANCH  32  33
ENDBRANCH  31  32
ENDBRANCH   1  31
TORSDOF 26
ENDMDL
