MODEL 1
REMARK VINA RESULT:     -10.4      0.000      0.000
REMARK SMILES COc1cc(C)c(S(=O)(=O)Nc2cc(C(=O)OCCOCCOCCOC(=O)c3ccc(-c4c5nc(c(-c6ccccc6)c6ccc([nH]6)c(-c6ccccc6)c6nc(c(-c7ccccc7)c7ccc4[nH]7)C=C6)C=C5)cc3)ccc2F)cc1OC
REMARK SMILES IDX 21 1 20 2 19 3 18 4 17 5 15 6 16 7 14 8 12 9 13 10 79 11
REMARK SMILES IDX 78 12 80 13 77 14 11 15 8 17 9 18 10 19 7 20 3 21 4 22 82 23
REMARK SMILES IDX 5 24 81 25 6 26 2 27 1 28 83 29 84 30 22 31 23 32 24 33
REMARK SMILES IDX 25 34 26 35 27 36 28 37 29 38 30 39 76 40 31 41 75 42 32 43
REMARK SMILES IDX 33 44 34 45 69 46 35 47 74 48 68 49 70 50 36 51 73 52 67 53
REMARK SMILES IDX 66 54 37 56 59 57 44 58 58 59 45 60 48 61 57 62 71 63 46 64
REMARK SMILES IDX 47 65 56 67 72 68 49 69 38 70 39 71 43 72 40 73 42 74 41 75
REMARK SMILES IDX 60 76 61 77 65 78 62 79 64 80 63 81 50 82 51 83 55 84 52 85
REMARK SMILES IDX 54 86 53 87
REMARK H PARENT 11 16 70 55 48 66
REMARK Flexibility Score: inf
ROOT
ATOM      1  C   UNL A   1      39.004  19.338  25.731  1.00  0.00     0.188 C 
ENDROOT
BRANCH   1   2
ATOM      2  O   UNL A   1      38.156  19.688  24.633  1.00  0.00    -0.376 OA
BRANCH   2   3
ATOM      3  C   UNL A   1      37.379  20.872  24.700  1.00  0.00     0.202 C 
BRANCH   3   4
ATOM      4  C   UNL A   1      35.840  20.693  25.062  1.00  0.00     0.261 C 
BRANCH   4   5
ATOM      5  O   UNL A   1      35.058  21.420  26.139  1.00  0.00    -0.460 OA
BRANCH   5   6
ATOM      6  C   UNL A   1      34.862  22.762  26.115  1.00  0.00     0.338 C 
ATOM      7  O   UNL A   1      35.535  23.389  26.924  1.00  0.00    -0.246 OA
BRANCH   6   8
ATOM      8  C   UNL A   1      33.681  23.530  25.091  1.00  0.00     0.062 A 
ATOM      9  C   UNL A   1      31.488  23.970  24.134  1.00  0.00     0.085 A 
ATOM     10  C   UNL A   1      32.324  23.289  25.095  1.00  0.00     0.045 A 
ATOM     11  C   UNL A   1      31.971  24.579  22.965  1.00  0.00     0.147 A 
ATOM     12  C   UNL A   1      33.258  24.955  22.953  1.00  0.00     0.042 A 
ATOM     13  F   UNL A   1      31.138  25.103  22.051  1.00  0.00    -0.205 F 
ATOM     14  C   UNL A   1      33.983  24.535  24.063  1.00  0.00     0.019 A 
BRANCH   9  15
ATOM     15  N   UNL A   1      30.131  24.322  24.375  1.00  0.00    -0.277 N 
ATOM     16  H   UNL A   1      29.418  23.709  24.085  1.00  0.00     0.180 HD
BRANCH  15  17
ATOM     17  S   UNL A   1      29.716  25.756  25.139  1.00  0.00     0.262 S 
ATOM     18  O   UNL A   1      29.815  25.487  26.548  1.00  0.00    -0.201 OA
ATOM     19  O   UNL A   1      28.447  26.152  24.532  1.00  0.00    -0.201 OA
BRANCH  17  20
ATOM     20  C   UNL A   1      30.840  27.122  24.807  1.00  0.00     0.094 A 
ATOM     21  C   UNL A   1      33.077  28.706  24.343  1.00  0.00     0.161 A 
ATOM     22  C   UNL A   1      31.919  28.895  23.605  1.00  0.00     0.055 A 
ATOM     23  C   UNL A   1      33.004  28.041  25.555  1.00  0.00     0.162 A 
ATOM     24  C   UNL A   1      30.802  28.066  23.775  1.00  0.00    -0.027 A 
ATOM     25  C   UNL A   1      31.883  27.227  25.758  1.00  0.00     0.073 A 
ATOM     26  C   UNL A   1      29.774  28.259  22.716  1.00  0.00     0.046 C 
BRANCH  21  27
ATOM     27  O   UNL A   1      34.261  29.005  23.729  1.00  0.00    -0.493 OA
ATOM     28  C   UNL A   1      34.360  28.461  22.379  1.00  0.00     0.278 C 
ENDBRANCH  21  27
BRANCH  23  29
ATOM     29  O   UNL A   1      33.953  27.909  26.520  1.00  0.00    -0.493 OA
ATOM     30  C   UNL A   1      34.388  29.051  27.242  1.00  0.00     0.278 C 
ENDBRANCH  23  29
ENDBRANCH  17  20
ENDBRANCH  15  17
ENDBRANCH   9  15
ENDBRANCH   6   8
ENDBRANCH   5   6
ENDBRANCH   4   5
ENDBRANCH   3   4
ENDBRANCH   2   3
ENDBRANCH   1   2
BRANCH   1  31
ATOM     31  C   UNL A   1      40.057  20.357  26.151  1.00  0.00     0.188 C 
BRANCH  31  32
ATOM     32  O   UNL A   1      40.734  19.957  27.316  1.00  0.00    -0.376 OA
BRANCH  32  33
ATOM     33  C   UNL A   1      42.142  20.036  27.298  1.00  0.00     0.202 C 
BRANCH  33  34
ATOM     34  C   UNL A   1      42.750  20.815  26.115  1.00  0.00     0.261 C 
BRANCH  34  35
ATOM     35  O   UNL A   1      43.137  22.153  26.508  1.00  0.00    -0.460 OA
BRANCH  35  36
ATOM     36  C   UNL A   1      42.568  23.228  25.868  1.00  0.00     0.338 C 
ATOM     37  O   UNL A   1      43.085  23.880  24.977  1.00  0.00    -0.246 OA
BRANCH  36  38
ATOM     38  C   UNL A   1      41.364  23.694  26.655  1.00  0.00     0.060 A 
ATOM     39  C   UNL A   1      40.537  24.743  26.237  1.00  0.00     0.016 A 
ATOM     40  C   UNL A   1      41.514  23.619  27.989  1.00  0.00     0.016 A 
ATOM     41  C   UNL A   1      40.310  25.922  27.065  1.00  0.00     0.010 A 
ATOM     42  C   UNL A   1      41.429  24.849  28.668  1.00  0.00     0.010 A 
ATOM     43  C   UNL A   1      40.948  26.143  28.285  1.00  0.00    -0.014 A 
BRANCH  43  44
ATOM     44  C   UNL A   1      40.980  27.674  29.106  1.00  0.00     0.031 A 
ATOM     45  C   UNL A   1      39.950  29.003  29.305  1.00  0.00     0.074 A 
ATOM     46  C   UNL A   1      42.083  27.932  29.852  1.00  0.00     0.049 A 
ATOM     47  N   UNL A   1      39.830  29.785  30.369  1.00  0.00    -0.248 NA
ATOM     48  C   UNL A   1      39.028  29.594  28.308  1.00  0.00     0.031 C 
ATOM     49  C   UNL A   1      42.250  28.877  30.964  1.00  0.00     0.029 A 
ATOM     50  N   UNL A   1      43.351  27.412  29.700  1.00  0.00    -0.354 N 
ATOM     51  C   UNL A   1      38.741  30.651  30.241  1.00  0.00     0.074 A 
ATOM     52  C   UNL A   1      38.141  30.309  28.998  1.00  0.00     0.031 C 
ATOM     53  C   UNL A   1      43.547  29.055  31.222  1.00  0.00     0.029 A 
ATOM     54  C   UNL A   1      44.262  28.347  30.202  1.00  0.00     0.049 A 
ATOM     55  H   UNL A   1      43.575  26.537  29.307  1.00  0.00     0.167 HD
ATOM     56  C   UNL A   1      38.507  31.838  30.883  1.00  0.00     0.031 A 
ATOM     57  C   UNL A   1      45.211  28.853  29.378  1.00  0.00     0.031 A 
ATOM     58  C   UNL A   1      39.803  32.452  31.252  1.00  0.00     0.049 A 
ATOM     59  C   UNL A   1      45.013  30.350  29.200  1.00  0.00     0.074 A 
ATOM     60  C   UNL A   1      40.669  32.286  32.316  1.00  0.00     0.029 A 
ATOM     61  N   UNL A   1      40.608  33.030  30.249  1.00  0.00    -0.354 N 
ATOM     62  N   UNL A   1      43.989  31.031  29.673  1.00  0.00    -0.248 NA
ATOM     63  C   UNL A   1      45.972  31.210  28.525  1.00  0.00     0.031 C 
ATOM     64  C   UNL A   1      42.008  32.563  31.854  1.00  0.00     0.029 A 
ATOM     65  C   UNL A   1      41.985  32.971  30.523  1.00  0.00     0.049 A 
ATOM     66  H   UNL A   1      40.239  33.438  29.432  1.00  0.00     0.167 HD
ATOM     67  C   UNL A   1      44.089  32.354  29.338  1.00  0.00     0.074 A 
ATOM     68  C   UNL A   1      45.398  32.415  28.689  1.00  0.00     0.031 C 
ATOM     69  C   UNL A   1      43.062  33.268  29.494  1.00  0.00     0.031 A 
BRANCH  56  70
ATOM     70  C   UNL A   1      37.050  32.452  30.930  1.00  0.00    -0.014 A 
ATOM     71  C   UNL A   1      35.962  31.834  31.578  1.00  0.00     0.009 A 
ATOM     72  C   UNL A   1      36.688  33.668  30.271  1.00  0.00     0.009 A 
ATOM     73  C   UNL A   1      34.668  32.431  31.658  1.00  0.00     0.001 A 
ATOM     74  C   UNL A   1      35.418  34.288  30.378  1.00  0.00     0.001 A 
ATOM     75  C   UNL A   1      34.402  33.671  31.082  1.00  0.00     0.000 A 
ENDBRANCH  56  70
BRANCH  57  76
ATOM     76  C   UNL A   1      45.750  27.736  28.514  1.00  0.00    -0.014 A 
ATOM     77  C   UNL A   1      46.071  26.554  29.250  1.00  0.00     0.009 A 
ATOM     78  C   UNL A   1      45.425  27.572  27.159  1.00  0.00     0.009 A 
ATOM     79  C   UNL A   1      45.816  25.276  28.742  1.00  0.00     0.001 A 
ATOM     80  C   UNL A   1      45.289  26.273  26.616  1.00  0.00     0.001 A 
ATOM     81  C   UNL A   1      45.412  25.136  27.426  1.00  0.00     0.000 A 
ENDBRANCH  57  76
BRANCH  69  82
ATOM     82  C   UNL A   1      43.011  34.473  28.528  1.00  0.00    -0.014 A 
ATOM     83  C   UNL A   1      43.405  34.409  27.167  1.00  0.00     0.009 A 
ATOM     84  C   UNL A   1      42.421  35.688  28.906  1.00  0.00     0.009 A 
ATOM     85  C   UNL A   1      43.341  35.496  26.285  1.00  0.00     0.001 A 
ATOM     86  C   UNL A   1      42.271  36.761  28.002  1.00  0.00     0.001 A 
ATOM     87  C   UNL A   1      42.762  36.678  26.702  1.00  0.00     0.000 A 
ENDBRANCH  69  82
ENDBRANCH  43  44
ENDBRANCH  36  38
ENDBRANCH  35  36
ENDBRANCH  34  35
ENDBRANCH  33  34
ENDBRANCH  32  33
ENDBRANCH  31  32
ENDBRANCH   1  31
TORSDOF 22
ENDMDL
MODEL 2
REMARK VINA RESULT:     -10.1      2.624      4.044
REMARK SMILES COc1cc(C)c(S(=O)(=O)Nc2cc(C(=O)OCCOCCOCCOC(=O)c3ccc(-c4c5nc(c(-c6ccccc6)c6ccc([nH]6)c(-c6ccccc6)c6nc(c(-c7ccccc7)c7ccc4[nH]7)C=C6)C=C5)cc3)ccc2F)cc1OC
REMARK SMILES IDX 21 1 20 2 19 3 18 4 17 5 15 6 16 7 14 8 12 9 13 10 79 11
REMARK SMILES IDX 78 12 80 13 77 14 11 15 8 17 9 18 10 19 7 20 3 21 4 22 82 23
REMARK SMILES IDX 5 24 81 25 6 26 2 27 1 28 83 29 84 30 22 31 23 32 24 33
REMARK SMILES IDX 25 34 26 35 27 36 28 37 29 38 30 39 76 40 31 41 75 42 32 43
REMARK SMILES IDX 33 44 34 45 69 46 35 47 74 48 68 49 70 50 36 51 73 52 67 53
REMARK SMILES IDX 66 54 37 56 59 57 44 58 58 59 45 60 48 61 57 62 71 63 46 64
REMARK SMILES IDX 47 65 56 67 72 68 49 69 38 70 39 71 43 72 40 73 42 74 41 75
REMARK SMILES IDX 60 76 61 77 65 78 62 79 64 80 63 81 50 82 51 83 55 84 52 85
REMARK SMILES IDX 54 86 53 87
REMARK H PARENT 11 16 70 55 48 66
REMARK Flexibility Score: inf
ROOT
ATOM      1  C   UNL A   1      42.074  21.652  26.071  1.00  0.00     0.188 C 
ENDROOT
BRANCH   1   2
ATOM      2  O   UNL A   1      40.757  22.207  26.117  1.00  0.00    -0.376 OA
BRANCH   2   3
ATOM      3  C   UNL A   1      39.660  21.378  26.461  1.00  0.00     0.202 C 
BRANCH   3   4
ATOM      4  C   UNL A   1      38.525  21.205  25.359  1.00  0.00     0.261 C 
BRANCH   4   5
ATOM      5  O   UNL A   1      37.027  21.345  25.552  1.00  0.00    -0.460 OA
BRANCH   5   6
ATOM      6  C   UNL A   1      36.401  22.548  25.534  1.00  0.00     0.338 C 
ATOM      7  O   UNL A   1      37.021  23.453  26.079  1.00  0.00    -0.246 OA
BRANCH   6   8
ATOM      8  C   UNL A   1      34.803  22.776  24.879  1.00  0.00     0.062 A 
ATOM      9  C   UNL A   1      32.373  22.688  24.810  1.00  0.00     0.085 A 
ATOM     10  C   UNL A   1      33.615  22.498  25.521  1.00  0.00     0.045 A 
ATOM     11  C   UNL A   1      32.274  22.785  23.413  1.00  0.00     0.147 A 
ATOM     12  C   UNL A   1      33.367  23.180  22.744  1.00  0.00     0.042 A 
ATOM     13  F   UNL A   1      31.082  22.851  22.796  1.00  0.00    -0.205 F 
ATOM     14  C   UNL A   1      34.509  23.285  23.532  1.00  0.00     0.019 A 
BRANCH   9  15
ATOM     15  N   UNL A   1      31.149  23.047  25.438  1.00  0.00    -0.277 N 
ATOM     16  H   UNL A   1      30.360  22.472  25.315  1.00  0.00     0.180 HD
BRANCH  15  17
ATOM     17  S   UNL A   1      31.016  24.425  26.383  1.00  0.00     0.262 S 
ATOM     18  O   UNL A   1      31.838  24.184  27.538  1.00  0.00    -0.201 OA
ATOM     19  O   UNL A   1      29.578  24.655  26.513  1.00  0.00    -0.201 OA
BRANCH  17  20
ATOM     20  C   UNL A   1      31.660  25.917  25.609  1.00  0.00     0.094 A 
ATOM     21  C   UNL A   1      32.113  28.533  24.786  1.00  0.00     0.161 A 
ATOM     22  C   UNL A   1      33.177  27.706  25.109  1.00  0.00     0.055 A 
ATOM     23  C   UNL A   1      30.889  27.967  24.474  1.00  0.00     0.162 A 
ATOM     24  C   UNL A   1      32.972  26.406  25.590  1.00  0.00    -0.027 A 
ATOM     25  C   UNL A   1      30.670  26.658  24.921  1.00  0.00     0.073 A 
ATOM     26  C   UNL A   1      34.214  25.786  26.127  1.00  0.00     0.046 C 
BRANCH  21  27
ATOM     27  O   UNL A   1      32.281  29.873  24.997  1.00  0.00    -0.493 OA
ATOM     28  C   UNL A   1      32.294  30.233  26.410  1.00  0.00     0.278 C 
ENDBRANCH  21  27
BRANCH  23  29
ATOM     29  O   UNL A   1      29.779  28.555  23.952  1.00  0.00    -0.493 OA
ATOM     30  C   UNL A   1      28.905  27.801  23.126  1.00  0.00     0.278 C 
ENDBRANCH  23  29
ENDBRANCH  17  20
ENDBRANCH  15  17
ENDBRANCH   9  15
ENDBRANCH   6   8
ENDBRANCH   5   6
ENDBRANCH   4   5
ENDBRANCH   3   4
ENDBRANCH   2   3
ENDBRANCH   1   2
BRANCH   1  31
ATOM     31  C   UNL A   1      43.137  22.439  25.312  1.00  0.00     0.188 C 
BRANCH  31  32
ATOM     32  O   UNL A   1      43.891  23.257  26.170  1.00  0.00    -0.376 OA
BRANCH  32  33
ATOM     33  C   UNL A   1      43.509  23.288  27.527  1.00  0.00     0.202 C 
BRANCH  33  34
ATOM     34  C   UNL A   1      42.820  24.585  27.994  1.00  0.00     0.261 C 
BRANCH  34  35
ATOM     35  O   UNL A   1      41.896  25.081  26.995  1.00  0.00    -0.460 OA
BRANCH  35  36
ATOM     36  C   UNL A   1      42.084  26.340  26.478  1.00  0.00     0.338 C 
ATOM     37  O   UNL A   1      43.163  26.862  26.255  1.00  0.00    -0.246 OA
BRANCH  36  38
ATOM     38  C   UNL A   1      40.782  27.105  26.547  1.00  0.00     0.060 A 
ATOM     39  C   UNL A   1      40.714  28.502  26.492  1.00  0.00     0.016 A 
ATOM     40  C   UNL A   1      39.856  26.546  27.345  1.00  0.00     0.016 A 
ATOM     41  C   UNL A   1      40.099  29.285  27.559  1.00  0.00     0.010 A 
ATOM     42  C   UNL A   1      39.451  27.339  28.435  1.00  0.00     0.010 A 
ATOM     43  C   UNL A   1      39.609  28.730  28.740  1.00  0.00    -0.014 A 
BRANCH  43  44
ATOM     44  C   UNL A   1      39.212  29.651  30.159  1.00  0.00     0.031 A 
ATOM     45  C   UNL A   1      38.375  31.077  30.526  1.00  0.00     0.074 A 
ATOM     46  C   UNL A   1      39.607  29.127  31.345  1.00  0.00     0.049 A 
ATOM     47  N   UNL A   1      37.659  31.342  31.610  1.00  0.00    -0.248 NA
ATOM     48  C   UNL A   1      38.331  32.331  29.740  1.00  0.00     0.031 C 
ATOM     49  C   UNL A   1      39.093  29.392  32.695  1.00  0.00     0.029 A 
ATOM     50  N   UNL A   1      40.649  28.255  31.582  1.00  0.00    -0.354 N 
ATOM     51  C   UNL A   1      36.955  32.541  31.470  1.00  0.00     0.074 A 
ATOM     52  C   UNL A   1      37.255  32.997  30.157  1.00  0.00     0.031 C 
ATOM     53  C   UNL A   1      39.942  28.921  33.609  1.00  0.00     0.029 A 
ATOM     54  C   UNL A   1      41.094  28.463  32.891  1.00  0.00     0.049 A 
ATOM     55  H   UNL A   1      41.015  27.602  30.943  1.00  0.00     0.167 HD
ATOM     56  C   UNL A   1      36.443  33.355  32.445  1.00  0.00     0.031 A 
ATOM     57  C   UNL A   1      42.380  28.834  33.102  1.00  0.00     0.031 A 
ATOM     58  C   UNL A   1      37.249  33.199  33.677  1.00  0.00     0.049 A 
ATOM     59  C   UNL A   1      42.435  30.220  33.725  1.00  0.00     0.074 A 
ATOM     60  C   UNL A   1      37.234  32.291  34.719  1.00  0.00     0.029 A 
ATOM     61  N   UNL A   1      38.541  33.760  33.737  1.00  0.00    -0.354 N 
ATOM     62  N   UNL A   1      41.389  30.999  33.912  1.00  0.00    -0.248 NA
ATOM     63  C   UNL A   1      43.657  30.820  34.238  1.00  0.00     0.031 C 
ATOM     64  C   UNL A   1      38.577  32.173  35.233  1.00  0.00     0.029 A 
ATOM     65  C   UNL A   1      39.428  33.054  34.570  1.00  0.00     0.049 A 
ATOM     66  H   UNL A   1      38.799  34.571  33.242  1.00  0.00     0.167 HD
ATOM     67  C   UNL A   1      41.762  32.185  34.483  1.00  0.00     0.074 A 
ATOM     68  C   UNL A   1      43.186  31.976  34.738  1.00  0.00     0.031 C 
ATOM     69  C   UNL A   1      40.928  33.284  34.590  1.00  0.00     0.031 A 
BRANCH  56  70
ATOM     70  C   UNL A   1      35.328  34.422  32.097  1.00  0.00    -0.014 A 
ATOM     71  C   UNL A   1      35.070  35.566  32.880  1.00  0.00     0.009 A 
ATOM     72  C   UNL A   1      34.441  34.297  30.983  1.00  0.00     0.009 A 
ATOM     73  C   UNL A   1      34.097  36.546  32.519  1.00  0.00     0.001 A 
ATOM     74  C   UNL A   1      33.500  35.285  30.595  1.00  0.00     0.001 A 
ATOM     75  C   UNL A   1      33.332  36.421  31.363  1.00  0.00     0.000 A 
ENDBRANCH  56  70
BRANCH  57  76
ATOM     76  C   UNL A   1      43.271  28.046  32.170  1.00  0.00    -0.014 A 
ATOM     77  C   UNL A   1      43.951  28.860  31.212  1.00  0.00     0.009 A 
ATOM     78  C   UNL A   1      43.878  26.828  32.514  1.00  0.00     0.009 A 
ATOM     79  C   UNL A   1      45.274  28.607  30.836  1.00  0.00     0.001 A 
ATOM     80  C   UNL A   1      45.171  26.521  32.029  1.00  0.00     0.001 A 
ATOM     81  C   UNL A   1      45.891  27.441  31.256  1.00  0.00     0.000 A 
ENDBRANCH  57  76
BRANCH  69  82
ATOM     82  C   UNL A   1      41.576  34.687  34.601  1.00  0.00    -0.014 A 
ATOM     83  C   UNL A   1      42.176  35.287  33.464  1.00  0.00     0.009 A 
ATOM     84  C   UNL A   1      41.477  35.529  35.718  1.00  0.00     0.009 A 
ATOM     85  C   UNL A   1      42.748  36.567  33.468  1.00  0.00     0.001 A 
ATOM     86  C   UNL A   1      41.970  36.851  35.705  1.00  0.00     0.001 A 
ATOM     87  C   UNL A   1      42.636  37.358  34.593  1.00  0.00     0.000 A 
ENDBRANCH  69  82
ENDBRANCH  43  44
ENDBRANCH  36  38
ENDBRANCH  35  36
ENDBRANCH  34  35
ENDBRANCH  33  34
ENDBRANCH  32  33
ENDBRANCH  31  32
ENDBRANCH   1  31
TORSDOF 22
ENDMDL
MODEL 3
REMARK VINA RESULT:      -9.7      1.964      3.227
REMARK SMILES COc1cc(C)c(S(=O)(=O)Nc2cc(C(=O)OCCOCCOCCOC(=O)c3ccc(-c4c5nc(c(-c6ccccc6)c6ccc([nH]6)c(-c6ccccc6)c6nc(c(-c7ccccc7)c7ccc4[nH]7)C=C6)C=C5)cc3)ccc2F)cc1OC
REMARK SMILES IDX 21 1 20 2 19 3 18 4 17 5 15 6 16 7 14 8 12 9 13 10 79 11
REMARK SMILES IDX 78 12 80 13 77 14 11 15 8 17 9 18 10 19 7 20 3 21 4 22 82 23
REMARK SMILES IDX 5 24 81 25 6 26 2 27 1 28 83 29 84 30 22 31 23 32 24 33
REMARK SMILES IDX 25 34 26 35 27 36 28 37 29 38 30 39 76 40 31 41 75 42 32 43
REMARK SMILES IDX 33 44 34 45 69 46 35 47 74 48 68 49 70 50 36 51 73 52 67 53
REMARK SMILES IDX 66 54 37 56 59 57 44 58 58 59 45 60 48 61 57 62 71 63 46 64
REMARK SMILES IDX 47 65 56 67 72 68 49 69 38 70 39 71 43 72 40 73 42 74 41 75
REMARK SMILES IDX 60 76 61 77 65 78 62 79 64 80 63 81 50 82 51 83 55 84 52 85
REMARK SMILES IDX 54 86 53 87
REMARK H PARENT 11 16 70 55 48 66
REMARK Flexibility Score: inf
ROOT
ATOM      1  C   UNL A   1      38.789  19.501  25.741  1.00  0.00     0.188 C 
ENDROOT
BRANCH   1   2
ATOM      2  O   UNL A   1      38.031  20.100  24.687  1.00  0.00    -0.376 OA
BRANCH   2   3
ATOM      3  C   UNL A   1      36.931  20.937  25.004  1.00  0.00     0.202 C 
BRANCH   3   4
ATOM      4  C   UNL A   1      37.139  22.499  24.783  1.00  0.00     0.261 C 
BRANCH   4   5
ATOM      5  O   UNL A   1      36.673  23.626  25.685  1.00  0.00    -0.460 OA
BRANCH   5   6
ATOM      6  C   UNL A   1      35.361  23.860  25.937  1.00  0.00     0.338 C 
ATOM      7  O   UNL A   1      34.801  22.980  26.578  1.00  0.00    -0.246 OA
BRANCH   6   8
ATOM      8  C   UNL A   1      34.510  25.248  25.320  1.00  0.00     0.062 A 
ATOM      9  C   UNL A   1      33.803  26.901  23.680  1.00  0.00     0.085 A 
ATOM     10  C   UNL A   1      34.517  25.691  24.014  1.00  0.00     0.045 A 
ATOM     11  C   UNL A   1      33.403  27.863  24.622  1.00  0.00     0.147 A 
ATOM     12  C   UNL A   1      33.252  27.457  25.890  1.00  0.00     0.042 A 
ATOM     13  F   UNL A   1      32.838  29.022  24.245  1.00  0.00    -0.205 F 
ATOM     14  C   UNL A   1      33.677  26.152  26.125  1.00  0.00     0.019 A 
BRANCH   9  15
ATOM     15  N   UNL A   1      33.205  27.142  22.413  1.00  0.00    -0.277 N 
ATOM     16  H   UNL A   1      33.582  27.839  21.829  1.00  0.00     0.180 HD
BRANCH  15  17
ATOM     17  S   UNL A   1      31.873  26.270  21.888  1.00  0.00     0.262 S 
ATOM     18  O   UNL A   1      32.327  25.516  20.750  1.00  0.00    -0.201 OA
ATOM     19  O   UNL A   1      30.802  27.258  21.762  1.00  0.00    -0.201 OA
BRANCH  17  20
ATOM     20  C   UNL A   1      31.262  25.066  23.079  1.00  0.00     0.094 A 
ATOM     21  C   UNL A   1      31.026  23.042  24.970  1.00  0.00     0.161 A 
ATOM     22  C   UNL A   1      30.277  24.202  25.087  1.00  0.00     0.055 A 
ATOM     23  C   UNL A   1      31.563  22.708  23.738  1.00  0.00     0.162 A 
ATOM     24  C   UNL A   1      30.427  25.264  24.185  1.00  0.00    -0.027 A 
ATOM     25  C   UNL A   1      31.699  23.747  22.809  1.00  0.00     0.073 A 
ATOM     26  C   UNL A   1      29.740  26.505  24.634  1.00  0.00     0.046 C 
BRANCH  21  27
ATOM     27  O   UNL A   1      31.366  22.401  26.128  1.00  0.00    -0.493 OA
ATOM     28  C   UNL A   1      31.595  23.314  27.242  1.00  0.00     0.278 C 
ENDBRANCH  21  27
BRANCH  23  29
ATOM     29  O   UNL A   1      32.157  21.549  23.347  1.00  0.00    -0.493 OA
ATOM     30  C   UNL A   1      33.425  21.194  23.877  1.00  0.00     0.278 C 
ENDBRANCH  23  29
ENDBRANCH  17  20
ENDBRANCH  15  17
ENDBRANCH   9  15
ENDBRANCH   6   8
ENDBRANCH   5   6
ENDBRANCH   4   5
ENDBRANCH   3   4
ENDBRANCH   2   3
ENDBRANCH   1   2
BRANCH   1  31
ATOM     31  C   UNL A   1      40.303  19.678  25.700  1.00  0.00     0.188 C 
BRANCH  31  32
ATOM     32  O   UNL A   1      40.853  19.767  26.990  1.00  0.00    -0.376 OA
BRANCH  32  33
ATOM     33  C   UNL A   1      41.545  20.953  27.311  1.00  0.00     0.202 C 
BRANCH  33  34
ATOM     34  C   UNL A   1      40.672  22.215  27.455  1.00  0.00     0.261 C 
BRANCH  34  35
ATOM     35  O   UNL A   1      40.958  23.176  26.411  1.00  0.00    -0.460 OA
BRANCH  35  36
ATOM     36  C   UNL A   1      40.560  24.480  26.577  1.00  0.00     0.338 C 
ATOM     37  O   UNL A   1      40.561  25.340  25.712  1.00  0.00    -0.246 OA
BRANCH  36  38
ATOM     38  C   UNL A   1      40.448  24.781  28.055  1.00  0.00     0.060 A 
ATOM     39  C   UNL A   1      39.260  25.206  28.660  1.00  0.00     0.016 A 
ATOM     40  C   UNL A   1      41.555  25.319  28.594  1.00  0.00     0.016 A 
ATOM     41  C   UNL A   1      39.177  26.464  29.396  1.00  0.00     0.010 A 
ATOM     42  C   UNL A   1      41.388  26.606  29.138  1.00  0.00     0.010 A 
ATOM     43  C   UNL A   1      40.230  27.373  29.490  1.00  0.00    -0.014 A 
BRANCH  43  44
ATOM     44  C   UNL A   1      40.056  29.012  30.038  1.00  0.00     0.031 A 
ATOM     45  C   UNL A   1      39.034  30.327  29.733  1.00  0.00     0.074 A 
ATOM     46  C   UNL A   1      40.911  29.414  31.012  1.00  0.00     0.049 A 
ATOM     47  N   UNL A   1      38.634  31.260  30.587  1.00  0.00    -0.248 NA
ATOM     48  C   UNL A   1      38.436  30.731  28.440  1.00  0.00     0.031 C 
ATOM     49  C   UNL A   1      40.776  30.523  31.966  1.00  0.00     0.029 A 
ATOM     50  N   UNL A   1      42.162  28.912  31.302  1.00  0.00    -0.354 N 
ATOM     51  C   UNL A   1      37.638  32.064  30.027  1.00  0.00     0.074 A 
ATOM     52  C   UNL A   1      37.403  31.518  28.735  1.00  0.00     0.031 C 
ATOM     53  C   UNL A   1      41.952  30.775  32.543  1.00  0.00     0.029 A 
ATOM     54  C   UNL A   1      42.912  29.938  31.885  1.00  0.00     0.049 A 
ATOM     55  H   UNL A   1      42.473  27.994  31.128  1.00  0.00     0.167 HD
ATOM     56  C   UNL A   1      37.253  33.329  30.386  1.00  0.00     0.031 A 
ATOM     57  C   UNL A   1      44.062  30.338  31.290  1.00  0.00     0.031 A 
ATOM     58  C   UNL A   1      38.404  34.029  31.000  1.00  0.00     0.049 A 
ATOM     59  C   UNL A   1      43.945  31.783  30.832  1.00  0.00     0.074 A 
ATOM     60  C   UNL A   1      38.936  34.054  32.275  1.00  0.00     0.029 A 
ATOM     61  N   UNL A   1      39.467  34.468  30.183  1.00  0.00    -0.354 N 
ATOM     62  N   UNL A   1      42.841  32.500  30.889  1.00  0.00    -0.248 NA
ATOM     63  C   UNL A   1      45.069  32.556  30.325  1.00  0.00     0.031 C 
ATOM     64  C   UNL A   1      40.356  34.294  32.167  1.00  0.00     0.029 A 
ATOM     65  C   UNL A   1      40.712  34.491  30.835  1.00  0.00     0.049 A 
ATOM     66  H   UNL A   1      39.347  34.735  29.243  1.00  0.00     0.167 HD
ATOM     67  C   UNL A   1      43.052  33.758  30.394  1.00  0.00     0.074 A 
ATOM     68  C   UNL A   1      44.491  33.755  30.133  1.00  0.00     0.031 C 
ATOM     69  C   UNL A   1      42.038  34.655  30.113  1.00  0.00     0.031 A 
BRANCH  56  70
ATOM     70  C   UNL A   1      35.851  33.902  29.929  1.00  0.00    -0.014 A 
ATOM     71  C   UNL A   1      34.799  34.195  30.820  1.00  0.00     0.009 A 
ATOM     72  C   UNL A   1      35.502  34.126  28.561  1.00  0.00     0.009 A 
ATOM     73  C   UNL A   1      33.561  34.764  30.394  1.00  0.00     0.001 A 
ATOM     74  C   UNL A   1      34.292  34.728  28.133  1.00  0.00     0.001 A 
ATOM     75  C   UNL A   1      33.317  35.057  29.055  1.00  0.00     0.000 A 
ENDBRANCH  56  70
BRANCH  57  76
ATOM     76  C   UNL A   1      44.802  29.117  30.795  1.00  0.00    -0.014 A 
ATOM     77  C   UNL A   1      45.171  28.215  31.840  1.00  0.00     0.009 A 
ATOM     78  C   UNL A   1      44.637  28.571  29.513  1.00  0.00     0.009 A 
ATOM     79  C   UNL A   1      45.107  26.827  31.674  1.00  0.00     0.001 A 
ATOM     80  C   UNL A   1      44.697  27.169  29.328  1.00  0.00     0.001 A 
ATOM     81  C   UNL A   1      44.857  26.303  30.418  1.00  0.00     0.000 A 
ENDBRANCH  57  76
BRANCH  69  82
ATOM     82  C   UNL A   1      42.278  35.695  28.996  1.00  0.00    -0.014 A 
ATOM     83  C   UNL A   1      42.939  36.933  29.201  1.00  0.00     0.009 A 
ATOM     84  C   UNL A   1      41.982  35.409  27.655  1.00  0.00     0.009 A 
ATOM     85  C   UNL A   1      43.174  37.870  28.184  1.00  0.00     0.001 A 
ATOM     86  C   UNL A   1      42.294  36.307  26.611  1.00  0.00     0.001 A 
ATOM     87  C   UNL A   1      42.857  37.550  26.879  1.00  0.00     0.000 A 
ENDBRANCH  69  82
ENDBRANCH  43  44
ENDBRANCH  36  38
ENDBRANCH  35  36
ENDBRANCH  34  35
ENDBRANCH  33  34
ENDBRANCH  32  33
ENDBRANCH  31  32
ENDBRANCH   1  31
TORSDOF 22
ENDMDL
