MODEL 1
REMARK VINA RESULT:     -10.9      0.000      0.000
REMARK SMILES O=C(OCCOCCOCCOC(=O)[C@H](c1ccccc1)N1C(=O)/C(=C/c2ccc(-c3nc4ccccc4s3)o2)SC1=S)c1ccc(-c2c3nc(c(-c4ccccc4)c4ccc([nH]4)c(-c4ccccc4)c4nc(c(-c5ccccc5)c5ccc2[nH]5)C=C4)C=C3)cc1
REMARK SMILES IDX 8 1 7 2 6 3 5 4 4 5 3 6 2 7 1 8 44 9 45 10 91 11 46 12 90 13
REMARK SMILES IDX 47 14 48 15 49 16 84 17 50 18 89 19 83 20 85 21 51 22 88 23
REMARK SMILES IDX 82 24 81 25 52 27 74 28 59 29 73 30 60 31 63 32 72 33 86 34
REMARK SMILES IDX 61 35 62 36 71 38 87 39 64 40 53 41 54 42 58 43 55 44 57 45
REMARK SMILES IDX 56 46 75 47 76 48 80 49 77 50 79 51 78 52 65 53 66 54 70 55
REMARK SMILES IDX 67 56 69 57 68 58 9 59 10 60 11 61 12 62 13 63 14 64 15 65
REMARK SMILES IDX 22 66 23 67 42 68 24 69 25 70 41 71 43 72 26 73 27 74 28 75
REMARK SMILES IDX 40 76 29 77 30 78 31 79 32 80 39 81 33 82 38 83 34 84 37 85
REMARK SMILES IDX 35 86 36 87 16 88 17 89 21 90 18 91 20 92 19 93
REMARK H PARENT 85 26 63 37
REMARK Flexibility Score: inf
ROOT
ATOM      1  C   UNL A   1      32.854  20.372  25.120  1.00  0.00     0.188 C 
ENDROOT
BRANCH   1   2
ATOM      2  C   UNL A   1      34.204  21.076  25.247  1.00  0.00     0.188 C 
BRANCH   2   3
ATOM      3  O   UNL A   1      35.293  20.174  25.036  1.00  0.00    -0.376 OA
BRANCH   3   4
ATOM      4  C   UNL A   1      36.500  20.807  24.603  1.00  0.00     0.202 C 
BRANCH   4   5
ATOM      5  C   UNL A   1      37.800  20.109  25.034  1.00  0.00     0.261 C 
BRANCH   5   6
ATOM      6  O   UNL A   1      38.394  20.676  26.215  1.00  0.00    -0.460 OA
BRANCH   6   7
ATOM      7  C   UNL A   1      39.694  21.016  26.408  1.00  0.00     0.338 C 
ATOM      8  O   UNL A   1      40.569  20.182  26.188  1.00  0.00    -0.246 OA
BRANCH   7   9
ATOM      9  C   UNL A   1      40.114  22.381  26.841  1.00  0.00     0.060 A 
ATOM     10  C   UNL A   1      39.508  23.562  26.415  1.00  0.00     0.016 A 
ATOM     11  C   UNL A   1      41.139  22.476  27.792  1.00  0.00     0.016 A 
ATOM     12  C   UNL A   1      39.987  24.806  26.795  1.00  0.00     0.010 A 
ATOM     13  C   UNL A   1      41.564  23.724  28.258  1.00  0.00     0.010 A 
ATOM     14  C   UNL A   1      41.022  24.901  27.719  1.00  0.00    -0.014 A 
BRANCH  14  15
ATOM     15  C   UNL A   1      41.619  26.226  27.988  1.00  0.00     0.031 A 
ATOM     16  C   UNL A   1      42.897  26.574  27.284  1.00  0.00     0.074 A 
ATOM     17  C   UNL A   1      40.983  27.129  28.760  1.00  0.00     0.049 A 
ATOM     18  N   UNL A   1      43.642  27.641  27.394  1.00  0.00    -0.248 NA
ATOM     19  C   UNL A   1      43.400  25.587  26.311  1.00  0.00     0.031 C 
ATOM     20  C   UNL A   1      39.669  26.941  29.376  1.00  0.00     0.029 A 
ATOM     21  N   UNL A   1      41.345  28.393  29.142  1.00  0.00    -0.354 N 
ATOM     22  C   UNL A   1      44.711  27.436  26.531  1.00  0.00     0.074 A 
ATOM     23  C   UNL A   1      44.546  26.131  25.939  1.00  0.00     0.031 C 
ATOM     24  C   UNL A   1      39.339  28.041  30.072  1.00  0.00     0.029 A 
ATOM     25  C   UNL A   1      40.432  28.999  29.974  1.00  0.00     0.049 A 
ATOM     26  H   UNL A   1      42.180  28.827  28.851  1.00  0.00     0.167 HD
ATOM     27  C   UNL A   1      45.731  28.274  26.243  1.00  0.00     0.031 A 
ATOM     28  C   UNL A   1      40.485  30.192  30.593  1.00  0.00     0.031 A 
ATOM     29  C   UNL A   1      45.872  29.574  26.835  1.00  0.00     0.049 A 
ATOM     30  C   UNL A   1      41.685  31.060  30.347  1.00  0.00     0.074 A 
ATOM     31  C   UNL A   1      46.876  30.505  26.655  1.00  0.00     0.029 A 
ATOM     32  N   UNL A   1      44.961  30.124  27.727  1.00  0.00    -0.354 N 
ATOM     33  N   UNL A   1      42.711  30.842  29.557  1.00  0.00    -0.248 NA
ATOM     34  C   UNL A   1      41.734  32.340  31.062  1.00  0.00     0.031 C 
ATOM     35  C   UNL A   1      46.596  31.602  27.478  1.00  0.00     0.029 A 
ATOM     36  C   UNL A   1      45.389  31.377  28.124  1.00  0.00     0.049 A 
ATOM     37  H   UNL A   1      44.134  29.687  28.032  1.00  0.00     0.167 HD
ATOM     38  C   UNL A   1      43.509  31.972  29.650  1.00  0.00     0.074 A 
ATOM     39  C   UNL A   1      42.840  32.877  30.566  1.00  0.00     0.031 C 
ATOM     40  C   UNL A   1      44.686  32.246  29.035  1.00  0.00     0.031 A 
BRANCH  27  41
ATOM     41  C   UNL A   1      46.779  27.761  25.297  1.00  0.00    -0.014 A 
ATOM     42  C   UNL A   1      46.855  28.212  23.967  1.00  0.00     0.009 A 
ATOM     43  C   UNL A   1      47.660  26.755  25.722  1.00  0.00     0.009 A 
ATOM     44  C   UNL A   1      47.750  27.624  23.071  1.00  0.00     0.001 A 
ATOM     45  C   UNL A   1      48.576  26.191  24.831  1.00  0.00     0.001 A 
ATOM     46  C   UNL A   1      48.609  26.614  23.503  1.00  0.00     0.000 A 
ENDBRANCH  27  41
BRANCH  28  47
ATOM     47  C   UNL A   1      39.388  30.624  31.502  1.00  0.00    -0.014 A 
ATOM     48  C   UNL A   1      38.299  31.366  31.017  1.00  0.00     0.009 A 
ATOM     49  C   UNL A   1      39.427  30.305  32.870  1.00  0.00     0.009 A 
ATOM     50  C   UNL A   1      37.294  31.803  31.884  1.00  0.00     0.001 A 
ATOM     51  C   UNL A   1      38.406  30.719  33.729  1.00  0.00     0.001 A 
ATOM     52  C   UNL A   1      37.346  31.478  33.238  1.00  0.00     0.000 A 
ENDBRANCH  28  47
BRANCH  40  53
ATOM     53  C   UNL A   1      45.289  33.594  29.301  1.00  0.00    -0.014 A 
ATOM     54  C   UNL A   1      44.853  34.735  28.612  1.00  0.00     0.009 A 
ATOM     55  C   UNL A   1      46.276  33.723  30.290  1.00  0.00     0.009 A 
ATOM     56  C   UNL A   1      45.421  35.980  28.888  1.00  0.00     0.001 A 
ATOM     57  C   UNL A   1      46.818  34.972  30.586  1.00  0.00     0.001 A 
ATOM     58  C   UNL A   1      46.397  36.097  29.878  1.00  0.00     0.000 A 
ENDBRANCH  40  53
ENDBRANCH  14  15
ENDBRANCH   7   9
ENDBRANCH   6   7
ENDBRANCH   5   6
ENDBRANCH   4   5
ENDBRANCH   3   4
ENDBRANCH   2   3
ENDBRANCH   1   2
BRANCH   1  59
ATOM     59  O   UNL A   1      31.701  21.099  25.533  1.00  0.00    -0.376 OA
BRANCH  59  60
ATOM     60  C   UNL A   1      31.917  22.418  26.014  1.00  0.00     0.202 C 
BRANCH  60  61
ATOM     61  C   UNL A   1      30.697  23.252  26.454  1.00  0.00     0.261 C 
BRANCH  61  62
ATOM     62  O   UNL A   1      30.071  24.066  25.435  1.00  0.00    -0.461 OA
BRANCH  62  63
ATOM     63  C   UNL A   1      30.355  25.391  25.525  1.00  0.00     0.334 C 
ATOM     64  O   UNL A   1      30.022  26.086  26.488  1.00  0.00    -0.249 OA
BRANCH  63  65
ATOM     65  C   UNL A   1      31.002  26.043  24.306  1.00  0.00     0.232 C 
BRANCH  65  66
ATOM     66  N   UNL A   1      31.785  27.201  24.781  1.00  0.00    -0.274 N 
ATOM     67  C   UNL A   1      32.859  26.947  25.619  1.00  0.00     0.267 C 
ATOM     68  C   UNL A   1      31.558  28.523  24.445  1.00  0.00     0.149 C 
ATOM     69  O   UNL A   1      33.223  25.854  26.026  1.00  0.00    -0.268 OA
ATOM     70  C   UNL A   1      33.505  28.218  26.013  1.00  0.00     0.084 C 
ATOM     71  S   UNL A   1      32.738  29.541  25.231  1.00  0.00    -0.054 SA
ATOM     72  S   UNL A   1      30.429  29.219  23.438  1.00  0.00    -0.052 S 
ATOM     73  C   UNL A   1      34.521  28.278  26.882  1.00  0.00     0.068 C 
BRANCH  73  74
ATOM     74  C   UNL A   1      35.007  29.537  27.320  1.00  0.00     0.129 A 
ATOM     75  C   UNL A   1      36.326  29.967  27.366  1.00  0.00     0.051 A 
ATOM     76  O   UNL A   1      34.215  30.524  27.852  1.00  0.00    -0.454 OA
ATOM     77  C   UNL A   1      36.339  31.216  28.005  1.00  0.00     0.054 A 
ATOM     78  C   UNL A   1      35.026  31.539  28.288  1.00  0.00     0.163 A 
BRANCH  78  79
ATOM     79  C   UNL A   1      34.585  32.738  28.935  1.00  0.00     0.160 A 
ATOM     80  N   UNL A   1      34.494  32.781  30.246  1.00  0.00    -0.233 NA
ATOM     81  S   UNL A   1      34.084  34.143  28.099  1.00  0.00    -0.111 S 
ATOM     82  C   UNL A   1      33.980  33.994  30.639  1.00  0.00     0.082 A 
ATOM     83  C   UNL A   1      33.660  34.875  29.605  1.00  0.00     0.055 A 
ATOM     84  C   UNL A   1      33.749  34.382  31.972  1.00  0.00     0.030 A 
ATOM     85  C   UNL A   1      33.090  36.132  29.862  1.00  0.00     0.021 A 
ATOM     86  C   UNL A   1      33.189  35.631  32.240  1.00  0.00     0.002 A 
ATOM     87  C   UNL A   1      32.858  36.491  31.196  1.00  0.00     0.002 A 
ENDBRANCH  78  79
ENDBRANCH  73  74
ENDBRANCH  65  66
BRANCH  65  88
ATOM     88  C   UNL A   1      31.697  25.352  23.131  1.00  0.00    -0.014 A 
ATOM     89  C   UNL A   1      32.403  24.146  23.203  1.00  0.00     0.006 A 
ATOM     90  C   UNL A   1      31.837  26.089  21.933  1.00  0.00     0.006 A 
ATOM     91  C   UNL A   1      33.196  23.694  22.136  1.00  0.00     0.000 A 
ATOM     92  C   UNL A   1      32.613  25.638  20.863  1.00  0.00     0.000 A 
ATOM     93  C   UNL A   1      33.303  24.440  20.968  1.00  0.00     0.000 A 
ENDBRANCH  65  88
ENDBRANCH  63  65
ENDBRANCH  62  63
ENDBRANCH  61  62
ENDBRANCH  60  61
ENDBRANCH  59  60
ENDBRANCH   1  59
TORSDOF 21
ENDMDL
MODEL 2
REMARK VINA RESULT:     -10.9      0.920      5.475
REMARK SMILES O=C(OCCOCCOCCOC(=O)[C@H](c1ccccc1)N1C(=O)/C(=C/c2ccc(-c3nc4ccccc4s3)o2)SC1=S)c1ccc(-c2c3nc(c(-c4ccccc4)c4ccc([nH]4)c(-c4ccccc4)c4nc(c(-c5ccccc5)c5ccc2[nH]5)C=C4)C=C3)cc1
REMARK SMILES IDX 8 1 7 2 6 3 5 4 4 5 3 6 2 7 1 8 44 9 45 10 91 11 46 12 90 13
REMARK SMILES IDX 47 14 48 15 49 16 84 17 50 18 89 19 83 20 85 21 51 22 88 23
REMARK SMILES IDX 82 24 81 25 52 27 74 28 59 29 73 30 60 31 63 32 72 33 86 34
REMARK SMILES IDX 61 35 62 36 71 38 87 39 64 40 53 41 54 42 58 43 55 44 57 45
REMARK SMILES IDX 56 46 75 47 76 48 80 49 77 50 79 51 78 52 65 53 66 54 70 55
REMARK SMILES IDX 67 56 69 57 68 58 9 59 10 60 11 61 12 62 13 63 14 64 15 65
REMARK SMILES IDX 22 66 23 67 42 68 24 69 25 70 41 71 43 72 26 73 27 74 28 75
REMARK SMILES IDX 40 76 29 77 30 78 31 79 32 80 39 81 33 82 38 83 34 84 37 85
REMARK SMILES IDX 35 86 36 87 16 88 17 89 21 90 18 91 20 92 19 93
REMARK H PARENT 85 26 63 37
REMARK Flexibility Score: inf
ROOT
ATOM      1  C   UNL A   1      32.614  20.604  24.889  1.00  0.00     0.188 C 
ENDROOT
BRANCH   1   2
ATOM      2  C   UNL A   1      33.911  20.684  25.693  1.00  0.00     0.188 C 
BRANCH   2   3
ATOM      3  O   UNL A   1      34.956  21.317  24.949  1.00  0.00    -0.376 OA
BRANCH   3   4
ATOM      4  C   UNL A   1      36.272  20.930  25.348  1.00  0.00     0.202 C 
BRANCH   4   5
ATOM      5  C   UNL A   1      37.239  22.089  25.640  1.00  0.00     0.261 C 
BRANCH   5   6
ATOM      6  O   UNL A   1      38.626  21.720  25.547  1.00  0.00    -0.460 OA
BRANCH   6   7
ATOM      7  C   UNL A   1      39.582  21.839  26.503  1.00  0.00     0.338 C 
ATOM      8  O   UNL A   1      39.962  20.833  27.098  1.00  0.00    -0.246 OA
BRANCH   7   9
ATOM      9  C   UNL A   1      40.228  23.142  26.838  1.00  0.00     0.060 A 
ATOM     10  C   UNL A   1      39.917  24.355  26.226  1.00  0.00     0.016 A 
ATOM     11  C   UNL A   1      41.158  23.157  27.887  1.00  0.00     0.016 A 
ATOM     12  C   UNL A   1      40.601  25.522  26.528  1.00  0.00     0.010 A 
ATOM     13  C   UNL A   1      41.782  24.349  28.268  1.00  0.00     0.010 A 
ATOM     14  C   UNL A   1      41.543  25.532  27.551  1.00  0.00    -0.014 A 
BRANCH  14  15
ATOM     15  C   UNL A   1      42.369  26.741  27.749  1.00  0.00     0.031 A 
ATOM     16  C   UNL A   1      41.784  27.865  28.553  1.00  0.00     0.074 A 
ATOM     17  C   UNL A   1      43.642  26.790  27.312  1.00  0.00     0.049 A 
ATOM     18  N   UNL A   1      42.281  29.043  28.818  1.00  0.00    -0.248 NA
ATOM     19  C   UNL A   1      40.457  27.624  29.148  1.00  0.00     0.031 C 
ATOM     20  C   UNL A   1      44.352  25.697  26.644  1.00  0.00     0.029 A 
ATOM     21  N   UNL A   1      44.575  27.791  27.379  1.00  0.00    -0.354 N 
ATOM     22  C   UNL A   1      41.317  29.687  29.582  1.00  0.00     0.074 A 
ATOM     23  C   UNL A   1      40.190  28.794  29.702  1.00  0.00     0.031 C 
ATOM     24  C   UNL A   1      45.602  26.088  26.350  1.00  0.00     0.029 A 
ATOM     25  C   UNL A   1      45.771  27.469  26.782  1.00  0.00     0.049 A 
ATOM     26  H   UNL A   1      44.405  28.658  27.814  1.00  0.00     0.167 HD
ATOM     27  C   UNL A   1      41.376  30.912  30.151  1.00  0.00     0.031 A 
ATOM     28  C   UNL A   1      46.874  28.217  26.596  1.00  0.00     0.031 A 
ATOM     29  C   UNL A   1      42.511  31.781  30.029  1.00  0.00     0.049 A 
ATOM     30  C   UNL A   1      46.874  29.617  27.140  1.00  0.00     0.074 A 
ATOM     31  C   UNL A   1      42.683  33.058  30.528  1.00  0.00     0.029 A 
ATOM     32  N   UNL A   1      43.678  31.447  29.356  1.00  0.00    -0.354 N 
ATOM     33  N   UNL A   1      45.942  30.233  27.831  1.00  0.00    -0.248 NA
ATOM     34  C   UNL A   1      48.075  30.422  26.894  1.00  0.00     0.031 C 
ATOM     35  C   UNL A   1      43.940  33.515  30.113  1.00  0.00     0.029 A 
ATOM     36  C   UNL A   1      44.571  32.500  29.408  1.00  0.00     0.049 A 
ATOM     37  H   UNL A   1      43.845  30.586  28.907  1.00  0.00     0.167 HD
ATOM     38  C   UNL A   1      46.458  31.483  28.134  1.00  0.00     0.074 A 
ATOM     39  C   UNL A   1      47.790  31.532  27.560  1.00  0.00     0.031 C 
ATOM     40  C   UNL A   1      45.890  32.501  28.826  1.00  0.00     0.031 A 
BRANCH  27  41
ATOM     41  C   UNL A   1      40.151  31.371  30.891  1.00  0.00    -0.014 A 
ATOM     42  C   UNL A   1      39.895  30.965  32.212  1.00  0.00     0.009 A 
ATOM     43  C   UNL A   1      39.202  32.165  30.229  1.00  0.00     0.009 A 
ATOM     44  C   UNL A   1      38.687  31.296  32.831  1.00  0.00     0.001 A 
ATOM     45  C   UNL A   1      38.010  32.521  30.863  1.00  0.00     0.001 A 
ATOM     46  C   UNL A   1      37.746  32.073  32.156  1.00  0.00     0.000 A 
ENDBRANCH  27  41
BRANCH  28  47
ATOM     47  C   UNL A   1      48.048  27.669  25.865  1.00  0.00    -0.014 A 
ATOM     48  C   UNL A   1      49.157  27.159  26.558  1.00  0.00     0.009 A 
ATOM     49  C   UNL A   1      48.073  27.660  24.459  1.00  0.00     0.009 A 
ATOM     50  C   UNL A   1      50.274  26.684  25.863  1.00  0.00     0.001 A 
ATOM     51  C   UNL A   1      49.178  27.157  23.768  1.00  0.00     0.001 A 
ATOM     52  C   UNL A   1      50.283  26.681  24.470  1.00  0.00     0.000 A 
ENDBRANCH  28  47
BRANCH  40  53
ATOM     53  C   UNL A   1      46.731  33.726  29.036  1.00  0.00    -0.014 A 
ATOM     54  C   UNL A   1      46.650  34.823  28.167  1.00  0.00     0.009 A 
ATOM     55  C   UNL A   1      47.582  33.794  30.151  1.00  0.00     0.009 A 
ATOM     56  C   UNL A   1      47.434  35.956  28.393  1.00  0.00     0.001 A 
ATOM     57  C   UNL A   1      48.338  34.939  30.391  1.00  0.00     0.001 A 
ATOM     58  C   UNL A   1      48.270  36.015  29.507  1.00  0.00     0.000 A 
ENDBRANCH  40  53
ENDBRANCH  14  15
ENDBRANCH   7   9
ENDBRANCH   6   7
ENDBRANCH   5   6
ENDBRANCH   4   5
ENDBRANCH   3   4
ENDBRANCH   2   3
ENDBRANCH   1   2
BRANCH   1  59
ATOM     59  O   UNL A   1      31.561  21.485  25.265  1.00  0.00    -0.376 OA
BRANCH  59  60
ATOM     60  C   UNL A   1      31.822  22.366  26.349  1.00  0.00     0.202 C 
BRANCH  60  61
ATOM     61  C   UNL A   1      30.788  23.462  26.674  1.00  0.00     0.261 C 
BRANCH  61  62
ATOM     62  O   UNL A   1      30.183  24.134  25.544  1.00  0.00    -0.461 OA
BRANCH  62  63
ATOM     63  C   UNL A   1      30.275  25.488  25.586  1.00  0.00     0.334 C 
ATOM     64  O   UNL A   1      29.814  26.166  26.508  1.00  0.00    -0.249 OA
BRANCH  63  65
ATOM     65  C   UNL A   1      30.867  26.179  24.360  1.00  0.00     0.232 C 
BRANCH  65  66
ATOM     66  N   UNL A   1      31.657  27.332  24.834  1.00  0.00    -0.274 N 
ATOM     67  C   UNL A   1      32.754  27.069  25.637  1.00  0.00     0.267 C 
ATOM     68  C   UNL A   1      31.415  28.658  24.526  1.00  0.00     0.149 C 
ATOM     69  O   UNL A   1      33.134  25.971  26.016  1.00  0.00    -0.268 OA
ATOM     70  C   UNL A   1      33.405  28.337  26.036  1.00  0.00     0.084 C 
ATOM     71  S   UNL A   1      32.611  29.669  25.297  1.00  0.00    -0.054 SA
ATOM     72  S   UNL A   1      30.257  29.366  23.561  1.00  0.00    -0.052 S 
ATOM     73  C   UNL A   1      34.443  28.387  26.879  1.00  0.00     0.068 C 
BRANCH  73  74
ATOM     74  C   UNL A   1      34.935  29.641  27.324  1.00  0.00     0.129 A 
ATOM     75  C   UNL A   1      36.255  30.070  27.360  1.00  0.00     0.051 A 
ATOM     76  O   UNL A   1      34.150  30.622  27.877  1.00  0.00    -0.454 OA
ATOM     77  C   UNL A   1      36.276  31.311  28.012  1.00  0.00     0.054 A 
ATOM     78  C   UNL A   1      34.967  31.633  28.314  1.00  0.00     0.163 A 
BRANCH  78  79
ATOM     79  C   UNL A   1      34.534  32.824  28.980  1.00  0.00     0.160 A 
ATOM     80  N   UNL A   1      34.671  32.934  30.283  1.00  0.00    -0.233 NA
ATOM     81  S   UNL A   1      33.764  34.130  28.190  1.00  0.00    -0.111 S 
ATOM     82  C   UNL A   1      34.120  34.120  30.711  1.00  0.00     0.082 A 
ATOM     83  C   UNL A   1      33.542  34.909  29.715  1.00  0.00     0.055 A 
ATOM     84  C   UNL A   1      34.090  34.563  32.046  1.00  0.00     0.030 A 
ATOM     85  C   UNL A   1      32.909  36.125  30.018  1.00  0.00     0.021 A 
ATOM     86  C   UNL A   1      33.470  35.772  32.358  1.00  0.00     0.002 A 
ATOM     87  C   UNL A   1      32.881  36.538  31.356  1.00  0.00     0.002 A 
ENDBRANCH  78  79
ENDBRANCH  73  74
ENDBRANCH  65  66
BRANCH  65  88
ATOM     88  C   UNL A   1      31.521  25.526  23.141  1.00  0.00    -0.014 A 
ATOM     89  C   UNL A   1      32.395  24.434  23.177  1.00  0.00     0.006 A 
ATOM     90  C   UNL A   1      31.421  26.207  21.906  1.00  0.00     0.006 A 
ATOM     91  C   UNL A   1      33.123  24.037  22.044  1.00  0.00     0.000 A 
ATOM     92  C   UNL A   1      32.132  25.808  20.772  1.00  0.00     0.000 A 
ATOM     93  C   UNL A   1      32.993  24.724  20.843  1.00  0.00     0.000 A 
ENDBRANCH  65  88
ENDBRANCH  63  65
ENDBRANCH  62  63
ENDBRANCH  61  62
ENDBRANCH  60  61
ENDBRANCH  59  60
ENDBRANCH   1  59
TORSDOF 21
ENDMDL
MODEL 3
REMARK VINA RESULT:     -10.5      4.180      9.994
REMARK SMILES O=C(OCCOCCOCCOC(=O)[C@H](c1ccccc1)N1C(=O)/C(=C/c2ccc(-c3nc4ccccc4s3)o2)SC1=S)c1ccc(-c2c3nc(c(-c4ccccc4)c4ccc([nH]4)c(-c4ccccc4)c4nc(c(-c5ccccc5)c5ccc2[nH]5)C=C4)C=C3)cc1
REMARK SMILES IDX 8 1 7 2 6 3 5 4 4 5 3 6 2 7 1 8 44 9 45 10 91 11 46 12 90 13
REMARK SMILES IDX 47 14 48 15 49 16 84 17 50 18 89 19 83 20 85 21 51 22 88 23
REMARK SMILES IDX 82 24 81 25 52 27 74 28 59 29 73 30 60 31 63 32 72 33 86 34
REMARK SMILES IDX 61 35 62 36 71 38 87 39 64 40 53 41 54 42 58 43 55 44 57 45
REMARK SMILES IDX 56 46 75 47 76 48 80 49 77 50 79 51 78 52 65 53 66 54 70 55
REMARK SMILES IDX 67 56 69 57 68 58 9 59 10 60 11 61 12 62 13 63 14 64 15 65
REMARK SMILES IDX 22 66 23 67 42 68 24 69 25 70 41 71 43 72 26 73 27 74 28 75
REMARK SMILES IDX 40 76 29 77 30 78 31 79 32 80 39 81 33 82 38 83 34 84 37 85
REMARK SMILES IDX 35 86 36 87 16 88 17 89 21 90 18 91 20 92 19 93
REMARK H PARENT 85 26 63 37
REMARK Flexibility Score: inf
ROOT
ATOM      1  C   UNL A   1      31.232  28.504  23.508  1.00  0.00     0.188 C 
ENDROOT
BRANCH   1   2
ATOM      2  C   UNL A   1      31.728  29.280  24.728  1.00  0.00     0.188 C 
BRANCH   2   3
ATOM      3  O   UNL A   1      31.457  28.582  25.946  1.00  0.00    -0.376 OA
BRANCH   3   4
ATOM      4  C   UNL A   1      31.829  29.300  27.125  1.00  0.00     0.202 C 
BRANCH   4   5
ATOM      5  C   UNL A   1      32.468  30.677  26.883  1.00  0.00     0.261 C 
BRANCH   5   6
ATOM      6  O   UNL A   1      33.800  30.794  27.411  1.00  0.00    -0.460 OA
BRANCH   6   7
ATOM      7  C   UNL A   1      34.844  29.946  27.225  1.00  0.00     0.338 C 
ATOM      8  O   UNL A   1      34.831  29.183  26.262  1.00  0.00    -0.246 OA
BRANCH   7   9
ATOM      9  C   UNL A   1      36.036  29.926  28.124  1.00  0.00     0.060 A 
ATOM     10  C   UNL A   1      37.274  30.477  27.801  1.00  0.00     0.016 A 
ATOM     11  C   UNL A   1      35.876  29.379  29.405  1.00  0.00     0.016 A 
ATOM     12  C   UNL A   1      38.366  30.365  28.648  1.00  0.00     0.010 A 
ATOM     13  C   UNL A   1      36.945  29.351  30.306  1.00  0.00     0.010 A 
ATOM     14  C   UNL A   1      38.214  29.799  29.908  1.00  0.00    -0.014 A 
BRANCH  14  15
ATOM     15  C   UNL A   1      39.419  29.547  30.728  1.00  0.00     0.031 A 
ATOM     16  C   UNL A   1      39.525  30.249  32.049  1.00  0.00     0.074 A 
ATOM     17  C   UNL A   1      40.338  28.639  30.347  1.00  0.00     0.049 A 
ATOM     18  N   UNL A   1      40.500  30.240  32.918  1.00  0.00    -0.248 NA
ATOM     19  C   UNL A   1      38.367  31.069  32.452  1.00  0.00     0.031 C 
ATOM     20  C   UNL A   1      40.257  27.801  29.151  1.00  0.00     0.029 A 
ATOM     21  N   UNL A   1      41.513  28.254  30.937  1.00  0.00    -0.354 N 
ATOM     22  C   UNL A   1      40.083  31.072  33.949  1.00  0.00     0.074 A 
ATOM     23  C   UNL A   1      38.793  31.605  33.582  1.00  0.00     0.031 C 
ATOM     24  C   UNL A   1      41.340  27.010  29.084  1.00  0.00     0.029 A 
ATOM     25  C   UNL A   1      42.204  27.307  30.217  1.00  0.00     0.049 A 
ATOM     26  H   UNL A   1      41.832  28.619  31.794  1.00  0.00     0.167 HD
ATOM     27  C   UNL A   1      40.715  31.351  35.111  1.00  0.00     0.031 A 
ATOM     28  C   UNL A   1      43.409  26.755  30.448  1.00  0.00     0.031 A 
ATOM     29  C   UNL A   1      41.993  30.802  35.462  1.00  0.00     0.049 A 
ATOM     30  C   UNL A   1      44.145  27.167  31.692  1.00  0.00     0.074 A 
ATOM     31  C   UNL A   1      42.755  31.031  36.592  1.00  0.00     0.029 A 
ATOM     32  N   UNL A   1      42.695  29.900  34.674  1.00  0.00    -0.354 N 
ATOM     33  N   UNL A   1      43.759  27.984  32.645  1.00  0.00    -0.248 NA
ATOM     34  C   UNL A   1      45.470  26.575  31.901  1.00  0.00     0.031 C 
ATOM     35  C   UNL A   1      43.943  30.303  36.463  1.00  0.00     0.029 A 
ATOM     36  C   UNL A   1      43.893  29.575  35.282  1.00  0.00     0.049 A 
ATOM     37  H   UNL A   1      42.385  29.544  33.810  1.00  0.00     0.167 HD
ATOM     38  C   UNL A   1      44.777  27.977  33.585  1.00  0.00     0.074 A 
ATOM     39  C   UNL A   1      45.792  27.065  33.091  1.00  0.00     0.031 C 
ATOM     40  C   UNL A   1      44.870  28.656  34.755  1.00  0.00     0.031 A 
BRANCH  27  41
ATOM     41  C   UNL A   1      40.039  32.333  36.027  1.00  0.00    -0.014 A 
ATOM     42  C   UNL A   1      38.912  31.974  36.787  1.00  0.00     0.009 A 
ATOM     43  C   UNL A   1      40.495  33.659  36.074  1.00  0.00     0.009 A 
ATOM     44  C   UNL A   1      38.223  32.938  37.527  1.00  0.00     0.001 A 
ATOM     45  C   UNL A   1      39.822  34.613  36.840  1.00  0.00     0.001 A 
ATOM     46  C   UNL A   1      38.678  34.256  37.553  1.00  0.00     0.000 A 
ENDBRANCH  27  41
BRANCH  28  47
ATOM     47  C   UNL A   1      43.991  25.775  29.491  1.00  0.00    -0.014 A 
ATOM     48  C   UNL A   1      44.763  26.204  28.400  1.00  0.00     0.009 A 
ATOM     49  C   UNL A   1      43.769  24.397  29.657  1.00  0.00     0.009 A 
ATOM     50  C   UNL A   1      45.272  25.280  27.482  1.00  0.00     0.001 A 
ATOM     51  C   UNL A   1      44.303  23.474  28.754  1.00  0.00     0.001 A 
ATOM     52  C   UNL A   1      45.044  23.917  27.661  1.00  0.00     0.000 A 
ENDBRANCH  28  47
BRANCH  40  53
ATOM     53  C   UNL A   1      46.088  28.395  35.592  1.00  0.00    -0.014 A 
ATOM     54  C   UNL A   1      47.241  29.183  35.466  1.00  0.00     0.009 A 
ATOM     55  C   UNL A   1      46.056  27.372  36.553  1.00  0.00     0.009 A 
ATOM     56  C   UNL A   1      48.355  28.927  36.267  1.00  0.00     0.001 A 
ATOM     57  C   UNL A   1      47.158  27.140  37.373  1.00  0.00     0.001 A 
ATOM     58  C   UNL A   1      48.310  27.912  37.223  1.00  0.00     0.000 A 
ENDBRANCH  40  53
ENDBRANCH  14  15
ENDBRANCH   7   9
ENDBRANCH   6   7
ENDBRANCH   5   6
ENDBRANCH   4   5
ENDBRANCH   3   4
ENDBRANCH   2   3
ENDBRANCH   1   2
BRANCH   1  59
ATOM     59  O   UNL A   1      32.174  27.668  22.844  1.00  0.00    -0.376 OA
BRANCH  59  60
ATOM     60  C   UNL A   1      31.652  26.743  21.900  1.00  0.00     0.202 C 
BRANCH  60  61
ATOM     61  C   UNL A   1      32.584  25.647  21.349  1.00  0.00     0.261 C 
BRANCH  61  62
ATOM     62  O   UNL A   1      33.477  25.020  22.299  1.00  0.00    -0.461 OA
BRANCH  62  63
ATOM     63  C   UNL A   1      33.367  23.668  22.362  1.00  0.00     0.334 C 
ATOM     64  O   UNL A   1      33.455  22.939  21.371  1.00  0.00    -0.249 OA
BRANCH  63  65
ATOM     65  C   UNL A   1      32.990  23.068  23.714  1.00  0.00     0.232 C 
BRANCH  65  66
ATOM     66  N   UNL A   1      34.241  22.819  24.458  1.00  0.00    -0.274 N 
ATOM     67  C   UNL A   1      34.982  23.922  24.850  1.00  0.00     0.267 C 
ATOM     68  C   UNL A   1      34.731  21.579  24.822  1.00  0.00     0.149 C 
ATOM     69  O   UNL A   1      34.717  25.094  24.629  1.00  0.00    -0.268 OA
ATOM     70  C   UNL A   1      36.207  23.483  25.555  1.00  0.00     0.084 C 
ATOM     71  S   UNL A   1      36.230  21.771  25.697  1.00  0.00    -0.054 SA
ATOM     72  S   UNL A   1      34.116  20.047  24.598  1.00  0.00    -0.052 S 
ATOM     73  C   UNL A   1      37.149  24.336  25.975  1.00  0.00     0.068 C 
BRANCH  73  74
ATOM     74  C   UNL A   1      38.359  23.842  26.524  1.00  0.00     0.129 A 
ATOM     75  C   UNL A   1      39.070  24.349  27.604  1.00  0.00     0.051 A 
ATOM     76  O   UNL A   1      39.071  22.793  25.996  1.00  0.00    -0.454 OA
ATOM     77  C   UNL A   1      40.273  23.633  27.688  1.00  0.00     0.054 A 
ATOM     78  C   UNL A   1      40.246  22.676  26.692  1.00  0.00     0.163 A 
BRANCH  78  79
ATOM     79  C   UNL A   1      41.279  21.721  26.426  1.00  0.00     0.160 A 
ATOM     80  N   UNL A   1      42.442  22.124  25.963  1.00  0.00    -0.233 NA
ATOM     81  S   UNL A   1      41.085  20.032  26.606  1.00  0.00    -0.111 S 
ATOM     82  C   UNL A   1      43.246  21.037  25.710  1.00  0.00     0.082 A 
ATOM     83  C   UNL A   1      42.672  19.792  25.970  1.00  0.00     0.055 A 
ATOM     84  C   UNL A   1      44.559  21.100  25.207  1.00  0.00     0.030 A 
ATOM     85  C   UNL A   1      43.367  18.598  25.719  1.00  0.00     0.021 A 
ATOM     86  C   UNL A   1      45.261  19.921  24.960  1.00  0.00     0.002 A 
ATOM     87  C   UNL A   1      44.668  18.686  25.207  1.00  0.00     0.002 A 
ENDBRANCH  78  79
ENDBRANCH  73  74
ENDBRANCH  65  66
BRANCH  65  88
ATOM     88  C   UNL A   1      31.867  23.508  24.655  1.00  0.00    -0.014 A 
ATOM     89  C   UNL A   1      31.431  24.826  24.836  1.00  0.00     0.006 A 
ATOM     90  C   UNL A   1      31.383  22.556  25.581  1.00  0.00     0.006 A 
ATOM     91  C   UNL A   1      30.553  25.173  25.875  1.00  0.00     0.000 A 
ATOM     92  C   UNL A   1      30.499  22.893  26.608  1.00  0.00     0.000 A 
ATOM     93  C   UNL A   1      30.089  24.209  26.761  1.00  0.00     0.000 A 
ENDBRANCH  65  88
ENDBRANCH  63  65
ENDBRANCH  62  63
ENDBRANCH  61  62
ENDBRANCH  60  61
ENDBRANCH  59  60
ENDBRANCH   1  59
TORSDOF 21
ENDMDL
