MODEL 1
REMARK VINA RESULT:     -10.7      0.000      0.000
REMARK SMILES CC[C@@H]1CCCN(S(=O)(=O)c2cc(C(=O)OCCOCCOCCOC(=O)c3ccc(-c4c5nc(c(-c6ccccc6)c6ccc([nH]6)c(-c6ccccc6)c6nc(c(-c7ccccc7)c7ccc4[nH]7)C=C6)C=C5)cc3)ccc2F)C1
REMARK SMILES IDX 20 1 19 2 18 3 17 4 16 5 14 6 15 7 13 8 11 9 12 10 78 11
REMARK SMILES IDX 77 12 79 13 76 14 8 15 9 16 10 17 7 18 3 19 4 20 80 21 5 22
REMARK SMILES IDX 6 23 2 24 1 25 21 26 22 27 23 28 24 29 25 30 26 31 27 32
REMARK SMILES IDX 28 33 29 34 75 35 30 36 74 37 31 38 32 39 33 40 68 41 34 42
REMARK SMILES IDX 73 43 67 44 69 45 35 46 72 47 66 48 65 49 36 51 58 52 43 53
REMARK SMILES IDX 57 54 44 55 47 56 56 57 70 58 45 59 46 60 55 62 71 63 48 64
REMARK SMILES IDX 37 65 38 66 42 67 39 68 41 69 40 70 59 71 60 72 64 73 61 74
REMARK SMILES IDX 63 75 62 76 49 77 50 78 54 79 51 80 53 81 52 82
REMARK H PARENT 69 50 47 61
REMARK Flexibility Score: inf
ROOT
ATOM      1  C   UNL A   1      33.263  33.177  27.923  1.00  0.00     0.188 C 
ENDROOT
BRANCH   1   2
ATOM      2  O   UNL A   1      32.018  33.259  27.252  1.00  0.00    -0.376 OA
BRANCH   2   3
ATOM      3  C   UNL A   1      31.426  32.096  26.693  1.00  0.00     0.202 C 
BRANCH   3   4
ATOM      4  C   UNL A   1      32.228  30.808  26.437  1.00  0.00     0.261 C 
BRANCH   4   5
ATOM      5  O   UNL A   1      31.455  29.653  26.083  1.00  0.00    -0.460 OA
BRANCH   5   6
ATOM      6  C   UNL A   1      31.772  28.507  26.735  1.00  0.00     0.338 C 
ATOM      7  O   UNL A   1      32.114  28.391  27.897  1.00  0.00    -0.246 OA
BRANCH   6   8
ATOM      8  C   UNL A   1      31.446  27.345  25.872  1.00  0.00     0.061 A 
ATOM      9  C   UNL A   1      31.224  24.943  25.665  1.00  0.00     0.119 A 
ATOM     10  C   UNL A   1      31.605  26.062  26.414  1.00  0.00     0.040 A 
ATOM     11  C   UNL A   1      30.670  25.108  24.401  1.00  0.00     0.143 A 
ATOM     12  C   UNL A   1      30.533  26.380  23.850  1.00  0.00     0.041 A 
ATOM     13  F   UNL A   1      30.297  24.058  23.658  1.00  0.00    -0.206 F 
ATOM     14  C   UNL A   1      30.920  27.505  24.584  1.00  0.00     0.019 A 
BRANCH   9  15
ATOM     15  S   UNL A   1      31.352  23.334  26.377  1.00  0.00     0.246 S 
ATOM     16  O   UNL A   1      30.118  22.612  26.131  1.00  0.00    -0.207 OA
ATOM     17  O   UNL A   1      31.823  23.511  27.733  1.00  0.00    -0.207 OA
BRANCH  15  18
ATOM     18  N   UNL A   1      32.614  22.574  25.473  1.00  0.00    -0.197 NA
ATOM     19  C   UNL A   1      35.103  22.206  25.315  1.00  0.00     0.004 C 
ATOM     20  C   UNL A   1      34.834  20.739  24.945  1.00  0.00     0.006 C 
ATOM     21  C   UNL A   1      33.939  22.766  26.149  1.00  0.00     0.106 C 
ATOM     22  C   UNL A   1      33.464  20.560  24.301  1.00  0.00     0.017 C 
ATOM     23  C   UNL A   1      32.364  21.131  25.182  1.00  0.00     0.102 C 
BRANCH  19  24
ATOM     24  C   UNL A   1      35.407  23.082  24.082  1.00  0.00     0.001 C 
ATOM     25  C   UNL A   1      36.703  22.668  23.392  1.00  0.00     0.004 C 
ENDBRANCH  19  24
ENDBRANCH  15  18
ENDBRANCH   9  15
ENDBRANCH   6   8
ENDBRANCH   5   6
ENDBRANCH   4   5
ENDBRANCH   3   4
ENDBRANCH   2   3
ENDBRANCH   1   2
BRANCH   1  26
ATOM     26  C   UNL A   1      34.209  34.394  27.955  1.00  0.00     0.188 C 
BRANCH  26  27
ATOM     27  O   UNL A   1      34.248  35.127  29.153  1.00  0.00    -0.376 OA
BRANCH  27  28
ATOM     28  C   UNL A   1      33.627  34.618  30.322  1.00  0.00     0.202 C 
BRANCH  28  29
ATOM     29  C   UNL A   1      34.333  34.222  31.637  1.00  0.00     0.261 C 
BRANCH  29  30
ATOM     30  O   UNL A   1      34.539  32.836  31.921  1.00  0.00    -0.460 OA
BRANCH  30  31
ATOM     31  C   UNL A   1      35.544  32.547  32.784  1.00  0.00     0.338 C 
ATOM     32  O   UNL A   1      35.553  32.706  33.992  1.00  0.00    -0.246 OA
BRANCH  31  33
ATOM     33  C   UNL A   1      36.600  31.831  32.045  1.00  0.00     0.060 A 
ATOM     34  C   UNL A   1      37.431  30.939  32.738  1.00  0.00     0.016 A 
ATOM     35  C   UNL A   1      36.782  32.056  30.681  1.00  0.00     0.016 A 
ATOM     36  C   UNL A   1      38.455  30.270  32.066  1.00  0.00     0.010 A 
ATOM     37  C   UNL A   1      37.825  31.405  30.014  1.00  0.00     0.010 A 
ATOM     38  C   UNL A   1      38.680  30.527  30.707  1.00  0.00    -0.014 A 
BRANCH  38  39
ATOM     39  C   UNL A   1      39.896  30.004  30.039  1.00  0.00     0.031 A 
ATOM     40  C   UNL A   1      41.092  30.906  29.906  1.00  0.00     0.074 A 
ATOM     41  C   UNL A   1      39.938  28.753  29.546  1.00  0.00     0.049 A 
ATOM     42  N   UNL A   1      42.227  30.696  29.289  1.00  0.00    -0.248 NA
ATOM     43  C   UNL A   1      40.992  32.225  30.553  1.00  0.00     0.031 C 
ATOM     44  C   UNL A   1      38.870  27.761  29.657  1.00  0.00     0.029 A 
ATOM     45  N   UNL A   1      40.925  28.110  28.839  1.00  0.00    -0.354 N 
ATOM     46  C   UNL A   1      42.966  31.861  29.456  1.00  0.00     0.074 A 
ATOM     47  C   UNL A   1      42.146  32.780  30.214  1.00  0.00     0.031 C 
ATOM     48  C   UNL A   1      39.255  26.636  29.027  1.00  0.00     0.029 A 
ATOM     49  C   UNL A   1      40.575  26.844  28.436  1.00  0.00     0.049 A 
ATOM     50  H   UNL A   1      41.797  28.518  28.640  1.00  0.00     0.167 HD
ATOM     51  C   UNL A   1      44.216  32.139  29.015  1.00  0.00     0.031 A 
ATOM     52  C   UNL A   1      41.236  25.965  27.656  1.00  0.00     0.031 A 
ATOM     53  C   UNL A   1      45.030  31.226  28.258  1.00  0.00     0.049 A 
ATOM     54  C   UNL A   1      42.591  26.338  27.105  1.00  0.00     0.074 A 
ATOM     55  C   UNL A   1      46.323  31.406  27.799  1.00  0.00     0.029 A 
ATOM     56  N   UNL A   1      44.626  29.969  27.840  1.00  0.00    -0.354 N 
ATOM     57  N   UNL A   1      43.298  27.424  27.305  1.00  0.00    -0.248 NA
ATOM     58  C   UNL A   1      43.240  25.355  26.225  1.00  0.00     0.031 C 
ATOM     59  C   UNL A   1      46.674  30.288  27.037  1.00  0.00     0.029 A 
ATOM     60  C   UNL A   1      45.629  29.380  27.089  1.00  0.00     0.049 A 
ATOM     61  H   UNL A   1      43.756  29.557  28.045  1.00  0.00     0.167 HD
ATOM     62  C   UNL A   1      44.487  27.237  26.608  1.00  0.00     0.074 A 
ATOM     63  C   UNL A   1      44.412  25.929  25.994  1.00  0.00     0.031 C 
ATOM     64  C   UNL A   1      45.547  28.073  26.489  1.00  0.00     0.031 A 
BRANCH  51  65
ATOM     65  C   UNL A   1      44.768  33.509  29.299  1.00  0.00    -0.014 A 
ATOM     66  C   UNL A   1      45.659  33.741  30.357  1.00  0.00     0.009 A 
ATOM     67  C   UNL A   1      44.428  34.576  28.451  1.00  0.00     0.009 A 
ATOM     68  C   UNL A   1      46.177  35.020  30.576  1.00  0.00     0.001 A 
ATOM     69  C   UNL A   1      44.971  35.846  28.654  1.00  0.00     0.001 A 
ATOM     70  C   UNL A   1      45.838  36.068  29.721  1.00  0.00     0.000 A 
ENDBRANCH  51  65
BRANCH  52  71
ATOM     71  C   UNL A   1      40.625  24.654  27.307  1.00  0.00    -0.014 A 
ATOM     72  C   UNL A   1      39.492  24.588  26.479  1.00  0.00     0.009 A 
ATOM     73  C   UNL A   1      41.135  23.464  27.848  1.00  0.00     0.009 A 
ATOM     74  C   UNL A   1      38.862  23.364  26.237  1.00  0.00     0.001 A 
ATOM     75  C   UNL A   1      40.524  22.238  27.574  1.00  0.00     0.001 A 
ATOM     76  C   UNL A   1      39.379  22.191  26.782  1.00  0.00     0.000 A 
ENDBRANCH  52  71
BRANCH  64  77
ATOM     77  C   UNL A   1      46.736  27.581  25.708  1.00  0.00    -0.014 A 
ATOM     78  C   UNL A   1      47.727  26.782  26.300  1.00  0.00     0.009 A 
ATOM     79  C   UNL A   1      46.842  27.890  24.342  1.00  0.00     0.009 A 
ATOM     80  C   UNL A   1      48.817  26.335  25.549  1.00  0.00     0.001 A 
ATOM     81  C   UNL A   1      47.912  27.413  23.585  1.00  0.00     0.001 A 
ATOM     82  C   UNL A   1      48.905  26.645  24.192  1.00  0.00     0.000 A 
ENDBRANCH  64  77
ENDBRANCH  38  39
ENDBRANCH  31  33
ENDBRANCH  30  31
ENDBRANCH  29  30
ENDBRANCH  28  29
ENDBRANCH  27  28
ENDBRANCH  26  27
ENDBRANCH   1  26
TORSDOF 20
ENDMDL
MODEL 2
REMARK VINA RESULT:     -10.0      4.371      6.519
REMARK SMILES CC[C@@H]1CCCN(S(=O)(=O)c2cc(C(=O)OCCOCCOCCOC(=O)c3ccc(-c4c5nc(c(-c6ccccc6)c6ccc([nH]6)c(-c6ccccc6)c6nc(c(-c7ccccc7)c7ccc4[nH]7)C=C6)C=C5)cc3)ccc2F)C1
REMARK SMILES IDX 20 1 19 2 18 3 17 4 16 5 14 6 15 7 13 8 11 9 12 10 78 11
REMARK SMILES IDX 77 12 79 13 76 14 8 15 9 16 10 17 7 18 3 19 4 20 80 21 5 22
REMARK SMILES IDX 6 23 2 24 1 25 21 26 22 27 23 28 24 29 25 30 26 31 27 32
REMARK SMILES IDX 28 33 29 34 75 35 30 36 74 37 31 38 32 39 33 40 68 41 34 42
REMARK SMILES IDX 73 43 67 44 69 45 35 46 72 47 66 48 65 49 36 51 58 52 43 53
REMARK SMILES IDX 57 54 44 55 47 56 56 57 70 58 45 59 46 60 55 62 71 63 48 64
REMARK SMILES IDX 37 65 38 66 42 67 39 68 41 69 40 70 59 71 60 72 64 73 61 74
REMARK SMILES IDX 63 75 62 76 49 77 50 78 54 79 51 80 53 81 52 82
REMARK H PARENT 69 50 47 61
REMARK Flexibility Score: inf
ROOT
ATOM      1  C   UNL A   1      35.839  32.443  28.030  1.00  0.00     0.188 C 
ENDROOT
BRANCH   1   2
ATOM      2  O   UNL A   1      35.442  31.157  28.472  1.00  0.00    -0.376 OA
BRANCH   2   3
ATOM      3  C   UNL A   1      35.193  30.121  27.534  1.00  0.00     0.202 C 
BRANCH   3   4
ATOM      4  C   UNL A   1      33.815  29.919  26.880  1.00  0.00     0.261 C 
BRANCH   4   5
ATOM      5  O   UNL A   1      33.634  28.680  26.181  1.00  0.00    -0.460 OA
BRANCH   5   6
ATOM      6  C   UNL A   1      32.603  28.645  25.300  1.00  0.00     0.338 C 
ATOM      7  O   UNL A   1      32.250  29.530  24.544  1.00  0.00    -0.246 OA
BRANCH   6   8
ATOM      8  C   UNL A   1      32.062  27.264  25.232  1.00  0.00     0.061 A 
ATOM      9  C   UNL A   1      32.215  25.048  24.273  1.00  0.00     0.119 A 
ATOM     10  C   UNL A   1      32.635  26.382  24.306  1.00  0.00     0.040 A 
ATOM     11  C   UNL A   1      31.253  24.598  25.170  1.00  0.00     0.143 A 
ATOM     12  C   UNL A   1      30.666  25.478  26.075  1.00  0.00     0.041 A 
ATOM     13  F   UNL A   1      30.829  23.328  25.162  1.00  0.00    -0.206 F 
ATOM     14  C   UNL A   1      31.069  26.816  26.111  1.00  0.00     0.019 A 
BRANCH   9  15
ATOM     15  S   UNL A   1      32.990  23.919  23.160  1.00  0.00     0.246 S 
ATOM     16  O   UNL A   1      33.646  24.673  22.108  1.00  0.00    -0.207 OA
ATOM     17  O   UNL A   1      32.003  22.920  22.819  1.00  0.00    -0.207 OA
BRANCH  15  18
ATOM     18  N   UNL A   1      34.208  23.153  24.119  1.00  0.00    -0.197 NA
ATOM     19  C   UNL A   1      34.750  21.147  25.546  1.00  0.00     0.004 C 
ATOM     20  C   UNL A   1      36.141  21.097  24.896  1.00  0.00     0.006 C 
ATOM     21  C   UNL A   1      33.741  21.809  24.592  1.00  0.00     0.106 C 
ATOM     22  C   UNL A   1      36.576  22.464  24.382  1.00  0.00     0.017 C 
ATOM     23  C   UNL A   1      35.535  23.054  23.443  1.00  0.00     0.102 C 
BRANCH  19  24
ATOM     24  C   UNL A   1      34.768  21.825  26.932  1.00  0.00     0.001 C 
ATOM     25  C   UNL A   1      33.360  22.111  27.446  1.00  0.00     0.004 C 
ENDBRANCH  19  24
ENDBRANCH  15  18
ENDBRANCH   9  15
ENDBRANCH   6   8
ENDBRANCH   5   6
ENDBRANCH   4   5
ENDBRANCH   3   4
ENDBRANCH   2   3
ENDBRANCH   1   2
BRANCH   1  26
ATOM     26  C   UNL A   1      35.067  33.695  28.492  1.00  0.00     0.188 C 
BRANCH  26  27
ATOM     27  O   UNL A   1      33.699  33.742  28.173  1.00  0.00    -0.376 OA
BRANCH  27  28
ATOM     28  C   UNL A   1      32.941  34.908  28.451  1.00  0.00     0.202 C 
BRANCH  28  29
ATOM     29  C   UNL A   1      32.988  35.744  29.748  1.00  0.00     0.261 C 
BRANCH  29  30
ATOM     30  O   UNL A   1      32.408  35.206  30.939  1.00  0.00    -0.460 OA
BRANCH  30  31
ATOM     31  C   UNL A   1      32.808  35.772  32.105  1.00  0.00     0.338 C 
ATOM     32  O   UNL A   1      32.240  36.643  32.739  1.00  0.00    -0.246 OA
BRANCH  31  33
ATOM     33  C   UNL A   1      33.986  35.035  32.599  1.00  0.00     0.060 A 
ATOM     34  C   UNL A   1      35.261  35.587  32.416  1.00  0.00     0.016 A 
ATOM     35  C   UNL A   1      33.831  33.795  33.220  1.00  0.00     0.016 A 
ATOM     36  C   UNL A   1      36.393  34.894  32.849  1.00  0.00     0.010 A 
ATOM     37  C   UNL A   1      34.968  33.091  33.630  1.00  0.00     0.010 A 
ATOM     38  C   UNL A   1      36.254  33.626  33.427  1.00  0.00    -0.014 A 
BRANCH  38  39
ATOM     39  C   UNL A   1      37.449  32.786  33.682  1.00  0.00     0.031 A 
ATOM     40  C   UNL A   1      38.222  32.998  34.956  1.00  0.00     0.074 A 
ATOM     41  C   UNL A   1      37.853  31.858  32.797  1.00  0.00     0.049 A 
ATOM     42  N   UNL A   1      39.339  32.445  35.352  1.00  0.00    -0.248 NA
ATOM     43  C   UNL A   1      37.658  33.969  35.909  1.00  0.00     0.031 C 
ATOM     44  C   UNL A   1      37.164  31.514  31.554  1.00  0.00     0.029 A 
ATOM     45  N   UNL A   1      38.956  31.040  32.809  1.00  0.00    -0.354 N 
ATOM     46  C   UNL A   1      39.623  33.015  36.587  1.00  0.00     0.074 A 
ATOM     47  C   UNL A   1      38.573  33.969  36.867  1.00  0.00     0.031 C 
ATOM     48  C   UNL A   1      37.869  30.563  30.915  1.00  0.00     0.029 A 
ATOM     49  C   UNL A   1      39.076  30.262  31.683  1.00  0.00     0.049 A 
ATOM     50  H   UNL A   1      39.599  31.013  33.553  1.00  0.00     0.167 HD
ATOM     51  C   UNL A   1      40.667  32.766  37.413  1.00  0.00     0.031 A 
ATOM     52  C   UNL A   1      40.062  29.424  31.304  1.00  0.00     0.031 A 
ATOM     53  C   UNL A   1      41.713  31.819  37.132  1.00  0.00     0.049 A 
ATOM     54  C   UNL A   1      41.256  29.233  32.206  1.00  0.00     0.074 A 
ATOM     55  C   UNL A   1      42.793  31.472  37.926  1.00  0.00     0.029 A 
ATOM     56  N   UNL A   1      41.817  31.080  35.966  1.00  0.00    -0.354 N 
ATOM     57  N   UNL A   1      41.493  29.743  33.390  1.00  0.00    -0.248 NA
ATOM     58  C   UNL A   1      42.318  28.341  31.715  1.00  0.00     0.031 C 
ATOM     59  C   UNL A   1      43.592  30.578  37.207  1.00  0.00     0.029 A 
ATOM     60  C   UNL A   1      42.968  30.310  35.999  1.00  0.00     0.049 A 
ATOM     61  H   UNL A   1      41.171  31.099  35.225  1.00  0.00     0.167 HD
ATOM     62  C   UNL A   1      42.709  29.205  33.799  1.00  0.00     0.074 A 
ATOM     63  C   UNL A   1      43.151  28.317  32.746  1.00  0.00     0.031 C 
ATOM     64  C   UNL A   1      43.395  29.423  34.948  1.00  0.00     0.031 A 
BRANCH  51  65
ATOM     65  C   UNL A   1      40.759  33.565  38.684  1.00  0.00    -0.014 A 
ATOM     66  C   UNL A   1      41.408  34.808  38.728  1.00  0.00     0.009 A 
ATOM     67  C   UNL A   1      40.134  33.083  39.846  1.00  0.00     0.009 A 
ATOM     68  C   UNL A   1      41.451  35.539  39.917  1.00  0.00     0.001 A 
ATOM     69  C   UNL A   1      40.152  33.830  41.024  1.00  0.00     0.001 A 
ATOM     70  C   UNL A   1      40.818  35.053  41.061  1.00  0.00     0.000 A 
ENDBRANCH  51  65
BRANCH  52  71
ATOM     71  C   UNL A   1      39.995  28.720  29.994  1.00  0.00    -0.014 A 
ATOM     72  C   UNL A   1      40.472  29.334  28.825  1.00  0.00     0.009 A 
ATOM     73  C   UNL A   1      39.400  27.453  29.897  1.00  0.00     0.009 A 
ATOM     74  C   UNL A   1      40.316  28.712  27.584  1.00  0.00     0.001 A 
ATOM     75  C   UNL A   1      39.278  26.818  28.658  1.00  0.00     0.001 A 
ATOM     76  C   UNL A   1      39.722  27.455  27.501  1.00  0.00     0.000 A 
ENDBRANCH  52  71
BRANCH  64  77
ATOM     77  C   UNL A   1      44.673  28.654  35.151  1.00  0.00    -0.014 A 
ATOM     78  C   UNL A   1      45.917  29.179  34.766  1.00  0.00     0.009 A 
ATOM     79  C   UNL A   1      44.632  27.400  35.780  1.00  0.00     0.009 A 
ATOM     80  C   UNL A   1      47.088  28.445  34.973  1.00  0.00     0.001 A 
ATOM     81  C   UNL A   1      45.806  26.684  36.018  1.00  0.00     0.001 A 
ATOM     82  C   UNL A   1      47.032  27.203  35.604  1.00  0.00     0.000 A 
ENDBRANCH  64  77
ENDBRANCH  38  39
ENDBRANCH  31  33
ENDBRANCH  30  31
ENDBRANCH  29  30
ENDBRANCH  28  29
ENDBRANCH  27  28
ENDBRANCH  26  27
ENDBRANCH   1  26
TORSDOF 20
ENDMDL
MODEL 3
REMARK VINA RESULT:      -9.8      3.291      8.247
REMARK SMILES CC[C@@H]1CCCN(S(=O)(=O)c2cc(C(=O)OCCOCCOCCOC(=O)c3ccc(-c4c5nc(c(-c6ccccc6)c6ccc([nH]6)c(-c6ccccc6)c6nc(c(-c7ccccc7)c7ccc4[nH]7)C=C6)C=C5)cc3)ccc2F)C1
REMARK SMILES IDX 20 1 19 2 18 3 17 4 16 5 14 6 15 7 13 8 11 9 12 10 78 11
REMARK SMILES IDX 77 12 79 13 76 14 8 15 9 16 10 17 7 18 3 19 4 20 80 21 5 22
REMARK SMILES IDX 6 23 2 24 1 25 21 26 22 27 23 28 24 29 25 30 26 31 27 32
REMARK SMILES IDX 28 33 29 34 75 35 30 36 74 37 31 38 32 39 33 40 68 41 34 42
REMARK SMILES IDX 73 43 67 44 69 45 35 46 72 47 66 48 65 49 36 51 58 52 43 53
REMARK SMILES IDX 57 54 44 55 47 56 56 57 70 58 45 59 46 60 55 62 71 63 48 64
REMARK SMILES IDX 37 65 38 66 42 67 39 68 41 69 40 70 59 71 60 72 64 73 61 74
REMARK SMILES IDX 63 75 62 76 49 77 50 78 54 79 51 80 53 81 52 82
REMARK H PARENT 69 50 47 61
REMARK Flexibility Score: inf
ROOT
ATOM      1  C   UNL A   1      35.459  23.187  25.395  1.00  0.00     0.188 C 
ENDROOT
BRANCH   1   2
ATOM      2  O   UNL A   1      34.928  23.475  26.676  1.00  0.00    -0.376 OA
BRANCH   2   3
ATOM      3  C   UNL A   1      34.139  22.513  27.359  1.00  0.00     0.202 C 
BRANCH   3   4
ATOM      4  C   UNL A   1      32.695  22.802  27.806  1.00  0.00     0.261 C 
BRANCH   4   5
ATOM      5  O   UNL A   1      31.904  23.576  26.894  1.00  0.00    -0.460 OA
BRANCH   5   6
ATOM      6  C   UNL A   1      31.096  22.867  26.066  1.00  0.00     0.338 C 
ATOM      7  O   UNL A   1      30.011  22.384  26.331  1.00  0.00    -0.246 OA
BRANCH   6   8
ATOM      8  C   UNL A   1      31.634  22.927  24.685  1.00  0.00     0.061 A 
ATOM      9  C   UNL A   1      32.283  24.294  22.795  1.00  0.00     0.119 A 
ATOM     10  C   UNL A   1      31.699  24.181  24.062  1.00  0.00     0.040 A 
ATOM     11  C   UNL A   1      32.815  23.172  22.172  1.00  0.00     0.143 A 
ATOM     12  C   UNL A   1      32.731  21.921  22.778  1.00  0.00     0.041 A 
ATOM     13  F   UNL A   1      33.379  23.246  20.959  1.00  0.00    -0.206 F 
ATOM     14  C   UNL A   1      32.141  21.793  24.038  1.00  0.00     0.019 A 
BRANCH   9  15
ATOM     15  S   UNL A   1      32.434  25.884  22.045  1.00  0.00     0.246 S 
ATOM     16  O   UNL A   1      31.443  26.003  20.992  1.00  0.00    -0.207 OA
ATOM     17  O   UNL A   1      33.834  26.072  21.738  1.00  0.00    -0.207 OA
BRANCH  15  18
ATOM     18  N   UNL A   1      32.016  26.987  23.310  1.00  0.00    -0.197 NA
ATOM     19  C   UNL A   1      32.771  28.008  25.487  1.00  0.00     0.004 C 
ATOM     20  C   UNL A   1      32.233  29.364  25.004  1.00  0.00     0.006 C 
ATOM     21  C   UNL A   1      33.148  27.127  24.284  1.00  0.00     0.106 C 
ATOM     22  C   UNL A   1      31.115  29.197  23.982  1.00  0.00     0.017 C 
ATOM     23  C   UNL A   1      31.560  28.321  22.821  1.00  0.00     0.102 C 
BRANCH  19  24
ATOM     24  C   UNL A   1      31.800  27.292  26.448  1.00  0.00     0.001 C 
ATOM     25  C   UNL A   1      31.550  28.102  27.717  1.00  0.00     0.004 C 
ENDBRANCH  19  24
ENDBRANCH  15  18
ENDBRANCH   9  15
ENDBRANCH   6   8
ENDBRANCH   5   6
ENDBRANCH   4   5
ENDBRANCH   3   4
ENDBRANCH   2   3
ENDBRANCH   1   2
BRANCH   1  26
ATOM     26  C   UNL A   1      36.839  23.738  24.985  1.00  0.00     0.188 C 
BRANCH  26  27
ATOM     27  O   UNL A   1      37.953  23.204  25.655  1.00  0.00    -0.376 OA
BRANCH  27  28
ATOM     28  C   UNL A   1      38.242  21.818  25.567  1.00  0.00     0.202 C 
BRANCH  28  29
ATOM     29  C   UNL A   1      39.588  21.140  25.901  1.00  0.00     0.261 C 
BRANCH  29  30
ATOM     30  O   UNL A   1      40.314  21.574  27.054  1.00  0.00    -0.460 OA
BRANCH  30  31
ATOM     31  C   UNL A   1      41.541  22.104  26.821  1.00  0.00     0.338 C 
ATOM     32  O   UNL A   1      42.467  21.592  26.219  1.00  0.00    -0.246 OA
BRANCH  31  33
ATOM     33  C   UNL A   1      41.534  23.507  27.273  1.00  0.00     0.060 A 
ATOM     34  C   UNL A   1      41.137  24.509  26.377  1.00  0.00     0.016 A 
ATOM     35  C   UNL A   1      41.938  23.832  28.568  1.00  0.00     0.016 A 
ATOM     36  C   UNL A   1      41.149  25.848  26.772  1.00  0.00     0.010 A 
ATOM     37  C   UNL A   1      41.975  25.176  28.954  1.00  0.00     0.010 A 
ATOM     38  C   UNL A   1      41.603  26.191  28.053  1.00  0.00    -0.014 A 
BRANCH  38  39
ATOM     39  C   UNL A   1      41.836  27.612  28.407  1.00  0.00     0.031 A 
ATOM     40  C   UNL A   1      43.246  28.137  28.394  1.00  0.00     0.074 A 
ATOM     41  C   UNL A   1      40.819  28.423  28.746  1.00  0.00     0.049 A 
ATOM     42  N   UNL A   1      43.699  29.313  28.747  1.00  0.00    -0.248 NA
ATOM     43  C   UNL A   1      44.287  27.207  27.924  1.00  0.00     0.031 C 
ATOM     44  C   UNL A   1      39.404  28.057  28.744  1.00  0.00     0.029 A 
ATOM     45  N   UNL A   1      40.829  29.730  29.170  1.00  0.00    -0.354 N 
ATOM     46  C   UNL A   1      45.075  29.257  28.561  1.00  0.00     0.074 A 
ATOM     47  C   UNL A   1      45.386  27.928  28.084  1.00  0.00     0.031 C 
ATOM     48  C   UNL A   1      38.681  29.112  29.161  1.00  0.00     0.029 A 
ATOM     49  C   UNL A   1      39.584  30.211  29.497  1.00  0.00     0.049 A 
ATOM     50  H   UNL A   1      41.649  30.270  29.234  1.00  0.00     0.167 HD
ATOM     51  C   UNL A   1      45.996  30.227  28.772  1.00  0.00     0.031 A 
ATOM     52  C   UNL A   1      39.221  31.393  30.032  1.00  0.00     0.031 A 
ATOM     53  C   UNL A   1      45.686  31.548  29.251  1.00  0.00     0.049 A 
ATOM     54  C   UNL A   1      40.280  32.423  30.339  1.00  0.00     0.074 A 
ATOM     55  C   UNL A   1      46.548  32.610  29.461  1.00  0.00     0.029 A 
ATOM     56  N   UNL A   1      44.420  31.982  29.605  1.00  0.00    -0.354 N 
ATOM     57  N   UNL A   1      41.572  32.376  30.119  1.00  0.00    -0.248 NA
ATOM     58  C   UNL A   1      39.825  33.675  30.963  1.00  0.00     0.031 C 
ATOM     59  C   UNL A   1      45.815  33.664  30.014  1.00  0.00     0.029 A 
ATOM     60  C   UNL A   1      44.484  33.284  30.075  1.00  0.00     0.049 A 
ATOM     61  H   UNL A   1      43.597  31.447  29.534  1.00  0.00     0.167 HD
ATOM     62  C   UNL A   1      42.074  33.602  30.542  1.00  0.00     0.074 A 
ATOM     63  C   UNL A   1      40.948  34.377  31.016  1.00  0.00     0.031 C 
ATOM     64  C   UNL A   1      43.355  34.048  30.536  1.00  0.00     0.031 A 
BRANCH  51  65
ATOM     65  C   UNL A   1      47.440  29.883  28.532  1.00  0.00    -0.014 A 
ATOM     66  C   UNL A   1      48.244  29.331  29.541  1.00  0.00     0.009 A 
ATOM     67  C   UNL A   1      47.987  30.068  27.252  1.00  0.00     0.009 A 
ATOM     68  C   UNL A   1      49.575  28.995  29.278  1.00  0.00     0.001 A 
ATOM     69  C   UNL A   1      49.307  29.703  26.984  1.00  0.00     0.001 A 
ATOM     70  C   UNL A   1      50.102  29.175  27.999  1.00  0.00     0.000 A 
ENDBRANCH  51  65
BRANCH  52  71
ATOM     71  C   UNL A   1      37.795  31.672  30.354  1.00  0.00    -0.014 A 
ATOM     72  C   UNL A   1      36.939  32.233  29.392  1.00  0.00     0.009 A 
ATOM     73  C   UNL A   1      37.296  31.435  31.644  1.00  0.00     0.009 A 
ATOM     74  C   UNL A   1      35.629  32.586  29.728  1.00  0.00     0.001 A 
ATOM     75  C   UNL A   1      35.975  31.756  31.966  1.00  0.00     0.001 A 
ATOM     76  C   UNL A   1      35.148  32.345  31.013  1.00  0.00     0.000 A 
ENDBRANCH  52  71
BRANCH  64  77
ATOM     77  C   UNL A   1      43.603  35.456  31.009  1.00  0.00    -0.014 A 
ATOM     78  C   UNL A   1      43.705  36.527  30.107  1.00  0.00     0.009 A 
ATOM     79  C   UNL A   1      43.693  35.717  32.385  1.00  0.00     0.009 A 
ATOM     80  C   UNL A   1      43.930  37.825  30.575  1.00  0.00     0.001 A 
ATOM     81  C   UNL A   1      43.882  37.018  32.852  1.00  0.00     0.001 A 
ATOM     82  C   UNL A   1      44.011  38.069  31.946  1.00  0.00     0.000 A 
ENDBRANCH  64  77
ENDBRANCH  38  39
ENDBRANCH  31  33
ENDBRANCH  30  31
ENDBRANCH  29  30
ENDBRANCH  28  29
ENDBRANCH  27  28
ENDBRANCH  26  27
ENDBRANCH   1  26
TORSDOF 20
ENDMDL
