MODEL 1
REMARK VINA RESULT:     -10.3      0.000      0.000
REMARK SMILES O=C(OCCOCCOCCOC(=O)[C@H]1C[C@](O)(c2ccc(F)cc2)[C@@H](c2ccc(F)cc2)O1)c1ccc(-c2c3nc(c(-c4ccccc4)c4ccc([nH]4)c(-c4ccccc4)c4nc(c(-c5ccccc5)c5ccc2[nH]5)C=C4)C=C3)cc1
REMARK SMILES IDX 7 1 6 2 5 3 4 4 3 5 2 6 1 7 35 8 36 9 82 10 37 11 81 12
REMARK SMILES IDX 38 13 39 14 40 15 75 16 41 17 80 18 74 19 76 20 42 21 79 22
REMARK SMILES IDX 73 23 72 24 43 26 65 27 50 28 64 29 51 30 54 31 63 32 77 33
REMARK SMILES IDX 52 34 53 35 62 37 78 38 55 39 44 40 45 41 49 42 46 43 48 44
REMARK SMILES IDX 47 45 66 46 67 47 71 48 68 49 70 50 69 51 56 52 57 53 61 54
REMARK SMILES IDX 58 55 60 56 59 57 8 58 9 59 10 60 11 61 12 62 13 63 14 64
REMARK SMILES IDX 15 65 16 66 34 67 17 68 26 69 19 70 20 71 25 72 21 73 24 74
REMARK SMILES IDX 22 75 23 76 18 77 27 79 28 80 33 81 29 82 32 83 30 84 31 85
REMARK H PARENT 76 25 54 36 18 78
REMARK Flexibility Score: inf
ROOT
ATOM      1  C   UNL A   1      33.217  28.879  25.023  1.00  0.00     0.188 C 
ENDROOT
BRANCH   1   2
ATOM      2  O   UNL A   1      33.998  29.619  25.965  1.00  0.00    -0.376 OA
BRANCH   2   3
ATOM      3  C   UNL A   1      33.250  30.022  27.116  1.00  0.00     0.202 C 
BRANCH   3   4
ATOM      4  C   UNL A   1      33.491  31.469  27.589  1.00  0.00     0.261 C 
BRANCH   4   5
ATOM      5  O   UNL A   1      34.871  31.707  27.901  1.00  0.00    -0.460 OA
BRANCH   5   6
ATOM      6  C   UNL A   1      35.324  31.354  29.124  1.00  0.00     0.338 C 
ATOM      7  O   UNL A   1      35.011  31.948  30.140  1.00  0.00    -0.246 OA
BRANCH   6   8
ATOM      8  C   UNL A   1      36.364  30.282  29.137  1.00  0.00     0.060 A 
ATOM      9  C   UNL A   1      36.841  29.701  30.309  1.00  0.00     0.016 A 
ATOM     10  C   UNL A   1      36.977  29.946  27.920  1.00  0.00     0.016 A 
ATOM     11  C   UNL A   1      38.009  28.956  30.302  1.00  0.00     0.010 A 
ATOM     12  C   UNL A   1      38.102  29.117  27.894  1.00  0.00     0.010 A 
ATOM     13  C   UNL A   1      38.684  28.720  29.103  1.00  0.00    -0.014 A 
BRANCH  13  14
ATOM     14  C   UNL A   1      40.113  28.335  29.191  1.00  0.00     0.031 A 
ATOM     15  C   UNL A   1      40.506  26.959  28.711  1.00  0.00     0.074 A 
ATOM     16  C   UNL A   1      41.044  29.259  29.491  1.00  0.00     0.049 A 
ATOM     17  N   UNL A   1      41.695  26.429  28.588  1.00  0.00    -0.248 NA
ATOM     18  C   UNL A   1      39.411  26.056  28.310  1.00  0.00     0.031 C 
ATOM     19  C   UNL A   1      40.764  30.648  29.860  1.00  0.00     0.029 A 
ATOM     20  N   UNL A   1      42.411  29.187  29.463  1.00  0.00    -0.354 N 
ATOM     21  C   UNL A   1      41.483  25.130  28.138  1.00  0.00     0.074 A 
ATOM     22  C   UNL A   1      40.057  24.937  28.032  1.00  0.00     0.031 C 
ATOM     23  C   UNL A   1      41.926  31.316  29.955  1.00  0.00     0.029 A 
ATOM     24  C   UNL A   1      43.027  30.392  29.706  1.00  0.00     0.049 A 
ATOM     25  H   UNL A   1      42.905  28.354  29.287  1.00  0.00     0.167 HD
ATOM     26  C   UNL A   1      42.394  24.179  27.829  1.00  0.00     0.031 A 
ATOM     27  C   UNL A   1      44.336  30.708  29.715  1.00  0.00     0.031 A 
ATOM     28  C   UNL A   1      43.810  24.391  27.906  1.00  0.00     0.049 A 
ATOM     29  C   UNL A   1      45.332  29.622  29.409  1.00  0.00     0.074 A 
ATOM     30  C   UNL A   1      44.837  23.499  27.662  1.00  0.00     0.029 A 
ATOM     31  N   UNL A   1      44.395  25.602  28.247  1.00  0.00    -0.354 N 
ATOM     32  N   UNL A   1      45.116  28.382  29.039  1.00  0.00    -0.248 NA
ATOM     33  C   UNL A   1      46.752  29.979  29.527  1.00  0.00     0.031 C 
ATOM     34  C   UNL A   1      46.048  24.163  27.895  1.00  0.00     0.029 A 
ATOM     35  C   UNL A   1      45.771  25.480  28.234  1.00  0.00     0.049 A 
ATOM     36  H   UNL A   1      43.903  26.426  28.463  1.00  0.00     0.167 HD
ATOM     37  C   UNL A   1      46.370  27.812  28.868  1.00  0.00     0.074 A 
ATOM     38  C   UNL A   1      47.340  28.853  29.150  1.00  0.00     0.031 C 
ATOM     39  C   UNL A   1      46.699  26.543  28.522  1.00  0.00     0.031 A 
BRANCH  26  40
ATOM     40  C   UNL A   1      41.864  22.822  27.453  1.00  0.00    -0.014 A 
ATOM     41  C   UNL A   1      41.568  21.847  28.419  1.00  0.00     0.009 A 
ATOM     42  C   UNL A   1      41.711  22.498  26.095  1.00  0.00     0.009 A 
ATOM     43  C   UNL A   1      41.179  20.561  28.032  1.00  0.00     0.001 A 
ATOM     44  C   UNL A   1      41.295  21.221  25.712  1.00  0.00     0.001 A 
ATOM     45  C   UNL A   1      41.043  20.250  26.679  1.00  0.00     0.000 A 
ENDBRANCH  26  40
BRANCH  27  46
ATOM     46  C   UNL A   1      44.772  32.095  30.030  1.00  0.00    -0.014 A 
ATOM     47  C   UNL A   1      44.956  33.043  29.012  1.00  0.00     0.009 A 
ATOM     48  C   UNL A   1      45.008  32.481  31.359  1.00  0.00     0.009 A 
ATOM     49  C   UNL A   1      45.380  34.340  29.319  1.00  0.00     0.001 A 
ATOM     50  C   UNL A   1      45.401  33.785  31.666  1.00  0.00     0.001 A 
ATOM     51  C   UNL A   1      45.596  34.712  30.644  1.00  0.00     0.000 A 
ENDBRANCH  27  46
BRANCH  39  52
ATOM     52  C   UNL A   1      48.161  26.230  28.408  1.00  0.00    -0.014 A 
ATOM     53  C   UNL A   1      48.884  25.750  29.511  1.00  0.00     0.009 A 
ATOM     54  C   UNL A   1      48.809  26.374  27.173  1.00  0.00     0.009 A 
ATOM     55  C   UNL A   1      50.241  25.453  29.384  1.00  0.00     0.001 A 
ATOM     56  C   UNL A   1      50.158  26.050  27.042  1.00  0.00     0.001 A 
ATOM     57  C   UNL A   1      50.875  25.599  28.150  1.00  0.00     0.000 A 
ENDBRANCH  39  52
ENDBRANCH  13  14
ENDBRANCH   6   8
ENDBRANCH   5   6
ENDBRANCH   4   5
ENDBRANCH   3   4
ENDBRANCH   2   3
ENDBRANCH   1   2
BRANCH   1  58
ATOM     58  C   UNL A   1      31.802  28.561  25.509  1.00  0.00     0.188 C 
BRANCH  58  59
ATOM     59  O   UNL A   1      31.289  27.284  25.140  1.00  0.00    -0.376 OA
BRANCH  59  60
ATOM     60  C   UNL A   1      31.062  26.361  26.207  1.00  0.00     0.202 C 
BRANCH  60  61
ATOM     61  C   UNL A   1      30.227  25.118  25.860  1.00  0.00     0.261 C 
BRANCH  61  62
ATOM     62  O   UNL A   1      30.297  24.087  26.864  1.00  0.00    -0.461 OA
BRANCH  62  63
ATOM     63  C   UNL A   1      30.407  22.811  26.393  1.00  0.00     0.335 C 
ATOM     64  O   UNL A   1      29.538  21.954  26.508  1.00  0.00    -0.249 OA
BRANCH  63  65
ATOM     65  C   UNL A   1      31.768  22.544  25.723  1.00  0.00     0.232 C 
ATOM     66  C   UNL A   1      32.889  22.610  26.753  1.00  0.00     0.087 C 
ATOM     67  O   UNL A   1      31.905  21.286  25.072  1.00  0.00    -0.355 OA
ATOM     68  C   UNL A   1      33.979  21.649  26.269  1.00  0.00     0.123 C 
ATOM     69  C   UNL A   1      33.308  20.935  25.053  1.00  0.00     0.186 C 
BRANCH  68  70
ATOM     70  C   UNL A   1      35.315  22.370  26.067  1.00  0.00    -0.013 A 
ATOM     71  C   UNL A   1      36.390  21.639  25.505  1.00  0.00     0.010 A 
ATOM     72  C   UNL A   1      35.552  23.714  26.399  1.00  0.00     0.010 A 
ATOM     73  C   UNL A   1      37.629  22.230  25.250  1.00  0.00     0.039 A 
ATOM     74  C   UNL A   1      36.798  24.305  26.148  1.00  0.00     0.039 A 
ATOM     75  C   UNL A   1      37.820  23.562  25.571  1.00  0.00     0.123 A 
ATOM     76  F   UNL A   1      39.002  24.141  25.321  1.00  0.00    -0.207 F 
ENDBRANCH  68  70
BRANCH  68  77
ATOM     77  O   UNL A   1      34.202  20.724  27.354  1.00  0.00    -0.382 OA
ATOM     78  H   UNL A   1      34.217  19.817  27.007  1.00  0.00     0.212 HD
ENDBRANCH  68  77
BRANCH  69  79
ATOM     79  C   UNL A   1      33.386  19.420  25.010  1.00  0.00    -0.016 A 
ATOM     80  C   UNL A   1      32.286  18.636  25.401  1.00  0.00     0.009 A 
ATOM     81  C   UNL A   1      34.527  18.766  24.524  1.00  0.00     0.009 A 
ATOM     82  C   UNL A   1      32.293  17.251  25.245  1.00  0.00     0.039 A 
ATOM     83  C   UNL A   1      34.531  17.378  24.353  1.00  0.00     0.039 A 
ATOM     84  C   UNL A   1      33.409  16.636  24.701  1.00  0.00     0.123 A 
ATOM     85  F   UNL A   1      33.402  15.310  24.507  1.00  0.00    -0.207 F 
ENDBRANCH  69  79
ENDBRANCH  63  65
ENDBRANCH  62  63
ENDBRANCH  61  62
ENDBRANCH  60  61
ENDBRANCH  59  60
ENDBRANCH  58  59
ENDBRANCH   1  58
TORSDOF 20
ENDMDL
MODEL 2
REMARK VINA RESULT:     -10.0      1.705      5.935
REMARK SMILES O=C(OCCOCCOCCOC(=O)[C@H]1C[C@](O)(c2ccc(F)cc2)[C@@H](c2ccc(F)cc2)O1)c1ccc(-c2c3nc(c(-c4ccccc4)c4ccc([nH]4)c(-c4ccccc4)c4nc(c(-c5ccccc5)c5ccc2[nH]5)C=C4)C=C3)cc1
REMARK SMILES IDX 7 1 6 2 5 3 4 4 3 5 2 6 1 7 35 8 36 9 82 10 37 11 81 12
REMARK SMILES IDX 38 13 39 14 40 15 75 16 41 17 80 18 74 19 76 20 42 21 79 22
REMARK SMILES IDX 73 23 72 24 43 26 65 27 50 28 64 29 51 30 54 31 63 32 77 33
REMARK SMILES IDX 52 34 53 35 62 37 78 38 55 39 44 40 45 41 49 42 46 43 48 44
REMARK SMILES IDX 47 45 66 46 67 47 71 48 68 49 70 50 69 51 56 52 57 53 61 54
REMARK SMILES IDX 58 55 60 56 59 57 8 58 9 59 10 60 11 61 12 62 13 63 14 64
REMARK SMILES IDX 15 65 16 66 34 67 17 68 26 69 19 70 20 71 25 72 21 73 24 74
REMARK SMILES IDX 22 75 23 76 18 77 27 79 28 80 33 81 29 82 32 83 30 84 31 85
REMARK H PARENT 76 25 54 36 18 78
REMARK Flexibility Score: inf
ROOT
ATOM      1  C   UNL A   1      32.936  28.976  25.053  1.00  0.00     0.188 C 
ENDROOT
BRANCH   1   2
ATOM      2  O   UNL A   1      33.691  29.581  26.107  1.00  0.00    -0.376 OA
BRANCH   2   3
ATOM      3  C   UNL A   1      32.876  30.005  27.205  1.00  0.00     0.202 C 
BRANCH   3   4
ATOM      4  C   UNL A   1      32.859  31.523  27.468  1.00  0.00     0.261 C 
BRANCH   4   5
ATOM      5  O   UNL A   1      34.177  32.038  27.712  1.00  0.00    -0.460 OA
BRANCH   5   6
ATOM      6  C   UNL A   1      34.760  31.775  28.902  1.00  0.00     0.338 C 
ATOM      7  O   UNL A   1      34.550  32.439  29.901  1.00  0.00    -0.246 OA
BRANCH   6   8
ATOM      8  C   UNL A   1      35.806  30.709  28.881  1.00  0.00     0.060 A 
ATOM      9  C   UNL A   1      36.092  29.905  29.981  1.00  0.00     0.016 A 
ATOM     10  C   UNL A   1      36.622  30.612  27.744  1.00  0.00     0.016 A 
ATOM     11  C   UNL A   1      37.262  29.162  30.026  1.00  0.00     0.010 A 
ATOM     12  C   UNL A   1      37.753  29.791  27.746  1.00  0.00     0.010 A 
ATOM     13  C   UNL A   1      38.133  29.158  28.935  1.00  0.00    -0.014 A 
BRANCH  13  14
ATOM     14  C   UNL A   1      39.535  28.747  29.186  1.00  0.00     0.031 A 
ATOM     15  C   UNL A   1      40.343  29.553  30.174  1.00  0.00     0.074 A 
ATOM     16  C   UNL A   1      39.992  27.577  28.704  1.00  0.00     0.049 A 
ATOM     17  N   UNL A   1      41.546  29.335  30.638  1.00  0.00    -0.248 NA
ATOM     18  C   UNL A   1      39.709  30.767  30.719  1.00  0.00     0.031 C 
ATOM     19  C   UNL A   1      39.240  26.675  27.828  1.00  0.00     0.029 A 
ATOM     20  N   UNL A   1      41.167  26.914  28.941  1.00  0.00    -0.354 N 
ATOM     21  C   UNL A   1      41.818  30.401  31.490  1.00  0.00     0.074 A 
ATOM     22  C   UNL A   1      40.674  31.278  31.464  1.00  0.00     0.031 C 
ATOM     23  C   UNL A   1      39.945  25.544  27.659  1.00  0.00     0.029 A 
ATOM     24  C   UNL A   1      41.214  25.665  28.369  1.00  0.00     0.049 A 
ATOM     25  H   UNL A   1      41.905  27.295  29.469  1.00  0.00     0.167 HD
ATOM     26  C   UNL A   1      42.922  30.628  32.240  1.00  0.00     0.031 A 
ATOM     27  C   UNL A   1      42.176  24.724  28.425  1.00  0.00     0.031 A 
ATOM     28  C   UNL A   1      44.041  29.733  32.284  1.00  0.00     0.049 A 
ATOM     29  C   UNL A   1      43.413  25.018  29.231  1.00  0.00     0.074 A 
ATOM     30  C   UNL A   1      45.235  29.867  32.968  1.00  0.00     0.029 A 
ATOM     31  N   UNL A   1      44.090  28.518  31.616  1.00  0.00    -0.354 N 
ATOM     32  N   UNL A   1      43.680  26.057  29.988  1.00  0.00    -0.248 NA
ATOM     33  C   UNL A   1      44.483  24.012  29.187  1.00  0.00     0.031 C 
ATOM     34  C   UNL A   1      46.024  28.747  32.679  1.00  0.00     0.029 A 
ATOM     35  C   UNL A   1      45.299  27.895  31.858  1.00  0.00     0.049 A 
ATOM     36  H   UNL A   1      43.368  28.153  31.054  1.00  0.00     0.167 HD
ATOM     37  C   UNL A   1      44.941  25.827  30.519  1.00  0.00     0.074 A 
ATOM     38  C   UNL A   1      45.372  24.535  30.018  1.00  0.00     0.031 C 
ATOM     39  C   UNL A   1      45.686  26.610  31.337  1.00  0.00     0.031 A 
BRANCH  26  40
ATOM     40  C   UNL A   1      42.975  31.925  33.001  1.00  0.00    -0.014 A 
ATOM     41  C   UNL A   1      43.503  33.096  32.434  1.00  0.00     0.009 A 
ATOM     42  C   UNL A   1      42.535  31.956  34.333  1.00  0.00     0.009 A 
ATOM     43  C   UNL A   1      43.636  34.257  33.203  1.00  0.00     0.001 A 
ATOM     44  C   UNL A   1      42.642  33.125  35.090  1.00  0.00     0.001 A 
ATOM     45  C   UNL A   1      43.206  34.269  34.530  1.00  0.00     0.000 A 
ENDBRANCH  26  40
BRANCH  27  46
ATOM     46  C   UNL A   1      42.013  23.437  27.697  1.00  0.00    -0.014 A 
ATOM     47  C   UNL A   1      42.526  23.270  26.402  1.00  0.00     0.009 A 
ATOM     48  C   UNL A   1      41.339  22.362  28.297  1.00  0.00     0.009 A 
ATOM     49  C   UNL A   1      42.354  22.061  25.721  1.00  0.00     0.001 A 
ATOM     50  C   UNL A   1      41.196  21.144  27.628  1.00  0.00     0.001 A 
ATOM     51  C   UNL A   1      41.696  20.997  26.336  1.00  0.00     0.000 A 
ENDBRANCH  27  46
BRANCH  39  52
ATOM     52  C   UNL A   1      47.024  26.075  31.752  1.00  0.00    -0.014 A 
ATOM     53  C   UNL A   1      48.158  26.260  30.946  1.00  0.00     0.009 A 
ATOM     54  C   UNL A   1      47.158  25.418  32.984  1.00  0.00     0.009 A 
ATOM     55  C   UNL A   1      49.396  25.765  31.354  1.00  0.00     0.001 A 
ATOM     56  C   UNL A   1      48.402  24.949  33.401  1.00  0.00     0.001 A 
ATOM     57  C   UNL A   1      49.518  25.115  32.582  1.00  0.00     0.000 A 
ENDBRANCH  39  52
ENDBRANCH  13  14
ENDBRANCH   6   8
ENDBRANCH   5   6
ENDBRANCH   4   5
ENDBRANCH   3   4
ENDBRANCH   2   3
ENDBRANCH   1   2
BRANCH   1  58
ATOM     58  C   UNL A   1      31.541  28.513  25.480  1.00  0.00     0.188 C 
BRANCH  58  59
ATOM     59  O   UNL A   1      30.909  27.569  24.619  1.00  0.00    -0.376 OA
BRANCH  59  60
ATOM     60  C   UNL A   1      31.140  26.190  24.915  1.00  0.00     0.202 C 
BRANCH  60  61
ATOM     61  C   UNL A   1      30.140  25.528  25.875  1.00  0.00     0.261 C 
BRANCH  61  62
ATOM     62  O   UNL A   1      30.751  24.563  26.755  1.00  0.00    -0.461 OA
BRANCH  62  63
ATOM     63  C   UNL A   1      30.674  23.263  26.348  1.00  0.00     0.335 C 
ATOM     64  O   UNL A   1      29.707  22.533  26.541  1.00  0.00    -0.249 OA
BRANCH  63  65
ATOM     65  C   UNL A   1      31.957  22.788  25.641  1.00  0.00     0.232 C 
ATOM     66  C   UNL A   1      33.078  22.587  26.655  1.00  0.00     0.087 C 
ATOM     67  O   UNL A   1      31.856  21.565  24.920  1.00  0.00    -0.355 OA
ATOM     68  C   UNL A   1      33.969  21.471  26.100  1.00  0.00     0.123 C 
ATOM     69  C   UNL A   1      33.169  20.963  24.859  1.00  0.00     0.186 C 
BRANCH  68  70
ATOM     70  C   UNL A   1      35.413  21.944  25.916  1.00  0.00    -0.013 A 
ATOM     71  C   UNL A   1      35.718  23.293  26.223  1.00  0.00     0.010 A 
ATOM     72  C   UNL A   1      36.466  21.132  25.463  1.00  0.00     0.010 A 
ATOM     73  C   UNL A   1      37.016  23.797  26.121  1.00  0.00     0.039 A 
ATOM     74  C   UNL A   1      37.768  21.640  25.355  1.00  0.00     0.039 A 
ATOM     75  C   UNL A   1      38.032  22.962  25.691  1.00  0.00     0.123 A 
ATOM     76  F   UNL A   1      39.282  23.433  25.600  1.00  0.00    -0.207 F 
ENDBRANCH  68  70
BRANCH  68  77
ATOM     77  O   UNL A   1      34.023  20.461  27.130  1.00  0.00    -0.382 OA
ATOM     78  H   UNL A   1      33.345  20.645  27.799  1.00  0.00     0.212 HD
ENDBRANCH  68  77
BRANCH  69  79
ATOM     79  C   UNL A   1      32.965  19.464  24.732  1.00  0.00    -0.016 A 
ATOM     80  C   UNL A   1      33.231  18.807  23.518  1.00  0.00     0.009 A 
ATOM     81  C   UNL A   1      32.570  18.691  25.832  1.00  0.00     0.009 A 
ATOM     82  C   UNL A   1      33.175  17.418  23.420  1.00  0.00     0.039 A 
ATOM     83  C   UNL A   1      32.527  17.296  25.740  1.00  0.00     0.039 A 
ATOM     84  C   UNL A   1      32.844  16.673  24.540  1.00  0.00     0.123 A 
ATOM     85  F   UNL A   1      32.833  15.335  24.462  1.00  0.00    -0.207 F 
ENDBRANCH  69  79
ENDBRANCH  63  65
ENDBRANCH  62  63
ENDBRANCH  61  62
ENDBRANCH  60  61
ENDBRANCH  59  60
ENDBRANCH  58  59
ENDBRANCH   1  58
TORSDOF 20
ENDMDL
MODEL 3
REMARK VINA RESULT:      -9.8      3.330      8.772
REMARK SMILES O=C(OCCOCCOCCOC(=O)[C@H]1C[C@](O)(c2ccc(F)cc2)[C@@H](c2ccc(F)cc2)O1)c1ccc(-c2c3nc(c(-c4ccccc4)c4ccc([nH]4)c(-c4ccccc4)c4nc(c(-c5ccccc5)c5ccc2[nH]5)C=C4)C=C3)cc1
REMARK SMILES IDX 7 1 6 2 5 3 4 4 3 5 2 6 1 7 35 8 36 9 82 10 37 11 81 12
REMARK SMILES IDX 38 13 39 14 40 15 75 16 41 17 80 18 74 19 76 20 42 21 79 22
REMARK SMILES IDX 73 23 72 24 43 26 65 27 50 28 64 29 51 30 54 31 63 32 77 33
REMARK SMILES IDX 52 34 53 35 62 37 78 38 55 39 44 40 45 41 49 42 46 43 48 44
REMARK SMILES IDX 47 45 66 46 67 47 71 48 68 49 70 50 69 51 56 52 57 53 61 54
REMARK SMILES IDX 58 55 60 56 59 57 8 58 9 59 10 60 11 61 12 62 13 63 14 64
REMARK SMILES IDX 15 65 16 66 34 67 17 68 26 69 19 70 20 71 25 72 21 73 24 74
REMARK SMILES IDX 22 75 23 76 18 77 27 79 28 80 33 81 29 82 32 83 30 84 31 85
REMARK H PARENT 76 25 54 36 18 78
REMARK Flexibility Score: inf
ROOT
ATOM      1  C   UNL A   1      34.495  20.422  24.645  1.00  0.00     0.188 C 
ENDROOT
BRANCH   1   2
ATOM      2  O   UNL A   1      35.388  21.005  25.599  1.00  0.00    -0.376 OA
BRANCH   2   3
ATOM      3  C   UNL A   1      36.762  20.710  25.329  1.00  0.00     0.202 C 
BRANCH   3   4
ATOM      4  C   UNL A   1      37.581  21.868  24.726  1.00  0.00     0.261 C 
BRANCH   4   5
ATOM      5  O   UNL A   1      38.371  22.539  25.719  1.00  0.00    -0.460 OA
BRANCH   5   6
ATOM      6  C   UNL A   1      37.960  23.748  26.159  1.00  0.00     0.338 C 
ATOM      7  O   UNL A   1      36.855  24.198  25.914  1.00  0.00    -0.246 OA
BRANCH   6   8
ATOM      8  C   UNL A   1      39.005  24.572  26.835  1.00  0.00     0.060 A 
ATOM      9  C   UNL A   1      39.036  24.777  28.213  1.00  0.00     0.016 A 
ATOM     10  C   UNL A   1      39.912  25.276  26.029  1.00  0.00     0.016 A 
ATOM     11  C   UNL A   1      39.813  25.787  28.758  1.00  0.00     0.010 A 
ATOM     12  C   UNL A   1      40.768  26.231  26.584  1.00  0.00     0.010 A 
ATOM     13  C   UNL A   1      40.630  26.566  27.936  1.00  0.00    -0.014 A 
BRANCH  13  14
ATOM     14  C   UNL A   1      41.069  27.880  28.462  1.00  0.00     0.031 A 
ATOM     15  C   UNL A   1      40.014  28.926  28.725  1.00  0.00     0.074 A 
ATOM     16  C   UNL A   1      42.336  28.049  28.882  1.00  0.00     0.049 A 
ATOM     17  N   UNL A   1      40.132  30.106  29.277  1.00  0.00    -0.248 NA
ATOM     18  C   UNL A   1      38.636  28.600  28.315  1.00  0.00     0.031 C 
ATOM     19  C   UNL A   1      43.402  27.051  28.770  1.00  0.00     0.029 A 
ATOM     20  N   UNL A   1      42.922  29.091  29.551  1.00  0.00    -0.354 N 
ATOM     21  C   UNL A   1      38.859  30.667  29.241  1.00  0.00     0.074 A 
ATOM     22  C   UNL A   1      37.988  29.717  28.593  1.00  0.00     0.031 C 
ATOM     23  C   UNL A   1      44.491  27.502  29.414  1.00  0.00     0.029 A 
ATOM     24  C   UNL A   1      44.216  28.837  29.935  1.00  0.00     0.049 A 
ATOM     25  H   UNL A   1      42.459  29.940  29.739  1.00  0.00     0.167 HD
ATOM     26  C   UNL A   1      38.445  31.864  29.714  1.00  0.00     0.031 A 
ATOM     27  C   UNL A   1      45.076  29.599  30.637  1.00  0.00     0.031 A 
ATOM     28  C   UNL A   1      39.312  32.788  30.386  1.00  0.00     0.049 A 
ATOM     29  C   UNL A   1      44.606  30.945  31.117  1.00  0.00     0.074 A 
ATOM     30  C   UNL A   1      39.029  34.049  30.875  1.00  0.00     0.029 A 
ATOM     31  N   UNL A   1      40.645  32.531  30.674  1.00  0.00    -0.354 N 
ATOM     32  N   UNL A   1      43.413  31.485  31.025  1.00  0.00    -0.248 NA
ATOM     33  C   UNL A   1      45.601  31.790  31.791  1.00  0.00     0.031 C 
ATOM     34  C   UNL A   1      40.205  34.572  31.425  1.00  0.00     0.029 A 
ATOM     35  C   UNL A   1      41.204  33.614  31.323  1.00  0.00     0.049 A 
ATOM     36  H   UNL A   1      41.121  31.698  30.452  1.00  0.00     0.167 HD
ATOM     37  C   UNL A   1      43.509  32.726  31.639  1.00  0.00     0.074 A 
ATOM     38  C   UNL A   1      44.872  32.845  32.123  1.00  0.00     0.031 C 
ATOM     39  C   UNL A   1      42.566  33.689  31.785  1.00  0.00     0.031 A 
BRANCH  26  40
ATOM     40  C   UNL A   1      37.014  32.247  29.448  1.00  0.00    -0.014 A 
ATOM     41  C   UNL A   1      36.607  32.784  28.216  1.00  0.00     0.009 A 
ATOM     42  C   UNL A   1      36.067  32.114  30.475  1.00  0.00     0.009 A 
ATOM     43  C   UNL A   1      35.293  33.227  28.037  1.00  0.00     0.001 A 
ATOM     44  C   UNL A   1      34.748  32.532  30.284  1.00  0.00     0.001 A 
ATOM     45  C   UNL A   1      34.366  33.101  29.071  1.00  0.00     0.000 A 
ENDBRANCH  26  40
BRANCH  27  46
ATOM     46  C   UNL A   1      46.455  29.114  30.917  1.00  0.00    -0.014 A 
ATOM     47  C   UNL A   1      47.492  29.314  29.993  1.00  0.00     0.009 A 
ATOM     48  C   UNL A   1      46.744  28.446  32.117  1.00  0.00     0.009 A 
ATOM     49  C   UNL A   1      48.780  28.842  30.259  1.00  0.00     0.001 A 
ATOM     50  C   UNL A   1      48.039  28.003  32.395  1.00  0.00     0.001 A 
ATOM     51  C   UNL A   1      49.055  28.194  31.462  1.00  0.00     0.000 A 
ENDBRANCH  27  46
BRANCH  39  52
ATOM     52  C   UNL A   1      42.977  34.934  32.514  1.00  0.00    -0.014 A 
ATOM     53  C   UNL A   1      42.809  35.047  33.902  1.00  0.00     0.009 A 
ATOM     54  C   UNL A   1      43.580  35.985  31.807  1.00  0.00     0.009 A 
ATOM     55  C   UNL A   1      43.209  36.208  34.565  1.00  0.00     0.001 A 
ATOM     56  C   UNL A   1      44.003  37.132  32.476  1.00  0.00     0.001 A 
ATOM     57  C   UNL A   1      43.808  37.246  33.852  1.00  0.00     0.000 A 
ENDBRANCH  39  52
ENDBRANCH  13  14
ENDBRANCH   6   8
ENDBRANCH   5   6
ENDBRANCH   4   5
ENDBRANCH   3   4
ENDBRANCH   2   3
ENDBRANCH   1   2
BRANCH   1  58
ATOM     58  C   UNL A   1      33.025  20.776  24.879  1.00  0.00     0.188 C 
BRANCH  58  59
ATOM     59  O   UNL A   1      32.496  21.812  24.056  1.00  0.00    -0.376 OA
BRANCH  59  60
ATOM     60  C   UNL A   1      33.448  22.591  23.328  1.00  0.00     0.202 C 
BRANCH  60  61
ATOM     61  C   UNL A   1      32.937  23.254  22.040  1.00  0.00     0.261 C 
BRANCH  61  62
ATOM     62  O   UNL A   1      33.407  24.606  21.872  1.00  0.00    -0.461 OA
BRANCH  62  63
ATOM     63  C   UNL A   1      32.442  25.539  21.626  1.00  0.00     0.335 C 
ATOM     64  O   UNL A   1      31.917  25.720  20.532  1.00  0.00    -0.249 OA
BRANCH  63  65
ATOM     65  C   UNL A   1      32.099  26.378  22.871  1.00  0.00     0.232 C 
ATOM     66  C   UNL A   1      33.180  27.424  23.120  1.00  0.00     0.087 C 
ATOM     67  O   UNL A   1      30.867  27.089  22.824  1.00  0.00    -0.355 OA
ATOM     68  C   UNL A   1      32.484  28.616  23.784  1.00  0.00     0.123 C 
ATOM     69  C   UNL A   1      30.972  28.237  23.697  1.00  0.00     0.186 C 
BRANCH  68  70
ATOM     70  C   UNL A   1      33.097  28.936  25.150  1.00  0.00    -0.013 A 
ATOM     71  C   UNL A   1      34.150  28.112  25.618  1.00  0.00     0.010 A 
ATOM     72  C   UNL A   1      32.689  29.994  25.978  1.00  0.00     0.010 A 
ATOM     73  C   UNL A   1      34.792  28.356  26.833  1.00  0.00     0.039 A 
ATOM     74  C   UNL A   1      33.330  30.234  27.202  1.00  0.00     0.039 A 
ATOM     75  C   UNL A   1      34.377  29.421  27.614  1.00  0.00     0.123 A 
ATOM     76  F   UNL A   1      34.993  29.669  28.777  1.00  0.00    -0.207 F 
ENDBRANCH  68  70
BRANCH  68  77
ATOM     77  O   UNL A   1      32.779  29.759  22.953  1.00  0.00    -0.382 OA
ATOM     78  H   UNL A   1      32.993  30.521  23.515  1.00  0.00     0.212 HD
ENDBRANCH  68  77
BRANCH  69  79
ATOM     79  C   UNL A   1      30.022  29.292  23.159  1.00  0.00    -0.016 A 
ATOM     80  C   UNL A   1      29.600  30.357  23.974  1.00  0.00     0.009 A 
ATOM     81  C   UNL A   1      29.593  29.268  21.825  1.00  0.00     0.009 A 
ATOM     82  C   UNL A   1      28.835  31.402  23.461  1.00  0.00     0.039 A 
ATOM     83  C   UNL A   1      28.838  30.323  21.303  1.00  0.00     0.039 A 
ATOM     84  C   UNL A   1      28.479  31.387  22.122  1.00  0.00     0.123 A 
ATOM     85  F   UNL A   1      27.782  32.411  21.613  1.00  0.00    -0.207 F 
ENDBRANCH  69  79
ENDBRANCH  63  65
ENDBRANCH  62  63
ENDBRANCH  61  62
ENDBRANCH  60  61
ENDBRANCH  59  60
ENDBRANCH  58  59
ENDBRANCH   1  58
TORSDOF 20
ENDMDL
