MODEL 1
REMARK VINA RESULT:     -10.0      0.000      0.000
REMARK SMILES O=C(OCCOCCOCCOC(=O)c1ccncc1-c1ccc(F)cc1F)c1ccc(-c2c3nc(c(-c4ccccc4)c4ccc([nH]4)c(-c4ccccc4)c4nc(c(-c5ccccc5)c5ccc2[nH]5)C=C4)C=C3)cc1
REMARK SMILES IDX 7 1 6 2 5 3 4 4 3 5 2 6 1 7 29 8 30 9 76 10 31 11 75 12
REMARK SMILES IDX 32 13 33 14 34 15 69 16 35 17 74 18 68 19 70 20 36 21 73 22
REMARK SMILES IDX 67 23 66 24 37 26 59 27 44 28 58 29 45 30 48 31 57 32 71 33
REMARK SMILES IDX 46 34 47 35 56 37 72 38 49 39 38 40 39 41 43 42 40 43 42 44
REMARK SMILES IDX 41 45 60 46 61 47 65 48 62 49 64 50 63 51 50 52 51 53 55 54
REMARK SMILES IDX 52 55 54 56 53 57 8 58 9 59 10 60 11 61 12 62 13 63 14 64
REMARK SMILES IDX 15 65 16 66 20 67 17 68 19 69 18 70 21 71 22 72 27 73 23 74
REMARK SMILES IDX 26 75 28 76 24 77 25 78
REMARK H PARENT 70 25 48 36
REMARK Flexibility Score: inf
ROOT
ATOM      1  C   UNL A   1      34.840  20.952  25.694  1.00  0.00     0.188 C 
ENDROOT
BRANCH   1   2
ATOM      2  O   UNL A   1      35.854  21.696  25.025  1.00  0.00    -0.376 OA
BRANCH   2   3
ATOM      3  C   UNL A   1      36.993  20.963  24.594  1.00  0.00     0.202 C 
BRANCH   3   4
ATOM      4  C   UNL A   1      38.262  21.250  25.411  1.00  0.00     0.261 C 
BRANCH   4   5
ATOM      5  O   UNL A   1      39.055  20.064  25.586  1.00  0.00    -0.460 OA
BRANCH   5   6
ATOM      6  C   UNL A   1      40.383  20.032  25.855  1.00  0.00     0.338 C 
ATOM      7  O   UNL A   1      40.999  18.983  25.687  1.00  0.00    -0.246 OA
BRANCH   6   8
ATOM      8  C   UNL A   1      41.081  21.154  26.572  1.00  0.00     0.060 A 
ATOM      9  C   UNL A   1      41.081  21.361  27.950  1.00  0.00     0.016 A 
ATOM     10  C   UNL A   1      41.786  22.080  25.772  1.00  0.00     0.016 A 
ATOM     11  C   UNL A   1      41.685  22.484  28.509  1.00  0.00     0.010 A 
ATOM     12  C   UNL A   1      42.426  23.194  26.331  1.00  0.00     0.010 A 
ATOM     13  C   UNL A   1      42.321  23.429  27.703  1.00  0.00    -0.014 A 
BRANCH  13  14
ATOM     14  C   UNL A   1      42.644  24.730  28.329  1.00  0.00     0.031 A 
ATOM     15  C   UNL A   1      44.093  25.102  28.472  1.00  0.00     0.074 A 
ATOM     16  C   UNL A   1      41.677  25.643  28.531  1.00  0.00     0.049 A 
ATOM     17  N   UNL A   1      44.624  26.265  28.746  1.00  0.00    -0.248 NA
ATOM     18  C   UNL A   1      45.077  24.033  28.231  1.00  0.00     0.031 C 
ATOM     19  C   UNL A   1      40.247  25.411  28.324  1.00  0.00     0.029 A 
ATOM     20  N   UNL A   1      41.754  26.962  28.894  1.00  0.00    -0.354 N 
ATOM     21  C   UNL A   1      45.997  26.073  28.673  1.00  0.00     0.074 A 
ATOM     22  C   UNL A   1      46.222  24.678  28.379  1.00  0.00     0.031 C 
ATOM     23  C   UNL A   1      39.585  26.562  28.533  1.00  0.00     0.029 A 
ATOM     24  C   UNL A   1      40.537  27.597  28.918  1.00  0.00     0.049 A 
ATOM     25  H   UNL A   1      42.602  27.412  29.115  1.00  0.00     0.167 HD
ATOM     26  C   UNL A   1      46.987  26.984  28.818  1.00  0.00     0.031 A 
ATOM     27  C   UNL A   1      40.226  28.874  29.217  1.00  0.00     0.031 A 
ATOM     28  C   UNL A   1      46.764  28.358  29.163  1.00  0.00     0.049 A 
ATOM     29  C   UNL A   1      41.344  29.835  29.509  1.00  0.00     0.074 A 
ATOM     30  C   UNL A   1      47.693  29.346  29.429  1.00  0.00     0.029 A 
ATOM     31  N   UNL A   1      45.509  28.933  29.301  1.00  0.00    -0.354 N 
ATOM     32  N   UNL A   1      42.640  29.635  29.451  1.00  0.00    -0.248 NA
ATOM     33  C   UNL A   1      40.960  31.200  29.892  1.00  0.00     0.031 C 
ATOM     34  C   UNL A   1      46.998  30.512  29.771  1.00  0.00     0.029 A 
ATOM     35  C   UNL A   1      45.638  30.261  29.668  1.00  0.00     0.049 A 
ATOM     36  H   UNL A   1      44.654  28.466  29.160  1.00  0.00     0.167 HD
ATOM     37  C   UNL A   1      43.225  30.850  29.777  1.00  0.00     0.074 A 
ATOM     38  C   UNL A   1      42.144  31.789  29.999  1.00  0.00     0.031 C 
ATOM     39  C   UNL A   1      44.539  31.164  29.890  1.00  0.00     0.031 A 
BRANCH  26  40
ATOM     40  C   UNL A   1      48.392  26.484  28.645  1.00  0.00    -0.014 A 
ATOM     41  C   UNL A   1      49.014  26.497  27.386  1.00  0.00     0.009 A 
ATOM     42  C   UNL A   1      49.089  25.962  29.744  1.00  0.00     0.009 A 
ATOM     43  C   UNL A   1      50.296  25.967  27.226  1.00  0.00     0.001 A 
ATOM     44  C   UNL A   1      50.378  25.453  29.585  1.00  0.00     0.001 A 
ATOM     45  C   UNL A   1      50.977  25.446  28.325  1.00  0.00     0.000 A 
ENDBRANCH  26  40
BRANCH  27  46
ATOM     46  C   UNL A   1      38.803  29.303  29.290  1.00  0.00    -0.014 A 
ATOM     47  C   UNL A   1      38.164  29.919  28.202  1.00  0.00     0.009 A 
ATOM     48  C   UNL A   1      38.081  29.129  30.484  1.00  0.00     0.009 A 
ATOM     49  C   UNL A   1      36.848  30.377  28.319  1.00  0.00     0.001 A 
ATOM     50  C   UNL A   1      36.758  29.562  30.589  1.00  0.00     0.001 A 
ATOM     51  C   UNL A   1      36.146  30.196  29.510  1.00  0.00     0.000 A 
ENDBRANCH  27  46
BRANCH  39  52
ATOM     52  C   UNL A   1      44.866  32.581  30.259  1.00  0.00    -0.014 A 
ATOM     53  C   UNL A   1      45.024  32.961  31.601  1.00  0.00     0.009 A 
ATOM     54  C   UNL A   1      45.049  33.539  29.250  1.00  0.00     0.009 A 
ATOM     55  C   UNL A   1      45.323  34.284  31.927  1.00  0.00     0.001 A 
ATOM     56  C   UNL A   1      45.377  34.855  29.579  1.00  0.00     0.001 A 
ATOM     57  C   UNL A   1      45.503  35.228  30.916  1.00  0.00     0.000 A 
ENDBRANCH  39  52
ENDBRANCH  13  14
ENDBRANCH   6   8
ENDBRANCH   5   6
ENDBRANCH   4   5
ENDBRANCH   3   4
ENDBRANCH   2   3
ENDBRANCH   1   2
BRANCH   1  58
ATOM     58  C   UNL A   1      34.023  21.662  26.780  1.00  0.00     0.188 C 
BRANCH  58  59
ATOM     59  O   UNL A   1      33.173  22.739  26.421  1.00  0.00    -0.376 OA
BRANCH  59  60
ATOM     60  C   UNL A   1      31.825  22.474  26.067  1.00  0.00     0.202 C 
BRANCH  60  61
ATOM     61  C   UNL A   1      30.839  23.641  26.134  1.00  0.00     0.261 C 
BRANCH  61  62
ATOM     62  O   UNL A   1      31.408  24.933  25.849  1.00  0.00    -0.460 OA
BRANCH  62  63
ATOM     63  C   UNL A   1      30.839  25.630  24.834  1.00  0.00     0.338 C 
ATOM     64  O   UNL A   1      29.667  25.959  24.731  1.00  0.00    -0.246 OA
BRANCH  63  65
ATOM     65  C   UNL A   1      31.847  25.869  23.784  1.00  0.00     0.071 A 
ATOM     66  C   UNL A   1      31.846  24.982  22.700  1.00  0.00     0.036 A 
ATOM     67  C   UNL A   1      32.705  26.980  23.798  1.00  0.00     0.017 A 
ATOM     68  C   UNL A   1      32.704  25.235  21.649  1.00  0.00     0.112 A 
ATOM     69  C   UNL A   1      33.536  27.114  22.684  1.00  0.00     0.120 A 
ATOM     70  N   UNL A   1      33.558  26.274  21.624  1.00  0.00    -0.264 NA
BRANCH  67  71
ATOM     71  C   UNL A   1      32.810  27.961  24.880  1.00  0.00     0.020 A 
ATOM     72  C   UNL A   1      33.828  27.850  25.839  1.00  0.00     0.015 A 
ATOM     73  C   UNL A   1      31.978  29.088  24.939  1.00  0.00     0.134 A 
ATOM     74  C   UNL A   1      33.984  28.813  26.841  1.00  0.00     0.040 A 
ATOM     75  C   UNL A   1      32.130  30.058  25.925  1.00  0.00     0.079 A 
ATOM     76  F   UNL A   1      31.037  29.270  24.001  1.00  0.00    -0.206 F 
ATOM     77  C   UNL A   1      33.130  29.907  26.873  1.00  0.00     0.126 A 
ATOM     78  F   UNL A   1      33.288  30.837  27.824  1.00  0.00    -0.207 F 
ENDBRANCH  67  71
ENDBRANCH  63  65
ENDBRANCH  62  63
ENDBRANCH  61  62
ENDBRANCH  60  61
ENDBRANCH  59  60
ENDBRANCH  58  59
ENDBRANCH   1  58
TORSDOF 18
ENDMDL
MODEL 2
REMARK VINA RESULT:     -10.0      4.046      8.645
REMARK SMILES O=C(OCCOCCOCCOC(=O)c1ccncc1-c1ccc(F)cc1F)c1ccc(-c2c3nc(c(-c4ccccc4)c4ccc([nH]4)c(-c4ccccc4)c4nc(c(-c5ccccc5)c5ccc2[nH]5)C=C4)C=C3)cc1
REMARK SMILES IDX 7 1 6 2 5 3 4 4 3 5 2 6 1 7 29 8 30 9 76 10 31 11 75 12
REMARK SMILES IDX 32 13 33 14 34 15 69 16 35 17 74 18 68 19 70 20 36 21 73 22
REMARK SMILES IDX 67 23 66 24 37 26 59 27 44 28 58 29 45 30 48 31 57 32 71 33
REMARK SMILES IDX 46 34 47 35 56 37 72 38 49 39 38 40 39 41 43 42 40 43 42 44
REMARK SMILES IDX 41 45 60 46 61 47 65 48 62 49 64 50 63 51 50 52 51 53 55 54
REMARK SMILES IDX 52 55 54 56 53 57 8 58 9 59 10 60 11 61 12 62 13 63 14 64
REMARK SMILES IDX 15 65 16 66 20 67 17 68 19 69 18 70 21 71 22 72 27 73 23 74
REMARK SMILES IDX 26 75 28 76 24 77 25 78
REMARK H PARENT 70 25 48 36
REMARK Flexibility Score: inf
ROOT
ATOM      1  C   UNL A   1      32.688  28.176  23.612  1.00  0.00     0.188 C 
ENDROOT
BRANCH   1   2
ATOM      2  O   UNL A   1      32.415  29.459  24.167  1.00  0.00    -0.376 OA
BRANCH   2   3
ATOM      3  C   UNL A   1      31.616  29.480  25.343  1.00  0.00     0.202 C 
BRANCH   3   4
ATOM      4  C   UNL A   1      31.708  30.794  26.133  1.00  0.00     0.261 C 
BRANCH   4   5
ATOM      5  O   UNL A   1      32.554  30.656  27.288  1.00  0.00    -0.460 OA
BRANCH   5   6
ATOM      6  C   UNL A   1      33.513  31.532  27.675  1.00  0.00     0.338 C 
ATOM      7  O   UNL A   1      33.282  32.737  27.607  1.00  0.00    -0.246 OA
BRANCH   6   8
ATOM      8  C   UNL A   1      34.924  31.099  27.956  1.00  0.00     0.060 A 
ATOM      9  C   UNL A   1      35.357  29.783  28.102  1.00  0.00     0.016 A 
ATOM     10  C   UNL A   1      35.889  32.122  28.093  1.00  0.00     0.016 A 
ATOM     11  C   UNL A   1      36.672  29.490  28.451  1.00  0.00     0.010 A 
ATOM     12  C   UNL A   1      37.223  31.834  28.410  1.00  0.00     0.010 A 
ATOM     13  C   UNL A   1      37.602  30.512  28.651  1.00  0.00    -0.014 A 
BRANCH  13  14
ATOM     14  C   UNL A   1      38.865  30.142  29.327  1.00  0.00     0.031 A 
ATOM     15  C   UNL A   1      39.031  30.529  30.769  1.00  0.00     0.074 A 
ATOM     16  C   UNL A   1      39.718  29.281  28.744  1.00  0.00     0.049 A 
ATOM     17  N   UNL A   1      39.912  30.112  31.641  1.00  0.00    -0.248 NA
ATOM     18  C   UNL A   1      38.047  31.479  31.316  1.00  0.00     0.031 C 
ATOM     19  C   UNL A   1      39.591  28.766  27.380  1.00  0.00     0.029 A 
ATOM     20  N   UNL A   1      40.823  28.641  29.243  1.00  0.00    -0.354 N 
ATOM     21  C   UNL A   1      39.565  30.718  32.840  1.00  0.00     0.074 A 
ATOM     22  C   UNL A   1      38.427  31.568  32.580  1.00  0.00     0.031 C 
ATOM     23  C   UNL A   1      40.562  27.864  27.163  1.00  0.00     0.029 A 
ATOM     24  C   UNL A   1      41.395  27.763  28.356  1.00  0.00     0.049 A 
ATOM     25  H   UNL A   1      41.171  28.796  30.150  1.00  0.00     0.167 HD
ATOM     26  C   UNL A   1      40.130  30.566  34.060  1.00  0.00     0.031 A 
ATOM     27  C   UNL A   1      42.471  26.964  28.493  1.00  0.00     0.031 A 
ATOM     28  C   UNL A   1      41.293  29.763  34.306  1.00  0.00     0.049 A 
ATOM     29  C   UNL A   1      43.166  26.918  29.825  1.00  0.00     0.074 A 
ATOM     30  C   UNL A   1      42.008  29.610  35.479  1.00  0.00     0.029 A 
ATOM     31  N   UNL A   1      41.919  28.982  33.345  1.00  0.00    -0.354 N 
ATOM     32  N   UNL A   1      42.834  27.509  30.949  1.00  0.00    -0.248 NA
ATOM     33  C   UNL A   1      44.371  26.084  29.915  1.00  0.00     0.031 C 
ATOM     34  C   UNL A   1      43.095  28.768  35.216  1.00  0.00     0.029 A 
ATOM     35  C   UNL A   1      43.025  28.358  33.894  1.00  0.00     0.049 A 
ATOM     36  H   UNL A   1      41.620  28.887  32.412  1.00  0.00     0.167 HD
ATOM     37  C   UNL A   1      43.781  27.110  31.881  1.00  0.00     0.074 A 
ATOM     38  C   UNL A   1      44.680  26.200  31.199  1.00  0.00     0.031 C 
ATOM     39  C   UNL A   1      43.904  27.466  33.183  1.00  0.00     0.031 A 
BRANCH  26  40
ATOM     40  C   UNL A   1      39.507  31.331  35.191  1.00  0.00    -0.014 A 
ATOM     41  C   UNL A   1      39.957  32.618  35.529  1.00  0.00     0.009 A 
ATOM     42  C   UNL A   1      38.483  30.746  35.949  1.00  0.00     0.009 A 
ATOM     43  C   UNL A   1      39.415  33.290  36.625  1.00  0.00     0.001 A 
ATOM     44  C   UNL A   1      37.928  31.430  37.032  1.00  0.00     0.001 A 
ATOM     45  C   UNL A   1      38.401  32.696  37.376  1.00  0.00     0.000 A 
ENDBRANCH  26  40
BRANCH  27  46
ATOM     46  C   UNL A   1      42.976  26.177  27.334  1.00  0.00    -0.014 A 
ATOM     47  C   UNL A   1      43.904  26.717  26.430  1.00  0.00     0.009 A 
ATOM     48  C   UNL A   1      42.492  24.878  27.108  1.00  0.00     0.009 A 
ATOM     49  C   UNL A   1      44.310  25.983  25.310  1.00  0.00     0.001 A 
ATOM     50  C   UNL A   1      42.921  24.137  26.005  1.00  0.00     0.001 A 
ATOM     51  C   UNL A   1      43.821  24.695  25.100  1.00  0.00     0.000 A 
ENDBRANCH  27  46
BRANCH  39  52
ATOM     52  C   UNL A   1      45.044  26.858  33.945  1.00  0.00    -0.014 A 
ATOM     53  C   UNL A   1      46.310  27.463  33.958  1.00  0.00     0.009 A 
ATOM     54  C   UNL A   1      44.839  25.683  34.686  1.00  0.00     0.009 A 
ATOM     55  C   UNL A   1      47.361  26.882  34.668  1.00  0.00     0.001 A 
ATOM     56  C   UNL A   1      45.885  25.121  35.418  1.00  0.00     0.001 A 
ATOM     57  C   UNL A   1      47.147  25.714  35.400  1.00  0.00     0.000 A 
ENDBRANCH  39  52
ENDBRANCH  13  14
ENDBRANCH   6   8
ENDBRANCH   5   6
ENDBRANCH   4   5
ENDBRANCH   3   4
ENDBRANCH   2   3
ENDBRANCH   1   2
BRANCH   1  58
ATOM     58  C   UNL A   1      33.726  28.083  22.488  1.00  0.00     0.188 C 
BRANCH  58  59
ATOM     59  O   UNL A   1      33.741  26.942  21.645  1.00  0.00    -0.376 OA
BRANCH  59  60
ATOM     60  C   UNL A   1      32.609  26.089  21.607  1.00  0.00     0.202 C 
BRANCH  60  61
ATOM     61  C   UNL A   1      32.866  24.582  21.576  1.00  0.00     0.261 C 
BRANCH  61  62
ATOM     62  O   UNL A   1      33.386  24.030  22.802  1.00  0.00    -0.460 OA
BRANCH  62  63
ATOM     63  C   UNL A   1      32.730  22.955  23.303  1.00  0.00     0.338 C 
ATOM     64  O   UNL A   1      32.391  21.949  22.697  1.00  0.00    -0.246 OA
BRANCH  63  65
ATOM     65  C   UNL A   1      32.385  23.211  24.714  1.00  0.00     0.071 A 
ATOM     66  C   UNL A   1      31.048  23.526  24.986  1.00  0.00     0.036 A 
ATOM     67  C   UNL A   1      33.308  23.052  25.759  1.00  0.00     0.017 A 
ATOM     68  C   UNL A   1      30.666  23.670  26.305  1.00  0.00     0.112 A 
ATOM     69  C   UNL A   1      32.801  23.240  27.046  1.00  0.00     0.120 A 
ATOM     70  N   UNL A   1      31.517  23.546  27.339  1.00  0.00    -0.264 NA
BRANCH  67  71
ATOM     71  C   UNL A   1      34.731  22.744  25.598  1.00  0.00     0.020 A 
ATOM     72  C   UNL A   1      35.694  23.753  25.745  1.00  0.00     0.015 A 
ATOM     73  C   UNL A   1      35.185  21.432  25.400  1.00  0.00     0.134 A 
ATOM     74  C   UNL A   1      37.060  23.465  25.660  1.00  0.00     0.040 A 
ATOM     75  C   UNL A   1      36.542  21.131  25.324  1.00  0.00     0.079 A 
ATOM     76  F   UNL A   1      34.301  20.427  25.325  1.00  0.00    -0.206 F 
ATOM     77  C   UNL A   1      37.468  22.155  25.448  1.00  0.00     0.126 A 
ATOM     78  F   UNL A   1      38.777  21.877  25.380  1.00  0.00    -0.207 F 
ENDBRANCH  67  71
ENDBRANCH  63  65
ENDBRANCH  62  63
ENDBRANCH  61  62
ENDBRANCH  60  61
ENDBRANCH  59  60
ENDBRANCH  58  59
ENDBRANCH   1  58
TORSDOF 18
ENDMDL
MODEL 3
REMARK VINA RESULT:      -9.9      4.159      8.075
REMARK SMILES O=C(OCCOCCOCCOC(=O)c1ccncc1-c1ccc(F)cc1F)c1ccc(-c2c3nc(c(-c4ccccc4)c4ccc([nH]4)c(-c4ccccc4)c4nc(c(-c5ccccc5)c5ccc2[nH]5)C=C4)C=C3)cc1
REMARK SMILES IDX 7 1 6 2 5 3 4 4 3 5 2 6 1 7 29 8 30 9 76 10 31 11 75 12
REMARK SMILES IDX 32 13 33 14 34 15 69 16 35 17 74 18 68 19 70 20 36 21 73 22
REMARK SMILES IDX 67 23 66 24 37 26 59 27 44 28 58 29 45 30 48 31 57 32 71 33
REMARK SMILES IDX 46 34 47 35 56 37 72 38 49 39 38 40 39 41 43 42 40 43 42 44
REMARK SMILES IDX 41 45 60 46 61 47 65 48 62 49 64 50 63 51 50 52 51 53 55 54
REMARK SMILES IDX 52 55 54 56 53 57 8 58 9 59 10 60 11 61 12 62 13 63 14 64
REMARK SMILES IDX 15 65 16 66 20 67 17 68 19 69 18 70 21 71 22 72 27 73 23 74
REMARK SMILES IDX 26 75 28 76 24 77 25 78
REMARK H PARENT 70 25 48 36
REMARK Flexibility Score: inf
ROOT
ATOM      1  C   UNL A   1      39.829  20.703  26.124  1.00  0.00     0.188 C 
ENDROOT
BRANCH   1   2
ATOM      2  O   UNL A   1      40.487  20.632  27.385  1.00  0.00    -0.376 OA
BRANCH   2   3
ATOM      3  C   UNL A   1      41.901  20.773  27.367  1.00  0.00     0.202 C 
BRANCH   3   4
ATOM      4  C   UNL A   1      42.463  21.227  26.012  1.00  0.00     0.261 C 
BRANCH   4   5
ATOM      5  O   UNL A   1      43.470  22.240  26.172  1.00  0.00    -0.460 OA
BRANCH   5   6
ATOM      6  C   UNL A   1      43.417  23.496  25.665  1.00  0.00     0.338 C 
ATOM      7  O   UNL A   1      43.990  23.735  24.605  1.00  0.00    -0.246 OA
BRANCH   6   8
ATOM      8  C   UNL A   1      42.893  24.658  26.461  1.00  0.00     0.060 A 
ATOM      9  C   UNL A   1      43.374  25.965  26.406  1.00  0.00     0.016 A 
ATOM     10  C   UNL A   1      41.826  24.393  27.349  1.00  0.00     0.016 A 
ATOM     11  C   UNL A   1      42.878  26.952  27.252  1.00  0.00     0.010 A 
ATOM     12  C   UNL A   1      41.297  25.391  28.179  1.00  0.00     0.010 A 
ATOM     13  C   UNL A   1      41.870  26.663  28.173  1.00  0.00    -0.014 A 
BRANCH  13  14
ATOM     14  C   UNL A   1      41.634  27.663  29.238  1.00  0.00     0.031 A 
ATOM     15  C   UNL A   1      40.417  28.538  29.125  1.00  0.00     0.074 A 
ATOM     16  C   UNL A   1      42.342  27.616  30.381  1.00  0.00     0.049 A 
ATOM     17  N   UNL A   1      39.859  29.298  30.030  1.00  0.00    -0.248 NA
ATOM     18  C   UNL A   1      39.709  28.521  27.833  1.00  0.00     0.031 C 
ATOM     19  C   UNL A   1      43.480  26.730  30.628  1.00  0.00     0.029 A 
ATOM     20  N   UNL A   1      42.172  28.283  31.566  1.00  0.00    -0.354 N 
ATOM     21  C   UNL A   1      38.720  29.816  29.429  1.00  0.00     0.074 A 
ATOM     22  C   UNL A   1      38.688  29.327  28.071  1.00  0.00     0.031 C 
ATOM     23  C   UNL A   1      43.885  26.886  31.899  1.00  0.00     0.029 A 
ATOM     24  C   UNL A   1      43.060  27.903  32.542  1.00  0.00     0.049 A 
ATOM     25  H   UNL A   1      41.480  28.969  31.704  1.00  0.00     0.167 HD
ATOM     26  C   UNL A   1      37.768  30.614  29.966  1.00  0.00     0.031 A 
ATOM     27  C   UNL A   1      43.191  28.326  33.814  1.00  0.00     0.031 A 
ATOM     28  C   UNL A   1      37.828  31.141  31.299  1.00  0.00     0.049 A 
ATOM     29  C   UNL A   1      42.197  29.321  34.344  1.00  0.00     0.074 A 
ATOM     30  C   UNL A   1      36.972  32.034  31.917  1.00  0.00     0.029 A 
ATOM     31  N   UNL A   1      38.818  30.827  32.219  1.00  0.00    -0.354 N 
ATOM     32  N   UNL A   1      41.131  29.814  33.758  1.00  0.00    -0.248 NA
ATOM     33  C   UNL A   1      42.412  29.805  35.714  1.00  0.00     0.031 C 
ATOM     34  C   UNL A   1      37.469  32.293  33.199  1.00  0.00     0.029 A 
ATOM     35  C   UNL A   1      38.605  31.522  33.395  1.00  0.00     0.049 A 
ATOM     36  H   UNL A   1      39.561  30.201  32.057  1.00  0.00     0.167 HD
ATOM     37  C   UNL A   1      40.542  30.657  34.691  1.00  0.00     0.074 A 
ATOM     38  C   UNL A   1      41.351  30.581  35.891  1.00  0.00     0.031 C 
ATOM     39  C   UNL A   1      39.435  31.430  34.568  1.00  0.00     0.031 A 
BRANCH  26  40
ATOM     40  C   UNL A   1      36.619  30.986  29.075  1.00  0.00    -0.014 A 
ATOM     41  C   UNL A   1      36.422  32.315  28.666  1.00  0.00     0.009 A 
ATOM     42  C   UNL A   1      35.705  30.005  28.668  1.00  0.00     0.009 A 
ATOM     43  C   UNL A   1      35.311  32.658  27.893  1.00  0.00     0.001 A 
ATOM     44  C   UNL A   1      34.607  30.348  27.877  1.00  0.00     0.001 A 
ATOM     45  C   UNL A   1      34.405  31.675  27.499  1.00  0.00     0.000 A 
ENDBRANCH  26  40
BRANCH  27  46
ATOM     46  C   UNL A   1      44.321  27.844  34.655  1.00  0.00    -0.014 A 
ATOM     47  C   UNL A   1      44.166  26.769  35.545  1.00  0.00     0.009 A 
ATOM     48  C   UNL A   1      45.565  28.494  34.594  1.00  0.00     0.009 A 
ATOM     49  C   UNL A   1      45.222  26.380  36.375  1.00  0.00     0.001 A 
ATOM     50  C   UNL A   1      46.627  28.084  35.403  1.00  0.00     0.001 A 
ATOM     51  C   UNL A   1      46.450  27.036  36.302  1.00  0.00     0.000 A 
ENDBRANCH  27  46
BRANCH  39  52
ATOM     52  C   UNL A   1      39.040  32.240  35.767  1.00  0.00    -0.014 A 
ATOM     53  C   UNL A   1      39.485  33.561  35.926  1.00  0.00     0.009 A 
ATOM     54  C   UNL A   1      38.186  31.684  36.732  1.00  0.00     0.009 A 
ATOM     55  C   UNL A   1      39.112  34.298  37.050  1.00  0.00     0.001 A 
ATOM     56  C   UNL A   1      37.792  32.434  37.840  1.00  0.00     0.001 A 
ATOM     57  C   UNL A   1      38.263  33.736  38.003  1.00  0.00     0.000 A 
ENDBRANCH  39  52
ENDBRANCH  13  14
ENDBRANCH   6   8
ENDBRANCH   5   6
ENDBRANCH   4   5
ENDBRANCH   3   4
ENDBRANCH   2   3
ENDBRANCH   1   2
BRANCH   1  58
ATOM     58  C   UNL A   1      38.748  21.773  25.934  1.00  0.00     0.188 C 
BRANCH  58  59
ATOM     59  O   UNL A   1      38.930  23.058  26.508  1.00  0.00    -0.376 OA
BRANCH  59  60
ATOM     60  C   UNL A   1      37.996  24.087  26.223  1.00  0.00     0.202 C 
BRANCH  60  61
ATOM     61  C   UNL A   1      36.520  23.695  26.152  1.00  0.00     0.261 C 
BRANCH  61  62
ATOM     62  O   UNL A   1      35.650  24.704  25.603  1.00  0.00    -0.460 OA
BRANCH  62  63
ATOM     63  C   UNL A   1      34.327  24.411  25.583  1.00  0.00     0.338 C 
ATOM     64  O   UNL A   1      33.622  24.114  26.536  1.00  0.00    -0.246 OA
BRANCH  63  65
ATOM     65  C   UNL A   1      33.851  24.410  24.186  1.00  0.00     0.071 A 
ATOM     66  C   UNL A   1      33.824  25.647  23.532  1.00  0.00     0.036 A 
ATOM     67  C   UNL A   1      33.534  23.229  23.496  1.00  0.00     0.017 A 
ATOM     68  C   UNL A   1      33.485  25.672  22.194  1.00  0.00     0.112 A 
ATOM     69  C   UNL A   1      33.190  23.390  22.153  1.00  0.00     0.120 A 
ATOM     70  N   UNL A   1      33.154  24.572  21.495  1.00  0.00    -0.264 NA
BRANCH  67  71
ATOM     71  C   UNL A   1      33.507  21.885  24.077  1.00  0.00     0.020 A 
ATOM     72  C   UNL A   1      32.283  21.251  24.336  1.00  0.00     0.015 A 
ATOM     73  C   UNL A   1      34.682  21.151  24.293  1.00  0.00     0.134 A 
ATOM     74  C   UNL A   1      32.238  19.943  24.828  1.00  0.00     0.040 A 
ATOM     75  C   UNL A   1      34.650  19.845  24.774  1.00  0.00     0.079 A 
ATOM     76  F   UNL A   1      35.871  21.693  23.992  1.00  0.00    -0.206 F 
ATOM     77  C   UNL A   1      33.425  19.254  25.043  1.00  0.00     0.126 A 
ATOM     78  F   UNL A   1      33.381  17.997  25.502  1.00  0.00    -0.207 F 
ENDBRANCH  67  71
ENDBRANCH  63  65
ENDBRANCH  62  63
ENDBRANCH  61  62
ENDBRANCH  60  61
ENDBRANCH  59  60
ENDBRANCH  58  59
ENDBRANCH   1  58
TORSDOF 18
ENDMDL
