MODEL 1
REMARK VINA RESULT:     -10.4      0.000      0.000
REMARK SMILES CC1(C)[C@H](C(=O)OCCOCCOCCOC(=O)c2ccc(-c3c4nc(c(-c5ccccc5)c5ccc([nH]5)c(-c5ccccc5)c5nc(c(-c6ccccc6)c6ccc3[nH]6)C=C5)C=C4)cc2)[C@@H]1C(=O)Nc1ccc(NC(=O)C2CCC2)cc1
REMARK SMILES IDX 11 1 10 2 9 3 8 4 7 5 5 6 6 7 4 8 1 9 2 10 3 11 67 12 68 13
REMARK SMILES IDX 69 14 70 15 71 17 72 18 83 19 73 20 82 21 74 22 75 23 76 24
REMARK SMILES IDX 77 26 78 27 79 28 81 29 80 30 12 31 13 32 14 33 15 34 16 35
REMARK SMILES IDX 17 36 18 37 19 38 20 39 66 40 21 41 65 42 22 43 23 44 24 45
REMARK SMILES IDX 59 46 25 47 64 48 58 49 60 50 26 51 63 52 57 53 56 54 27 56
REMARK SMILES IDX 49 57 34 58 48 59 35 60 38 61 47 62 61 63 36 64 37 65 46 67
REMARK SMILES IDX 62 68 39 69 28 70 29 71 33 72 30 73 32 74 31 75 50 76 51 77
REMARK SMILES IDX 55 78 52 79 54 80 53 81 40 82 41 83 45 84 42 85 44 86 43 87
REMARK H PARENT 70 16 75 25 60 55 38 66
REMARK Flexibility Score: inf
ROOT
ATOM      1  C   UNL A   1      39.662  22.155  26.578  1.00  0.00     0.188 C 
ENDROOT
BRANCH   1   2
ATOM      2  O   UNL A   1      38.991  21.302  25.665  1.00  0.00    -0.376 OA
BRANCH   2   3
ATOM      3  C   UNL A   1      37.777  21.779  25.106  1.00  0.00     0.202 C 
BRANCH   3   4
ATOM      4  C   UNL A   1      36.518  21.025  25.552  1.00  0.00     0.261 C 
BRANCH   4   5
ATOM      5  O   UNL A   1      35.286  21.134  24.797  1.00  0.00    -0.463 OA
BRANCH   5   6
ATOM      6  C   UNL A   1      34.092  21.375  25.385  1.00  0.00     0.310 C 
ATOM      7  O   UNL A   1      33.362  20.547  25.886  1.00  0.00    -0.252 OA
BRANCH   6   8
ATOM      8  C   UNL A   1      33.736  22.802  25.540  1.00  0.00     0.118 C 
ATOM      9  C   UNL A   1      34.599  25.200  25.398  1.00  0.00     0.013 C 
ATOM     10  C   UNL A   1      34.141  23.962  24.659  1.00  0.00    -0.009 C 
ATOM     11  C   UNL A   1      34.906  23.745  23.372  1.00  0.00     0.013 C 
ATOM     12  C   UNL A   1      32.659  23.535  24.784  1.00  0.00     0.100 C 
BRANCH  12  13
ATOM     13  C   UNL A   1      31.928  23.108  23.567  1.00  0.00     0.228 C 
ATOM     14  O   UNL A   1      31.907  21.914  23.276  1.00  0.00    -0.274 OA
ATOM     15  N   UNL A   1      31.272  23.993  22.750  1.00  0.00    -0.326 N 
ATOM     16  H   UNL A   1      30.906  23.608  21.921  1.00  0.00     0.169 HD
BRANCH  15  17
ATOM     17  C   UNL A   1      31.047  25.359  22.921  1.00  0.00     0.041 A 
ATOM     18  C   UNL A   1      29.954  25.684  23.711  1.00  0.00     0.028 A 
ATOM     19  C   UNL A   1      31.878  26.371  22.455  1.00  0.00     0.028 A 
ATOM     20  C   UNL A   1      29.811  26.980  24.201  1.00  0.00     0.028 A 
ATOM     21  C   UNL A   1      31.656  27.697  22.876  1.00  0.00     0.028 A 
ATOM     22  C   UNL A   1      30.658  28.002  23.822  1.00  0.00     0.041 A 
BRANCH  22  23
ATOM     23  N   UNL A   1      30.647  29.298  24.358  1.00  0.00    -0.326 N 
ATOM     24  C   UNL A   1      31.403  30.053  25.229  1.00  0.00     0.227 C 
ATOM     25  H   UNL A   1      29.882  29.814  24.015  1.00  0.00     0.169 HD
ATOM     26  O   UNL A   1      30.986  31.227  25.340  1.00  0.00    -0.274 OA
BRANCH  24  27
ATOM     27  C   UNL A   1      32.679  29.660  25.997  1.00  0.00     0.079 C 
ATOM     28  C   UNL A   1      32.384  28.751  27.250  1.00  0.00     0.013 C 
ATOM     29  C   UNL A   1      33.722  28.573  25.640  1.00  0.00     0.013 C 
ATOM     30  C   UNL A   1      33.808  28.203  27.122  1.00  0.00     0.002 C 
ENDBRANCH  24  27
ENDBRANCH  22  23
ENDBRANCH  15  17
ENDBRANCH  12  13
ENDBRANCH   6   8
ENDBRANCH   5   6
ENDBRANCH   4   5
ENDBRANCH   3   4
ENDBRANCH   2   3
ENDBRANCH   1   2
BRANCH   1  31
ATOM     31  C   UNL A   1      41.192  21.989  26.599  1.00  0.00     0.188 C 
BRANCH  31  32
ATOM     32  O   UNL A   1      41.906  21.798  25.384  1.00  0.00    -0.376 OA
BRANCH  32  33
ATOM     33  C   UNL A   1      43.322  21.886  25.398  1.00  0.00     0.202 C 
BRANCH  33  34
ATOM     34  C   UNL A   1      43.966  23.050  24.636  1.00  0.00     0.261 C 
BRANCH  34  35
ATOM     35  O   UNL A   1      43.288  24.307  24.794  1.00  0.00    -0.460 OA
BRANCH  35  36
ATOM     36  C   UNL A   1      44.030  25.310  25.326  1.00  0.00     0.338 C 
ATOM     37  O   UNL A   1      45.149  25.657  24.993  1.00  0.00    -0.246 OA
BRANCH  36  38
ATOM     38  C   UNL A   1      43.200  26.088  26.276  1.00  0.00     0.060 A 
ATOM     39  C   UNL A   1      43.573  27.415  26.550  1.00  0.00     0.016 A 
ATOM     40  C   UNL A   1      42.102  25.519  26.921  1.00  0.00     0.016 A 
ATOM     41  C   UNL A   1      42.875  28.163  27.495  1.00  0.00     0.010 A 
ATOM     42  C   UNL A   1      41.429  26.255  27.900  1.00  0.00     0.010 A 
ATOM     43  C   UNL A   1      41.840  27.563  28.219  1.00  0.00    -0.014 A 
BRANCH  43  44
ATOM     44  C   UNL A   1      41.386  28.171  29.491  1.00  0.00     0.031 A 
ATOM     45  C   UNL A   1      40.180  29.069  29.439  1.00  0.00     0.074 A 
ATOM     46  C   UNL A   1      42.019  27.955  30.656  1.00  0.00     0.049 A 
ATOM     47  N   UNL A   1      39.668  29.833  30.369  1.00  0.00    -0.248 NA
ATOM     48  C   UNL A   1      39.457  29.115  28.154  1.00  0.00     0.031 C 
ATOM     49  C   UNL A   1      43.148  27.051  30.859  1.00  0.00     0.029 A 
ATOM     50  N   UNL A   1      41.801  28.511  31.893  1.00  0.00    -0.354 N 
ATOM     51  C   UNL A   1      38.579  30.462  29.777  1.00  0.00     0.074 A 
ATOM     52  C   UNL A   1      38.507  30.000  28.409  1.00  0.00     0.031 C 
ATOM     53  C   UNL A   1      43.542  27.132  32.144  1.00  0.00     0.029 A 
ATOM     54  C   UNL A   1      42.723  28.126  32.836  1.00  0.00     0.049 A 
ATOM     55  H   UNL A   1      41.056  29.125  32.086  1.00  0.00     0.167 HD
ATOM     56  C   UNL A   1      37.721  31.355  30.319  1.00  0.00     0.031 A 
ATOM     57  C   UNL A   1      42.903  28.560  34.100  1.00  0.00     0.031 A 
ATOM     58  C   UNL A   1      37.806  31.835  31.668  1.00  0.00     0.049 A 
ATOM     59  C   UNL A   1      41.996  29.628  34.654  1.00  0.00     0.074 A 
ATOM     60  C   UNL A   1      36.991  32.749  32.311  1.00  0.00     0.029 A 
ATOM     61  N   UNL A   1      38.772  31.442  32.581  1.00  0.00    -0.354 N 
ATOM     62  N   UNL A   1      40.972  30.224  34.087  1.00  0.00    -0.248 NA
ATOM     63  C   UNL A   1      42.270  30.087  36.024  1.00  0.00     0.031 C 
ATOM     64  C   UNL A   1      37.495  32.946  33.601  1.00  0.00     0.029 A 
ATOM     65  C   UNL A   1      38.586  32.109  33.777  1.00  0.00     0.049 A 
ATOM     66  H   UNL A   1      39.483  30.785  32.403  1.00  0.00     0.167 HD
ATOM     67  C   UNL A   1      40.463  31.097  35.041  1.00  0.00     0.074 A 
ATOM     68  C   UNL A   1      41.285  30.953  36.224  1.00  0.00     0.031 C 
ATOM     69  C   UNL A   1      39.405  31.939  34.949  1.00  0.00     0.031 A 
BRANCH  56  70
ATOM     70  C   UNL A   1      36.650  31.907  29.424  1.00  0.00    -0.014 A 
ATOM     71  C   UNL A   1      36.780  33.169  28.821  1.00  0.00     0.009 A 
ATOM     72  C   UNL A   1      35.496  31.149  29.176  1.00  0.00     0.009 A 
ATOM     73  C   UNL A   1      35.759  33.672  28.012  1.00  0.00     0.001 A 
ATOM     74  C   UNL A   1      34.489  31.644  28.346  1.00  0.00     0.001 A 
ATOM     75  C   UNL A   1      34.617  32.908  27.772  1.00  0.00     0.000 A 
ENDBRANCH  56  70
BRANCH  57  76
ATOM     76  C   UNL A   1      44.016  28.020  34.924  1.00  0.00    -0.014 A 
ATOM     77  C   UNL A   1      43.854  26.833  35.658  1.00  0.00     0.009 A 
ATOM     78  C   UNL A   1      45.238  28.705  35.009  1.00  0.00     0.009 A 
ATOM     79  C   UNL A   1      44.882  26.360  36.475  1.00  0.00     0.001 A 
ATOM     80  C   UNL A   1      46.274  28.214  35.806  1.00  0.00     0.001 A 
ATOM     81  C   UNL A   1      46.093  27.048  36.546  1.00  0.00     0.000 A 
ENDBRANCH  57  76
BRANCH  69  82
ATOM     82  C   UNL A   1      39.030  32.726  36.173  1.00  0.00    -0.014 A 
ATOM     83  C   UNL A   1      38.156  32.207  37.139  1.00  0.00     0.009 A 
ATOM     84  C   UNL A   1      39.626  33.978  36.394  1.00  0.00     0.009 A 
ATOM     85  C   UNL A   1      37.868  32.939  38.292  1.00  0.00     0.001 A 
ATOM     86  C   UNL A   1      39.356  34.696  37.559  1.00  0.00     0.001 A 
ATOM     87  C   UNL A   1      38.473  34.178  38.505  1.00  0.00     0.000 A 
ENDBRANCH  69  82
ENDBRANCH  43  44
ENDBRANCH  36  38
ENDBRANCH  35  36
ENDBRANCH  34  35
ENDBRANCH  33  34
ENDBRANCH  32  33
ENDBRANCH  31  32
ENDBRANCH   1  31
TORSDOF 21
ENDMDL
MODEL 2
REMARK VINA RESULT:     -10.2      4.443      8.031
REMARK SMILES CC1(C)[C@H](C(=O)OCCOCCOCCOC(=O)c2ccc(-c3c4nc(c(-c5ccccc5)c5ccc([nH]5)c(-c5ccccc5)c5nc(c(-c6ccccc6)c6ccc3[nH]6)C=C5)C=C4)cc2)[C@@H]1C(=O)Nc1ccc(NC(=O)C2CCC2)cc1
REMARK SMILES IDX 11 1 10 2 9 3 8 4 7 5 5 6 6 7 4 8 1 9 2 10 3 11 67 12 68 13
REMARK SMILES IDX 69 14 70 15 71 17 72 18 83 19 73 20 82 21 74 22 75 23 76 24
REMARK SMILES IDX 77 26 78 27 79 28 81 29 80 30 12 31 13 32 14 33 15 34 16 35
REMARK SMILES IDX 17 36 18 37 19 38 20 39 66 40 21 41 65 42 22 43 23 44 24 45
REMARK SMILES IDX 59 46 25 47 64 48 58 49 60 50 26 51 63 52 57 53 56 54 27 56
REMARK SMILES IDX 49 57 34 58 48 59 35 60 38 61 47 62 61 63 36 64 37 65 46 67
REMARK SMILES IDX 62 68 39 69 28 70 29 71 33 72 30 73 32 74 31 75 50 76 51 77
REMARK SMILES IDX 55 78 52 79 54 80 53 81 40 82 41 83 45 84 42 85 44 86 43 87
REMARK H PARENT 70 16 75 25 60 55 38 66
REMARK Flexibility Score: inf
ROOT
ATOM      1  C   UNL A   1      39.081  23.267  26.441  1.00  0.00     0.188 C 
ENDROOT
BRANCH   1   2
ATOM      2  O   UNL A   1      37.817  22.710  26.123  1.00  0.00    -0.376 OA
BRANCH   2   3
ATOM      3  C   UNL A   1      37.772  21.772  25.058  1.00  0.00     0.202 C 
BRANCH   3   4
ATOM      4  C   UNL A   1      36.722  20.665  25.212  1.00  0.00     0.261 C 
BRANCH   4   5
ATOM      5  O   UNL A   1      35.456  20.746  24.515  1.00  0.00    -0.463 OA
BRANCH   5   6
ATOM      6  C   UNL A   1      34.282  20.939  25.159  1.00  0.00     0.310 C 
ATOM      7  O   UNL A   1      33.574  20.075  25.630  1.00  0.00    -0.252 OA
BRANCH   6   8
ATOM      8  C   UNL A   1      33.924  22.351  25.420  1.00  0.00     0.118 C 
ATOM      9  C   UNL A   1      34.774  24.758  25.419  1.00  0.00     0.013 C 
ATOM     10  C   UNL A   1      34.301  23.570  24.610  1.00  0.00    -0.009 C 
ATOM     11  C   UNL A   1      35.033  23.446  23.291  1.00  0.00     0.013 C 
ATOM     12  C   UNL A   1      32.825  23.127  24.744  1.00  0.00     0.100 C 
BRANCH  12  13
ATOM     13  C   UNL A   1      32.064  22.779  23.521  1.00  0.00     0.228 C 
ATOM     14  O   UNL A   1      32.007  21.602  23.172  1.00  0.00    -0.274 OA
ATOM     15  N   UNL A   1      31.417  23.721  22.760  1.00  0.00    -0.326 N 
ATOM     16  H   UNL A   1      31.029  23.387  21.919  1.00  0.00     0.169 HD
BRANCH  15  17
ATOM     17  C   UNL A   1      31.231  25.081  23.002  1.00  0.00     0.041 A 
ATOM     18  C   UNL A   1      30.151  25.395  23.814  1.00  0.00     0.028 A 
ATOM     19  C   UNL A   1      32.088  26.093  22.583  1.00  0.00     0.028 A 
ATOM     20  C   UNL A   1      30.045  26.668  24.370  1.00  0.00     0.028 A 
ATOM     21  C   UNL A   1      31.903  27.401  23.073  1.00  0.00     0.028 A 
ATOM     22  C   UNL A   1      30.919  27.685  24.039  1.00  0.00     0.041 A 
BRANCH  22  23
ATOM     23  N   UNL A   1      30.946  28.951  24.641  1.00  0.00    -0.326 N 
ATOM     24  C   UNL A   1      31.839  29.736  25.339  1.00  0.00     0.227 C 
ATOM     25  H   UNL A   1      30.081  29.410  24.536  1.00  0.00     0.169 HD
ATOM     26  O   UNL A   1      31.374  30.861  25.625  1.00  0.00    -0.274 OA
BRANCH  24  27
ATOM     27  C   UNL A   1      33.296  29.428  25.733  1.00  0.00     0.079 C 
ATOM     28  C   UNL A   1      33.696  30.042  27.128  1.00  0.00     0.013 C 
ATOM     29  C   UNL A   1      33.882  28.116  26.309  1.00  0.00     0.013 C 
ATOM     30  C   UNL A   1      34.761  28.949  27.245  1.00  0.00     0.002 C 
ENDBRANCH  24  27
ENDBRANCH  22  23
ENDBRANCH  15  17
ENDBRANCH  12  13
ENDBRANCH   6   8
ENDBRANCH   5   6
ENDBRANCH   4   5
ENDBRANCH   3   4
ENDBRANCH   2   3
ENDBRANCH   1   2
BRANCH   1  31
ATOM     31  C   UNL A   1      40.079  22.273  27.061  1.00  0.00     0.188 C 
BRANCH  31  32
ATOM     32  O   UNL A   1      40.793  21.368  26.229  1.00  0.00    -0.376 OA
BRANCH  32  33
ATOM     33  C   UNL A   1      40.864  20.001  26.603  1.00  0.00     0.202 C 
BRANCH  33  34
ATOM     34  C   UNL A   1      42.179  19.260  26.331  1.00  0.00     0.261 C 
BRANCH  34  35
ATOM     35  O   UNL A   1      42.688  19.430  24.998  1.00  0.00    -0.460 OA
BRANCH  35  36
ATOM     36  C   UNL A   1      44.038  19.473  24.887  1.00  0.00     0.338 C 
ATOM     37  O   UNL A   1      44.783  18.558  24.584  1.00  0.00    -0.246 OA
BRANCH  36  38
ATOM     38  C   UNL A   1      44.500  20.877  24.999  1.00  0.00     0.060 A 
ATOM     39  C   UNL A   1      45.257  21.238  26.125  1.00  0.00     0.016 A 
ATOM     40  C   UNL A   1      44.164  21.833  24.040  1.00  0.00     0.016 A 
ATOM     41  C   UNL A   1      45.647  22.562  26.319  1.00  0.00     0.010 A 
ATOM     42  C   UNL A   1      44.518  23.168  24.256  1.00  0.00     0.010 A 
ATOM     43  C   UNL A   1      45.223  23.542  25.415  1.00  0.00    -0.014 A 
BRANCH  43  44
ATOM     44  C   UNL A   1      45.249  24.968  25.815  1.00  0.00     0.031 A 
ATOM     45  C   UNL A   1      46.570  25.685  25.742  1.00  0.00     0.074 A 
ATOM     46  C   UNL A   1      44.151  25.614  26.244  1.00  0.00     0.049 A 
ATOM     47  N   UNL A   1      46.895  26.879  26.166  1.00  0.00    -0.248 NA
ATOM     48  C   UNL A   1      47.677  24.947  25.107  1.00  0.00     0.031 C 
ATOM     49  C   UNL A   1      42.800  25.061  26.291  1.00  0.00     0.029 A 
ATOM     50  N   UNL A   1      44.016  26.885  26.745  1.00  0.00    -0.354 N 
ATOM     51  C   UNL A   1      48.245  27.025  25.868  1.00  0.00     0.074 A 
ATOM     52  C   UNL A   1      48.680  25.800  25.235  1.00  0.00     0.031 C 
ATOM     53  C   UNL A   1      41.974  25.983  26.818  1.00  0.00     0.029 A 
ATOM     54  C   UNL A   1      42.747  27.168  27.186  1.00  0.00     0.049 A 
ATOM     55  H   UNL A   1      44.758  27.532  26.783  1.00  0.00     0.167 HD
ATOM     56  C   UNL A   1      49.055  28.080  26.108  1.00  0.00     0.031 A 
ATOM     57  C   UNL A   1      42.278  28.246  27.846  1.00  0.00     0.031 A 
ATOM     58  C   UNL A   1      48.631  29.287  26.759  1.00  0.00     0.049 A 
ATOM     59  C   UNL A   1      43.220  29.371  28.192  1.00  0.00     0.074 A 
ATOM     60  C   UNL A   1      49.377  30.412  27.061  1.00  0.00     0.029 A 
ATOM     61  N   UNL A   1      47.344  29.520  27.217  1.00  0.00    -0.354 N 
ATOM     62  N   UNL A   1      44.496  29.500  27.913  1.00  0.00    -0.248 NA
ATOM     63  C   UNL A   1      42.656  30.500  28.949  1.00  0.00     0.031 C 
ATOM     64  C   UNL A   1      48.551  31.309  27.745  1.00  0.00     0.029 A 
ATOM     65  C   UNL A   1      47.278  30.765  27.816  1.00  0.00     0.049 A 
ATOM     66  H   UNL A   1      46.590  28.894  27.127  1.00  0.00     0.167 HD
ATOM     67  C   UNL A   1      44.875  30.735  28.427  1.00  0.00     0.074 A 
ATOM     68  C   UNL A   1      43.697  31.318  29.031  1.00  0.00     0.031 C 
ATOM     69  C   UNL A   1      46.090  31.335  28.396  1.00  0.00     0.031 A 
BRANCH  56  70
ATOM     70  C   UNL A   1      50.496  27.944  25.710  1.00  0.00    -0.014 A 
ATOM     71  C   UNL A   1      50.918  28.206  24.396  1.00  0.00     0.009 A 
ATOM     72  C   UNL A   1      51.444  27.554  26.666  1.00  0.00     0.009 A 
ATOM     73  C   UNL A   1      52.260  28.049  24.044  1.00  0.00     0.001 A 
ATOM     74  C   UNL A   1      52.789  27.423  26.317  1.00  0.00     0.001 A 
ATOM     75  C   UNL A   1      53.194  27.662  25.005  1.00  0.00     0.000 A 
ENDBRANCH  56  70
BRANCH  57  76
ATOM     76  C   UNL A   1      40.854  28.304  28.268  1.00  0.00    -0.014 A 
ATOM     77  C   UNL A   1      40.433  27.684  29.456  1.00  0.00     0.009 A 
ATOM     78  C   UNL A   1      39.900  28.952  27.469  1.00  0.00     0.009 A 
ATOM     79  C   UNL A   1      39.084  27.692  29.819  1.00  0.00     0.001 A 
ATOM     80  C   UNL A   1      38.556  28.983  27.850  1.00  0.00     0.001 A 
ATOM     81  C   UNL A   1      38.148  28.345  29.019  1.00  0.00     0.000 A 
ENDBRANCH  57  76
BRANCH  69  82
ATOM     82  C   UNL A   1      46.201  32.718  28.973  1.00  0.00    -0.014 A 
ATOM     83  C   UNL A   1      46.477  32.925  30.332  1.00  0.00     0.009 A 
ATOM     84  C   UNL A   1      46.100  33.829  28.120  1.00  0.00     0.009 A 
ATOM     85  C   UNL A   1      46.628  34.221  30.830  1.00  0.00     0.001 A 
ATOM     86  C   UNL A   1      46.276  35.122  28.615  1.00  0.00     0.001 A 
ATOM     87  C   UNL A   1      46.534  35.316  29.970  1.00  0.00     0.000 A 
ENDBRANCH  69  82
ENDBRANCH  43  44
ENDBRANCH  36  38
ENDBRANCH  35  36
ENDBRANCH  34  35
ENDBRANCH  33  34
ENDBRANCH  32  33
ENDBRANCH  31  32
ENDBRANCH   1  31
TORSDOF 21
ENDMDL
MODEL 3
REMARK VINA RESULT:      -9.1      6.809      9.336
REMARK SMILES CC1(C)[C@H](C(=O)OCCOCCOCCOC(=O)c2ccc(-c3c4nc(c(-c5ccccc5)c5ccc([nH]5)c(-c5ccccc5)c5nc(c(-c6ccccc6)c6ccc3[nH]6)C=C5)C=C4)cc2)[C@@H]1C(=O)Nc1ccc(NC(=O)C2CCC2)cc1
REMARK SMILES IDX 11 1 10 2 9 3 8 4 7 5 5 6 6 7 4 8 1 9 2 10 3 11 67 12 68 13
REMARK SMILES IDX 69 14 70 15 71 17 72 18 83 19 73 20 82 21 74 22 75 23 76 24
REMARK SMILES IDX 77 26 78 27 79 28 81 29 80 30 12 31 13 32 14 33 15 34 16 35
REMARK SMILES IDX 17 36 18 37 19 38 20 39 66 40 21 41 65 42 22 43 23 44 24 45
REMARK SMILES IDX 59 46 25 47 64 48 58 49 60 50 26 51 63 52 57 53 56 54 27 56
REMARK SMILES IDX 49 57 34 58 48 59 35 60 38 61 47 62 61 63 36 64 37 65 46 67
REMARK SMILES IDX 62 68 39 69 28 70 29 71 33 72 30 73 32 74 31 75 50 76 51 77
REMARK SMILES IDX 55 78 52 79 54 80 53 81 40 82 41 83 45 84 42 85 44 86 43 87
REMARK H PARENT 70 16 75 25 60 55 38 66
REMARK Flexibility Score: inf
ROOT
ATOM      1  C   UNL A   1      39.129  21.637  26.210  1.00  0.00     0.188 C 
ENDROOT
BRANCH   1   2
ATOM      2  O   UNL A   1      37.963  21.992  25.485  1.00  0.00    -0.376 OA
BRANCH   2   3
ATOM      3  C   UNL A   1      37.468  21.044  24.551  1.00  0.00     0.202 C 
BRANCH   3   4
ATOM      4  C   UNL A   1      36.174  20.335  24.970  1.00  0.00     0.261 C 
BRANCH   4   5
ATOM      5  O   UNL A   1      34.887  20.819  24.517  1.00  0.00    -0.463 OA
BRANCH   5   6
ATOM      6  C   UNL A   1      33.864  21.070  25.365  1.00  0.00     0.310 C 
ATOM      7  O   UNL A   1      33.274  20.250  26.036  1.00  0.00    -0.252 OA
BRANCH   6   8
ATOM      8  C   UNL A   1      33.552  22.500  25.580  1.00  0.00     0.118 C 
ATOM      9  C   UNL A   1      34.513  24.863  25.646  1.00  0.00     0.013 C 
ATOM     10  C   UNL A   1      34.064  23.690  24.803  1.00  0.00    -0.009 C 
ATOM     11  C   UNL A   1      34.914  23.516  23.563  1.00  0.00     0.013 C 
ATOM     12  C   UNL A   1      32.562  23.319  24.795  1.00  0.00     0.100 C 
BRANCH  12  13
ATOM     13  C   UNL A   1      31.907  22.994  23.505  1.00  0.00     0.228 C 
ATOM     14  O   UNL A   1      31.868  21.821  23.140  1.00  0.00    -0.274 OA
ATOM     15  N   UNL A   1      31.343  23.951  22.701  1.00  0.00    -0.326 N 
ATOM     16  H   UNL A   1      31.025  23.631  21.826  1.00  0.00     0.169 HD
BRANCH  15  17
ATOM     17  C   UNL A   1      31.152  25.311  22.940  1.00  0.00     0.041 A 
ATOM     18  C   UNL A   1      30.041  25.627  23.709  1.00  0.00     0.028 A 
ATOM     19  C   UNL A   1      32.030  26.321  22.562  1.00  0.00     0.028 A 
ATOM     20  C   UNL A   1      29.918  26.898  24.265  1.00  0.00     0.028 A 
ATOM     21  C   UNL A   1      31.831  27.628  23.049  1.00  0.00     0.028 A 
ATOM     22  C   UNL A   1      30.809  27.912  23.974  1.00  0.00     0.041 A 
BRANCH  22  23
ATOM     23  N   UNL A   1      30.817  29.176  24.582  1.00  0.00    -0.326 N 
ATOM     24  C   UNL A   1      31.673  29.942  25.344  1.00  0.00     0.227 C 
ATOM     25  H   UNL A   1      29.971  29.651  24.418  1.00  0.00     0.169 HD
ATOM     26  O   UNL A   1      31.211  31.075  25.601  1.00  0.00    -0.274 OA
BRANCH  24  27
ATOM     27  C   UNL A   1      33.093  29.606  25.839  1.00  0.00     0.079 C 
ATOM     28  C   UNL A   1      33.435  30.280  27.221  1.00  0.00     0.013 C 
ATOM     29  C   UNL A   1      33.595  28.308  26.516  1.00  0.00     0.013 C 
ATOM     30  C   UNL A   1      34.450  29.159  27.458  1.00  0.00     0.002 C 
ENDBRANCH  24  27
ENDBRANCH  22  23
ENDBRANCH  15  17
ENDBRANCH  12  13
ENDBRANCH   6   8
ENDBRANCH   5   6
ENDBRANCH   4   5
ENDBRANCH   3   4
ENDBRANCH   2   3
ENDBRANCH   1   2
BRANCH   1  31
ATOM     31  C   UNL A   1      39.729  22.779  27.050  1.00  0.00     0.188 C 
BRANCH  31  32
ATOM     32  O   UNL A   1      40.888  22.550  27.840  1.00  0.00    -0.376 OA
BRANCH  32  33
ATOM     33  C   UNL A   1      42.066  22.072  27.209  1.00  0.00     0.202 C 
BRANCH  33  34
ATOM     34  C   UNL A   1      43.357  22.869  27.426  1.00  0.00     0.261 C 
BRANCH  34  35
ATOM     35  O   UNL A   1      44.042  23.227  26.215  1.00  0.00    -0.460 OA
BRANCH  35  36
ATOM     36  C   UNL A   1      45.393  23.303  26.305  1.00  0.00     0.338 C 
ATOM     37  O   UNL A   1      46.195  22.398  26.161  1.00  0.00    -0.246 OA
BRANCH  36  38
ATOM     38  C   UNL A   1      45.801  24.724  26.417  1.00  0.00     0.060 A 
ATOM     39  C   UNL A   1      45.819  25.503  25.249  1.00  0.00     0.016 A 
ATOM     40  C   UNL A   1      46.199  25.274  27.636  1.00  0.00     0.016 A 
ATOM     41  C   UNL A   1      46.272  26.821  25.286  1.00  0.00     0.010 A 
ATOM     42  C   UNL A   1      46.693  26.581  27.666  1.00  0.00     0.010 A 
ATOM     43  C   UNL A   1      46.770  27.342  26.485  1.00  0.00    -0.014 A 
BRANCH  43  44
ATOM     44  C   UNL A   1      47.633  28.546  26.458  1.00  0.00     0.031 A 
ATOM     45  C   UNL A   1      46.955  29.887  26.535  1.00  0.00     0.074 A 
ATOM     46  C   UNL A   1      48.971  28.468  26.354  1.00  0.00     0.049 A 
ATOM     47  N   UNL A   1      47.458  31.085  26.387  1.00  0.00    -0.248 NA
ATOM     48  C   UNL A   1      45.507  29.870  26.812  1.00  0.00     0.031 C 
ATOM     49  C   UNL A   1      49.755  27.237  26.347  1.00  0.00     0.029 A 
ATOM     50  N   UNL A   1      49.902  29.467  26.212  1.00  0.00    -0.354 N 
ATOM     51  C   UNL A   1      46.388  31.959  26.532  1.00  0.00     0.074 A 
ATOM     52  C   UNL A   1      45.208  31.158  26.772  1.00  0.00     0.031 C 
ATOM     53  C   UNL A   1      51.054  27.552  26.183  1.00  0.00     0.029 A 
ATOM     54  C   UNL A   1      51.181  29.000  26.028  1.00  0.00     0.049 A 
ATOM     55  H   UNL A   1      49.676  30.425  26.241  1.00  0.00     0.167 HD
ATOM     56  C   UNL A   1      46.382  33.309  26.461  1.00  0.00     0.031 A 
ATOM     57  C   UNL A   1      52.313  29.668  25.728  1.00  0.00     0.031 A 
ATOM     58  C   UNL A   1      47.547  34.106  26.197  1.00  0.00     0.049 A 
ATOM     59  C   UNL A   1      52.268  31.165  25.556  1.00  0.00     0.074 A 
ATOM     60  C   UNL A   1      47.646  35.481  26.094  1.00  0.00     0.029 A 
ATOM     61  N   UNL A   1      48.817  33.591  25.987  1.00  0.00    -0.354 N 
ATOM     62  N   UNL A   1      51.251  31.985  25.688  1.00  0.00    -0.248 NA
ATOM     63  C   UNL A   1      53.528  31.830  25.190  1.00  0.00     0.031 C 
ATOM     64  C   UNL A   1      48.970  35.797  25.773  1.00  0.00     0.029 A 
ATOM     65  C   UNL A   1      49.704  34.621  25.735  1.00  0.00     0.049 A 
ATOM     66  H   UNL A   1      49.051  32.635  26.014  1.00  0.00     0.167 HD
ATOM     67  C   UNL A   1      51.757  33.259  25.458  1.00  0.00     0.074 A 
ATOM     68  C   UNL A   1      53.169  33.107  25.181  1.00  0.00     0.031 C 
ATOM     69  C   UNL A   1      51.110  34.450  25.479  1.00  0.00     0.031 A 
BRANCH  56  70
ATOM     70  C   UNL A   1      45.059  34.000  26.619  1.00  0.00    -0.014 A 
ATOM     71  C   UNL A   1      44.549  34.320  27.888  1.00  0.00     0.009 A 
ATOM     72  C   UNL A   1      44.315  34.339  25.479  1.00  0.00     0.009 A 
ATOM     73  C   UNL A   1      43.304  34.940  28.010  1.00  0.00     0.001 A 
ATOM     74  C   UNL A   1      43.083  34.983  25.604  1.00  0.00     0.001 A 
ATOM     75  C   UNL A   1      42.574  35.274  26.869  1.00  0.00     0.000 A 
ENDBRANCH  56  70
BRANCH  57  76
ATOM     76  C   UNL A   1      53.587  28.929  25.526  1.00  0.00    -0.014 A 
ATOM     77  C   UNL A   1      53.909  28.387  24.271  1.00  0.00     0.009 A 
ATOM     78  C   UNL A   1      54.474  28.731  26.595  1.00  0.00     0.009 A 
ATOM     79  C   UNL A   1      55.079  27.645  24.100  1.00  0.00     0.001 A 
ATOM     80  C   UNL A   1      55.657  28.012  26.414  1.00  0.00     0.001 A 
ATOM     81  C   UNL A   1      55.955  27.461  25.169  1.00  0.00     0.000 A 
ENDBRANCH  57  76
BRANCH  69  82
ATOM     82  C   UNL A   1      51.927  35.692  25.260  1.00  0.00    -0.014 A 
ATOM     83  C   UNL A   1      52.176  36.188  23.972  1.00  0.00     0.009 A 
ATOM     84  C   UNL A   1      52.389  36.416  26.371  1.00  0.00     0.009 A 
ATOM     85  C   UNL A   1      52.893  37.374  23.802  1.00  0.00     0.001 A 
ATOM     86  C   UNL A   1      53.083  37.614  26.199  1.00  0.00     0.001 A 
ATOM     87  C   UNL A   1      53.339  38.089  24.914  1.00  0.00     0.000 A 
ENDBRANCH  69  82
ENDBRANCH  43  44
ENDBRANCH  36  38
ENDBRANCH  35  36
ENDBRANCH  34  35
ENDBRANCH  33  34
ENDBRANCH  32  33
ENDBRANCH  31  32
ENDBRANCH   1  31
TORSDOF 21
ENDMDL
