MODEL 1
REMARK VINA RESULT:      -8.9      0.000      0.000
REMARK SMILES CC[C@@](O)(C(=O)OCCOCCOCCOC(=O)c1ccc(-c2c3nc(c(-c4ccccc4)c4ccc([nH]4)c(-c4ccccc4)c4nc(c(-c5ccccc5)c5ccc2[nH]5)C=C4)C=C3)cc1)[C@@H](C)c1ccc(OC(C)C)cc1
REMARK SMILES IDX 11 1 10 2 9 3 8 4 7 5 5 6 6 7 3 8 2 9 1 10 4 11 67 13 68 14
REMARK SMILES IDX 69 15 70 16 78 17 71 18 77 19 72 20 73 21 74 22 75 23 76 24
REMARK SMILES IDX 12 25 13 26 14 27 15 28 16 29 17 30 18 31 19 32 20 33 66 34
REMARK SMILES IDX 21 35 65 36 22 37 23 38 24 39 59 40 25 41 64 42 58 43 60 44
REMARK SMILES IDX 26 45 63 46 57 47 56 48 27 50 49 51 34 52 48 53 35 54 38 55
REMARK SMILES IDX 47 56 61 57 36 58 37 59 46 61 62 62 39 63 28 64 29 65 33 66
REMARK SMILES IDX 30 67 32 68 31 69 50 70 51 71 55 72 52 73 54 74 53 75 40 76
REMARK SMILES IDX 41 77 45 78 42 79 44 80 43 81
REMARK H PARENT 4 12 60 49 38 60
REMARK Flexibility Score: inf
ROOT
ATOM      1  C   UNL A   1      34.389  28.700  26.726  1.00  0.00     0.188 C 
ENDROOT
BRANCH   1   2
ATOM      2  O   UNL A   1      34.105  28.432  25.365  1.00  0.00    -0.376 OA
BRANCH   2   3
ATOM      3  C   UNL A   1      33.309  27.293  25.050  1.00  0.00     0.202 C 
BRANCH   3   4
ATOM      4  C   UNL A   1      33.259  26.091  26.014  1.00  0.00     0.261 C 
BRANCH   4   5
ATOM      5  O   UNL A   1      34.289  25.092  25.831  1.00  0.00    -0.461 OA
BRANCH   5   6
ATOM      6  C   UNL A   1      33.881  23.789  25.817  1.00  0.00     0.338 C 
ATOM      7  O   UNL A   1      32.977  23.367  26.535  1.00  0.00    -0.249 OA
BRANCH   6   8
ATOM      8  C   UNL A   1      34.639  22.867  24.801  1.00  0.00     0.168 C 
BRANCH   8   9
ATOM      9  C   UNL A   1      35.988  23.416  24.247  1.00  0.00     0.044 C 
ATOM     10  C   UNL A   1      36.607  22.739  23.020  1.00  0.00     0.007 C 
ENDBRANCH   8   9
BRANCH   8  11
ATOM     11  O   UNL A   1      34.957  21.722  25.632  1.00  0.00    -0.378 OA
ATOM     12  H   UNL A   1      34.427  21.756  26.445  1.00  0.00     0.212 HD
ENDBRANCH   8  11
BRANCH   8  13
ATOM     13  C   UNL A   1      33.568  22.452  23.707  1.00  0.00     0.059 C 
ATOM     14  C   UNL A   1      32.696  21.239  24.085  1.00  0.00     0.016 C 
BRANCH  13  15
ATOM     15  C   UNL A   1      32.700  23.608  23.237  1.00  0.00    -0.041 A 
ATOM     16  C   UNL A   1      33.237  24.553  22.354  1.00  0.00     0.008 A 
ATOM     17  C   UNL A   1      31.386  23.785  23.684  1.00  0.00     0.008 A 
ATOM     18  C   UNL A   1      32.508  25.690  22.009  1.00  0.00     0.047 A 
ATOM     19  C   UNL A   1      30.660  24.922  23.327  1.00  0.00     0.047 A 
ATOM     20  C   UNL A   1      31.224  25.898  22.516  1.00  0.00     0.119 A 
BRANCH  20  21
ATOM     21  O   UNL A   1      30.665  27.081  22.145  1.00  0.00    -0.491 OA
BRANCH  21  22
ATOM     22  C   UNL A   1      30.080  27.989  23.084  1.00  0.00     0.167 C 
ATOM     23  C   UNL A   1      30.850  29.301  23.205  1.00  0.00     0.052 C 
ATOM     24  C   UNL A   1      28.565  28.133  22.947  1.00  0.00     0.052 C 
ENDBRANCH  21  22
ENDBRANCH  20  21
ENDBRANCH  13  15
ENDBRANCH   8  13
ENDBRANCH   6   8
ENDBRANCH   5   6
ENDBRANCH   4   5
ENDBRANCH   3   4
ENDBRANCH   2   3
ENDBRANCH   1   2
BRANCH   1  25
ATOM     25  C   UNL A   1      34.223  30.134  27.237  1.00  0.00     0.188 C 
BRANCH  25  26
ATOM     26  O   UNL A   1      32.934  30.512  27.637  1.00  0.00    -0.376 OA
BRANCH  26  27
ATOM     27  C   UNL A   1      32.146  31.347  26.812  1.00  0.00     0.202 C 
BRANCH  27  28
ATOM     28  C   UNL A   1      31.660  32.756  27.201  1.00  0.00     0.261 C 
BRANCH  28  29
ATOM     29  O   UNL A   1      32.623  33.816  27.270  1.00  0.00    -0.460 OA
BRANCH  29  30
ATOM     30  C   UNL A   1      33.023  34.212  28.500  1.00  0.00     0.338 C 
ATOM     31  O   UNL A   1      32.368  34.833  29.323  1.00  0.00    -0.246 OA
BRANCH  30  32
ATOM     32  C   UNL A   1      34.323  33.563  28.785  1.00  0.00     0.060 A 
ATOM     33  C   UNL A   1      34.450  32.788  29.948  1.00  0.00     0.016 A 
ATOM     34  C   UNL A   1      35.406  33.703  27.915  1.00  0.00     0.016 A 
ATOM     35  C   UNL A   1      35.664  32.164  30.251  1.00  0.00     0.010 A 
ATOM     36  C   UNL A   1      36.630  33.103  28.235  1.00  0.00     0.010 A 
ATOM     37  C   UNL A   1      36.773  32.351  29.417  1.00  0.00    -0.014 A 
BRANCH  37  38
ATOM     38  C   UNL A   1      38.124  31.930  29.869  1.00  0.00     0.031 A 
ATOM     39  C   UNL A   1      38.654  30.603  29.399  1.00  0.00     0.074 A 
ATOM     40  C   UNL A   1      38.881  32.701  30.671  1.00  0.00     0.049 A 
ATOM     41  N   UNL A   1      39.764  29.988  29.722  1.00  0.00    -0.248 NA
ATOM     42  C   UNL A   1      37.818  29.874  28.432  1.00  0.00     0.031 C 
ATOM     43  C   UNL A   1      38.529  34.037  31.147  1.00  0.00     0.029 A 
ATOM     44  N   UNL A   1      40.110  32.454  31.234  1.00  0.00    -0.354 N 
ATOM     45  C   UNL A   1      39.754  28.798  29.005  1.00  0.00     0.074 A 
ATOM     46  C   UNL A   1      38.520  28.766  28.250  1.00  0.00     0.031 C 
ATOM     47  C   UNL A   1      39.514  34.485  31.947  1.00  0.00     0.029 A 
ATOM     48  C   UNL A   1      40.543  33.452  32.072  1.00  0.00     0.049 A 
ATOM     49  H   UNL A   1      40.630  31.638  31.054  1.00  0.00     0.167 HD
ATOM     50  C   UNL A   1      40.687  27.816  28.974  1.00  0.00     0.031 A 
ATOM     51  C   UNL A   1      41.627  33.513  32.873  1.00  0.00     0.031 A 
ATOM     52  C   UNL A   1      41.902  27.822  29.744  1.00  0.00     0.049 A 
ATOM     53  C   UNL A   1      42.594  32.355  32.911  1.00  0.00     0.074 A 
ATOM     54  C   UNL A   1      42.902  26.867  29.784  1.00  0.00     0.029 A 
ATOM     55  N   UNL A   1      42.275  28.828  30.620  1.00  0.00    -0.354 N 
ATOM     56  N   UNL A   1      42.582  31.239  32.224  1.00  0.00    -0.248 NA
ATOM     57  C   UNL A   1      43.731  32.472  33.839  1.00  0.00     0.031 C 
ATOM     58  C   UNL A   1      43.848  27.263  30.733  1.00  0.00     0.029 A 
ATOM     59  C   UNL A   1      43.476  28.502  31.229  1.00  0.00     0.049 A 
ATOM     60  H   UNL A   1      41.764  29.653  30.787  1.00  0.00     0.167 HD
ATOM     61  C   UNL A   1      43.721  30.540  32.610  1.00  0.00     0.074 A 
ATOM     62  C   UNL A   1      44.409  31.362  33.581  1.00  0.00     0.031 C 
ATOM     63  C   UNL A   1      44.159  29.326  32.194  1.00  0.00     0.031 A 
BRANCH  50  64
ATOM     64  C   UNL A   1      40.397  26.621  28.108  1.00  0.00    -0.014 A 
ATOM     65  C   UNL A   1      39.616  25.552  28.574  1.00  0.00     0.009 A 
ATOM     66  C   UNL A   1      40.900  26.577  26.798  1.00  0.00     0.009 A 
ATOM     67  C   UNL A   1      39.376  24.445  27.756  1.00  0.00     0.001 A 
ATOM     68  C   UNL A   1      40.631  25.484  25.973  1.00  0.00     0.001 A 
ATOM     69  C   UNL A   1      39.880  24.414  26.456  1.00  0.00     0.000 A 
ENDBRANCH  50  64
BRANCH  51  70
ATOM     70  C   UNL A   1      41.847  34.697  33.749  1.00  0.00    -0.014 A 
ATOM     71  C   UNL A   1      42.616  35.785  33.309  1.00  0.00     0.009 A 
ATOM     72  C   UNL A   1      41.325  34.721  35.053  1.00  0.00     0.009 A 
ATOM     73  C   UNL A   1      42.883  36.857  34.165  1.00  0.00     0.001 A 
ATOM     74  C   UNL A   1      41.565  35.808  35.895  1.00  0.00     0.001 A 
ATOM     75  C   UNL A   1      42.354  36.870  35.454  1.00  0.00     0.000 A 
ENDBRANCH  51  70
BRANCH  63  76
ATOM     76  C   UNL A   1      45.469  28.827  32.743  1.00  0.00    -0.014 A 
ATOM     77  C   UNL A   1      45.526  27.992  33.869  1.00  0.00     0.009 A 
ATOM     78  C   UNL A   1      46.666  29.161  32.089  1.00  0.00     0.009 A 
ATOM     79  C   UNL A   1      46.756  27.530  34.347  1.00  0.00     0.001 A 
ATOM     80  C   UNL A   1      47.891  28.671  32.548  1.00  0.00     0.001 A 
ATOM     81  C   UNL A   1      47.935  27.864  33.682  1.00  0.00     0.000 A 
ENDBRANCH  63  76
ENDBRANCH  37  38
ENDBRANCH  30  32
ENDBRANCH  29  30
ENDBRANCH  28  29
ENDBRANCH  27  28
ENDBRANCH  26  27
ENDBRANCH  25  26
ENDBRANCH   1  25
TORSDOF 23
ENDMDL
MODEL 2
REMARK VINA RESULT:      -8.7      3.065      8.339
REMARK SMILES CC[C@@](O)(C(=O)OCCOCCOCCOC(=O)c1ccc(-c2c3nc(c(-c4ccccc4)c4ccc([nH]4)c(-c4ccccc4)c4nc(c(-c5ccccc5)c5ccc2[nH]5)C=C4)C=C3)cc1)[C@@H](C)c1ccc(OC(C)C)cc1
REMARK SMILES IDX 11 1 10 2 9 3 8 4 7 5 5 6 6 7 3 8 2 9 1 10 4 11 67 13 68 14
REMARK SMILES IDX 69 15 70 16 78 17 71 18 77 19 72 20 73 21 74 22 75 23 76 24
REMARK SMILES IDX 12 25 13 26 14 27 15 28 16 29 17 30 18 31 19 32 20 33 66 34
REMARK SMILES IDX 21 35 65 36 22 37 23 38 24 39 59 40 25 41 64 42 58 43 60 44
REMARK SMILES IDX 26 45 63 46 57 47 56 48 27 50 49 51 34 52 48 53 35 54 38 55
REMARK SMILES IDX 47 56 61 57 36 58 37 59 46 61 62 62 39 63 28 64 29 65 33 66
REMARK SMILES IDX 30 67 32 68 31 69 50 70 51 71 55 72 52 73 54 74 53 75 40 76
REMARK SMILES IDX 41 77 45 78 42 79 44 80 43 81
REMARK H PARENT 4 12 60 49 38 60
REMARK Flexibility Score: inf
ROOT
ATOM      1  C   UNL A   1      34.802  21.731  25.961  1.00  0.00     0.188 C 
ENDROOT
BRANCH   1   2
ATOM      2  O   UNL A   1      33.684  22.018  25.140  1.00  0.00    -0.376 OA
BRANCH   2   3
ATOM      3  C   UNL A   1      33.902  22.225  23.747  1.00  0.00     0.202 C 
BRANCH   3   4
ATOM      4  C   UNL A   1      34.078  23.653  23.192  1.00  0.00     0.261 C 
BRANCH   4   5
ATOM      5  O   UNL A   1      32.948  24.540  23.362  1.00  0.00    -0.461 OA
BRANCH   5   6
ATOM      6  C   UNL A   1      33.033  25.450  24.375  1.00  0.00     0.338 C 
ATOM      7  O   UNL A   1      33.781  26.424  24.335  1.00  0.00    -0.249 OA
BRANCH   6   8
ATOM      8  C   UNL A   1      32.089  25.173  25.597  1.00  0.00     0.168 C 
BRANCH   8   9
ATOM      9  C   UNL A   1      30.961  24.121  25.371  1.00  0.00     0.044 C 
ATOM     10  C   UNL A   1      30.468  23.306  26.570  1.00  0.00     0.007 C 
ENDBRANCH   8   9
BRANCH   8  11
ATOM     11  O   UNL A   1      33.016  24.602  26.554  1.00  0.00    -0.378 OA
ATOM     12  H   UNL A   1      32.771  24.884  27.449  1.00  0.00     0.212 HD
ENDBRANCH   8  11
BRANCH   8  13
ATOM     13  C   UNL A   1      31.606  26.596  26.105  1.00  0.00     0.059 C 
ATOM     14  C   UNL A   1      32.684  27.422  26.831  1.00  0.00     0.016 C 
BRANCH  13  15
ATOM     15  C   UNL A   1      30.931  27.429  25.027  1.00  0.00    -0.041 A 
ATOM     16  C   UNL A   1      29.885  26.870  24.283  1.00  0.00     0.008 A 
ATOM     17  C   UNL A   1      31.342  28.732  24.723  1.00  0.00     0.008 A 
ATOM     18  C   UNL A   1      29.336  27.563  23.205  1.00  0.00     0.047 A 
ATOM     19  C   UNL A   1      30.782  29.423  23.648  1.00  0.00     0.047 A 
ATOM     20  C   UNL A   1      29.799  28.834  22.862  1.00  0.00     0.119 A 
BRANCH  20  21
ATOM     21  O   UNL A   1      29.216  29.357  21.750  1.00  0.00    -0.491 OA
BRANCH  21  22
ATOM     22  C   UNL A   1      28.047  30.180  21.802  1.00  0.00     0.167 C 
ATOM     23  C   UNL A   1      27.630  30.536  23.227  1.00  0.00     0.052 C 
ATOM     24  C   UNL A   1      28.064  31.348  20.817  1.00  0.00     0.052 C 
ENDBRANCH  21  22
ENDBRANCH  20  21
ENDBRANCH  13  15
ENDBRANCH   8  13
ENDBRANCH   6   8
ENDBRANCH   5   6
ENDBRANCH   4   5
ENDBRANCH   3   4
ENDBRANCH   2   3
ENDBRANCH   1   2
BRANCH   1  25
ATOM     25  C   UNL A   1      36.202  22.037  25.421  1.00  0.00     0.188 C 
BRANCH  25  26
ATOM     26  O   UNL A   1      36.974  20.938  25.022  1.00  0.00    -0.376 OA
BRANCH  26  27
ATOM     27  C   UNL A   1      38.351  20.880  25.335  1.00  0.00     0.202 C 
BRANCH  27  28
ATOM     28  C   UNL A   1      39.224  19.615  25.215  1.00  0.00     0.261 C 
BRANCH  28  29
ATOM     29  O   UNL A   1      40.194  19.355  26.238  1.00  0.00    -0.460 OA
BRANCH  29  30
ATOM     30  C   UNL A   1      41.471  19.724  25.990  1.00  0.00     0.338 C 
ATOM     31  O   UNL A   1      42.275  19.157  25.267  1.00  0.00    -0.246 OA
BRANCH  30  32
ATOM     32  C   UNL A   1      41.672  21.075  26.564  1.00  0.00     0.060 A 
ATOM     33  C   UNL A   1      42.100  22.110  25.718  1.00  0.00     0.016 A 
ATOM     34  C   UNL A   1      41.432  21.329  27.915  1.00  0.00     0.016 A 
ATOM     35  C   UNL A   1      42.304  23.396  26.226  1.00  0.00     0.010 A 
ATOM     36  C   UNL A   1      41.666  22.609  28.429  1.00  0.00     0.010 A 
ATOM     37  C   UNL A   1      42.127  23.645  27.593  1.00  0.00    -0.014 A 
BRANCH  37  38
ATOM     38  C   UNL A   1      42.604  24.920  28.185  1.00  0.00     0.031 A 
ATOM     39  C   UNL A   1      41.601  26.012  28.436  1.00  0.00     0.074 A 
ATOM     40  C   UNL A   1      43.896  25.118  28.508  1.00  0.00     0.049 A 
ATOM     41  N   UNL A   1      41.789  27.234  28.867  1.00  0.00    -0.248 NA
ATOM     42  C   UNL A   1      40.194  25.676  28.166  1.00  0.00     0.031 C 
ATOM     43  C   UNL A   1      44.964  24.129  28.388  1.00  0.00     0.029 A 
ATOM     44  N   UNL A   1      44.524  26.238  29.001  1.00  0.00    -0.354 N 
ATOM     45  C   UNL A   1      40.527  27.814  28.911  1.00  0.00     0.074 A 
ATOM     46  C   UNL A   1      39.586  26.821  28.441  1.00  0.00     0.031 C 
ATOM     47  C   UNL A   1      46.123  24.693  28.778  1.00  0.00     0.029 A 
ATOM     48  C   UNL A   1      45.883  26.092  29.136  1.00  0.00     0.049 A 
ATOM     49  H   UNL A   1      44.044  27.065  29.233  1.00  0.00     0.167 HD
ATOM     50  C   UNL A   1      40.179  29.062  29.306  1.00  0.00     0.031 A 
ATOM     51  C   UNL A   1      46.828  26.991  29.476  1.00  0.00     0.031 A 
ATOM     52  C   UNL A   1      41.109  30.067  29.745  1.00  0.00     0.049 A 
ATOM     53  C   UNL A   1      46.430  28.410  29.800  1.00  0.00     0.074 A 
ATOM     54  C   UNL A   1      40.848  31.363  30.155  1.00  0.00     0.029 A 
ATOM     55  N   UNL A   1      42.482  29.895  29.815  1.00  0.00    -0.354 N 
ATOM     56  N   UNL A   1      45.235  28.947  29.848  1.00  0.00    -0.248 NA
ATOM     57  C   UNL A   1      47.518  29.347  30.121  1.00  0.00     0.031 C 
ATOM     58  C   UNL A   1      42.068  31.995  30.412  1.00  0.00     0.029 A 
ATOM     59  C   UNL A   1      43.084  31.070  30.233  1.00  0.00     0.049 A 
ATOM     60  H   UNL A   1      42.960  29.061  29.600  1.00  0.00     0.167 HD
ATOM     61  C   UNL A   1      45.426  30.269  30.236  1.00  0.00     0.074 A 
ATOM     62  C   UNL A   1      46.848  30.450  30.424  1.00  0.00     0.031 C 
ATOM     63  C   UNL A   1      44.502  31.245  30.423  1.00  0.00     0.031 A 
BRANCH  50  64
ATOM     64  C   UNL A   1      38.721  29.423  29.231  1.00  0.00    -0.014 A 
ATOM     65  C   UNL A   1      37.863  29.235  30.326  1.00  0.00     0.009 A 
ATOM     66  C   UNL A   1      38.205  29.978  28.049  1.00  0.00     0.009 A 
ATOM     67  C   UNL A   1      36.508  29.562  30.224  1.00  0.00     0.001 A 
ATOM     68  C   UNL A   1      36.858  30.333  27.962  1.00  0.00     0.001 A 
ATOM     69  C   UNL A   1      36.009  30.114  29.045  1.00  0.00     0.000 A 
ENDBRANCH  50  64
BRANCH  51  70
ATOM     70  C   UNL A   1      48.265  26.600  29.490  1.00  0.00    -0.014 A 
ATOM     71  C   UNL A   1      48.856  26.070  30.648  1.00  0.00     0.009 A 
ATOM     72  C   UNL A   1      49.066  26.800  28.354  1.00  0.00     0.009 A 
ATOM     73  C   UNL A   1      50.223  25.779  30.677  1.00  0.00     0.001 A 
ATOM     74  C   UNL A   1      50.424  26.476  28.375  1.00  0.00     0.001 A 
ATOM     75  C   UNL A   1      51.003  25.977  29.540  1.00  0.00     0.000 A 
ENDBRANCH  51  70
BRANCH  63  76
ATOM     76  C   UNL A   1      44.988  32.587  30.902  1.00  0.00    -0.014 A 
ATOM     77  C   UNL A   1      45.320  33.614  30.007  1.00  0.00     0.009 A 
ATOM     78  C   UNL A   1      45.066  32.842  32.282  1.00  0.00     0.009 A 
ATOM     79  C   UNL A   1      45.751  34.856  30.482  1.00  0.00     0.001 A 
ATOM     80  C   UNL A   1      45.465  34.094  32.754  1.00  0.00     0.001 A 
ATOM     81  C   UNL A   1      45.817  35.096  31.853  1.00  0.00     0.000 A 
ENDBRANCH  63  76
ENDBRANCH  37  38
ENDBRANCH  30  32
ENDBRANCH  29  30
ENDBRANCH  28  29
ENDBRANCH  27  28
ENDBRANCH  26  27
ENDBRANCH  25  26
ENDBRANCH   1  25
TORSDOF 23
ENDMDL
MODEL 3
REMARK VINA RESULT:      -8.7      3.108      7.897
REMARK SMILES CC[C@@](O)(C(=O)OCCOCCOCCOC(=O)c1ccc(-c2c3nc(c(-c4ccccc4)c4ccc([nH]4)c(-c4ccccc4)c4nc(c(-c5ccccc5)c5ccc2[nH]5)C=C4)C=C3)cc1)[C@@H](C)c1ccc(OC(C)C)cc1
REMARK SMILES IDX 11 1 10 2 9 3 8 4 7 5 5 6 6 7 3 8 2 9 1 10 4 11 67 13 68 14
REMARK SMILES IDX 69 15 70 16 78 17 71 18 77 19 72 20 73 21 74 22 75 23 76 24
REMARK SMILES IDX 12 25 13 26 14 27 15 28 16 29 17 30 18 31 19 32 20 33 66 34
REMARK SMILES IDX 21 35 65 36 22 37 23 38 24 39 59 40 25 41 64 42 58 43 60 44
REMARK SMILES IDX 26 45 63 46 57 47 56 48 27 50 49 51 34 52 48 53 35 54 38 55
REMARK SMILES IDX 47 56 61 57 36 58 37 59 46 61 62 62 39 63 28 64 29 65 33 66
REMARK SMILES IDX 30 67 32 68 31 69 50 70 51 71 55 72 52 73 54 74 53 75 40 76
REMARK SMILES IDX 41 77 45 78 42 79 44 80 43 81
REMARK H PARENT 4 12 60 49 38 60
REMARK Flexibility Score: inf
ROOT
ATOM      1  C   UNL A   1      40.640  21.584  27.104  1.00  0.00     0.188 C 
ENDROOT
BRANCH   1   2
ATOM      2  O   UNL A   1      39.344  22.095  26.847  1.00  0.00    -0.376 OA
BRANCH   2   3
ATOM      3  C   UNL A   1      38.612  21.560  25.748  1.00  0.00     0.202 C 
BRANCH   3   4
ATOM      4  C   UNL A   1      37.256  22.174  25.347  1.00  0.00     0.261 C 
BRANCH   4   5
ATOM      5  O   UNL A   1      36.131  21.264  25.329  1.00  0.00    -0.461 OA
BRANCH   5   6
ATOM      6  C   UNL A   1      35.007  21.695  24.687  1.00  0.00     0.338 C 
ATOM      7  O   UNL A   1      35.043  22.434  23.705  1.00  0.00    -0.249 OA
BRANCH   6   8
ATOM      8  C   UNL A   1      33.657  21.165  25.283  1.00  0.00     0.168 C 
BRANCH   8   9
ATOM      9  C   UNL A   1      32.555  20.774  24.252  1.00  0.00     0.044 C 
ATOM     10  C   UNL A   1      32.496  19.326  23.757  1.00  0.00     0.007 C 
ENDBRANCH   8   9
BRANCH   8  11
ATOM     11  O   UNL A   1      34.088  19.941  25.929  1.00  0.00    -0.378 OA
ATOM     12  H   UNL A   1      35.022  19.778  25.723  1.00  0.00     0.212 HD
ENDBRANCH   8  11
BRANCH   8  13
ATOM     13  C   UNL A   1      33.222  22.223  26.381  1.00  0.00     0.059 C 
ATOM     14  C   UNL A   1      34.154  22.305  27.605  1.00  0.00     0.016 C 
BRANCH  13  15
ATOM     15  C   UNL A   1      32.957  23.611  25.818  1.00  0.00    -0.041 A 
ATOM     16  C   UNL A   1      33.759  24.682  26.229  1.00  0.00     0.008 A 
ATOM     17  C   UNL A   1      31.912  23.866  24.923  1.00  0.00     0.008 A 
ATOM     18  C   UNL A   1      33.458  25.983  25.828  1.00  0.00     0.047 A 
ATOM     19  C   UNL A   1      31.622  25.170  24.519  1.00  0.00     0.047 A 
ATOM     20  C   UNL A   1      32.370  26.240  24.993  1.00  0.00     0.119 A 
BRANCH  20  21
ATOM     21  O   UNL A   1      32.161  27.561  24.743  1.00  0.00    -0.491 OA
BRANCH  21  22
ATOM     22  C   UNL A   1      32.106  28.547  25.778  1.00  0.00     0.167 C 
ATOM     23  C   UNL A   1      31.483  29.862  25.318  1.00  0.00     0.052 C 
ATOM     24  C   UNL A   1      31.594  28.016  27.116  1.00  0.00     0.052 C 
ENDBRANCH  21  22
ENDBRANCH  20  21
ENDBRANCH  13  15
ENDBRANCH   8  13
ENDBRANCH   6   8
ENDBRANCH   5   6
ENDBRANCH   4   5
ENDBRANCH   3   4
ENDBRANCH   2   3
ENDBRANCH   1   2
BRANCH   1  25
ATOM     25  C   UNL A   1      41.646  21.534  25.951  1.00  0.00     0.188 C 
BRANCH  25  26
ATOM     26  O   UNL A   1      42.999  21.432  26.303  1.00  0.00    -0.376 OA
BRANCH  26  27
ATOM     27  C   UNL A   1      43.997  21.388  25.303  1.00  0.00     0.202 C 
BRANCH  27  28
ATOM     28  C   UNL A   1      44.380  22.572  24.395  1.00  0.00     0.261 C 
BRANCH  28  29
ATOM     29  O   UNL A   1      43.781  23.850  24.648  1.00  0.00    -0.460 OA
BRANCH  29  30
ATOM     30  C   UNL A   1      44.578  24.821  25.149  1.00  0.00     0.338 C 
ATOM     31  O   UNL A   1      45.656  25.190  24.709  1.00  0.00    -0.246 OA
BRANCH  30  32
ATOM     32  C   UNL A   1      43.816  25.536  26.200  1.00  0.00     0.060 A 
ATOM     33  C   UNL A   1      44.047  26.907  26.385  1.00  0.00     0.016 A 
ATOM     34  C   UNL A   1      42.875  24.871  26.988  1.00  0.00     0.016 A 
ATOM     35  C   UNL A   1      43.350  27.613  27.370  1.00  0.00     0.010 A 
ATOM     36  C   UNL A   1      42.200  25.572  27.994  1.00  0.00     0.010 A 
ATOM     37  C   UNL A   1      42.451  26.940  28.208  1.00  0.00    -0.014 A 
BRANCH  37  38
ATOM     38  C   UNL A   1      41.921  27.611  29.422  1.00  0.00     0.031 A 
ATOM     39  C   UNL A   1      40.623  28.364  29.315  1.00  0.00     0.074 A 
ATOM     40  C   UNL A   1      42.560  27.555  30.605  1.00  0.00     0.049 A 
ATOM     41  N   UNL A   1      40.005  29.092  30.210  1.00  0.00    -0.248 NA
ATOM     42  C   UNL A   1      39.928  28.280  28.020  1.00  0.00     0.031 C 
ATOM     43  C   UNL A   1      43.785  26.807  30.876  1.00  0.00     0.029 A 
ATOM     44  N   UNL A   1      42.258  28.156  31.804  1.00  0.00    -0.354 N 
ATOM     45  C   UNL A   1      38.856  29.559  29.586  1.00  0.00     0.074 A 
ATOM     46  C   UNL A   1      38.873  29.053  28.231  1.00  0.00     0.031 C 
ATOM     47  C   UNL A   1      44.143  27.010  32.158  1.00  0.00     0.029 A 
ATOM     48  C   UNL A   1      43.194  27.933  32.783  1.00  0.00     0.049 A 
ATOM     49  H   UNL A   1      41.447  28.696  31.946  1.00  0.00     0.167 HD
ATOM     50  C   UNL A   1      37.871  30.340  30.091  1.00  0.00     0.031 A 
ATOM     51  C   UNL A   1      43.294  28.439  34.029  1.00  0.00     0.031 A 
ATOM     52  C   UNL A   1      37.859  30.875  31.426  1.00  0.00     0.049 A 
ATOM     53  C   UNL A   1      42.246  29.401  34.532  1.00  0.00     0.074 A 
ATOM     54  C   UNL A   1      36.908  31.683  32.022  1.00  0.00     0.029 A 
ATOM     55  N   UNL A   1      38.854  30.667  32.368  1.00  0.00    -0.354 N 
ATOM     56  N   UNL A   1      41.159  29.830  33.938  1.00  0.00    -0.248 NA
ATOM     57  C   UNL A   1      42.441  29.948  35.885  1.00  0.00     0.031 C 
ATOM     58  C   UNL A   1      37.358  32.018  33.302  1.00  0.00     0.029 A 
ATOM     59  C   UNL A   1      38.554  31.358  33.531  1.00  0.00     0.049 A 
ATOM     60  H   UNL A   1      39.656  30.112  32.231  1.00  0.00     0.167 HD
ATOM     61  C   UNL A   1      40.527  30.664  34.855  1.00  0.00     0.074 A 
ATOM     62  C   UNL A   1      41.343  30.672  36.048  1.00  0.00     0.031 C 
ATOM     63  C   UNL A   1      39.370  31.359  34.719  1.00  0.00     0.031 A 
BRANCH  50  64
ATOM     64  C   UNL A   1      36.742  30.704  29.166  1.00  0.00    -0.014 A 
ATOM     65  C   UNL A   1      36.589  32.011  28.677  1.00  0.00     0.009 A 
ATOM     66  C   UNL A   1      35.829  29.716  28.765  1.00  0.00     0.009 A 
ATOM     67  C   UNL A   1      35.521  32.328  27.834  1.00  0.00     0.001 A 
ATOM     68  C   UNL A   1      34.782  30.029  27.897  1.00  0.00     0.001 A 
ATOM     69  C   UNL A   1      34.622  31.337  27.442  1.00  0.00     0.000 A 
ENDBRANCH  50  64
BRANCH  51  70
ATOM     70  C   UNL A   1      44.456  28.087  34.891  1.00  0.00    -0.014 A 
ATOM     71  C   UNL A   1      44.381  27.020  35.799  1.00  0.00     0.009 A 
ATOM     72  C   UNL A   1      45.634  28.851  34.842  1.00  0.00     0.009 A 
ATOM     73  C   UNL A   1      45.448  26.745  36.660  1.00  0.00     0.001 A 
ATOM     74  C   UNL A   1      46.711  28.554  35.679  1.00  0.00     0.001 A 
ATOM     75  C   UNL A   1      46.612  27.509  36.596  1.00  0.00     0.000 A 
ENDBRANCH  51  70
BRANCH  63  76
ATOM     76  C   UNL A   1      38.884  32.150  35.904  1.00  0.00    -0.014 A 
ATOM     77  C   UNL A   1      38.061  31.578  36.885  1.00  0.00     0.009 A 
ATOM     78  C   UNL A   1      39.303  33.482  36.066  1.00  0.00     0.009 A 
ATOM     79  C   UNL A   1      37.639  32.332  37.984  1.00  0.00     0.001 A 
ATOM     80  C   UNL A   1      38.907  34.222  37.182  1.00  0.00     0.001 A 
ATOM     81  C   UNL A   1      38.068  33.650  38.135  1.00  0.00     0.000 A 
ENDBRANCH  63  76
ENDBRANCH  37  38
ENDBRANCH  30  32
ENDBRANCH  29  30
ENDBRANCH  28  29
ENDBRANCH  27  28
ENDBRANCH  26  27
ENDBRANCH  25  26
ENDBRANCH   1  25
TORSDOF 23
ENDMDL
