MODEL 1
REMARK VINA RESULT:     -10.6      0.000      0.000
REMARK SMILES C[C@@H]1CC[C@H](C)[N@H+]1Cc1cc2c(cc1Cl)C=C(C(=O)OCCOCCOCCOC(=O)c1ccc(-c3c4nc(c(-c5ccccc5)c5ccc([nH]5)c(-c5ccccc5)c5nc(c(-c6ccccc6)c6ccc3[nH]6)C=C5)C=C4)cc1)[C@@H](C(F)(F)F)O2
REMARK SMILES IDX 24 1 23 2 22 3 21 4 20 5 18 6 19 7 17 8 9 9 10 10 14 11
REMARK SMILES IDX 11 12 13 13 15 14 12 15 85 16 16 17 80 18 8 19 7 20 6 21
REMARK SMILES IDX 5 22 4 23 3 24 2 25 1 27 81 28 82 29 83 30 84 31 25 32 26 33
REMARK SMILES IDX 27 34 28 35 29 36 30 37 31 38 32 39 33 40 79 41 34 42 78 43
REMARK SMILES IDX 35 44 36 45 37 46 72 47 38 48 77 49 71 50 73 51 39 52 76 53
REMARK SMILES IDX 70 54 69 55 40 57 62 58 47 59 61 60 48 61 51 62 60 63 74 64
REMARK SMILES IDX 49 65 50 66 59 68 75 69 52 70 41 71 42 72 46 73 43 74 45 75
REMARK SMILES IDX 44 76 63 77 64 78 68 79 65 80 67 81 66 82 53 83 54 84 58 85
REMARK SMILES IDX 55 86 57 87 56 88
REMARK H PARENT 7 26 73 56 51 67
REMARK Flexibility Score: inf
ROOT
ATOM      1  C   UNL A   1      33.818  33.047  28.067  1.00  0.00     0.188 C 
ENDROOT
BRANCH   1   2
ATOM      2  O   UNL A   1      34.941  32.194  28.035  1.00  0.00    -0.376 OA
BRANCH   2   3
ATOM      3  C   UNL A   1      34.809  30.789  27.894  1.00  0.00     0.202 C 
BRANCH   3   4
ATOM      4  C   UNL A   1      33.861  30.108  26.897  1.00  0.00     0.261 C 
BRANCH   4   5
ATOM      5  O   UNL A   1      34.444  29.087  26.083  1.00  0.00    -0.460 OA
BRANCH   5   6
ATOM      6  C   UNL A   1      33.578  28.490  25.233  1.00  0.00     0.338 C 
ATOM      7  O   UNL A   1      33.150  28.950  24.183  1.00  0.00    -0.246 OA
BRANCH   6   8
ATOM      8  C   UNL A   1      33.327  27.101  25.650  1.00  0.00     0.087 C 
ATOM      9  C   UNL A   1      33.712  22.104  26.057  1.00  0.00     0.029 A 
ATOM     10  C   UNL A   1      32.718  23.049  26.415  1.00  0.00     0.058 A 
ATOM     11  C   UNL A   1      34.920  22.603  25.538  1.00  0.00     0.050 A 
ATOM     12  C   UNL A   1      32.926  24.425  26.254  1.00  0.00     0.128 A 
ATOM     13  C   UNL A   1      35.168  23.976  25.491  1.00  0.00     0.033 A 
ATOM     14  Cl  UNL A   1      36.114  21.619  24.767  1.00  0.00    -0.084 Cl
ATOM     15  C   UNL A   1      34.166  24.884  25.822  1.00  0.00     0.019 A 
ATOM     16  O   UNL A   1      31.875  25.263  26.519  1.00  0.00    -0.475 OA
ATOM     17  C   UNL A   1      34.393  26.297  25.605  1.00  0.00     0.027 C 
ATOM     18  C   UNL A   1      31.946  26.639  26.023  1.00  0.00     0.316 C 
BRANCH   9  19
ATOM     19  C   UNL A   1      33.392  20.619  26.159  1.00  0.00     0.301 C 
BRANCH  19  20
ATOM     20  N   UNL A   1      33.405  19.813  24.932  1.00  0.00    -0.327 N 
ATOM     21  C   UNL A   1      32.567  21.012  22.944  1.00  0.00     0.075 C 
ATOM     22  C   UNL A   1      32.267  19.972  24.017  1.00  0.00     0.181 C 
ATOM     23  C   UNL A   1      32.053  18.589  23.402  1.00  0.00     0.071 C 
ATOM     24  C   UNL A   1      32.539  17.652  24.488  1.00  0.00     0.071 C 
ATOM     25  C   UNL A   1      33.729  18.393  25.078  1.00  0.00     0.181 C 
ATOM     26  H   UNL A   1      34.206  20.259  24.485  1.00  0.00     0.348 HD
ATOM     27  C   UNL A   1      35.034  18.087  24.342  1.00  0.00     0.075 C 
ENDBRANCH  19  20
ENDBRANCH   9  19
BRANCH  18  28
ATOM     28  C   UNL A   1      30.959  26.841  24.863  1.00  0.00     0.430 C 
ATOM     29  F   UNL A   1      29.855  26.073  25.011  1.00  0.00    -0.167 F 
ATOM     30  F   UNL A   1      30.533  28.127  24.802  1.00  0.00    -0.167 F 
ATOM     31  F   UNL A   1      31.510  26.540  23.667  1.00  0.00    -0.167 F 
ENDBRANCH  18  28
ENDBRANCH   6   8
ENDBRANCH   5   6
ENDBRANCH   4   5
ENDBRANCH   3   4
ENDBRANCH   2   3
ENDBRANCH   1   2
BRANCH   1  32
ATOM     32  C   UNL A   1      33.907  34.437  28.731  1.00  0.00     0.188 C 
BRANCH  32  33
ATOM     33  O   UNL A   1      33.242  34.708  29.947  1.00  0.00    -0.376 OA
BRANCH  33  34
ATOM     34  C   UNL A   1      33.994  34.799  31.148  1.00  0.00     0.202 C 
BRANCH  34  35
ATOM     35  C   UNL A   1      34.093  33.613  32.117  1.00  0.00     0.261 C 
BRANCH  35  36
ATOM     36  O   UNL A   1      35.105  32.655  31.780  1.00  0.00    -0.460 OA
BRANCH  36  37
ATOM     37  C   UNL A   1      36.059  32.465  32.725  1.00  0.00     0.338 C 
ATOM     38  O   UNL A   1      35.908  32.418  33.933  1.00  0.00    -0.246 OA
BRANCH  37  39
ATOM     39  C   UNL A   1      37.327  32.104  32.061  1.00  0.00     0.060 A 
ATOM     40  C   UNL A   1      38.377  31.531  32.779  1.00  0.00     0.016 A 
ATOM     41  C   UNL A   1      37.445  32.336  30.683  1.00  0.00     0.016 A 
ATOM     42  C   UNL A   1      39.540  31.156  32.101  1.00  0.00     0.010 A 
ATOM     43  C   UNL A   1      38.614  31.976  30.012  1.00  0.00     0.010 A 
ATOM     44  C   UNL A   1      39.658  31.356  30.712  1.00  0.00    -0.014 A 
BRANCH  44  45
ATOM     45  C   UNL A   1      40.775  30.725  29.971  1.00  0.00     0.031 A 
ATOM     46  C   UNL A   1      40.689  29.340  29.412  1.00  0.00     0.074 A 
ATOM     47  C   UNL A   1      41.905  31.444  29.822  1.00  0.00     0.049 A 
ATOM     48  N   UNL A   1      41.550  28.717  28.645  1.00  0.00    -0.248 NA
ATOM     49  C   UNL A   1      39.501  28.547  29.756  1.00  0.00     0.031 C 
ATOM     50  C   UNL A   1      42.117  32.787  30.364  1.00  0.00     0.029 A 
ATOM     51  N   UNL A   1      43.076  31.156  29.168  1.00  0.00    -0.354 N 
ATOM     52  C   UNL A   1      40.999  27.469  28.391  1.00  0.00     0.074 A 
ATOM     53  C   UNL A   1      39.752  27.404  29.125  1.00  0.00     0.031 C 
ATOM     54  C   UNL A   1      43.332  33.219  29.995  1.00  0.00     0.029 A 
ATOM     55  C   UNL A   1      43.992  32.179  29.213  1.00  0.00     0.049 A 
ATOM     56  H   UNL A   1      43.243  30.299  28.712  1.00  0.00     0.167 HD
ATOM     57  C   UNL A   1      41.490  26.483  27.604  1.00  0.00     0.031 A 
ATOM     58  C   UNL A   1      45.222  32.281  28.674  1.00  0.00     0.031 A 
ATOM     59  C   UNL A   1      42.743  26.552  26.895  1.00  0.00     0.049 A 
ATOM     60  C   UNL A   1      45.750  31.159  27.828  1.00  0.00     0.074 A 
ATOM     61  C   UNL A   1      43.283  25.624  26.018  1.00  0.00     0.029 A 
ATOM     62  N   UNL A   1      43.660  27.587  26.990  1.00  0.00    -0.354 N 
ATOM     63  N   UNL A   1      45.169  30.030  27.503  1.00  0.00    -0.248 NA
ATOM     64  C   UNL A   1      47.094  31.331  27.258  1.00  0.00     0.031 C 
ATOM     65  C   UNL A   1      44.556  26.060  25.646  1.00  0.00     0.029 A 
ATOM     66  C   UNL A   1      44.779  27.299  26.225  1.00  0.00     0.049 A 
ATOM     67  H   UNL A   1      43.534  28.406  27.523  1.00  0.00     0.167 HD
ATOM     68  C   UNL A   1      46.066  29.365  26.678  1.00  0.00     0.074 A 
ATOM     69  C   UNL A   1      47.221  30.226  26.534  1.00  0.00     0.031 C 
ATOM     70  C   UNL A   1      45.936  28.149  26.096  1.00  0.00     0.031 A 
BRANCH  57  71
ATOM     71  C   UNL A   1      40.676  25.229  27.434  1.00  0.00    -0.014 A 
ATOM     72  C   UNL A   1      41.142  24.013  27.961  1.00  0.00     0.009 A 
ATOM     73  C   UNL A   1      39.530  25.219  26.623  1.00  0.00     0.009 A 
ATOM     74  C   UNL A   1      40.495  22.813  27.661  1.00  0.00     0.001 A 
ATOM     75  C   UNL A   1      38.869  24.021  26.346  1.00  0.00     0.001 A 
ATOM     76  C   UNL A   1      39.358  22.818  26.854  1.00  0.00     0.000 A 
ENDBRANCH  57  71
BRANCH  58  77
ATOM     77  C   UNL A   1      46.003  33.524  28.893  1.00  0.00    -0.014 A 
ATOM     78  C   UNL A   1      46.840  33.651  30.015  1.00  0.00     0.009 A 
ATOM     79  C   UNL A   1      45.866  34.616  28.023  1.00  0.00     0.009 A 
ATOM     80  C   UNL A   1      47.503  34.852  30.274  1.00  0.00     0.001 A 
ATOM     81  C   UNL A   1      46.556  35.806  28.269  1.00  0.00     0.001 A 
ATOM     82  C   UNL A   1      47.363  35.926  29.398  1.00  0.00     0.000 A 
ENDBRANCH  58  77
BRANCH  70  83
ATOM     83  C   UNL A   1      47.073  27.652  25.243  1.00  0.00    -0.014 A 
ATOM     84  C   UNL A   1      47.074  27.905  23.861  1.00  0.00     0.009 A 
ATOM     85  C   UNL A   1      48.086  26.847  25.785  1.00  0.00     0.009 A 
ATOM     86  C   UNL A   1      48.055  27.347  23.038  1.00  0.00     0.001 A 
ATOM     87  C   UNL A   1      49.085  26.318  24.965  1.00  0.00     0.001 A 
ATOM     88  C   UNL A   1      49.061  26.559  23.591  1.00  0.00     0.000 A 
ENDBRANCH  70  83
ENDBRANCH  44  45
ENDBRANCH  37  39
ENDBRANCH  36  37
ENDBRANCH  35  36
ENDBRANCH  34  35
ENDBRANCH  33  34
ENDBRANCH  32  33
ENDBRANCH   1  32
TORSDOF 20
ENDMDL
MODEL 2
REMARK VINA RESULT:     -10.3      5.104      7.721
REMARK SMILES C[C@@H]1CC[C@H](C)[N@H+]1Cc1cc2c(cc1Cl)C=C(C(=O)OCCOCCOCCOC(=O)c1ccc(-c3c4nc(c(-c5ccccc5)c5ccc([nH]5)c(-c5ccccc5)c5nc(c(-c6ccccc6)c6ccc3[nH]6)C=C5)C=C4)cc1)[C@@H](C(F)(F)F)O2
REMARK SMILES IDX 24 1 23 2 22 3 21 4 20 5 18 6 19 7 17 8 9 9 10 10 14 11
REMARK SMILES IDX 11 12 13 13 15 14 12 15 85 16 16 17 80 18 8 19 7 20 6 21
REMARK SMILES IDX 5 22 4 23 3 24 2 25 1 27 81 28 82 29 83 30 84 31 25 32 26 33
REMARK SMILES IDX 27 34 28 35 29 36 30 37 31 38 32 39 33 40 79 41 34 42 78 43
REMARK SMILES IDX 35 44 36 45 37 46 72 47 38 48 77 49 71 50 73 51 39 52 76 53
REMARK SMILES IDX 70 54 69 55 40 57 62 58 47 59 61 60 48 61 51 62 60 63 74 64
REMARK SMILES IDX 49 65 50 66 59 68 75 69 52 70 41 71 42 72 46 73 43 74 45 75
REMARK SMILES IDX 44 76 63 77 64 78 68 79 65 80 67 81 66 82 53 83 54 84 58 85
REMARK SMILES IDX 55 86 57 87 56 88
REMARK H PARENT 7 26 73 56 51 67
REMARK Flexibility Score: inf
ROOT
ATOM      1  C   UNL A   1      35.291  34.002  29.669  1.00  0.00     0.188 C 
ENDROOT
BRANCH   1   2
ATOM      2  O   UNL A   1      36.470  33.835  28.913  1.00  0.00    -0.376 OA
BRANCH   2   3
ATOM      3  C   UNL A   1      37.656  33.307  29.485  1.00  0.00     0.202 C 
BRANCH   3   4
ATOM      4  C   UNL A   1      38.227  31.920  29.158  1.00  0.00     0.261 C 
BRANCH   4   5
ATOM      5  O   UNL A   1      37.462  30.807  29.627  1.00  0.00    -0.460 OA
BRANCH   5   6
ATOM      6  C   UNL A   1      37.537  29.709  28.840  1.00  0.00     0.338 C 
ATOM      7  O   UNL A   1      36.676  29.297  28.076  1.00  0.00    -0.246 OA
BRANCH   6   8
ATOM      8  C   UNL A   1      38.893  29.137  28.889  1.00  0.00     0.087 C 
ATOM      9  C   UNL A   1      43.022  26.552  27.642  1.00  0.00     0.029 A 
ATOM     10  C   UNL A   1      42.558  27.152  28.840  1.00  0.00     0.058 A 
ATOM     11  C   UNL A   1      42.250  26.745  26.483  1.00  0.00     0.050 A 
ATOM     12  C   UNL A   1      41.375  27.901  28.871  1.00  0.00     0.128 A 
ATOM     13  C   UNL A   1      41.139  27.590  26.492  1.00  0.00     0.033 A 
ATOM     14  Cl  UNL A   1      42.477  25.855  25.018  1.00  0.00    -0.084 Cl
ATOM     15  C   UNL A   1      40.687  28.144  27.687  1.00  0.00     0.019 A 
ATOM     16  O   UNL A   1      40.938  28.352  30.089  1.00  0.00    -0.475 OA
ATOM     17  C   UNL A   1      39.440  28.878  27.697  1.00  0.00     0.027 C 
ATOM     18  C   UNL A   1      39.552  28.813  30.200  1.00  0.00     0.316 C 
BRANCH   9  19
ATOM     19  C   UNL A   1      44.258  25.665  27.690  1.00  0.00     0.301 C 
BRANCH  19  20
ATOM     20  N   UNL A   1      44.079  24.222  27.896  1.00  0.00    -0.327 N 
ATOM     21  C   UNL A   1      45.419  22.825  26.365  1.00  0.00     0.075 C 
ATOM     22  C   UNL A   1      44.038  23.377  26.696  1.00  0.00     0.181 C 
ATOM     23  C   UNL A   1      43.058  22.253  27.034  1.00  0.00     0.071 C 
ATOM     24  C   UNL A   1      42.111  22.907  28.018  1.00  0.00     0.071 C 
ATOM     25  C   UNL A   1      43.026  23.814  28.827  1.00  0.00     0.181 C 
ATOM     26  H   UNL A   1      44.972  24.039  28.354  1.00  0.00     0.348 HD
ATOM     27  C   UNL A   1      43.651  23.099  30.026  1.00  0.00     0.075 C 
ENDBRANCH  19  20
ENDBRANCH   9  19
BRANCH  18  28
ATOM     28  C   UNL A   1      38.718  27.810  31.011  1.00  0.00     0.430 C 
ATOM     29  F   UNL A   1      39.313  27.506  32.188  1.00  0.00    -0.167 F 
ATOM     30  F   UNL A   1      37.498  28.318  31.310  1.00  0.00    -0.167 F 
ATOM     31  F   UNL A   1      38.521  26.652  30.341  1.00  0.00    -0.167 F 
ENDBRANCH  18  28
ENDBRANCH   6   8
ENDBRANCH   5   6
ENDBRANCH   4   5
ENDBRANCH   3   4
ENDBRANCH   2   3
ENDBRANCH   1   2
BRANCH   1  32
ATOM     32  C   UNL A   1      35.345  34.040  31.211  1.00  0.00     0.188 C 
BRANCH  32  33
ATOM     33  O   UNL A   1      34.342  33.426  31.992  1.00  0.00    -0.376 OA
BRANCH  33  34
ATOM     34  C   UNL A   1      34.623  33.078  33.340  1.00  0.00     0.202 C 
BRANCH  34  35
ATOM     35  C   UNL A   1      35.774  33.738  34.109  1.00  0.00     0.261 C 
BRANCH  35  36
ATOM     36  O   UNL A   1      36.403  32.889  35.078  1.00  0.00    -0.460 OA
BRANCH  36  37
ATOM     37  C   UNL A   1      37.627  33.296  35.497  1.00  0.00     0.338 C 
ATOM     38  O   UNL A   1      37.881  34.093  36.383  1.00  0.00    -0.246 OA
BRANCH  37  39
ATOM     39  C   UNL A   1      38.658  32.461  34.850  1.00  0.00     0.060 A 
ATOM     40  C   UNL A   1      38.304  31.395  34.021  1.00  0.00     0.016 A 
ATOM     41  C   UNL A   1      40.006  32.774  35.075  1.00  0.00     0.016 A 
ATOM     42  C   UNL A   1      39.311  30.663  33.386  1.00  0.00     0.010 A 
ATOM     43  C   UNL A   1      41.009  32.030  34.453  1.00  0.00     0.010 A 
ATOM     44  C   UNL A   1      40.666  30.989  33.581  1.00  0.00    -0.014 A 
BRANCH  44  45
ATOM     45  C   UNL A   1      41.700  30.380  32.711  1.00  0.00     0.031 A 
ATOM     46  C   UNL A   1      42.171  31.028  31.447  1.00  0.00     0.074 A 
ATOM     47  C   UNL A   1      42.209  29.191  33.090  1.00  0.00     0.049 A 
ATOM     48  N   UNL A   1      43.151  30.658  30.659  1.00  0.00    -0.248 NA
ATOM     49  C   UNL A   1      41.458  32.232  31.001  1.00  0.00     0.031 C 
ATOM     50  C   UNL A   1      41.793  28.446  34.279  1.00  0.00     0.029 A 
ATOM     51  N   UNL A   1      43.185  28.408  32.527  1.00  0.00    -0.354 N 
ATOM     52  C   UNL A   1      43.191  31.595  29.637  1.00  0.00     0.074 A 
ATOM     53  C   UNL A   1      42.106  32.526  29.878  1.00  0.00     0.031 C 
ATOM     54  C   UNL A   1      42.529  27.329  34.374  1.00  0.00     0.029 A 
ATOM     55  C   UNL A   1      43.451  27.268  33.244  1.00  0.00     0.049 A 
ATOM     56  H   UNL A   1      43.649  28.642  31.691  1.00  0.00     0.167 HD
ATOM     57  C   UNL A   1      44.067  31.673  28.607  1.00  0.00     0.031 A 
ATOM     58  C   UNL A   1      44.345  26.284  33.030  1.00  0.00     0.031 A 
ATOM     59  C   UNL A   1      45.130  30.729  28.367  1.00  0.00     0.049 A 
ATOM     60  C   UNL A   1      45.284  26.383  31.864  1.00  0.00     0.074 A 
ATOM     61  C   UNL A   1      46.107  30.772  27.385  1.00  0.00     0.029 A 
ATOM     62  N   UNL A   1      45.347  29.568  29.092  1.00  0.00    -0.354 N 
ATOM     63  N   UNL A   1      45.386  27.336  30.970  1.00  0.00    -0.248 NA
ATOM     64  C   UNL A   1      46.246  25.285  31.687  1.00  0.00     0.031 C 
ATOM     65  C   UNL A   1      46.864  29.603  27.468  1.00  0.00     0.029 A 
ATOM     66  C   UNL A   1      46.413  28.866  28.551  1.00  0.00     0.049 A 
ATOM     67  H   UNL A   1      44.822  29.284  29.876  1.00  0.00     0.167 HD
ATOM     68  C   UNL A   1      46.431  26.963  30.135  1.00  0.00     0.074 A 
ATOM     69  C   UNL A   1      46.946  25.709  30.643  1.00  0.00     0.031 C 
ATOM     70  C   UNL A   1      46.914  27.609  29.047  1.00  0.00     0.031 A 
BRANCH  57  71
ATOM     71  C   UNL A   1      43.946  32.826  27.648  1.00  0.00    -0.014 A 
ATOM     72  C   UNL A   1      43.837  32.583  26.269  1.00  0.00     0.009 A 
ATOM     73  C   UNL A   1      44.095  34.150  28.092  1.00  0.00     0.009 A 
ATOM     74  C   UNL A   1      43.904  33.635  25.354  1.00  0.00     0.001 A 
ATOM     75  C   UNL A   1      44.137  35.203  27.177  1.00  0.00     0.001 A 
ATOM     76  C   UNL A   1      44.053  34.945  25.809  1.00  0.00     0.000 A 
ENDBRANCH  57  71
BRANCH  58  77
ATOM     77  C   UNL A   1      44.408  25.148  33.985  1.00  0.00    -0.014 A 
ATOM     78  C   UNL A   1      45.273  25.195  35.091  1.00  0.00     0.009 A 
ATOM     79  C   UNL A   1      43.659  23.984  33.760  1.00  0.00     0.009 A 
ATOM     80  C   UNL A   1      45.404  24.092  35.937  1.00  0.00     0.001 A 
ATOM     81  C   UNL A   1      43.769  22.894  34.626  1.00  0.00     0.001 A 
ATOM     82  C   UNL A   1      44.649  22.945  35.705  1.00  0.00     0.000 A 
ENDBRANCH  58  77
BRANCH  70  83
ATOM     83  C   UNL A   1      48.064  26.978  28.307  1.00  0.00    -0.014 A 
ATOM     84  C   UNL A   1      49.383  27.352  28.612  1.00  0.00     0.009 A 
ATOM     85  C   UNL A   1      47.840  26.094  27.241  1.00  0.00     0.009 A 
ATOM     86  C   UNL A   1      50.451  26.870  27.853  1.00  0.00     0.001 A 
ATOM     87  C   UNL A   1      48.914  25.586  26.505  1.00  0.00     0.001 A 
ATOM     88  C   UNL A   1      50.216  25.985  26.805  1.00  0.00     0.000 A 
ENDBRANCH  70  83
ENDBRANCH  44  45
ENDBRANCH  37  39
ENDBRANCH  36  37
ENDBRANCH  35  36
ENDBRANCH  34  35
ENDBRANCH  33  34
ENDBRANCH  32  33
ENDBRANCH   1  32
TORSDOF 20
ENDMDL
MODEL 3
REMARK VINA RESULT:     -10.2      3.056      8.869
REMARK SMILES C[C@@H]1CC[C@H](C)[N@H+]1Cc1cc2c(cc1Cl)C=C(C(=O)OCCOCCOCCOC(=O)c1ccc(-c3c4nc(c(-c5ccccc5)c5ccc([nH]5)c(-c5ccccc5)c5nc(c(-c6ccccc6)c6ccc3[nH]6)C=C5)C=C4)cc1)[C@@H](C(F)(F)F)O2
REMARK SMILES IDX 24 1 23 2 22 3 21 4 20 5 18 6 19 7 17 8 9 9 10 10 14 11
REMARK SMILES IDX 11 12 13 13 15 14 12 15 85 16 16 17 80 18 8 19 7 20 6 21
REMARK SMILES IDX 5 22 4 23 3 24 2 25 1 27 81 28 82 29 83 30 84 31 25 32 26 33
REMARK SMILES IDX 27 34 28 35 29 36 30 37 31 38 32 39 33 40 79 41 34 42 78 43
REMARK SMILES IDX 35 44 36 45 37 46 72 47 38 48 77 49 71 50 73 51 39 52 76 53
REMARK SMILES IDX 70 54 69 55 40 57 62 58 47 59 61 60 48 61 51 62 60 63 74 64
REMARK SMILES IDX 49 65 50 66 59 68 75 69 52 70 41 71 42 72 46 73 43 74 45 75
REMARK SMILES IDX 44 76 63 77 64 78 68 79 65 80 67 81 66 82 53 83 54 84 58 85
REMARK SMILES IDX 55 86 57 87 56 88
REMARK H PARENT 7 26 73 56 51 67
REMARK Flexibility Score: inf
ROOT
ATOM      1  C   UNL A   1      33.697  22.183  27.490  1.00  0.00     0.188 C 
ENDROOT
BRANCH   1   2
ATOM      2  O   UNL A   1      32.900  23.195  26.915  1.00  0.00    -0.376 OA
BRANCH   2   3
ATOM      3  C   UNL A   1      31.486  23.189  27.030  1.00  0.00     0.202 C 
BRANCH   3   4
ATOM      4  C   UNL A   1      30.540  23.921  26.069  1.00  0.00     0.261 C 
BRANCH   4   5
ATOM      5  O   UNL A   1      30.104  25.216  26.493  1.00  0.00    -0.460 OA
BRANCH   5   6
ATOM      6  C   UNL A   1      30.426  26.218  25.642  1.00  0.00     0.338 C 
ATOM      7  O   UNL A   1      29.777  26.594  24.677  1.00  0.00    -0.246 OA
BRANCH   6   8
ATOM      8  C   UNL A   1      31.614  26.939  26.129  1.00  0.00     0.087 C 
ATOM      9  C   UNL A   1      34.693  30.669  27.504  1.00  0.00     0.029 A 
ATOM     10  C   UNL A   1      34.879  29.295  27.207  1.00  0.00     0.058 A 
ATOM     11  C   UNL A   1      33.373  31.154  27.514  1.00  0.00     0.050 A 
ATOM     12  C   UNL A   1      33.794  28.455  26.928  1.00  0.00     0.128 A 
ATOM     13  C   UNL A   1      32.289  30.289  27.353  1.00  0.00     0.033 A 
ATOM     14  Cl  UNL A   1      32.967  32.834  27.547  1.00  0.00    -0.084 Cl
ATOM     15  C   UNL A   1      32.499  28.950  27.034  1.00  0.00     0.019 A 
ATOM     16  O   UNL A   1      34.067  27.169  26.541  1.00  0.00    -0.475 OA
ATOM     17  C   UNL A   1      31.362  28.116  26.709  1.00  0.00     0.027 C 
ATOM     18  C   UNL A   1      32.997  26.395  25.906  1.00  0.00     0.316 C 
BRANCH   9  19
ATOM     19  C   UNL A   1      35.915  31.556  27.699  1.00  0.00     0.301 C 
BRANCH  19  20
ATOM     20  N   UNL A   1      36.292  31.938  29.066  1.00  0.00    -0.327 N 
ATOM     21  C   UNL A   1      36.576  30.020  30.594  1.00  0.00     0.075 C 
ATOM     22  C   UNL A   1      35.683  31.178  30.164  1.00  0.00     0.181 C 
ATOM     23  C   UNL A   1      35.503  32.188  31.297  1.00  0.00     0.071 C 
ATOM     24  C   UNL A   1      35.323  33.500  30.562  1.00  0.00     0.071 C 
ATOM     25  C   UNL A   1      36.272  33.367  29.381  1.00  0.00     0.181 C 
ATOM     26  H   UNL A   1      37.271  31.654  29.021  1.00  0.00     0.348 HD
ATOM     27  C   UNL A   1      37.689  33.839  29.711  1.00  0.00     0.075 C 
ENDBRANCH  19  20
ENDBRANCH   9  19
BRANCH  18  28
ATOM     28  C   UNL A   1      33.289  26.207  24.410  1.00  0.00     0.430 C 
ATOM     29  F   UNL A   1      32.860  27.265  23.683  1.00  0.00    -0.167 F 
ATOM     30  F   UNL A   1      34.621  26.092  24.183  1.00  0.00    -0.167 F 
ATOM     31  F   UNL A   1      32.696  25.100  23.911  1.00  0.00    -0.167 F 
ENDBRANCH  18  28
ENDBRANCH   6   8
ENDBRANCH   5   6
ENDBRANCH   4   5
ENDBRANCH   3   4
ENDBRANCH   2   3
ENDBRANCH   1   2
BRANCH   1  32
ATOM     32  C   UNL A   1      34.301  21.066  26.613  1.00  0.00     0.188 C 
BRANCH  32  33
ATOM     33  O   UNL A   1      34.294  21.161  25.204  1.00  0.00    -0.376 OA
BRANCH  33  34
ATOM     34  C   UNL A   1      35.476  21.558  24.526  1.00  0.00     0.202 C 
BRANCH  34  35
ATOM     35  C   UNL A   1      36.861  21.113  25.012  1.00  0.00     0.261 C 
BRANCH  35  36
ATOM     36  O   UNL A   1      37.621  22.142  25.660  1.00  0.00    -0.460 OA
BRANCH  36  37
ATOM     37  C   UNL A   1      38.856  21.770  26.081  1.00  0.00     0.338 C 
ATOM     38  O   UNL A   1      39.434  20.723  25.851  1.00  0.00    -0.246 OA
BRANCH  37  39
ATOM     39  C   UNL A   1      39.518  22.931  26.708  1.00  0.00     0.060 A 
ATOM     40  C   UNL A   1      40.598  22.762  27.575  1.00  0.00     0.016 A 
ATOM     41  C   UNL A   1      39.046  24.214  26.397  1.00  0.00     0.016 A 
ATOM     42  C   UNL A   1      41.230  23.890  28.104  1.00  0.00     0.010 A 
ATOM     43  C   UNL A   1      39.667  25.339  26.941  1.00  0.00     0.010 A 
ATOM     44  C   UNL A   1      40.783  25.184  27.775  1.00  0.00    -0.014 A 
BRANCH  44  45
ATOM     45  C   UNL A   1      41.611  26.360  28.131  1.00  0.00     0.031 A 
ATOM     46  C   UNL A   1      41.188  27.358  29.164  1.00  0.00     0.074 A 
ATOM     47  C   UNL A   1      42.777  26.521  27.475  1.00  0.00     0.049 A 
ATOM     48  N   UNL A   1      41.872  28.363  29.651  1.00  0.00    -0.248 NA
ATOM     49  C   UNL A   1      39.835  27.223  29.717  1.00  0.00     0.031 C 
ATOM     50  C   UNL A   1      43.268  25.635  26.418  1.00  0.00     0.029 A 
ATOM     51  N   UNL A   1      43.759  27.469  27.603  1.00  0.00    -0.354 N 
ATOM     52  C   UNL A   1      41.045  28.968  30.586  1.00  0.00     0.074 A 
ATOM     53  C   UNL A   1      39.789  28.246  30.565  1.00  0.00     0.031 C 
ATOM     54  C   UNL A   1      44.472  26.065  26.014  1.00  0.00     0.029 A 
ATOM     55  C   UNL A   1      44.828  27.264  26.765  1.00  0.00     0.049 A 
ATOM     56  H   UNL A   1      43.702  28.223  28.234  1.00  0.00     0.167 HD
ATOM     57  C   UNL A   1      41.323  30.018  31.394  1.00  0.00     0.031 A 
ATOM     58  C   UNL A   1      45.976  27.953  26.622  1.00  0.00     0.031 A 
ATOM     59  C   UNL A   1      42.570  30.742  31.391  1.00  0.00     0.049 A 
ATOM     60  C   UNL A   1      46.245  29.130  27.513  1.00  0.00     0.074 A 
ATOM     61  C   UNL A   1      42.962  31.776  32.227  1.00  0.00     0.029 A 
ATOM     62  N   UNL A   1      43.616  30.530  30.506  1.00  0.00    -0.354 N 
ATOM     63  N   UNL A   1      45.500  29.621  28.473  1.00  0.00    -0.248 NA
ATOM     64  C   UNL A   1      47.519  29.837  27.317  1.00  0.00     0.031 C 
ATOM     65  C   UNL A   1      44.207  32.240  31.799  1.00  0.00     0.029 A 
ATOM     66  C   UNL A   1      44.631  31.444  30.747  1.00  0.00     0.049 A 
ATOM     67  H   UNL A   1      43.635  29.834  29.810  1.00  0.00     0.167 HD
ATOM     68  C   UNL A   1      46.220  30.682  29.007  1.00  0.00     0.074 A 
ATOM     69  C   UNL A   1      47.470  30.748  28.280  1.00  0.00     0.031 C 
ATOM     70  C   UNL A   1      45.868  31.520  30.012  1.00  0.00     0.031 A 
BRANCH  57  71
ATOM     71  C   UNL A   1      40.277  30.463  32.380  1.00  0.00    -0.014 A 
ATOM     72  C   UNL A   1      39.432  31.542  32.068  1.00  0.00     0.009 A 
ATOM     73  C   UNL A   1      40.229  29.918  33.673  1.00  0.00     0.009 A 
ATOM     74  C   UNL A   1      38.581  32.080  33.034  1.00  0.00     0.001 A 
ATOM     75  C   UNL A   1      39.358  30.442  34.630  1.00  0.00     0.001 A 
ATOM     76  C   UNL A   1      38.544  31.530  34.315  1.00  0.00     0.000 A 
ENDBRANCH  57  71
BRANCH  58  77
ATOM     77  C   UNL A   1      46.968  27.498  25.614  1.00  0.00    -0.014 A 
ATOM     78  C   UNL A   1      46.883  27.938  24.283  1.00  0.00     0.009 A 
ATOM     79  C   UNL A   1      47.961  26.570  25.960  1.00  0.00     0.009 A 
ATOM     80  C   UNL A   1      47.756  27.439  23.314  1.00  0.00     0.001 A 
ATOM     81  C   UNL A   1      48.853  26.097  24.995  1.00  0.00     0.001 A 
ATOM     82  C   UNL A   1      48.743  26.523  23.673  1.00  0.00     0.000 A 
ENDBRANCH  58  77
BRANCH  70  83
ATOM     83  C   UNL A   1      46.841  32.603  30.398  1.00  0.00    -0.014 A 
ATOM     84  C   UNL A   1      47.941  32.296  31.216  1.00  0.00     0.009 A 
ATOM     85  C   UNL A   1      46.614  33.940  30.040  1.00  0.00     0.009 A 
ATOM     86  C   UNL A   1      48.781  33.309  31.684  1.00  0.00     0.001 A 
ATOM     87  C   UNL A   1      47.477  34.947  30.481  1.00  0.00     0.001 A 
ATOM     88  C   UNL A   1      48.551  34.631  31.312  1.00  0.00     0.000 A 
ENDBRANCH  70  83
ENDBRANCH  44  45
ENDBRANCH  37  39
ENDBRANCH  36  37
ENDBRANCH  35  36
ENDBRANCH  34  35
ENDBRANCH  33  34
ENDBRANCH  32  33
ENDBRANCH   1  32
TORSDOF 20
ENDMDL
