MODEL 1
REMARK VINA RESULT:     -10.3      0.000      0.000
REMARK SMILES C[C@@H]1CCCCN1S(=O)(=O)c1ccc(CCC(=O)OCCOCCOCCOC(=O)c2ccc(-c3c4nc(c(-c5ccccc5)c5ccc([nH]5)c(-c5ccccc5)c5nc(c(-c6ccccc6)c6ccc3[nH]6)C=C5)C=C4)cc2)cc1
REMARK SMILES IDX 23 1 22 2 21 3 20 4 19 5 17 6 18 7 16 8 15 9 14 10 11 11
REMARK SMILES IDX 12 12 80 13 13 14 79 15 8 16 9 17 10 18 7 19 1 20 2 21 3 22
REMARK SMILES IDX 4 23 6 24 5 25 24 26 25 27 26 28 27 29 28 30 29 31 30 32
REMARK SMILES IDX 31 33 32 34 78 35 33 36 77 37 34 38 35 39 36 40 71 41 37 42
REMARK SMILES IDX 76 43 70 44 72 45 38 46 75 47 69 48 68 49 39 51 61 52 46 53
REMARK SMILES IDX 60 54 47 55 50 56 59 57 73 58 48 59 49 60 58 62 74 63 51 64
REMARK SMILES IDX 40 65 41 66 45 67 42 68 44 69 43 70 62 71 63 72 67 73 64 74
REMARK SMILES IDX 66 75 65 76 52 77 53 78 57 79 54 80 56 81 55 82
REMARK H PARENT 72 50 50 61
REMARK Flexibility Score: inf
ROOT
ATOM      1  C   UNL A   1      33.245  34.802  28.592  1.00  0.00     0.188 C 
ENDROOT
BRANCH   1   2
ATOM      2  O   UNL A   1      34.534  34.742  27.997  1.00  0.00    -0.376 OA
BRANCH   2   3
ATOM      3  C   UNL A   1      35.175  33.468  28.079  1.00  0.00     0.202 C 
BRANCH   3   4
ATOM      4  C   UNL A   1      34.190  32.293  28.166  1.00  0.00     0.261 C 
BRANCH   4   5
ATOM      5  O   UNL A   1      34.880  31.023  28.184  1.00  0.00    -0.463 OA
BRANCH   5   6
ATOM      6  C   UNL A   1      34.426  30.037  27.371  1.00  0.00     0.306 C 
ATOM      7  O   UNL A   1      34.951  28.938  27.244  1.00  0.00    -0.252 OA
BRANCH   6   8
ATOM      8  C   UNL A   1      33.181  30.444  26.605  1.00  0.00     0.127 C 
BRANCH   8   9
ATOM      9  C   UNL A   1      31.878  29.714  26.964  1.00  0.00     0.047 C 
BRANCH   9  10
ATOM     10  C   UNL A   1      31.699  28.383  26.273  1.00  0.00    -0.047 A 
ATOM     11  C   UNL A   1      31.635  25.864  25.003  1.00  0.00     0.082 A 
ATOM     12  C   UNL A   1      31.800  27.027  24.250  1.00  0.00     0.022 A 
ATOM     13  C   UNL A   1      31.440  25.972  26.382  1.00  0.00     0.022 A 
ATOM     14  C   UNL A   1      31.821  28.269  24.885  1.00  0.00     0.005 A 
ATOM     15  C   UNL A   1      31.459  27.223  27.011  1.00  0.00     0.005 A 
BRANCH  11  16
ATOM     16  S   UNL A   1      31.977  24.300  24.215  1.00  0.00     0.243 S 
ATOM     17  O   UNL A   1      32.776  24.576  23.040  1.00  0.00    -0.207 OA
ATOM     18  O   UNL A   1      30.697  23.629  24.063  1.00  0.00    -0.207 OA
BRANCH  16  19
ATOM     19  N   UNL A   1      32.898  23.327  25.281  1.00  0.00    -0.195 NA
ATOM     20  C   UNL A   1      35.019  24.745  25.290  1.00  0.00     0.026 C 
ATOM     21  C   UNL A   1      34.014  23.918  26.094  1.00  0.00     0.070 C 
ATOM     22  C   UNL A   1      34.803  22.813  26.839  1.00  0.00     0.020 C 
ATOM     23  C   UNL A   1      33.989  21.550  27.059  1.00  0.00     0.003 C 
ATOM     24  C   UNL A   1      33.295  22.031  24.652  1.00  0.00     0.103 C 
ATOM     25  C   UNL A   1      33.534  20.970  25.725  1.00  0.00     0.017 C 
ENDBRANCH  16  19
ENDBRANCH  11  16
ENDBRANCH   9  10
ENDBRANCH   8   9
ENDBRANCH   6   8
ENDBRANCH   5   6
ENDBRANCH   4   5
ENDBRANCH   3   4
ENDBRANCH   2   3
ENDBRANCH   1   2
BRANCH   1  26
ATOM     26  C   UNL A   1      33.160  35.794  29.740  1.00  0.00     0.188 C 
BRANCH  26  27
ATOM     27  O   UNL A   1      32.859  35.197  31.002  1.00  0.00    -0.376 OA
BRANCH  27  28
ATOM     28  C   UNL A   1      33.978  35.097  31.884  1.00  0.00     0.202 C 
BRANCH  28  29
ATOM     29  C   UNL A   1      33.912  33.972  32.934  1.00  0.00     0.261 C 
BRANCH  29  30
ATOM     30  O   UNL A   1      34.705  32.831  32.566  1.00  0.00    -0.460 OA
BRANCH  30  31
ATOM     31  C   UNL A   1      35.846  32.670  33.284  1.00  0.00     0.338 C 
ATOM     32  O   UNL A   1      36.005  32.899  34.472  1.00  0.00    -0.246 OA
BRANCH  31  33
ATOM     33  C   UNL A   1      36.848  31.947  32.460  1.00  0.00     0.060 A 
ATOM     34  C   UNL A   1      37.826  31.199  33.135  1.00  0.00     0.016 A 
ATOM     35  C   UNL A   1      36.793  31.928  31.063  1.00  0.00     0.016 A 
ATOM     36  C   UNL A   1      38.762  30.452  32.420  1.00  0.00     0.010 A 
ATOM     37  C   UNL A   1      37.749  31.201  30.345  1.00  0.00     0.010 A 
ATOM     38  C   UNL A   1      38.755  30.486  31.020  1.00  0.00    -0.014 A 
BRANCH  38  39
ATOM     39  C   UNL A   1      39.936  29.997  30.272  1.00  0.00     0.031 A 
ATOM     40  C   UNL A   1      41.070  30.962  30.059  1.00  0.00     0.074 A 
ATOM     41  C   UNL A   1      40.025  28.737  29.809  1.00  0.00     0.049 A 
ATOM     42  N   UNL A   1      42.184  30.805  29.393  1.00  0.00    -0.248 NA
ATOM     43  C   UNL A   1      40.925  32.286  30.691  1.00  0.00     0.031 C 
ATOM     44  C   UNL A   1      39.034  27.681  30.003  1.00  0.00     0.029 A 
ATOM     45  N   UNL A   1      41.015  28.138  29.069  1.00  0.00    -0.354 N 
ATOM     46  C   UNL A   1      42.871  32.004  29.528  1.00  0.00     0.074 A 
ATOM     47  C   UNL A   1      42.041  32.889  30.313  1.00  0.00     0.031 C 
ATOM     48  C   UNL A   1      39.464  26.563  29.388  1.00  0.00     0.029 A 
ATOM     49  C   UNL A   1      40.740  26.835  28.729  1.00  0.00     0.049 A 
ATOM     50  H   UNL A   1      41.845  28.598  28.806  1.00  0.00     0.167 HD
ATOM     51  C   UNL A   1      44.089  32.342  29.048  1.00  0.00     0.031 A 
ATOM     52  C   UNL A   1      41.432  25.975  27.957  1.00  0.00     0.031 A 
ATOM     53  C   UNL A   1      44.906  31.483  28.239  1.00  0.00     0.049 A 
ATOM     54  C   UNL A   1      42.731  26.420  27.329  1.00  0.00     0.074 A 
ATOM     55  C   UNL A   1      46.143  31.749  27.677  1.00  0.00     0.029 A 
ATOM     56  N   UNL A   1      44.563  30.194  27.869  1.00  0.00    -0.354 N 
ATOM     57  N   UNL A   1      43.372  27.556  27.464  1.00  0.00    -0.248 NA
ATOM     58  C   UNL A   1      43.400  25.458  26.439  1.00  0.00     0.031 C 
ATOM     59  C   UNL A   1      46.528  30.632  26.929  1.00  0.00     0.029 A 
ATOM     60  C   UNL A   1      45.556  29.654  27.072  1.00  0.00     0.049 A 
ATOM     61  H   UNL A   1      43.736  29.731  28.135  1.00  0.00     0.167 HD
ATOM     62  C   UNL A   1      44.533  27.429  26.707  1.00  0.00     0.074 A 
ATOM     63  C   UNL A   1      44.513  26.105  26.125  1.00  0.00     0.031 C 
ATOM     64  C   UNL A   1      45.528  28.329  26.513  1.00  0.00     0.031 A 
BRANCH  51  65
ATOM     65  C   UNL A   1      44.590  33.720  29.367  1.00  0.00    -0.014 A 
ATOM     66  C   UNL A   1      44.295  34.807  28.530  1.00  0.00     0.009 A 
ATOM     67  C   UNL A   1      45.353  33.934  30.524  1.00  0.00     0.009 A 
ATOM     68  C   UNL A   1      44.779  36.080  28.834  1.00  0.00     0.001 A 
ATOM     69  C   UNL A   1      45.815  35.213  30.838  1.00  0.00     0.001 A 
ATOM     70  C   UNL A   1      45.534  36.283  29.989  1.00  0.00     0.000 A 
ENDBRANCH  51  65
BRANCH  52  71
ATOM     71  C   UNL A   1      40.914  24.607  27.690  1.00  0.00    -0.014 A 
ATOM     72  C   UNL A   1      41.512  23.486  28.287  1.00  0.00     0.009 A 
ATOM     73  C   UNL A   1      39.865  24.408  26.778  1.00  0.00     0.009 A 
ATOM     74  C   UNL A   1      41.093  22.195  27.953  1.00  0.00     0.001 A 
ATOM     75  C   UNL A   1      39.430  23.118  26.467  1.00  0.00     0.001 A 
ATOM     76  C   UNL A   1      40.053  22.013  27.044  1.00  0.00     0.000 A 
ENDBRANCH  52  71
BRANCH  64  77
ATOM     77  C   UNL A   1      46.704  27.897  25.684  1.00  0.00    -0.014 A 
ATOM     78  C   UNL A   1      47.887  27.434  26.279  1.00  0.00     0.009 A 
ATOM     79  C   UNL A   1      46.601  27.901  24.284  1.00  0.00     0.009 A 
ATOM     80  C   UNL A   1      48.956  27.011  25.484  1.00  0.00     0.001 A 
ATOM     81  C   UNL A   1      47.660  27.454  23.494  1.00  0.00     0.001 A 
ATOM     82  C   UNL A   1      48.839  27.017  24.094  1.00  0.00     0.000 A 
ENDBRANCH  64  77
ENDBRANCH  38  39
ENDBRANCH  31  33
ENDBRANCH  30  31
ENDBRANCH  29  30
ENDBRANCH  28  29
ENDBRANCH  27  28
ENDBRANCH  26  27
ENDBRANCH   1  26
TORSDOF 21
ENDMDL
MODEL 2
REMARK VINA RESULT:      -9.8      4.450      9.865
REMARK SMILES C[C@@H]1CCCCN1S(=O)(=O)c1ccc(CCC(=O)OCCOCCOCCOC(=O)c2ccc(-c3c4nc(c(-c5ccccc5)c5ccc([nH]5)c(-c5ccccc5)c5nc(c(-c6ccccc6)c6ccc3[nH]6)C=C5)C=C4)cc2)cc1
REMARK SMILES IDX 23 1 22 2 21 3 20 4 19 5 17 6 18 7 16 8 15 9 14 10 11 11
REMARK SMILES IDX 12 12 80 13 13 14 79 15 8 16 9 17 10 18 7 19 1 20 2 21 3 22
REMARK SMILES IDX 4 23 6 24 5 25 24 26 25 27 26 28 27 29 28 30 29 31 30 32
REMARK SMILES IDX 31 33 32 34 78 35 33 36 77 37 34 38 35 39 36 40 71 41 37 42
REMARK SMILES IDX 76 43 70 44 72 45 38 46 75 47 69 48 68 49 39 51 61 52 46 53
REMARK SMILES IDX 60 54 47 55 50 56 59 57 73 58 48 59 49 60 58 62 74 63 51 64
REMARK SMILES IDX 40 65 41 66 45 67 42 68 44 69 43 70 62 71 63 72 67 73 64 74
REMARK SMILES IDX 66 75 65 76 52 77 53 78 57 79 54 80 56 81 55 82
REMARK H PARENT 72 50 50 61
REMARK Flexibility Score: inf
ROOT
ATOM      1  C   UNL A   1      40.135  21.559  27.179  1.00  0.00     0.188 C 
ENDROOT
BRANCH   1   2
ATOM      2  O   UNL A   1      39.744  22.377  26.085  1.00  0.00    -0.376 OA
BRANCH   2   3
ATOM      3  C   UNL A   1      38.336  22.573  25.953  1.00  0.00     0.202 C 
BRANCH   3   4
ATOM      4  C   UNL A   1      37.661  21.546  25.031  1.00  0.00     0.261 C 
BRANCH   4   5
ATOM      5  O   UNL A   1      36.828  22.190  24.041  1.00  0.00    -0.463 OA
BRANCH   5   6
ATOM      6  C   UNL A   1      35.813  22.979  24.474  1.00  0.00     0.306 C 
ATOM      7  O   UNL A   1      35.912  24.175  24.714  1.00  0.00    -0.252 OA
BRANCH   6   8
ATOM      8  C   UNL A   1      34.516  22.212  24.648  1.00  0.00     0.127 C 
BRANCH   8   9
ATOM      9  C   UNL A   1      33.611  22.092  23.413  1.00  0.00     0.047 C 
BRANCH   9  10
ATOM     10  C   UNL A   1      32.681  23.265  23.206  1.00  0.00    -0.047 A 
ATOM     11  C   UNL A   1      31.047  25.560  23.051  1.00  0.00     0.082 A 
ATOM     12  C   UNL A   1      30.598  24.421  23.721  1.00  0.00     0.022 A 
ATOM     13  C   UNL A   1      32.287  25.524  22.408  1.00  0.00     0.022 A 
ATOM     14  C   UNL A   1      31.409  23.288  23.784  1.00  0.00     0.005 A 
ATOM     15  C   UNL A   1      33.093  24.381  22.475  1.00  0.00     0.005 A 
BRANCH  11  16
ATOM     16  S   UNL A   1      30.155  27.085  23.302  1.00  0.00     0.243 S 
ATOM     17  O   UNL A   1      28.826  26.736  23.759  1.00  0.00    -0.207 OA
ATOM     18  O   UNL A   1      30.307  27.856  22.079  1.00  0.00    -0.207 OA
BRANCH  16  19
ATOM     19  N   UNL A   1      30.931  27.990  24.531  1.00  0.00    -0.195 NA
ATOM     20  C   UNL A   1      32.915  28.808  23.153  1.00  0.00     0.026 C 
ATOM     21  C   UNL A   1      31.839  29.136  24.189  1.00  0.00     0.070 C 
ATOM     22  C   UNL A   1      32.551  29.676  25.453  1.00  0.00     0.020 C 
ATOM     23  C   UNL A   1      31.797  29.369  26.735  1.00  0.00     0.003 C 
ATOM     24  C   UNL A   1      31.521  27.110  25.584  1.00  0.00     0.103 C 
ATOM     25  C   UNL A   1      31.632  27.863  26.908  1.00  0.00     0.017 C 
ENDBRANCH  16  19
ENDBRANCH  11  16
ENDBRANCH   9  10
ENDBRANCH   8   9
ENDBRANCH   6   8
ENDBRANCH   5   6
ENDBRANCH   4   5
ENDBRANCH   3   4
ENDBRANCH   2   3
ENDBRANCH   1   2
BRANCH   1  26
ATOM     26  C   UNL A   1      41.002  20.382  26.767  1.00  0.00     0.188 C 
BRANCH  26  27
ATOM     27  O   UNL A   1      42.400  20.592  26.964  1.00  0.00    -0.376 OA
BRANCH  27  28
ATOM     28  C   UNL A   1      43.207  20.269  25.830  1.00  0.00     0.202 C 
BRANCH  28  29
ATOM     29  C   UNL A   1      43.992  21.438  25.204  1.00  0.00     0.261 C 
BRANCH  29  30
ATOM     30  O   UNL A   1      43.280  22.684  25.289  1.00  0.00    -0.460 OA
BRANCH  30  31
ATOM     31  C   UNL A   1      44.061  23.794  25.260  1.00  0.00     0.338 C 
ATOM     32  O   UNL A   1      44.818  24.137  24.366  1.00  0.00    -0.246 OA
BRANCH  31  33
ATOM     33  C   UNL A   1      43.700  24.679  26.396  1.00  0.00     0.060 A 
ATOM     34  C   UNL A   1      42.812  24.170  27.358  1.00  0.00     0.016 A 
ATOM     35  C   UNL A   1      44.271  25.943  26.571  1.00  0.00     0.016 A 
ATOM     36  C   UNL A   1      42.475  24.928  28.479  1.00  0.00     0.010 A 
ATOM     37  C   UNL A   1      43.912  26.714  27.682  1.00  0.00     0.010 A 
ATOM     38  C   UNL A   1      42.990  26.222  28.623  1.00  0.00    -0.014 A 
BRANCH  38  39
ATOM     39  C   UNL A   1      42.373  27.149  29.600  1.00  0.00     0.031 A 
ATOM     40  C   UNL A   1      43.043  27.289  30.940  1.00  0.00     0.074 A 
ATOM     41  C   UNL A   1      41.272  27.866  29.318  1.00  0.00     0.049 A 
ATOM     42  N   UNL A   1      42.678  27.985  31.985  1.00  0.00    -0.248 NA
ATOM     43  C   UNL A   1      44.302  26.543  31.120  1.00  0.00     0.031 C 
ATOM     44  C   UNL A   1      40.563  27.880  28.040  1.00  0.00     0.029 A 
ATOM     45  N   UNL A   1      40.554  28.729  30.110  1.00  0.00    -0.354 N 
ATOM     46  C   UNL A   1      43.661  27.762  32.941  1.00  0.00     0.074 A 
ATOM     47  C   UNL A   1      44.621  26.848  32.367  1.00  0.00     0.031 C 
ATOM     48  C   UNL A   1      39.504  28.706  28.139  1.00  0.00     0.029 A 
ATOM     49  C   UNL A   1      39.441  29.250  29.495  1.00  0.00     0.049 A 
ATOM     50  H   UNL A   1      40.812  28.954  31.034  1.00  0.00     0.167 HD
ATOM     51  C   UNL A   1      43.762  28.277  34.188  1.00  0.00     0.031 A 
ATOM     52  C   UNL A   1      38.476  30.053  29.983  1.00  0.00     0.031 A 
ATOM     53  C   UNL A   1      42.796  29.158  34.781  1.00  0.00     0.049 A 
ATOM     54  C   UNL A   1      38.547  30.513  31.419  1.00  0.00     0.074 A 
ATOM     55  C   UNL A   1      42.795  29.707  36.051  1.00  0.00     0.029 A 
ATOM     56  N   UNL A   1      41.655  29.612  34.143  1.00  0.00    -0.354 N 
ATOM     57  N   UNL A   1      39.481  30.297  32.314  1.00  0.00    -0.248 NA
ATOM     58  C   UNL A   1      37.425  31.329  31.909  1.00  0.00     0.031 C 
ATOM     59  C   UNL A   1      41.626  30.460  36.197  1.00  0.00     0.029 A 
ATOM     60  C   UNL A   1      40.930  30.422  34.999  1.00  0.00     0.049 A 
ATOM     61  H   UNL A   1      41.397  29.391  33.219  1.00  0.00     0.167 HD
ATOM     62  C   UNL A   1      39.075  30.980  33.457  1.00  0.00     0.074 A 
ATOM     63  C   UNL A   1      37.819  31.624  33.139  1.00  0.00     0.031 C 
ATOM     64  C   UNL A   1      39.690  31.067  34.662  1.00  0.00     0.031 A 
BRANCH  51  65
ATOM     65  C   UNL A   1      44.953  27.864  35.002  1.00  0.00    -0.014 A 
ATOM     66  C   UNL A   1      46.032  28.739  35.197  1.00  0.00     0.009 A 
ATOM     67  C   UNL A   1      44.990  26.591  35.589  1.00  0.00     0.009 A 
ATOM     68  C   UNL A   1      47.139  28.335  35.946  1.00  0.00     0.001 A 
ATOM     69  C   UNL A   1      46.086  26.199  36.358  1.00  0.00     0.001 A 
ATOM     70  C   UNL A   1      47.163  27.069  36.529  1.00  0.00     0.000 A 
ENDBRANCH  51  65
BRANCH  52  71
ATOM     71  C   UNL A   1      37.326  30.463  29.133  1.00  0.00    -0.014 A 
ATOM     72  C   UNL A   1      37.186  31.795  28.713  1.00  0.00     0.009 A 
ATOM     73  C   UNL A   1      36.324  29.539  28.796  1.00  0.00     0.009 A 
ATOM     74  C   UNL A   1      36.051  32.201  28.005  1.00  0.00     0.001 A 
ATOM     75  C   UNL A   1      35.205  29.941  28.065  1.00  0.00     0.001 A 
ATOM     76  C   UNL A   1      35.062  31.273  27.681  1.00  0.00     0.000 A 
ENDBRANCH  52  71
BRANCH  64  77
ATOM     77  C   UNL A   1      39.046  31.931  35.709  1.00  0.00    -0.014 A 
ATOM     78  C   UNL A   1      38.178  31.391  36.670  1.00  0.00     0.009 A 
ATOM     79  C   UNL A   1      39.359  33.299  35.766  1.00  0.00     0.009 A 
ATOM     80  C   UNL A   1      37.615  32.211  37.650  1.00  0.00     0.001 A 
ATOM     81  C   UNL A   1      38.816  34.110  36.762  1.00  0.00     0.001 A 
ATOM     82  C   UNL A   1      37.938  33.567  37.699  1.00  0.00     0.000 A 
ENDBRANCH  64  77
ENDBRANCH  38  39
ENDBRANCH  31  33
ENDBRANCH  30  31
ENDBRANCH  29  30
ENDBRANCH  28  29
ENDBRANCH  27  28
ENDBRANCH  26  27
ENDBRANCH   1  26
TORSDOF 21
ENDMDL
MODEL 3
REMARK VINA RESULT:      -9.7      3.529      5.126
REMARK SMILES C[C@@H]1CCCCN1S(=O)(=O)c1ccc(CCC(=O)OCCOCCOCCOC(=O)c2ccc(-c3c4nc(c(-c5ccccc5)c5ccc([nH]5)c(-c5ccccc5)c5nc(c(-c6ccccc6)c6ccc3[nH]6)C=C5)C=C4)cc2)cc1
REMARK SMILES IDX 23 1 22 2 21 3 20 4 19 5 17 6 18 7 16 8 15 9 14 10 11 11
REMARK SMILES IDX 12 12 80 13 13 14 79 15 8 16 9 17 10 18 7 19 1 20 2 21 3 22
REMARK SMILES IDX 4 23 6 24 5 25 24 26 25 27 26 28 27 29 28 30 29 31 30 32
REMARK SMILES IDX 31 33 32 34 78 35 33 36 77 37 34 38 35 39 36 40 71 41 37 42
REMARK SMILES IDX 76 43 70 44 72 45 38 46 75 47 69 48 68 49 39 51 61 52 46 53
REMARK SMILES IDX 60 54 47 55 50 56 59 57 73 58 48 59 49 60 58 62 74 63 51 64
REMARK SMILES IDX 40 65 41 66 45 67 42 68 44 69 43 70 62 71 63 72 67 73 64 74
REMARK SMILES IDX 66 75 65 76 52 77 53 78 57 79 54 80 56 81 55 82
REMARK H PARENT 72 50 50 61
REMARK Flexibility Score: inf
ROOT
ATOM      1  C   UNL A   1      33.013  28.587  27.026  1.00  0.00     0.188 C 
ENDROOT
BRANCH   1   2
ATOM      2  O   UNL A   1      33.100  27.701  25.918  1.00  0.00    -0.376 OA
BRANCH   2   3
ATOM      3  C   UNL A   1      33.620  28.282  24.722  1.00  0.00     0.202 C 
BRANCH   3   4
ATOM      4  C   UNL A   1      32.671  29.302  24.075  1.00  0.00     0.261 C 
BRANCH   4   5
ATOM      5  O   UNL A   1      31.286  28.933  24.268  1.00  0.00    -0.463 OA
BRANCH   5   6
ATOM      6  C   UNL A   1      30.561  28.581  23.176  1.00  0.00     0.306 C 
ATOM      7  O   UNL A   1      30.446  29.262  22.165  1.00  0.00    -0.252 OA
BRANCH   6   8
ATOM      8  C   UNL A   1      29.882  27.235  23.341  1.00  0.00     0.127 C 
BRANCH   8   9
ATOM      9  C   UNL A   1      30.044  26.540  24.701  1.00  0.00     0.047 C 
BRANCH   9  10
ATOM     10  C   UNL A   1      30.476  25.095  24.614  1.00  0.00    -0.047 A 
ATOM     11  C   UNL A   1      31.538  22.488  24.426  1.00  0.00     0.082 A 
ATOM     12  C   UNL A   1      31.139  23.169  23.275  1.00  0.00     0.022 A 
ATOM     13  C   UNL A   1      31.345  23.090  25.671  1.00  0.00     0.022 A 
ATOM     14  C   UNL A   1      30.606  24.454  23.379  1.00  0.00     0.005 A 
ATOM     15  C   UNL A   1      30.806  24.379  25.766  1.00  0.00     0.005 A 
BRANCH  11  16
ATOM     16  S   UNL A   1      32.537  21.023  24.228  1.00  0.00     0.243 S 
ATOM     17  O   UNL A   1      32.335  20.543  22.876  1.00  0.00    -0.207 OA
ATOM     18  O   UNL A   1      32.216  20.153  25.346  1.00  0.00    -0.207 OA
BRANCH  16  19
ATOM     19  N   UNL A   1      34.186  21.443  24.412  1.00  0.00    -0.195 NA
ATOM     20  C   UNL A   1      34.192  21.697  26.951  1.00  0.00     0.026 C 
ATOM     21  C   UNL A   1      34.909  21.181  25.702  1.00  0.00     0.070 C 
ATOM     22  C   UNL A   1      36.326  21.805  25.681  1.00  0.00     0.020 C 
ATOM     23  C   UNL A   1      36.865  22.003  24.275  1.00  0.00     0.003 C 
ATOM     24  C   UNL A   1      34.478  22.808  23.880  1.00  0.00     0.103 C 
ATOM     25  C   UNL A   1      35.947  22.921  23.477  1.00  0.00     0.017 C 
ENDBRANCH  16  19
ENDBRANCH  11  16
ENDBRANCH   9  10
ENDBRANCH   8   9
ENDBRANCH   6   8
ENDBRANCH   5   6
ENDBRANCH   4   5
ENDBRANCH   3   4
ENDBRANCH   2   3
ENDBRANCH   1   2
BRANCH   1  26
ATOM     26  C   UNL A   1      34.220  29.498  27.160  1.00  0.00     0.188 C 
BRANCH  26  27
ATOM     27  O   UNL A   1      33.912  30.802  27.653  1.00  0.00    -0.376 OA
BRANCH  27  28
ATOM     28  C   UNL A   1      32.835  31.447  26.970  1.00  0.00     0.202 C 
BRANCH  28  29
ATOM     29  C   UNL A   1      32.248  32.694  27.659  1.00  0.00     0.261 C 
BRANCH  29  30
ATOM     30  O   UNL A   1      33.172  33.795  27.680  1.00  0.00    -0.460 OA
BRANCH  30  31
ATOM     31  C   UNL A   1      33.422  34.311  28.911  1.00  0.00     0.338 C 
ATOM     32  O   UNL A   1      32.691  35.035  29.567  1.00  0.00    -0.246 OA
BRANCH  31  33
ATOM     33  C   UNL A   1      34.647  33.681  29.467  1.00  0.00     0.060 A 
ATOM     34  C   UNL A   1      35.873  34.000  28.862  1.00  0.00     0.016 A 
ATOM     35  C   UNL A   1      34.619  32.864  30.601  1.00  0.00     0.016 A 
ATOM     36  C   UNL A   1      37.066  33.488  29.370  1.00  0.00     0.010 A 
ATOM     37  C   UNL A   1      35.813  32.328  31.095  1.00  0.00     0.010 A 
ATOM     38  C   UNL A   1      37.037  32.613  30.463  1.00  0.00    -0.014 A 
BRANCH  38  39
ATOM     39  C   UNL A   1      38.233  31.799  30.780  1.00  0.00     0.031 A 
ATOM     40  C   UNL A   1      39.143  32.300  31.869  1.00  0.00     0.074 A 
ATOM     41  C   UNL A   1      38.507  30.643  30.151  1.00  0.00     0.049 A 
ATOM     42  N   UNL A   1      40.277  31.810  32.298  1.00  0.00    -0.248 NA
ATOM     43  C   UNL A   1      38.707  33.520  32.572  1.00  0.00     0.031 C 
ATOM     44  C   UNL A   1      37.677  30.008  29.128  1.00  0.00     0.029 A 
ATOM     45  N   UNL A   1      39.579  29.796  30.288  1.00  0.00    -0.354 N 
ATOM     46  C   UNL A   1      40.686  32.658  33.319  1.00  0.00     0.074 A 
ATOM     47  C   UNL A   1      39.698  33.707  33.428  1.00  0.00     0.031 C 
ATOM     48  C   UNL A   1      38.279  28.873  28.725  1.00  0.00     0.029 A 
ATOM     49  C   UNL A   1      39.549  28.721  29.433  1.00  0.00     0.049 A 
ATOM     50  H   UNL A   1      40.303  29.944  30.939  1.00  0.00     0.167 HD
ATOM     51  C   UNL A   1      41.784  32.572  34.104  1.00  0.00     0.031 A 
ATOM     52  C   UNL A   1      40.455  27.744  29.235  1.00  0.00     0.031 A 
ATOM     53  C   UNL A   1      42.788  31.554  33.981  1.00  0.00     0.049 A 
ATOM     54  C   UNL A   1      41.733  27.742  30.038  1.00  0.00     0.074 A 
ATOM     55  C   UNL A   1      43.954  31.402  34.710  1.00  0.00     0.029 A 
ATOM     56  N   UNL A   1      42.747  30.519  33.062  1.00  0.00    -0.354 N 
ATOM     57  N   UNL A   1      42.109  28.548  31.001  1.00  0.00    -0.248 NA
ATOM     58  C   UNL A   1      42.712  26.689  29.722  1.00  0.00     0.031 C 
ATOM     59  C   UNL A   1      44.643  30.296  34.200  1.00  0.00     0.029 A 
ATOM     60  C   UNL A   1      43.877  29.732  33.192  1.00  0.00     0.049 A 
ATOM     61  H   UNL A   1      42.023  30.367  32.413  1.00  0.00     0.167 HD
ATOM     62  C   UNL A   1      43.347  28.078  31.427  1.00  0.00     0.074 A 
ATOM     63  C   UNL A   1      43.654  26.912  30.626  1.00  0.00     0.031 C 
ATOM     64  C   UNL A   1      44.158  28.567  32.397  1.00  0.00     0.031 A 
BRANCH  51  65
ATOM     65  C   UNL A   1      41.962  33.636  35.146  1.00  0.00    -0.014 A 
ATOM     66  C   UNL A   1      41.373  33.512  36.414  1.00  0.00     0.009 A 
ATOM     67  C   UNL A   1      42.738  34.769  34.861  1.00  0.00     0.009 A 
ATOM     68  C   UNL A   1      41.538  34.517  37.368  1.00  0.00     0.001 A 
ATOM     69  C   UNL A   1      42.923  35.760  35.826  1.00  0.00     0.001 A 
ATOM     70  C   UNL A   1      42.316  35.636  37.075  1.00  0.00     0.000 A 
ENDBRANCH  51  65
BRANCH  52  71
ATOM     71  C   UNL A   1      40.225  26.690  28.210  1.00  0.00    -0.014 A 
ATOM     72  C   UNL A   1      39.500  25.531  28.527  1.00  0.00     0.009 A 
ATOM     73  C   UNL A   1      40.791  26.805  26.931  1.00  0.00     0.009 A 
ATOM     74  C   UNL A   1      39.376  24.495  27.597  1.00  0.00     0.001 A 
ATOM     75  C   UNL A   1      40.642  25.780  25.994  1.00  0.00     0.001 A 
ATOM     76  C   UNL A   1      39.946  24.621  26.332  1.00  0.00     0.000 A 
ENDBRANCH  52  71
BRANCH  64  77
ATOM     77  C   UNL A   1      45.427  27.815  32.687  1.00  0.00    -0.014 A 
ATOM     78  C   UNL A   1      45.448  26.734  33.581  1.00  0.00     0.009 A 
ATOM     79  C   UNL A   1      46.607  28.162  32.009  1.00  0.00     0.009 A 
ATOM     80  C   UNL A   1      46.635  26.034  33.812  1.00  0.00     0.001 A 
ATOM     81  C   UNL A   1      47.784  27.444  32.222  1.00  0.00     0.001 A 
ATOM     82  C   UNL A   1      47.799  26.386  33.129  1.00  0.00     0.000 A 
ENDBRANCH  64  77
ENDBRANCH  38  39
ENDBRANCH  31  33
ENDBRANCH  30  31
ENDBRANCH  29  30
ENDBRANCH  28  29
ENDBRANCH  27  28
ENDBRANCH  26  27
ENDBRANCH   1  26
TORSDOF 21
ENDMDL
