MODEL 1
REMARK VINA RESULT:     -10.8      0.000      0.000
REMARK SMILES Cc1cc(OC(F)(F)F)cc2c1O[C@H](C(F)(F)F)C(C(=O)OCCOCCOCCOC(=O)c1ccc(-c3c4nc(c(-c5ccccc5)c5ccc([nH]5)c(-c5ccccc5)c5nc(c(-c6ccccc6)c6ccc3[nH]6)C=C5)C=C4)cc1)=C2
REMARK SMILES IDX 26 1 25 2 24 3 23 4 22 5 20 6 21 7 19 8 1 9 2 10 3 11 12 12
REMARK SMILES IDX 4 13 11 14 13 15 10 16 82 17 14 18 5 19 6 20 7 21 8 22 9 23
REMARK SMILES IDX 15 24 16 25 17 26 18 27 27 28 28 29 29 30 30 31 31 32 32 33
REMARK SMILES IDX 33 34 34 35 35 36 81 37 36 38 80 39 37 40 38 41 39 42 74 43
REMARK SMILES IDX 40 44 79 45 73 46 75 47 41 48 78 49 72 50 71 51 42 53 64 54
REMARK SMILES IDX 49 55 63 56 50 57 53 58 62 59 76 60 51 61 52 62 61 64 77 65
REMARK SMILES IDX 54 66 43 67 44 68 48 69 45 70 47 71 46 72 65 73 66 74 70 75
REMARK SMILES IDX 67 76 69 77 68 78 55 79 56 80 60 81 57 82 59 83 58 84
REMARK H PARENT 75 52 53 63
REMARK Flexibility Score: inf
ROOT
ATOM      1  C   UNL A   1      34.379  32.628  28.767  1.00  0.00     0.188 C 
ENDROOT
BRANCH   1   2
ATOM      2  O   UNL A   1      34.180  31.990  27.527  1.00  0.00    -0.376 OA
BRANCH   2   3
ATOM      3  C   UNL A   1      33.133  31.055  27.339  1.00  0.00     0.202 C 
BRANCH   3   4
ATOM      4  C   UNL A   1      32.986  30.153  26.104  1.00  0.00     0.261 C 
BRANCH   4   5
ATOM      5  O   UNL A   1      33.907  29.064  25.997  1.00  0.00    -0.460 OA
BRANCH   5   6
ATOM      6  C   UNL A   1      33.696  28.230  24.949  1.00  0.00     0.338 C 
ATOM      7  O   UNL A   1      33.933  28.458  23.775  1.00  0.00    -0.246 OA
BRANCH   6   8
ATOM      8  C   UNL A   1      33.268  26.908  25.449  1.00  0.00     0.087 C 
ATOM      9  C   UNL A   1      30.592  22.774  26.803  1.00  0.00     0.048 C 
ATOM     10  C   UNL A   1      32.041  23.070  26.529  1.00  0.00    -0.005 A 
ATOM     11  C   UNL A   1      32.982  22.026  26.535  1.00  0.00     0.054 A 
ATOM     12  C   UNL A   1      32.465  24.380  26.256  1.00  0.00     0.131 A 
ATOM     13  C   UNL A   1      34.329  22.280  26.274  1.00  0.00     0.130 A 
ATOM     14  C   UNL A   1      33.804  24.634  25.960  1.00  0.00     0.021 A 
ATOM     15  O   UNL A   1      31.511  25.358  26.300  1.00  0.00    -0.475 OA
ATOM     16  C   UNL A   1      34.734  23.589  25.998  1.00  0.00     0.058 A 
ATOM     17  C   UNL A   1      34.215  25.967  25.550  1.00  0.00     0.027 C 
ATOM     18  C   UNL A   1      31.826  26.689  25.818  1.00  0.00     0.316 C 
BRANCH  13  19
ATOM     19  O   UNL A   1      35.337  21.358  26.249  1.00  0.00    -0.406 OA
BRANCH  19  20
ATOM     20  C   UNL A   1      35.752  20.869  24.984  1.00  0.00     0.573 C 
ATOM     21  F   UNL A   1      34.741  20.918  24.091  1.00  0.00    -0.132 F 
ATOM     22  F   UNL A   1      36.806  21.568  24.511  1.00  0.00    -0.132 F 
ATOM     23  F   UNL A   1      36.130  19.579  25.119  1.00  0.00    -0.132 F 
ENDBRANCH  19  20
ENDBRANCH  13  19
BRANCH  18  24
ATOM     24  C   UNL A   1      30.875  27.024  24.662  1.00  0.00     0.430 C 
ATOM     25  F   UNL A   1      29.660  26.449  24.841  1.00  0.00    -0.167 F 
ATOM     26  F   UNL A   1      30.661  28.357  24.559  1.00  0.00    -0.167 F 
ATOM     27  F   UNL A   1      31.356  26.598  23.472  1.00  0.00    -0.167 F 
ENDBRANCH  18  24
ENDBRANCH   6   8
ENDBRANCH   5   6
ENDBRANCH   4   5
ENDBRANCH   3   4
ENDBRANCH   2   3
ENDBRANCH   1   2
BRANCH   1  28
ATOM     28  C   UNL A   1      33.878  34.072  28.983  1.00  0.00     0.188 C 
BRANCH  28  29
ATOM     29  O   UNL A   1      33.572  34.537  30.278  1.00  0.00    -0.376 OA
BRANCH  29  30
ATOM     30  C   UNL A   1      34.529  34.385  31.315  1.00  0.00     0.202 C 
BRANCH  30  31
ATOM     31  C   UNL A   1      34.333  33.439  32.514  1.00  0.00     0.261 C 
BRANCH  31  32
ATOM     32  O   UNL A   1      35.015  32.180  32.451  1.00  0.00    -0.460 OA
BRANCH  32  33
ATOM     33  C   UNL A   1      36.214  32.134  33.088  1.00  0.00     0.338 C 
ATOM     34  O   UNL A   1      36.478  32.522  34.209  1.00  0.00    -0.246 OA
BRANCH  33  35
ATOM     35  C   UNL A   1      37.161  31.360  32.263  1.00  0.00     0.060 A 
ATOM     36  C   UNL A   1      38.163  30.611  32.897  1.00  0.00     0.016 A 
ATOM     37  C   UNL A   1      37.086  31.417  30.872  1.00  0.00     0.016 A 
ATOM     38  C   UNL A   1      39.092  29.903  32.137  1.00  0.00     0.010 A 
ATOM     39  C   UNL A   1      38.045  30.745  30.112  1.00  0.00     0.010 A 
ATOM     40  C   UNL A   1      39.062  30.005  30.741  1.00  0.00    -0.014 A 
BRANCH  40  41
ATOM     41  C   UNL A   1      40.218  29.526  29.951  1.00  0.00     0.031 A 
ATOM     42  C   UNL A   1      41.359  30.477  29.723  1.00  0.00     0.074 A 
ATOM     43  C   UNL A   1      40.265  28.278  29.458  1.00  0.00     0.049 A 
ATOM     44  N   UNL A   1      42.446  30.306  29.017  1.00  0.00    -0.248 NA
ATOM     45  C   UNL A   1      41.268  31.791  30.386  1.00  0.00     0.031 C 
ATOM     46  C   UNL A   1      39.259  27.240  29.673  1.00  0.00     0.029 A 
ATOM     47  N   UNL A   1      41.214  27.673  28.671  1.00  0.00    -0.354 N 
ATOM     48  C   UNL A   1      43.167  31.484  29.154  1.00  0.00     0.074 A 
ATOM     49  C   UNL A   1      42.392  32.371  29.990  1.00  0.00     0.031 C 
ATOM     50  C   UNL A   1      39.643  26.124  29.027  1.00  0.00     0.029 A 
ATOM     51  C   UNL A   1      40.902  26.381  28.328  1.00  0.00     0.049 A 
ATOM     52  H   UNL A   1      42.040  28.123  28.380  1.00  0.00     0.167 HD
ATOM     53  C   UNL A   1      44.374  31.796  28.633  1.00  0.00     0.031 A 
ATOM     54  C   UNL A   1      41.551  25.511  27.528  1.00  0.00     0.031 A 
ATOM     55  C   UNL A   1      45.140  30.927  27.787  1.00  0.00     0.049 A 
ATOM     56  C   UNL A   1      42.837  25.925  26.865  1.00  0.00     0.074 A 
ATOM     57  C   UNL A   1      46.370  31.169  27.202  1.00  0.00     0.029 A 
ATOM     58  N   UNL A   1      44.751  29.655  27.403  1.00  0.00    -0.354 N 
ATOM     59  N   UNL A   1      43.504  27.047  26.988  1.00  0.00    -0.248 NA
ATOM     60  C   UNL A   1      43.461  24.956  25.949  1.00  0.00     0.031 C 
ATOM     61  C   UNL A   1      46.705  30.060  26.425  1.00  0.00     0.029 A 
ATOM     62  C   UNL A   1      45.710  29.107  26.572  1.00  0.00     0.049 A 
ATOM     63  H   UNL A   1      43.919  29.209  27.682  1.00  0.00     0.167 HD
ATOM     64  C   UNL A   1      44.634  26.910  26.190  1.00  0.00     0.074 A 
ATOM     65  C   UNL A   1      44.567  25.595  25.589  1.00  0.00     0.031 C 
ATOM     66  C   UNL A   1      45.637  27.796  25.984  1.00  0.00     0.031 A 
BRANCH  53  67
ATOM     67  C   UNL A   1      44.952  33.142  28.954  1.00  0.00    -0.014 A 
ATOM     68  C   UNL A   1      44.597  34.270  28.202  1.00  0.00     0.009 A 
ATOM     69  C   UNL A   1      45.768  33.299  30.085  1.00  0.00     0.009 A 
ATOM     70  C   UNL A   1      45.046  35.535  28.579  1.00  0.00     0.001 A 
ATOM     71  C   UNL A   1      46.199  34.568  30.471  1.00  0.00     0.001 A 
ATOM     72  C   UNL A   1      45.837  35.685  29.719  1.00  0.00     0.000 A 
ENDBRANCH  53  67
BRANCH  54  73
ATOM     73  C   UNL A   1      40.991  24.152  27.313  1.00  0.00    -0.014 A 
ATOM     74  C   UNL A   1      41.525  23.051  27.999  1.00  0.00     0.009 A 
ATOM     75  C   UNL A   1      39.909  23.951  26.441  1.00  0.00     0.009 A 
ATOM     76  C   UNL A   1      40.986  21.775  27.815  1.00  0.00     0.001 A 
ATOM     77  C   UNL A   1      39.360  22.677  26.276  1.00  0.00     0.001 A 
ATOM     78  C   UNL A   1      39.900  21.590  26.961  1.00  0.00     0.000 A 
ENDBRANCH  54  73
BRANCH  66  79
ATOM     79  C   UNL A   1      46.774  27.393  25.088  1.00  0.00    -0.014 A 
ATOM     80  C   UNL A   1      46.877  27.898  23.785  1.00  0.00     0.009 A 
ATOM     81  C   UNL A   1      47.825  26.621  25.609  1.00  0.00     0.009 A 
ATOM     82  C   UNL A   1      48.014  27.638  23.019  1.00  0.00     0.001 A 
ATOM     83  C   UNL A   1      48.970  26.382  24.848  1.00  0.00     0.001 A 
ATOM     84  C   UNL A   1      49.064  26.890  23.554  1.00  0.00     0.000 A 
ENDBRANCH  66  79
ENDBRANCH  40  41
ENDBRANCH  33  35
ENDBRANCH  32  33
ENDBRANCH  31  32
ENDBRANCH  30  31
ENDBRANCH  29  30
ENDBRANCH  28  29
ENDBRANCH   1  28
TORSDOF 20
ENDMDL
MODEL 2
REMARK VINA RESULT:     -10.4      3.346      9.070
REMARK SMILES Cc1cc(OC(F)(F)F)cc2c1O[C@H](C(F)(F)F)C(C(=O)OCCOCCOCCOC(=O)c1ccc(-c3c4nc(c(-c5ccccc5)c5ccc([nH]5)c(-c5ccccc5)c5nc(c(-c6ccccc6)c6ccc3[nH]6)C=C5)C=C4)cc1)=C2
REMARK SMILES IDX 26 1 25 2 24 3 23 4 22 5 20 6 21 7 19 8 1 9 2 10 3 11 12 12
REMARK SMILES IDX 4 13 11 14 13 15 10 16 82 17 14 18 5 19 6 20 7 21 8 22 9 23
REMARK SMILES IDX 15 24 16 25 17 26 18 27 27 28 28 29 29 30 30 31 31 32 32 33
REMARK SMILES IDX 33 34 34 35 35 36 81 37 36 38 80 39 37 40 38 41 39 42 74 43
REMARK SMILES IDX 40 44 79 45 73 46 75 47 41 48 78 49 72 50 71 51 42 53 64 54
REMARK SMILES IDX 49 55 63 56 50 57 53 58 62 59 76 60 51 61 52 62 61 64 77 65
REMARK SMILES IDX 54 66 43 67 44 68 48 69 45 70 47 71 46 72 65 73 66 74 70 75
REMARK SMILES IDX 67 76 69 77 68 78 55 79 56 80 60 81 57 82 59 83 58 84
REMARK H PARENT 75 52 53 63
REMARK Flexibility Score: inf
ROOT
ATOM      1  C   UNL A   1      34.302  19.888  24.981  1.00  0.00     0.188 C 
ENDROOT
BRANCH   1   2
ATOM      2  O   UNL A   1      33.060  19.867  24.316  1.00  0.00    -0.376 OA
BRANCH   2   3
ATOM      3  C   UNL A   1      32.211  21.000  24.303  1.00  0.00     0.202 C 
BRANCH   3   4
ATOM      4  C   UNL A   1      31.548  21.603  25.551  1.00  0.00     0.261 C 
BRANCH   4   5
ATOM      5  O   UNL A   1      30.790  22.800  25.354  1.00  0.00    -0.460 OA
BRANCH   5   6
ATOM      6  C   UNL A   1      30.936  23.741  26.319  1.00  0.00     0.338 C 
ATOM      7  O   UNL A   1      30.904  23.561  27.525  1.00  0.00    -0.246 OA
BRANCH   6   8
ATOM      8  C   UNL A   1      31.301  25.030  25.700  1.00  0.00     0.087 C 
ATOM      9  C   UNL A   1      33.795  29.041  23.755  1.00  0.00     0.048 C 
ATOM     10  C   UNL A   1      32.396  28.498  23.654  1.00  0.00    -0.005 A 
ATOM     11  C   UNL A   1      31.472  29.100  22.783  1.00  0.00     0.054 A 
ATOM     12  C   UNL A   1      32.004  27.384  24.414  1.00  0.00     0.131 A 
ATOM     13  C   UNL A   1      30.173  28.604  22.669  1.00  0.00     0.130 A 
ATOM     14  C   UNL A   1      30.717  26.863  24.278  1.00  0.00     0.021 A 
ATOM     15  O   UNL A   1      32.935  26.864  25.270  1.00  0.00    -0.475 OA
ATOM     16  C   UNL A   1      29.799  27.491  23.428  1.00  0.00     0.058 A 
ATOM     17  C   UNL A   1      30.357  25.634  24.967  1.00  0.00     0.027 C 
ATOM     18  C   UNL A   1      32.679  25.593  25.920  1.00  0.00     0.316 C 
BRANCH  13  19
ATOM     19  O   UNL A   1      29.186  29.096  21.863  1.00  0.00    -0.406 OA
BRANCH  19  20
ATOM     20  C   UNL A   1      28.649  30.370  22.178  1.00  0.00     0.573 C 
ATOM     21  F   UNL A   1      29.387  31.356  21.625  1.00  0.00    -0.132 F 
ATOM     22  F   UNL A   1      27.369  30.477  21.765  1.00  0.00    -0.132 F 
ATOM     23  F   UNL A   1      28.672  30.531  23.519  1.00  0.00    -0.132 F 
ENDBRANCH  19  20
ENDBRANCH  13  19
BRANCH  18  24
ATOM     24  C   UNL A   1      33.780  24.607  25.507  1.00  0.00     0.430 C 
ATOM     25  F   UNL A   1      34.971  25.235  25.354  1.00  0.00    -0.167 F 
ATOM     26  F   UNL A   1      33.967  23.644  26.440  1.00  0.00    -0.167 F 
ATOM     27  F   UNL A   1      33.493  23.988  24.339  1.00  0.00    -0.167 F 
ENDBRANCH  18  24
ENDBRANCH   6   8
ENDBRANCH   5   6
ENDBRANCH   4   5
ENDBRANCH   3   4
ENDBRANCH   2   3
ENDBRANCH   1   2
BRANCH   1  28
ATOM     28  C   UNL A   1      35.304  21.031  24.708  1.00  0.00     0.188 C 
BRANCH  28  29
ATOM     29  O   UNL A   1      36.417  21.222  25.551  1.00  0.00    -0.376 OA
BRANCH  29  30
ATOM     30  C   UNL A   1      37.718  20.938  25.060  1.00  0.00     0.202 C 
BRANCH  30  31
ATOM     31  C   UNL A   1      39.008  21.349  25.794  1.00  0.00     0.261 C 
BRANCH  31  32
ATOM     32  O   UNL A   1      39.750  20.294  26.420  1.00  0.00    -0.460 OA
BRANCH  32  33
ATOM     33  C   UNL A   1      41.075  20.258  26.124  1.00  0.00     0.338 C 
ATOM     34  O   UNL A   1      41.654  19.478  25.394  1.00  0.00    -0.246 OA
BRANCH  33  35
ATOM     35  C   UNL A   1      41.722  21.453  26.698  1.00  0.00     0.060 A 
ATOM     36  C   UNL A   1      41.690  21.646  28.086  1.00  0.00     0.016 A 
ATOM     37  C   UNL A   1      42.312  22.399  25.860  1.00  0.00     0.016 A 
ATOM     38  C   UNL A   1      42.261  22.787  28.647  1.00  0.00     0.010 A 
ATOM     39  C   UNL A   1      42.843  23.564  26.419  1.00  0.00     0.010 A 
ATOM     40  C   UNL A   1      42.799  23.771  27.809  1.00  0.00    -0.014 A 
BRANCH  40  41
ATOM     41  C   UNL A   1      43.112  25.107  28.362  1.00  0.00     0.031 A 
ATOM     42  C   UNL A   1      41.988  26.094  28.500  1.00  0.00     0.074 A 
ATOM     43  C   UNL A   1      44.356  25.436  28.747  1.00  0.00     0.049 A 
ATOM     44  N   UNL A   1      42.028  27.338  28.900  1.00  0.00    -0.248 NA
ATOM     45  C   UNL A   1      40.639  25.614  28.149  1.00  0.00     0.031 C 
ATOM     46  C   UNL A   1      45.514  24.545  28.734  1.00  0.00     0.029 A 
ATOM     47  N   UNL A   1      44.847  26.624  29.231  1.00  0.00    -0.354 N 
ATOM     48  C   UNL A   1      40.715  27.786  28.853  1.00  0.00     0.074 A 
ATOM     49  C   UNL A   1      39.902  26.694  28.368  1.00  0.00     0.031 C 
ATOM     50  C   UNL A   1      46.586  25.221  29.186  1.00  0.00     0.029 A 
ATOM     51  C   UNL A   1      46.196  26.597  29.486  1.00  0.00     0.049 A 
ATOM     52  H   UNL A   1      44.286  27.418  29.380  1.00  0.00     0.167 HD
ATOM     53  C   UNL A   1      40.228  29.000  29.192  1.00  0.00     0.031 A 
ATOM     54  C   UNL A   1      47.023  27.579  29.900  1.00  0.00     0.031 A 
ATOM     55  C   UNL A   1      41.031  30.094  29.656  1.00  0.00     0.049 A 
ATOM     56  C   UNL A   1      46.474  28.957  30.159  1.00  0.00     0.074 A 
ATOM     57  C   UNL A   1      40.621  31.366  30.009  1.00  0.00     0.029 A 
ATOM     58  N   UNL A   1      42.404  30.047  29.829  1.00  0.00    -0.354 N 
ATOM     59  N   UNL A   1      45.233  29.375  30.098  1.00  0.00    -0.248 NA
ATOM     60  C   UNL A   1      47.439  30.001  30.542  1.00  0.00     0.031 C 
ATOM     61  C   UNL A   1      41.753  32.106  30.352  1.00  0.00     0.029 A 
ATOM     62  C   UNL A   1      42.860  31.277  30.265  1.00  0.00     0.049 A 
ATOM     63  H   UNL A   1      42.969  29.257  29.667  1.00  0.00     0.167 HD
ATOM     64  C   UNL A   1      45.263  30.717  30.457  1.00  0.00     0.074 A 
ATOM     65  C   UNL A   1      46.645  31.046  30.740  1.00  0.00     0.031 C 
ATOM     66  C   UNL A   1      44.234  31.592  30.549  1.00  0.00     0.031 A 
BRANCH  53  67
ATOM     67  C   UNL A   1      38.750  29.223  29.071  1.00  0.00    -0.014 A 
ATOM     68  C   UNL A   1      37.911  29.073  30.183  1.00  0.00     0.009 A 
ATOM     69  C   UNL A   1      38.213  29.696  27.863  1.00  0.00     0.009 A 
ATOM     70  C   UNL A   1      36.557  29.395  30.090  1.00  0.00     0.001 A 
ATOM     71  C   UNL A   1      36.864  30.037  27.779  1.00  0.00     0.001 A 
ATOM     72  C   UNL A   1      36.037  29.888  28.892  1.00  0.00     0.000 A 
ENDBRANCH  53  67
BRANCH  54  73
ATOM     73  C   UNL A   1      48.466  27.288  30.100  1.00  0.00    -0.014 A 
ATOM     74  C   UNL A   1      48.938  26.885  31.358  1.00  0.00     0.009 A 
ATOM     75  C   UNL A   1      49.373  27.390  29.033  1.00  0.00     0.009 A 
ATOM     76  C   UNL A   1      50.291  26.589  31.543  1.00  0.00     0.001 A 
ATOM     77  C   UNL A   1      50.721  27.074  29.218  1.00  0.00     0.001 A 
ATOM     78  C   UNL A   1      51.179  26.677  30.472  1.00  0.00     0.000 A 
ENDBRANCH  54  73
BRANCH  66  79
ATOM     79  C   UNL A   1      44.528  32.997  30.993  1.00  0.00    -0.014 A 
ATOM     80  C   UNL A   1      44.706  34.025  30.057  1.00  0.00     0.009 A 
ATOM     81  C   UNL A   1      44.475  33.317  32.359  1.00  0.00     0.009 A 
ATOM     82  C   UNL A   1      44.826  35.349  30.482  1.00  0.00     0.001 A 
ATOM     83  C   UNL A   1      44.573  34.644  32.779  1.00  0.00     0.001 A 
ATOM     84  C   UNL A   1      44.749  35.659  31.840  1.00  0.00     0.000 A 
ENDBRANCH  66  79
ENDBRANCH  40  41
ENDBRANCH  33  35
ENDBRANCH  32  33
ENDBRANCH  31  32
ENDBRANCH  30  31
ENDBRANCH  29  30
ENDBRANCH  28  29
ENDBRANCH   1  28
TORSDOF 20
ENDMDL
MODEL 3
REMARK VINA RESULT:     -10.3      3.664      7.472
REMARK SMILES Cc1cc(OC(F)(F)F)cc2c1O[C@H](C(F)(F)F)C(C(=O)OCCOCCOCCOC(=O)c1ccc(-c3c4nc(c(-c5ccccc5)c5ccc([nH]5)c(-c5ccccc5)c5nc(c(-c6ccccc6)c6ccc3[nH]6)C=C5)C=C4)cc1)=C2
REMARK SMILES IDX 26 1 25 2 24 3 23 4 22 5 20 6 21 7 19 8 1 9 2 10 3 11 12 12
REMARK SMILES IDX 4 13 11 14 13 15 10 16 82 17 14 18 5 19 6 20 7 21 8 22 9 23
REMARK SMILES IDX 15 24 16 25 17 26 18 27 27 28 28 29 29 30 30 31 31 32 32 33
REMARK SMILES IDX 33 34 34 35 35 36 81 37 36 38 80 39 37 40 38 41 39 42 74 43
REMARK SMILES IDX 40 44 79 45 73 46 75 47 41 48 78 49 72 50 71 51 42 53 64 54
REMARK SMILES IDX 49 55 63 56 50 57 53 58 62 59 76 60 51 61 52 62 61 64 77 65
REMARK SMILES IDX 54 66 43 67 44 68 48 69 45 70 47 71 46 72 65 73 66 74 70 75
REMARK SMILES IDX 67 76 69 77 68 78 55 79 56 80 60 81 57 82 59 83 58 84
REMARK H PARENT 75 52 53 63
REMARK Flexibility Score: inf
ROOT
ATOM      1  C   UNL A   1      31.132  29.475  24.381  1.00  0.00     0.188 C 
ENDROOT
BRANCH   1   2
ATOM      2  O   UNL A   1      30.768  28.318  23.664  1.00  0.00    -0.376 OA
BRANCH   2   3
ATOM      3  C   UNL A   1      30.199  27.196  24.314  1.00  0.00     0.202 C 
BRANCH   3   4
ATOM      4  C   UNL A   1      29.623  25.971  23.588  1.00  0.00     0.261 C 
BRANCH   4   5
ATOM      5  O   UNL A   1      30.433  24.792  23.585  1.00  0.00    -0.460 OA
BRANCH   5   6
ATOM      6  C   UNL A   1      31.502  24.828  22.752  1.00  0.00     0.338 C 
ATOM      7  O   UNL A   1      31.691  25.615  21.839  1.00  0.00    -0.246 OA
BRANCH   6   8
ATOM      8  C   UNL A   1      32.512  23.850  23.203  1.00  0.00     0.087 C 
ATOM      9  C   UNL A   1      36.558  21.547  25.303  1.00  0.00     0.048 C 
ATOM     10  C   UNL A   1      35.216  21.100  24.794  1.00  0.00    -0.005 A 
ATOM     11  C   UNL A   1      34.820  19.759  24.946  1.00  0.00     0.054 A 
ATOM     12  C   UNL A   1      34.345  22.010  24.176  1.00  0.00     0.131 A 
ATOM     13  C   UNL A   1      33.575  19.328  24.488  1.00  0.00     0.130 A 
ATOM     14  C   UNL A   1      33.085  21.593  23.747  1.00  0.00     0.021 A 
ATOM     15  O   UNL A   1      34.799  23.291  24.024  1.00  0.00    -0.475 OA
ATOM     16  C   UNL A   1      32.716  20.249  23.880  1.00  0.00     0.058 A 
ATOM     17  C   UNL A   1      32.136  22.565  23.229  1.00  0.00     0.027 C 
ATOM     18  C   UNL A   1      33.881  24.331  23.598  1.00  0.00     0.316 C 
BRANCH  13  19
ATOM     19  O   UNL A   1      33.074  18.060  24.576  1.00  0.00    -0.406 OA
BRANCH  19  20
ATOM     20  C   UNL A   1      33.717  17.043  23.823  1.00  0.00     0.573 C 
ATOM     21  F   UNL A   1      33.203  15.829  24.114  1.00  0.00    -0.132 F 
ATOM     22  F   UNL A   1      33.608  17.274  22.498  1.00  0.00    -0.132 F 
ATOM     23  F   UNL A   1      35.029  17.031  24.141  1.00  0.00    -0.132 F 
ENDBRANCH  19  20
ENDBRANCH  13  19
BRANCH  18  24
ATOM     24  C   UNL A   1      33.826  25.405  24.692  1.00  0.00     0.430 C 
ATOM     25  F   UNL A   1      33.795  26.651  24.158  1.00  0.00    -0.167 F 
ATOM     26  F   UNL A   1      32.715  25.285  25.458  1.00  0.00    -0.167 F 
ATOM     27  F   UNL A   1      34.895  25.342  25.518  1.00  0.00    -0.167 F 
ENDBRANCH  18  24
ENDBRANCH   6   8
ENDBRANCH   5   6
ENDBRANCH   4   5
ENDBRANCH   3   4
ENDBRANCH   2   3
ENDBRANCH   1   2
BRANCH   1  28
ATOM     28  C   UNL A   1      32.441  29.497  25.198  1.00  0.00     0.188 C 
BRANCH  28  29
ATOM     29  O   UNL A   1      32.624  30.440  26.230  1.00  0.00    -0.376 OA
BRANCH  29  30
ATOM     30  C   UNL A   1      31.520  31.215  26.668  1.00  0.00     0.202 C 
BRANCH  30  31
ATOM     31  C   UNL A   1      31.551  32.751  26.768  1.00  0.00     0.261 C 
BRANCH  31  32
ATOM     32  O   UNL A   1      32.846  33.366  26.747  1.00  0.00    -0.460 OA
BRANCH  32  33
ATOM     33  C   UNL A   1      33.259  33.894  27.928  1.00  0.00     0.338 C 
ATOM     34  O   UNL A   1      32.683  34.709  28.622  1.00  0.00    -0.246 OA
BRANCH  33  35
ATOM     35  C   UNL A   1      34.477  33.187  28.365  1.00  0.00     0.060 A 
ATOM     36  C   UNL A   1      34.363  31.891  28.890  1.00  0.00     0.016 A 
ATOM     37  C   UNL A   1      35.717  33.823  28.302  1.00  0.00     0.016 A 
ATOM     38  C   UNL A   1      35.496  31.219  29.344  1.00  0.00     0.010 A 
ATOM     39  C   UNL A   1      36.844  33.167  28.800  1.00  0.00     0.010 A 
ATOM     40  C   UNL A   1      36.733  31.874  29.343  1.00  0.00    -0.014 A 
BRANCH  40  41
ATOM     41  C   UNL A   1      37.863  31.300  30.106  1.00  0.00     0.031 A 
ATOM     42  C   UNL A   1      38.749  30.305  29.412  1.00  0.00     0.074 A 
ATOM     43  C   UNL A   1      38.109  31.658  31.377  1.00  0.00     0.049 A 
ATOM     44  N   UNL A   1      39.759  29.625  29.890  1.00  0.00    -0.248 NA
ATOM     45  C   UNL A   1      38.468  30.049  27.987  1.00  0.00     0.031 C 
ATOM     46  C   UNL A   1      37.370  32.665  32.135  1.00  0.00     0.029 A 
ATOM     47  N   UNL A   1      39.064  31.206  32.254  1.00  0.00    -0.354 N 
ATOM     48  C   UNL A   1      40.232  28.867  28.828  1.00  0.00     0.074 A 
ATOM     49  C   UNL A   1      39.394  29.150  27.686  1.00  0.00     0.031 C 
ATOM     50  C   UNL A   1      37.898  32.751  33.370  1.00  0.00     0.029 A 
ATOM     51  C   UNL A   1      38.987  31.784  33.497  1.00  0.00     0.049 A 
ATOM     52  H   UNL A   1      39.740  30.531  32.014  1.00  0.00     0.167 HD
ATOM     53  C   UNL A   1      41.281  28.015  28.805  1.00  0.00     0.031 A 
ATOM     54  C   UNL A   1      39.704  31.546  34.614  1.00  0.00     0.031 A 
ATOM     55  C   UNL A   1      42.105  27.715  29.940  1.00  0.00     0.049 A 
ATOM     56  C   UNL A   1      40.792  30.505  34.595  1.00  0.00     0.074 A 
ATOM     57  C   UNL A   1      43.182  26.851  30.010  1.00  0.00     0.029 A 
ATOM     58  N   UNL A   1      41.945  28.267  31.200  1.00  0.00    -0.354 N 
ATOM     59  N   UNL A   1      41.223  29.782  33.589  1.00  0.00    -0.248 NA
ATOM     60  C   UNL A   1      41.491  30.243  35.863  1.00  0.00     0.031 C 
ATOM     61  C   UNL A   1      43.647  26.843  31.326  1.00  0.00     0.029 A 
ATOM     62  C   UNL A   1      42.893  27.745  32.060  1.00  0.00     0.049 A 
ATOM     63  H   UNL A   1      41.261  28.931  31.445  1.00  0.00     0.167 HD
ATOM     64  C   UNL A   1      42.256  29.002  34.095  1.00  0.00     0.074 A 
ATOM     65  C   UNL A   1      42.392  29.341  35.496  1.00  0.00     0.031 C 
ATOM     66  C   UNL A   1      43.024  28.093  33.450  1.00  0.00     0.031 A 
BRANCH  53  67
ATOM     67  C   UNL A   1      41.602  27.330  27.511  1.00  0.00    -0.014 A 
ATOM     68  C   UNL A   1      42.511  27.898  26.608  1.00  0.00     0.009 A 
ATOM     69  C   UNL A   1      41.076  26.056  27.246  1.00  0.00     0.009 A 
ATOM     70  C   UNL A   1      42.893  27.200  25.463  1.00  0.00     0.001 A 
ATOM     71  C   UNL A   1      41.475  25.352  26.111  1.00  0.00     0.001 A 
ATOM     72  C   UNL A   1      42.384  25.924  25.220  1.00  0.00     0.000 A 
ENDBRANCH  53  67
BRANCH  54  73
ATOM     73  C   UNL A   1      39.415  32.316  35.850  1.00  0.00    -0.014 A 
ATOM     74  C   UNL A   1      38.435  31.870  36.749  1.00  0.00     0.009 A 
ATOM     75  C   UNL A   1      40.131  33.486  36.150  1.00  0.00     0.009 A 
ATOM     76  C   UNL A   1      38.176  32.581  37.924  1.00  0.00     0.001 A 
ATOM     77  C   UNL A   1      39.884  34.182  37.336  1.00  0.00     0.001 A 
ATOM     78  C   UNL A   1      38.906  33.732  38.220  1.00  0.00     0.000 A 
ENDBRANCH  54  73
BRANCH  66  79
ATOM     79  C   UNL A   1      44.107  27.395  34.222  1.00  0.00    -0.014 A 
ATOM     80  C   UNL A   1      43.881  26.142  34.808  1.00  0.00     0.009 A 
ATOM     81  C   UNL A   1      45.405  27.931  34.231  1.00  0.00     0.009 A 
ATOM     82  C   UNL A   1      44.936  25.438  35.390  1.00  0.00     0.001 A 
ATOM     83  C   UNL A   1      46.462  27.214  34.793  1.00  0.00     0.001 A 
ATOM     84  C   UNL A   1      46.227  25.969  35.373  1.00  0.00     0.000 A 
ENDBRANCH  66  79
ENDBRANCH  40  41
ENDBRANCH  33  35
ENDBRANCH  32  33
ENDBRANCH  31  32
ENDBRANCH  30  31
ENDBRANCH  29  30
ENDBRANCH  28  29
ENDBRANCH   1  28
TORSDOF 20
ENDMDL
