MODEL 1
REMARK VINA RESULT:      -8.7      0.000      0.000
REMARK SMILES COc1cccc(NC(=O)/C(C#N)=C\c2ccc(O[C@@H](C)C(=O)OCCOCCOCCOC(=O)c3ccc(-c4c5nc(c(-c6ccccc6)c6ccc([nH]6)c(-c6ccccc6)c6nc(c(-c7ccccc7)c7ccc4[nH]7)C=C6)C=C5)cc3)cc2)c1
REMARK SMILES IDX 26 1 25 2 24 3 22 4 23 5 20 6 21 7 19 8 18 9 15 10 16 11
REMARK SMILES IDX 85 12 17 13 84 14 14 15 11 16 9 17 8 18 10 20 7 21 3 22 4 23
REMARK SMILES IDX 86 24 5 25 6 26 2 27 1 28 12 29 13 30 27 31 28 32 29 33
REMARK SMILES IDX 30 34 31 35 32 36 33 37 34 38 35 39 36 40 37 41 83 42 38 43
REMARK SMILES IDX 82 44 39 45 40 46 41 47 76 48 42 49 81 50 75 51 77 52 43 53
REMARK SMILES IDX 80 54 74 55 73 56 44 58 66 59 51 60 65 61 52 62 55 63 64 64
REMARK SMILES IDX 78 65 53 66 54 67 63 69 79 70 56 71 45 72 46 73 50 74 47 75
REMARK SMILES IDX 49 76 48 77 67 78 68 79 72 80 69 81 71 82 70 83 57 84 58 85
REMARK SMILES IDX 62 86 59 87 61 88 60 89
REMARK H PARENT 8 19 77 57 55 68
REMARK Flexibility Score: inf
ROOT
ATOM      1  C   UNL A   1      39.754  26.983  28.560  1.00  0.00     0.202 C 
ENDROOT
BRANCH   1   2
ATOM      2  C   UNL A   1      39.914  25.507  28.150  1.00  0.00     0.261 C 
BRANCH   2   3
ATOM      3  O   UNL A   1      40.447  25.311  26.825  1.00  0.00    -0.461 OA
BRANCH   3   4
ATOM      4  C   UNL A   1      40.984  24.105  26.507  1.00  0.00     0.347 C 
ATOM      5  O   UNL A   1      42.120  23.962  26.065  1.00  0.00    -0.248 OA
BRANCH   4   6
ATOM      6  C   UNL A   1      40.036  22.889  26.809  1.00  0.00     0.279 C 
ATOM      7  C   UNL A   1      40.768  21.882  27.696  1.00  0.00     0.066 C 
BRANCH   6   8
ATOM      8  O   UNL A   1      39.195  22.168  25.912  1.00  0.00    -0.479 OA
BRANCH   8   9
ATOM      9  C   UNL A   1      37.929  22.589  25.630  1.00  0.00     0.120 A 
ATOM     10  C   UNL A   1      35.278  23.238  25.005  1.00  0.00    -0.024 A 
ATOM     11  C   UNL A   1      35.857  22.103  24.441  1.00  0.00     0.012 A 
ATOM     12  C   UNL A   1      36.001  23.981  25.940  1.00  0.00     0.012 A 
ATOM     13  C   UNL A   1      37.180  21.773  24.770  1.00  0.00     0.047 A 
ATOM     14  C   UNL A   1      37.335  23.711  26.180  1.00  0.00     0.047 A 
BRANCH  10  15
ATOM     15  C   UNL A   1      33.916  23.681  24.710  1.00  0.00     0.033 C 
ATOM     16  C   UNL A   1      32.775  23.165  25.236  1.00  0.00     0.118 C 
BRANCH  16  17
ATOM     17  C   UNL A   1      32.786  22.258  26.455  1.00  0.00     0.266 C 
ATOM     18  N   UNL A   1      32.991  20.913  26.465  1.00  0.00    -0.321 N 
ATOM     19  H   UNL A   1      33.357  20.603  27.325  1.00  0.00     0.170 HD
ATOM     20  O   UNL A   1      32.671  22.729  27.594  1.00  0.00    -0.268 OA
BRANCH  18  21
ATOM     21  C   UNL A   1      32.814  19.860  25.564  1.00  0.00     0.045 A 
ATOM     22  C   UNL A   1      32.416  19.182  23.274  1.00  0.00     0.120 A 
ATOM     23  C   UNL A   1      32.280  17.859  23.681  1.00  0.00     0.046 A 
ATOM     24  C   UNL A   1      32.646  20.189  24.212  1.00  0.00     0.072 A 
ATOM     25  C   UNL A   1      32.542  17.525  25.004  1.00  0.00     0.006 A 
ATOM     26  C   UNL A   1      32.881  18.520  25.919  1.00  0.00     0.026 A 
BRANCH  22  27
ATOM     27  O   UNL A   1      32.267  19.454  21.942  1.00  0.00    -0.497 OA
ATOM     28  C   UNL A   1      31.865  20.811  21.741  1.00  0.00     0.278 C 
ENDBRANCH  22  27
ENDBRANCH  18  21
ENDBRANCH  16  17
BRANCH  16  29
ATOM     29  C   UNL A   1      31.619  23.424  24.455  1.00  0.00     0.105 C 
ATOM     30  N   UNL A   1      30.739  23.683  23.737  1.00  0.00    -0.192 NA
ENDBRANCH  16  29
ENDBRANCH  10  15
ENDBRANCH   8   9
ENDBRANCH   6   8
ENDBRANCH   4   6
ENDBRANCH   3   4
ENDBRANCH   2   3
ENDBRANCH   1   2
BRANCH   1  31
ATOM     31  O   UNL A   1      39.754  27.985  27.548  1.00  0.00    -0.376 OA
BRANCH  31  32
ATOM     32  C   UNL A   1      39.075  29.211  27.798  1.00  0.00     0.188 C 
BRANCH  32  33
ATOM     33  C   UNL A   1      38.121  29.310  29.004  1.00  0.00     0.188 C 
BRANCH  33  34
ATOM     34  O   UNL A   1      37.788  30.629  29.379  1.00  0.00    -0.376 OA
BRANCH  34  35
ATOM     35  C   UNL A   1      36.783  30.758  30.369  1.00  0.00     0.202 C 
BRANCH  35  36
ATOM     36  C   UNL A   1      36.015  32.093  30.440  1.00  0.00     0.261 C 
BRANCH  36  37
ATOM     37  O   UNL A   1      36.785  33.306  30.317  1.00  0.00    -0.460 OA
BRANCH  37  38
ATOM     38  C   UNL A   1      37.633  33.628  31.323  1.00  0.00     0.338 C 
ATOM     39  O   UNL A   1      37.480  33.401  32.508  1.00  0.00    -0.246 OA
BRANCH  38  40
ATOM     40  C   UNL A   1      38.903  34.107  30.716  1.00  0.00     0.060 A 
ATOM     41  C   UNL A   1      38.939  34.441  29.351  1.00  0.00     0.016 A 
ATOM     42  C   UNL A   1      40.051  34.249  31.496  1.00  0.00     0.016 A 
ATOM     43  C   UNL A   1      40.127  34.891  28.763  1.00  0.00     0.010 A 
ATOM     44  C   UNL A   1      41.245  34.674  30.900  1.00  0.00     0.010 A 
ATOM     45  C   UNL A   1      41.299  34.970  29.524  1.00  0.00    -0.014 A 
BRANCH  45  46
ATOM     46  C   UNL A   1      42.615  35.188  28.865  1.00  0.00     0.031 A 
ATOM     47  C   UNL A   1      43.553  34.019  28.724  1.00  0.00     0.074 A 
ATOM     48  C   UNL A   1      42.985  36.395  28.404  1.00  0.00     0.049 A 
ATOM     49  N   UNL A   1      44.773  33.981  28.249  1.00  0.00    -0.248 NA
ATOM     50  C   UNL A   1      43.048  32.720  29.193  1.00  0.00     0.031 C 
ATOM     51  C   UNL A   1      42.166  37.604  28.437  1.00  0.00     0.029 A 
ATOM     52  N   UNL A   1      44.166  36.801  27.827  1.00  0.00    -0.354 N 
ATOM     53  C   UNL A   1      45.187  32.661  28.381  1.00  0.00     0.074 A 
ATOM     54  C   UNL A   1      44.101  31.940  29.011  1.00  0.00     0.031 C 
ATOM     55  C   UNL A   1      42.872  38.621  27.912  1.00  0.00     0.029 A 
ATOM     56  C   UNL A   1      44.206  38.146  27.547  1.00  0.00     0.049 A 
ATOM     57  H   UNL A   1      44.910  36.188  27.634  1.00  0.00     0.167 HD
ATOM     58  C   UNL A   1      46.362  32.095  28.013  1.00  0.00     0.031 A 
ATOM     59  C   UNL A   1      45.210  38.913  27.076  1.00  0.00     0.031 A 
ATOM     60  C   UNL A   1      47.454  32.816  27.411  1.00  0.00     0.049 A 
ATOM     61  C   UNL A   1      46.540  38.283  26.748  1.00  0.00     0.074 A 
ATOM     62  C   UNL A   1      48.674  32.326  26.978  1.00  0.00     0.029 A 
ATOM     63  N   UNL A   1      47.467  34.182  27.177  1.00  0.00    -0.354 N 
ATOM     64  N   UNL A   1      46.907  37.028  26.840  1.00  0.00    -0.248 NA
ATOM     65  C   UNL A   1      47.592  39.178  26.242  1.00  0.00     0.031 C 
ATOM     66  C   UNL A   1      49.456  33.409  26.559  1.00  0.00     0.029 A 
ATOM     67  C   UNL A   1      48.690  34.561  26.646  1.00  0.00     0.049 A 
ATOM     68  H   UNL A   1      46.717  34.794  27.360  1.00  0.00     0.167 HD
ATOM     69  C   UNL A   1      48.218  36.977  26.376  1.00  0.00     0.074 A 
ATOM     70  C   UNL A   1      48.575  38.327  25.989  1.00  0.00     0.031 C 
ATOM     71  C   UNL A   1      49.046  35.907  26.274  1.00  0.00     0.031 A 
BRANCH  58  72
ATOM     72  C   UNL A   1      46.544  30.630  28.313  1.00  0.00    -0.014 A 
ATOM     73  C   UNL A   1      46.218  29.636  27.375  1.00  0.00     0.009 A 
ATOM     74  C   UNL A   1      47.058  30.238  29.559  1.00  0.00     0.009 A 
ATOM     75  C   UNL A   1      46.347  28.284  27.701  1.00  0.00     0.001 A 
ATOM     76  C   UNL A   1      47.224  28.887  29.868  1.00  0.00     0.001 A 
ATOM     77  C   UNL A   1      46.853  27.911  28.946  1.00  0.00     0.000 A 
ENDBRANCH  58  72
BRANCH  59  78
ATOM     78  C   UNL A   1      45.003  40.376  26.903  1.00  0.00    -0.014 A 
ATOM     79  C   UNL A   1      44.469  40.893  25.713  1.00  0.00     0.009 A 
ATOM     80  C   UNL A   1      45.335  41.267  27.937  1.00  0.00     0.009 A 
ATOM     81  C   UNL A   1      44.286  42.269  25.557  1.00  0.00     0.001 A 
ATOM     82  C   UNL A   1      45.120  42.639  27.792  1.00  0.00     0.001 A 
ATOM     83  C   UNL A   1      44.603  43.140  26.598  1.00  0.00     0.000 A 
ENDBRANCH  59  78
BRANCH  71  84
ATOM     84  C   UNL A   1      50.415  36.139  25.687  1.00  0.00    -0.014 A 
ATOM     85  C   UNL A   1      51.526  36.432  26.493  1.00  0.00     0.009 A 
ATOM     86  C   UNL A   1      50.601  36.020  24.299  1.00  0.00     0.009 A 
ATOM     87  C   UNL A   1      52.783  36.640  25.919  1.00  0.00     0.001 A 
ATOM     88  C   UNL A   1      51.865  36.190  23.732  1.00  0.00     0.001 A 
ATOM     89  C   UNL A   1      52.953  36.513  24.541  1.00  0.00     0.000 A 
ENDBRANCH  71  84
ENDBRANCH  45  46
ENDBRANCH  38  40
ENDBRANCH  37  38
ENDBRANCH  36  37
ENDBRANCH  35  36
ENDBRANCH  34  35
ENDBRANCH  33  34
ENDBRANCH  32  33
ENDBRANCH  31  32
ENDBRANCH   1  31
TORSDOF 24
ENDMDL
MODEL 2
REMARK VINA RESULT:      -8.5      7.495     10.818
REMARK SMILES COc1cccc(NC(=O)/C(C#N)=C\c2ccc(O[C@@H](C)C(=O)OCCOCCOCCOC(=O)c3ccc(-c4c5nc(c(-c6ccccc6)c6ccc([nH]6)c(-c6ccccc6)c6nc(c(-c7ccccc7)c7ccc4[nH]7)C=C6)C=C5)cc3)cc2)c1
REMARK SMILES IDX 26 1 25 2 24 3 22 4 23 5 20 6 21 7 19 8 18 9 15 10 16 11
REMARK SMILES IDX 85 12 17 13 84 14 14 15 11 16 9 17 8 18 10 20 7 21 3 22 4 23
REMARK SMILES IDX 86 24 5 25 6 26 2 27 1 28 12 29 13 30 27 31 28 32 29 33
REMARK SMILES IDX 30 34 31 35 32 36 33 37 34 38 35 39 36 40 37 41 83 42 38 43
REMARK SMILES IDX 82 44 39 45 40 46 41 47 76 48 42 49 81 50 75 51 77 52 43 53
REMARK SMILES IDX 80 54 74 55 73 56 44 58 66 59 51 60 65 61 52 62 55 63 64 64
REMARK SMILES IDX 78 65 53 66 54 67 63 69 79 70 56 71 45 72 46 73 50 74 47 75
REMARK SMILES IDX 49 76 48 77 67 78 68 79 72 80 69 81 71 82 70 83 57 84 58 85
REMARK SMILES IDX 62 86 59 87 61 88 60 89
REMARK H PARENT 8 19 77 57 55 68
REMARK Flexibility Score: inf
ROOT
ATOM      1  C   UNL A   1      39.741  26.617  28.707  1.00  0.00     0.202 C 
ENDROOT
BRANCH   1   2
ATOM      2  C   UNL A   1      39.513  25.228  28.083  1.00  0.00     0.261 C 
BRANCH   2   3
ATOM      3  O   UNL A   1      40.136  25.045  26.795  1.00  0.00    -0.461 OA
BRANCH   3   4
ATOM      4  C   UNL A   1      40.777  23.875  26.539  1.00  0.00     0.347 C 
ATOM      5  O   UNL A   1      41.972  23.799  26.272  1.00  0.00    -0.248 OA
BRANCH   4   6
ATOM      6  C   UNL A   1      39.859  22.607  26.668  1.00  0.00     0.279 C 
ATOM      7  C   UNL A   1      40.578  21.541  27.495  1.00  0.00     0.066 C 
BRANCH   6   8
ATOM      8  O   UNL A   1      39.093  21.952  25.660  1.00  0.00    -0.479 OA
BRANCH   8   9
ATOM      9  C   UNL A   1      37.742  22.113  25.575  1.00  0.00     0.120 A 
ATOM     10  C   UNL A   1      35.005  22.663  25.354  1.00  0.00    -0.024 A 
ATOM     11  C   UNL A   1      35.882  23.683  25.720  1.00  0.00     0.012 A 
ATOM     12  C   UNL A   1      35.518  21.408  25.017  1.00  0.00     0.012 A 
ATOM     13  C   UNL A   1      37.254  23.406  25.813  1.00  0.00     0.047 A 
ATOM     14  C   UNL A   1      36.855  21.116  25.211  1.00  0.00     0.047 A 
BRANCH  10  15
ATOM     15  C   UNL A   1      33.558  22.842  25.251  1.00  0.00     0.033 C 
ATOM     16  C   UNL A   1      32.907  23.570  24.307  1.00  0.00     0.118 C 
BRANCH  16  17
ATOM     17  C   UNL A   1      33.591  24.039  23.035  1.00  0.00     0.266 C 
ATOM     18  N   UNL A   1      34.066  25.289  22.782  1.00  0.00    -0.321 N 
ATOM     19  H   UNL A   1      34.798  25.278  22.123  1.00  0.00     0.170 HD
ATOM     20  O   UNL A   1      33.837  23.244  22.119  1.00  0.00    -0.268 OA
BRANCH  18  21
ATOM     21  C   UNL A   1      33.777  26.584  23.218  1.00  0.00     0.045 A 
ATOM     22  C   UNL A   1      33.364  28.058  25.093  1.00  0.00     0.120 A 
ATOM     23  C   UNL A   1      33.037  29.090  24.221  1.00  0.00     0.046 A 
ATOM     24  C   UNL A   1      33.699  26.796  24.601  1.00  0.00     0.072 A 
ATOM     25  C   UNL A   1      33.209  28.905  22.855  1.00  0.00     0.006 A 
ATOM     26  C   UNL A   1      33.649  27.675  22.369  1.00  0.00     0.026 A 
BRANCH  22  27
ATOM     27  O   UNL A   1      33.297  28.317  26.435  1.00  0.00    -0.497 OA
ATOM     28  C   UNL A   1      32.266  27.542  27.052  1.00  0.00     0.278 C 
ENDBRANCH  22  27
ENDBRANCH  18  21
ENDBRANCH  16  17
BRANCH  16  29
ATOM     29  C   UNL A   1      31.602  23.971  24.697  1.00  0.00     0.105 C 
ATOM     30  N   UNL A   1      30.514  24.193  25.047  1.00  0.00    -0.192 NA
ENDBRANCH  16  29
ENDBRANCH  10  15
ENDBRANCH   8   9
ENDBRANCH   6   8
ENDBRANCH   4   6
ENDBRANCH   3   4
ENDBRANCH   2   3
ENDBRANCH   1   2
BRANCH   1  31
ATOM     31  O   UNL A   1      40.436  27.608  27.956  1.00  0.00    -0.376 OA
BRANCH  31  32
ATOM     32  C   UNL A   1      39.916  28.932  27.925  1.00  0.00     0.188 C 
BRANCH  32  33
ATOM     33  C   UNL A   1      38.399  29.150  28.082  1.00  0.00     0.188 C 
BRANCH  33  34
ATOM     34  O   UNL A   1      38.045  30.356  28.722  1.00  0.00    -0.376 OA
BRANCH  34  35
ATOM     35  C   UNL A   1      36.798  30.914  28.349  1.00  0.00     0.202 C 
BRANCH  35  36
ATOM     36  C   UNL A   1      36.521  32.379  28.743  1.00  0.00     0.261 C 
BRANCH  36  37
ATOM     37  O   UNL A   1      36.971  32.809  30.044  1.00  0.00    -0.460 OA
BRANCH  37  38
ATOM     38  C   UNL A   1      36.372  32.274  31.136  1.00  0.00     0.338 C 
ATOM     39  O   UNL A   1      35.225  31.879  31.219  1.00  0.00    -0.246 OA
BRANCH  38  40
ATOM     40  C   UNL A   1      37.421  32.034  32.162  1.00  0.00     0.060 A 
ATOM     41  C   UNL A   1      38.775  32.201  31.826  1.00  0.00     0.016 A 
ATOM     42  C   UNL A   1      37.068  31.668  33.461  1.00  0.00     0.016 A 
ATOM     43  C   UNL A   1      39.775  31.977  32.779  1.00  0.00     0.010 A 
ATOM     44  C   UNL A   1      38.072  31.419  34.406  1.00  0.00     0.010 A 
ATOM     45  C   UNL A   1      39.432  31.542  34.064  1.00  0.00    -0.014 A 
BRANCH  45  46
ATOM     46  C   UNL A   1      40.478  31.049  34.999  1.00  0.00     0.031 A 
ATOM     47  C   UNL A   1      40.975  31.972  36.079  1.00  0.00     0.074 A 
ATOM     48  C   UNL A   1      40.992  29.810  34.898  1.00  0.00     0.049 A 
ATOM     49  N   UNL A   1      41.923  31.789  36.964  1.00  0.00    -0.248 NA
ATOM     50  C   UNL A   1      40.316  33.285  36.165  1.00  0.00     0.031 C 
ATOM     51  C   UNL A   1      40.581  28.797  33.930  1.00  0.00     0.029 A 
ATOM     52  N   UNL A   1      41.992  29.201  35.621  1.00  0.00    -0.354 N 
ATOM     53  C   UNL A   1      41.989  32.968  37.695  1.00  0.00     0.074 A 
ATOM     54  C   UNL A   1      41.008  33.870  37.129  1.00  0.00     0.031 C 
ATOM     55  C   UNL A   1      41.329  27.694  34.110  1.00  0.00     0.029 A 
ATOM     56  C   UNL A   1      42.299  27.938  35.177  1.00  0.00     0.049 A 
ATOM     57  H   UNL A   1      42.444  29.630  36.382  1.00  0.00     0.167 HD
ATOM     58  C   UNL A   1      42.790  33.278  38.743  1.00  0.00     0.031 A 
ATOM     59  C   UNL A   1      43.269  27.085  35.565  1.00  0.00     0.031 A 
ATOM     60  C   UNL A   1      43.785  32.393  39.291  1.00  0.00     0.049 A 
ATOM     61  C   UNL A   1      44.206  27.477  36.679  1.00  0.00     0.074 A 
ATOM     62  C   UNL A   1      44.627  32.605  40.368  1.00  0.00     0.029 A 
ATOM     63  N   UNL A   1      44.088  31.136  38.789  1.00  0.00    -0.354 N 
ATOM     64  N   UNL A   1      44.233  28.579  37.390  1.00  0.00    -0.248 NA
ATOM     65  C   UNL A   1      45.242  26.500  37.050  1.00  0.00     0.031 C 
ATOM     66  C   UNL A   1      45.495  31.512  40.468  1.00  0.00     0.029 A 
ATOM     67  C   UNL A   1      45.134  30.579  39.509  1.00  0.00     0.049 A 
ATOM     68  H   UNL A   1      43.628  30.703  38.034  1.00  0.00     0.167 HD
ATOM     69  C   UNL A   1      45.265  28.416  38.309  1.00  0.00     0.074 A 
ATOM     70  C   UNL A   1      45.828  27.102  38.074  1.00  0.00     0.031 C 
ATOM     71  C   UNL A   1      45.700  29.276  39.264  1.00  0.00     0.031 A 
BRANCH  58  72
ATOM     72  C   UNL A   1      42.659  34.662  39.324  1.00  0.00    -0.014 A 
ATOM     73  C   UNL A   1      41.778  34.940  40.383  1.00  0.00     0.009 A 
ATOM     74  C   UNL A   1      43.437  35.707  38.803  1.00  0.00     0.009 A 
ATOM     75  C   UNL A   1      41.638  36.243  40.866  1.00  0.00     0.001 A 
ATOM     76  C   UNL A   1      43.326  37.002  39.314  1.00  0.00     0.001 A 
ATOM     77  C   UNL A   1      42.415  37.272  40.332  1.00  0.00     0.000 A 
ENDBRANCH  58  72
BRANCH  59  78
ATOM     78  C   UNL A   1      43.417  25.774  34.878  1.00  0.00    -0.014 A 
ATOM     79  C   UNL A   1      44.246  25.639  33.754  1.00  0.00     0.009 A 
ATOM     80  C   UNL A   1      42.730  24.643  35.350  1.00  0.00     0.009 A 
ATOM     81  C   UNL A   1      44.372  24.405  33.110  1.00  0.00     0.001 A 
ATOM     82  C   UNL A   1      42.885  23.404  34.725  1.00  0.00     0.001 A 
ATOM     83  C   UNL A   1      43.700  23.288  33.601  1.00  0.00     0.000 A 
ENDBRANCH  59  78
BRANCH  71  84
ATOM     84  C   UNL A   1      46.821  28.814  40.159  1.00  0.00    -0.014 A 
ATOM     85  C   UNL A   1      46.574  28.110  41.349  1.00  0.00     0.009 A 
ATOM     86  C   UNL A   1      48.152  29.052  39.780  1.00  0.00     0.009 A 
ATOM     87  C   UNL A   1      47.635  27.693  42.159  1.00  0.00     0.001 A 
ATOM     88  C   UNL A   1      49.210  28.600  40.571  1.00  0.00     0.001 A 
ATOM     89  C   UNL A   1      48.951  27.932  41.766  1.00  0.00     0.000 A 
ENDBRANCH  71  84
ENDBRANCH  45  46
ENDBRANCH  38  40
ENDBRANCH  37  38
ENDBRANCH  36  37
ENDBRANCH  35  36
ENDBRANCH  34  35
ENDBRANCH  33  34
ENDBRANCH  32  33
ENDBRANCH  31  32
ENDBRANCH   1  31
TORSDOF 24
ENDMDL
MODEL 3
REMARK VINA RESULT:      -8.5      4.089      9.962
REMARK SMILES COc1cccc(NC(=O)/C(C#N)=C\c2ccc(O[C@@H](C)C(=O)OCCOCCOCCOC(=O)c3ccc(-c4c5nc(c(-c6ccccc6)c6ccc([nH]6)c(-c6ccccc6)c6nc(c(-c7ccccc7)c7ccc4[nH]7)C=C6)C=C5)cc3)cc2)c1
REMARK SMILES IDX 26 1 25 2 24 3 22 4 23 5 20 6 21 7 19 8 18 9 15 10 16 11
REMARK SMILES IDX 85 12 17 13 84 14 14 15 11 16 9 17 8 18 10 20 7 21 3 22 4 23
REMARK SMILES IDX 86 24 5 25 6 26 2 27 1 28 12 29 13 30 27 31 28 32 29 33
REMARK SMILES IDX 30 34 31 35 32 36 33 37 34 38 35 39 36 40 37 41 83 42 38 43
REMARK SMILES IDX 82 44 39 45 40 46 41 47 76 48 42 49 81 50 75 51 77 52 43 53
REMARK SMILES IDX 80 54 74 55 73 56 44 58 66 59 51 60 65 61 52 62 55 63 64 64
REMARK SMILES IDX 78 65 53 66 54 67 63 69 79 70 56 71 45 72 46 73 50 74 47 75
REMARK SMILES IDX 49 76 48 77 67 78 68 79 72 80 69 81 71 82 70 83 57 84 58 85
REMARK SMILES IDX 62 86 59 87 61 88 60 89
REMARK H PARENT 8 19 77 57 55 68
REMARK Flexibility Score: inf
ROOT
ATOM      1  C   UNL A   1      37.668  33.559  28.938  1.00  0.00     0.202 C 
ENDROOT
BRANCH   1   2
ATOM      2  C   UNL A   1      36.133  33.434  28.896  1.00  0.00     0.261 C 
BRANCH   2   3
ATOM      3  O   UNL A   1      35.644  32.377  28.047  1.00  0.00    -0.461 OA
BRANCH   3   4
ATOM      4  C   UNL A   1      34.332  32.034  28.118  1.00  0.00     0.347 C 
ATOM      5  O   UNL A   1      33.491  32.687  28.727  1.00  0.00    -0.248 OA
BRANCH   4   6
ATOM      6  C   UNL A   1      33.968  30.745  27.297  1.00  0.00     0.279 C 
ATOM      7  C   UNL A   1      34.972  29.637  27.617  1.00  0.00     0.066 C 
BRANCH   6   8
ATOM      8  O   UNL A   1      33.600  30.634  25.924  1.00  0.00    -0.479 OA
BRANCH   8   9
ATOM      9  C   UNL A   1      33.062  29.487  25.421  1.00  0.00     0.120 A 
ATOM     10  C   UNL A   1      31.771  27.251  24.339  1.00  0.00    -0.024 A 
ATOM     11  C   UNL A   1      31.011  28.293  24.866  1.00  0.00     0.012 A 
ATOM     12  C   UNL A   1      33.160  27.380  24.279  1.00  0.00     0.012 A 
ATOM     13  C   UNL A   1      31.661  29.418  25.392  1.00  0.00     0.047 A 
ATOM     14  C   UNL A   1      33.798  28.443  24.891  1.00  0.00     0.047 A 
BRANCH  10  15
ATOM     15  C   UNL A   1      31.191  26.026  23.789  1.00  0.00     0.033 C 
ATOM     16  C   UNL A   1      30.862  24.911  24.492  1.00  0.00     0.118 C 
BRANCH  16  17
ATOM     17  C   UNL A   1      30.763  24.912  26.007  1.00  0.00     0.266 C 
ATOM     18  N   UNL A   1      31.727  24.522  26.885  1.00  0.00    -0.321 N 
ATOM     19  H   UNL A   1      31.630  24.968  27.758  1.00  0.00     0.170 HD
ATOM     20  O   UNL A   1      29.758  25.362  26.575  1.00  0.00    -0.268 OA
BRANCH  18  21
ATOM     21  C   UNL A   1      32.818  23.650  26.861  1.00  0.00     0.045 A 
ATOM     22  C   UNL A   1      34.978  23.113  25.909  1.00  0.00     0.120 A 
ATOM     23  C   UNL A   1      34.986  21.902  26.591  1.00  0.00     0.046 A 
ATOM     24  C   UNL A   1      33.883  23.974  26.010  1.00  0.00     0.072 A 
ATOM     25  C   UNL A   1      33.976  21.630  27.505  1.00  0.00     0.006 A 
ATOM     26  C   UNL A   1      32.938  22.542  27.687  1.00  0.00     0.026 A 
BRANCH  22  27
ATOM     27  O   UNL A   1      36.049  23.398  25.108  1.00  0.00    -0.497 OA
ATOM     28  C   UNL A   1      35.679  23.358  23.728  1.00  0.00     0.278 C 
ENDBRANCH  22  27
ENDBRANCH  18  21
ENDBRANCH  16  17
BRANCH  16  29
ATOM     29  C   UNL A   1      30.781  23.740  23.695  1.00  0.00     0.105 C 
ATOM     30  N   UNL A   1      30.625  22.825  22.990  1.00  0.00    -0.192 NA
ENDBRANCH  16  29
ENDBRANCH  10  15
ENDBRANCH   8   9
ENDBRANCH   6   8
ENDBRANCH   4   6
ENDBRANCH   3   4
ENDBRANCH   2   3
ENDBRANCH   1   2
BRANCH   1  31
ATOM     31  O   UNL A   1      38.345  33.346  30.172  1.00  0.00    -0.376 OA
BRANCH  31  32
ATOM     32  C   UNL A   1      39.765  33.251  30.165  1.00  0.00     0.188 C 
BRANCH  32  33
ATOM     33  C   UNL A   1      40.602  34.507  29.857  1.00  0.00     0.188 C 
BRANCH  33  34
ATOM     34  O   UNL A   1      41.798  34.610  30.599  1.00  0.00    -0.376 OA
BRANCH  34  35
ATOM     35  C   UNL A   1      42.794  35.458  30.058  1.00  0.00     0.202 C 
BRANCH  35  36
ATOM     36  C   UNL A   1      43.951  35.886  30.983  1.00  0.00     0.261 C 
BRANCH  36  37
ATOM     37  O   UNL A   1      45.026  36.643  30.390  1.00  0.00    -0.460 OA
BRANCH  37  38
ATOM     38  C   UNL A   1      46.266  36.098  30.389  1.00  0.00     0.338 C 
ATOM     39  O   UNL A   1      47.279  36.589  30.851  1.00  0.00    -0.246 OA
BRANCH  38  40
ATOM     40  C   UNL A   1      46.148  34.688  29.930  1.00  0.00     0.060 A 
ATOM     41  C   UNL A   1      45.871  34.418  28.580  1.00  0.00     0.016 A 
ATOM     42  C   UNL A   1      46.332  33.635  30.826  1.00  0.00     0.016 A 
ATOM     43  C   UNL A   1      45.753  33.097  28.131  1.00  0.00     0.010 A 
ATOM     44  C   UNL A   1      46.188  32.315  30.381  1.00  0.00     0.010 A 
ATOM     45  C   UNL A   1      45.868  32.037  29.038  1.00  0.00    -0.014 A 
BRANCH  45  46
ATOM     46  C   UNL A   1      45.488  30.656  28.639  1.00  0.00     0.031 A 
ATOM     47  C   UNL A   1      44.068  30.207  28.857  1.00  0.00     0.074 A 
ATOM     48  C   UNL A   1      46.377  29.803  28.099  1.00  0.00     0.049 A 
ATOM     49  N   UNL A   1      43.521  29.035  28.651  1.00  0.00    -0.248 NA
ATOM     50  C   UNL A   1      43.142  31.218  29.390  1.00  0.00     0.031 C 
ATOM     51  C   UNL A   1      47.771  30.112  27.794  1.00  0.00     0.029 A 
ATOM     52  N   UNL A   1      46.232  28.488  27.725  1.00  0.00    -0.354 N 
ATOM     53  C   UNL A   1      42.196  29.162  29.048  1.00  0.00     0.074 A 
ATOM     54  C   UNL A   1      42.031  30.514  29.537  1.00  0.00     0.031 C 
ATOM     55  C   UNL A   1      48.359  29.013  27.289  1.00  0.00     0.029 A 
ATOM     56  C   UNL A   1      47.396  27.913  27.274  1.00  0.00     0.049 A 
ATOM     57  H   UNL A   1      45.376  28.004  27.775  1.00  0.00     0.167 HD
ATOM     58  C   UNL A   1      41.203  28.241  29.012  1.00  0.00     0.031 A 
ATOM     59  C   UNL A   1      47.663  26.641  26.916  1.00  0.00     0.031 A 
ATOM     60  C   UNL A   1      41.371  26.886  28.551  1.00  0.00     0.049 A 
ATOM     61  C   UNL A   1      46.566  25.607  26.958  1.00  0.00     0.074 A 
ATOM     62  C   UNL A   1      40.420  25.887  28.450  1.00  0.00     0.029 A 
ATOM     63  N   UNL A   1      42.574  26.336  28.136  1.00  0.00    -0.354 N 
ATOM     64  N   UNL A   1      45.308  25.748  27.298  1.00  0.00    -0.248 NA
ATOM     65  C   UNL A   1      46.929  24.239  26.558  1.00  0.00     0.031 C 
ATOM     66  C   UNL A   1      41.063  24.709  28.053  1.00  0.00     0.029 A 
ATOM     67  C   UNL A   1      42.398  24.998  27.819  1.00  0.00     0.049 A 
ATOM     68  H   UNL A   1      43.428  26.824  28.075  1.00  0.00     0.167 HD
ATOM     69  C   UNL A   1      44.722  24.498  27.124  1.00  0.00     0.074 A 
ATOM     70  C   UNL A   1      45.761  23.616  26.633  1.00  0.00     0.031 C 
ATOM     71  C   UNL A   1      43.438  24.120  27.344  1.00  0.00     0.031 A 
BRANCH  58  72
ATOM     72  C   UNL A   1      39.856  28.658  29.544  1.00  0.00    -0.014 A 
ATOM     73  C   UNL A   1      38.947  29.392  28.764  1.00  0.00     0.009 A 
ATOM     74  C   UNL A   1      39.491  28.306  30.852  1.00  0.00     0.009 A 
ATOM     75  C   UNL A   1      37.728  29.811  29.302  1.00  0.00     0.001 A 
ATOM     76  C   UNL A   1      38.255  28.691  31.376  1.00  0.00     0.001 A 
ATOM     77  C   UNL A   1      37.383  29.458  30.606  1.00  0.00     0.000 A 
ENDBRANCH  58  72
BRANCH  59  78
ATOM     78  C   UNL A   1      49.042  26.265  26.502  1.00  0.00    -0.014 A 
ATOM     79  C   UNL A   1      49.910  25.617  27.394  1.00  0.00     0.009 A 
ATOM     80  C   UNL A   1      49.496  26.549  25.204  1.00  0.00     0.009 A 
ATOM     81  C   UNL A   1      51.206  25.275  26.999  1.00  0.00     0.001 A 
ATOM     82  C   UNL A   1      50.780  26.176  24.801  1.00  0.00     0.001 A 
ATOM     83  C   UNL A   1      51.636  25.547  25.701  1.00  0.00     0.000 A 
ENDBRANCH  59  78
BRANCH  71  84
ATOM     84  C   UNL A   1      43.067  22.695  27.023  1.00  0.00    -0.014 A 
ATOM     85  C   UNL A   1      43.537  22.050  25.867  1.00  0.00     0.009 A 
ATOM     86  C   UNL A   1      42.262  21.971  27.918  1.00  0.00     0.009 A 
ATOM     87  C   UNL A   1      43.176  20.727  25.596  1.00  0.00     0.001 A 
ATOM     88  C   UNL A   1      41.935  20.638  27.665  1.00  0.00     0.001 A 
ATOM     89  C   UNL A   1      42.382  20.021  26.498  1.00  0.00     0.000 A 
ENDBRANCH  71  84
ENDBRANCH  45  46
ENDBRANCH  38  40
ENDBRANCH  37  38
ENDBRANCH  36  37
ENDBRANCH  35  36
ENDBRANCH  34  35
ENDBRANCH  33  34
ENDBRANCH  32  33
ENDBRANCH  31  32
ENDBRANCH   1  31
TORSDOF 24
ENDMDL
