MODEL 1
REMARK VINA RESULT:     -10.5      0.000      0.000
REMARK SMILES O=C(/C=C/c1ccc(C(=O)NC2CC2)cc1)NC1(C(=O)OCCOCCOCCOC(=O)c2ccc(-c3c4nc(c(-c5ccccc5)c5ccc([nH]5)c(-c5ccccc5)c5nc(c(-c6ccccc6)c6ccc3[nH]6)C=C5)C=C4)cc2)CCCC1
REMARK SMILES IDX 24 1 23 2 22 3 21 4 19 5 20 6 18 7 81 8 84 9 82 10 83 11
REMARK SMILES IDX 17 12 1 13 2 14 3 16 4 17 5 18 6 19 16 20 7 21 15 22 8 23
REMARK SMILES IDX 9 24 10 25 11 26 12 28 13 29 14 30 25 31 26 32 27 33 28 34
REMARK SMILES IDX 29 35 30 36 31 37 32 38 33 39 34 40 80 41 35 42 79 43 36 44
REMARK SMILES IDX 37 45 38 46 73 47 39 48 78 49 72 50 74 51 40 52 77 53 71 54
REMARK SMILES IDX 70 55 41 57 63 58 48 59 62 60 49 61 52 62 61 63 75 64 50 65
REMARK SMILES IDX 51 66 60 68 76 69 53 70 42 71 43 72 47 73 44 74 46 75 45 76
REMARK SMILES IDX 64 77 65 78 69 79 66 80 68 81 67 82 54 83 55 84 59 85 56 86
REMARK SMILES IDX 58 87 57 88
REMARK H PARENT 17 15 11 27 74 56 52 67
REMARK Flexibility Score: inf
ROOT
ATOM      1  O   UNL A   1      34.074  31.633  28.329  1.00  0.00    -0.376 OA
ENDROOT
BRANCH   1   2
ATOM      2  C   UNL A   1      34.038  30.666  27.281  1.00  0.00     0.202 C 
BRANCH   2   3
ATOM      3  C   UNL A   1      32.694  30.085  26.794  1.00  0.00     0.261 C 
BRANCH   3   4
ATOM      4  O   UNL A   1      32.619  29.741  25.390  1.00  0.00    -0.461 OA
BRANCH   4   5
ATOM      5  C   UNL A   1      31.383  29.819  24.823  1.00  0.00     0.331 C 
ATOM      6  O   UNL A   1      30.606  30.741  25.050  1.00  0.00    -0.249 OA
BRANCH   5   7
ATOM      7  C   UNL A   1      31.084  28.691  23.779  1.00  0.00     0.138 C 
ATOM      8  C   UNL A   1      31.203  29.286  22.365  1.00  0.00     0.040 C 
ATOM      9  C   UNL A   1      29.659  28.110  23.720  1.00  0.00     0.040 C 
ATOM     10  C   UNL A   1      29.838  29.902  22.094  1.00  0.00     0.003 C 
ATOM     11  C   UNL A   1      28.838  29.016  22.814  1.00  0.00     0.003 C 
BRANCH   7  12
ATOM     12  N   UNL A   1      32.037  27.585  24.035  1.00  0.00    -0.337 N 
ATOM     13  O   UNL A   1      30.991  26.732  25.898  1.00  0.00    -0.270 OA
ATOM     14  C   UNL A   1      31.870  26.681  25.047  1.00  0.00     0.244 C 
ATOM     15  H   UNL A   1      32.826  27.497  23.452  1.00  0.00     0.164 HD
BRANCH  14  16
ATOM     16  C   UNL A   1      32.801  25.532  25.072  1.00  0.00     0.072 C 
ATOM     17  C   UNL A   1      34.118  25.498  25.334  1.00  0.00     0.014 C 
BRANCH  17  18
ATOM     18  C   UNL A   1      34.805  24.198  25.330  1.00  0.00    -0.025 A 
ATOM     19  C   UNL A   1      34.751  23.331  26.426  1.00  0.00     0.009 A 
ATOM     20  C   UNL A   1      35.503  23.791  24.192  1.00  0.00     0.009 A 
ATOM     21  C   UNL A   1      35.264  22.026  26.320  1.00  0.00     0.014 A 
ATOM     22  C   UNL A   1      36.015  22.502  24.095  1.00  0.00     0.014 A 
ATOM     23  C   UNL A   1      35.838  21.581  25.122  1.00  0.00     0.039 A 
BRANCH  23  24
ATOM     24  C   UNL A   1      36.197  20.142  24.989  1.00  0.00     0.251 C 
ATOM     25  O   UNL A   1      37.379  19.801  25.019  1.00  0.00    -0.269 OA
ATOM     26  N   UNL A   1      35.226  19.159  24.917  1.00  0.00    -0.349 N 
ATOM     27  H   UNL A   1      35.568  18.236  24.930  1.00  0.00     0.164 HD
BRANCH  26  28
ATOM     28  C   UNL A   1      33.809  19.272  24.827  1.00  0.00     0.082 C 
ATOM     29  C   UNL A   1      33.027  18.462  23.837  1.00  0.00     0.027 C 
ATOM     30  C   UNL A   1      32.860  18.220  25.309  1.00  0.00     0.027 C 
ENDBRANCH  26  28
ENDBRANCH  23  24
ENDBRANCH  17  18
ENDBRANCH  14  16
ENDBRANCH   7  12
ENDBRANCH   5   7
ENDBRANCH   4   5
ENDBRANCH   3   4
ENDBRANCH   2   3
ENDBRANCH   1   2
BRANCH   1  31
ATOM     31  C   UNL A   1      33.767  32.978  28.010  1.00  0.00     0.188 C 
BRANCH  31  32
ATOM     32  C   UNL A   1      34.616  34.086  28.637  1.00  0.00     0.188 C 
BRANCH  32  33
ATOM     33  O   UNL A   1      33.962  34.914  29.563  1.00  0.00    -0.376 OA
BRANCH  33  34
ATOM     34  C   UNL A   1      34.277  34.869  30.947  1.00  0.00     0.202 C 
BRANCH  34  35
ATOM     35  C   UNL A   1      34.021  33.661  31.877  1.00  0.00     0.261 C 
BRANCH  35  36
ATOM     36  O   UNL A   1      34.916  32.543  31.820  1.00  0.00    -0.460 OA
BRANCH  36  37
ATOM     37  C   UNL A   1      35.870  32.461  32.777  1.00  0.00     0.338 C 
ATOM     38  O   UNL A   1      35.698  32.454  33.988  1.00  0.00    -0.246 OA
BRANCH  37  39
ATOM     39  C   UNL A   1      37.137  32.080  32.102  1.00  0.00     0.060 A 
ATOM     40  C   UNL A   1      37.264  32.288  30.717  1.00  0.00     0.016 A 
ATOM     41  C   UNL A   1      38.210  31.575  32.836  1.00  0.00     0.016 A 
ATOM     42  C   UNL A   1      38.454  31.962  30.059  1.00  0.00     0.010 A 
ATOM     43  C   UNL A   1      39.387  31.217  32.173  1.00  0.00     0.010 A 
ATOM     44  C   UNL A   1      39.505  31.376  30.778  1.00  0.00    -0.014 A 
BRANCH  44  45
ATOM     45  C   UNL A   1      40.611  30.681  30.068  1.00  0.00     0.031 A 
ATOM     46  C   UNL A   1      41.873  31.466  29.835  1.00  0.00     0.074 A 
ATOM     47  C   UNL A   1      40.467  29.445  29.551  1.00  0.00     0.049 A 
ATOM     48  N   UNL A   1      42.951  31.134  29.176  1.00  0.00    -0.248 NA
ATOM     49  C   UNL A   1      41.904  32.832  30.390  1.00  0.00     0.031 C 
ATOM     50  C   UNL A   1      39.270  28.626  29.692  1.00  0.00     0.029 A 
ATOM     51  N   UNL A   1      41.315  28.670  28.792  1.00  0.00    -0.354 N 
ATOM     52  C   UNL A   1      43.756  32.266  29.184  1.00  0.00     0.074 A 
ATOM     53  C   UNL A   1      43.052  33.290  29.919  1.00  0.00     0.031 C 
ATOM     54  C   UNL A   1      39.456  27.468  29.035  1.00  0.00     0.029 A 
ATOM     55  C   UNL A   1      40.780  27.457  28.404  1.00  0.00     0.049 A 
ATOM     56  H   UNL A   1      42.225  28.955  28.546  1.00  0.00     0.167 HD
ATOM     57  C   UNL A   1      44.965  32.442  28.604  1.00  0.00     0.031 A 
ATOM     58  C   UNL A   1      41.308  26.466  27.643  1.00  0.00     0.031 A 
ATOM     59  C   UNL A   1      45.658  31.417  27.874  1.00  0.00     0.049 A 
ATOM     60  C   UNL A   1      42.723  26.680  27.112  1.00  0.00     0.074 A 
ATOM     61  C   UNL A   1      46.895  31.482  27.260  1.00  0.00     0.029 A 
ATOM     62  N   UNL A   1      45.165  30.140  27.660  1.00  0.00    -0.354 N 
ATOM     63  N   UNL A   1      43.549  27.683  27.315  1.00  0.00    -0.248 NA
ATOM     64  C   UNL A   1      43.293  25.620  26.265  1.00  0.00     0.031 C 
ATOM     65  C   UNL A   1      47.126  30.262  26.620  1.00  0.00     0.029 A 
ATOM     66  C   UNL A   1      46.059  29.420  26.890  1.00  0.00     0.049 A 
ATOM     67  H   UNL A   1      44.309  29.798  28.004  1.00  0.00     0.167 HD
ATOM     68  C   UNL A   1      44.739  27.333  26.680  1.00  0.00     0.074 A 
ATOM     69  C   UNL A   1      44.557  25.996  26.164  1.00  0.00     0.031 C 
ATOM     70  C   UNL A   1      45.865  28.060  26.468  1.00  0.00     0.031 A 
BRANCH  57  71
ATOM     71  C   UNL A   1      45.583  33.810  28.678  1.00  0.00    -0.014 A 
ATOM     72  C   UNL A   1      45.436  34.745  27.643  1.00  0.00     0.009 A 
ATOM     73  C   UNL A   1      46.298  34.177  29.830  1.00  0.00     0.009 A 
ATOM     74  C   UNL A   1      46.017  36.011  27.749  1.00  0.00     0.001 A 
ATOM     75  C   UNL A   1      46.849  35.454  29.948  1.00  0.00     0.001 A 
ATOM     76  C   UNL A   1      46.715  36.366  28.903  1.00  0.00     0.000 A 
ENDBRANCH  57  71
BRANCH  58  77
ATOM     77  C   UNL A   1      40.566  25.174  27.373  1.00  0.00    -0.014 A 
ATOM     78  C   UNL A   1      39.399  25.149  26.583  1.00  0.00     0.009 A 
ATOM     79  C   UNL A   1      40.996  23.937  27.879  1.00  0.00     0.009 A 
ATOM     80  C   UNL A   1      38.703  23.964  26.309  1.00  0.00     0.001 A 
ATOM     81  C   UNL A   1      40.354  22.738  27.537  1.00  0.00     0.001 A 
ATOM     82  C   UNL A   1      39.202  22.751  26.757  1.00  0.00     0.000 A 
ENDBRANCH  58  77
BRANCH  70  83
ATOM     83  C   UNL A   1      46.979  27.404  25.692  1.00  0.00    -0.014 A 
ATOM     84  C   UNL A   1      47.067  27.538  24.296  1.00  0.00     0.009 A 
ATOM     85  C   UNL A   1      47.970  26.673  26.364  1.00  0.00     0.009 A 
ATOM     86  C   UNL A   1      48.083  26.900  23.583  1.00  0.00     0.001 A 
ATOM     87  C   UNL A   1      49.011  26.072  25.653  1.00  0.00     0.001 A 
ATOM     88  C   UNL A   1      49.058  26.172  24.263  1.00  0.00     0.000 A 
ENDBRANCH  70  83
ENDBRANCH  44  45
ENDBRANCH  37  39
ENDBRANCH  36  37
ENDBRANCH  35  36
ENDBRANCH  34  35
ENDBRANCH  33  34
ENDBRANCH  32  33
ENDBRANCH  31  32
ENDBRANCH   1  31
TORSDOF 22
ENDMDL
MODEL 2
REMARK VINA RESULT:     -10.3      4.202     10.332
REMARK SMILES O=C(/C=C/c1ccc(C(=O)NC2CC2)cc1)NC1(C(=O)OCCOCCOCCOC(=O)c2ccc(-c3c4nc(c(-c5ccccc5)c5ccc([nH]5)c(-c5ccccc5)c5nc(c(-c6ccccc6)c6ccc3[nH]6)C=C5)C=C4)cc2)CCCC1
REMARK SMILES IDX 24 1 23 2 22 3 21 4 19 5 20 6 18 7 81 8 84 9 82 10 83 11
REMARK SMILES IDX 17 12 1 13 2 14 3 16 4 17 5 18 6 19 16 20 7 21 15 22 8 23
REMARK SMILES IDX 9 24 10 25 11 26 12 28 13 29 14 30 25 31 26 32 27 33 28 34
REMARK SMILES IDX 29 35 30 36 31 37 32 38 33 39 34 40 80 41 35 42 79 43 36 44
REMARK SMILES IDX 37 45 38 46 73 47 39 48 78 49 72 50 74 51 40 52 77 53 71 54
REMARK SMILES IDX 70 55 41 57 63 58 48 59 62 60 49 61 52 62 61 63 75 64 50 65
REMARK SMILES IDX 51 66 60 68 76 69 53 70 42 71 43 72 47 73 44 74 46 75 45 76
REMARK SMILES IDX 64 77 65 78 69 79 66 80 68 81 67 82 54 83 55 84 59 85 56 86
REMARK SMILES IDX 58 87 57 88
REMARK H PARENT 17 15 11 27 74 56 52 67
REMARK Flexibility Score: inf
ROOT
ATOM      1  O   UNL A   1      38.626  22.144  25.571  1.00  0.00    -0.376 OA
ENDROOT
BRANCH   1   2
ATOM      2  C   UNL A   1      37.822  21.078  25.070  1.00  0.00     0.202 C 
BRANCH   2   3
ATOM      3  C   UNL A   1      36.337  21.311  24.722  1.00  0.00     0.261 C 
BRANCH   3   4
ATOM      4  O   UNL A   1      35.379  20.485  25.426  1.00  0.00    -0.461 OA
BRANCH   4   5
ATOM      5  C   UNL A   1      35.014  19.331  24.802  1.00  0.00     0.331 C 
ATOM      6  O   UNL A   1      35.790  18.395  24.635  1.00  0.00    -0.249 OA
BRANCH   5   7
ATOM      7  C   UNL A   1      33.499  19.260  24.417  1.00  0.00     0.138 C 
ATOM      8  C   UNL A   1      32.709  18.723  25.622  1.00  0.00     0.040 C 
ATOM      9  C   UNL A   1      33.069  18.258  23.329  1.00  0.00     0.040 C 
ATOM     10  C   UNL A   1      32.813  17.209  25.503  1.00  0.00     0.003 C 
ATOM     11  C   UNL A   1      32.845  16.917  24.013  1.00  0.00     0.003 C 
BRANCH   7  12
ATOM     12  N   UNL A   1      33.084  20.621  23.998  1.00  0.00    -0.337 N 
ATOM     13  O   UNL A   1      31.528  20.969  25.656  1.00  0.00    -0.270 OA
ATOM     14  C   UNL A   1      32.169  21.363  24.691  1.00  0.00     0.244 C 
ATOM     15  H   UNL A   1      33.484  21.006  23.185  1.00  0.00     0.164 HD
BRANCH  14  16
ATOM     16  C   UNL A   1      31.986  22.765  24.257  1.00  0.00     0.072 C 
ATOM     17  C   UNL A   1      30.900  23.554  24.330  1.00  0.00     0.014 C 
BRANCH  17  18
ATOM     18  C   UNL A   1      31.003  24.942  23.854  1.00  0.00    -0.025 A 
ATOM     19  C   UNL A   1      30.796  26.032  24.705  1.00  0.00     0.009 A 
ATOM     20  C   UNL A   1      31.353  25.191  22.526  1.00  0.00     0.009 A 
ATOM     21  C   UNL A   1      31.078  27.336  24.264  1.00  0.00     0.014 A 
ATOM     22  C   UNL A   1      31.624  26.484  22.093  1.00  0.00     0.014 A 
ATOM     23  C   UNL A   1      31.565  27.561  22.970  1.00  0.00     0.039 A 
BRANCH  23  24
ATOM     24  C   UNL A   1      32.029  28.928  22.605  1.00  0.00     0.251 C 
ATOM     25  O   UNL A   1      33.211  29.234  22.758  1.00  0.00    -0.269 OA
ATOM     26  N   UNL A   1      31.180  29.846  22.013  1.00  0.00    -0.349 N 
ATOM     27  H   UNL A   1      31.610  30.682  21.723  1.00  0.00     0.164 HD
BRANCH  26  28
ATOM     28  C   UNL A   1      29.781  29.770  21.758  1.00  0.00     0.082 C 
ATOM     29  C   UNL A   1      28.784  29.792  22.879  1.00  0.00     0.027 C 
ATOM     30  C   UNL A   1      28.847  30.931  21.902  1.00  0.00     0.027 C 
ENDBRANCH  26  28
ENDBRANCH  23  24
ENDBRANCH  17  18
ENDBRANCH  14  16
ENDBRANCH   7  12
ENDBRANCH   5   7
ENDBRANCH   4   5
ENDBRANCH   3   4
ENDBRANCH   2   3
ENDBRANCH   1   2
BRANCH   1  31
ATOM     31  C   UNL A   1      39.637  21.835  26.512  1.00  0.00     0.188 C 
BRANCH  31  32
ATOM     32  C   UNL A   1      40.349  20.485  26.399  1.00  0.00     0.188 C 
BRANCH  32  33
ATOM     33  O   UNL A   1      41.664  20.440  26.888  1.00  0.00    -0.376 OA
BRANCH  33  34
ATOM     34  C   UNL A   1      42.767  20.200  26.026  1.00  0.00     0.202 C 
BRANCH  34  35
ATOM     35  C   UNL A   1      43.554  21.294  25.268  1.00  0.00     0.261 C 
BRANCH  35  36
ATOM     36  O   UNL A   1      42.976  22.598  25.138  1.00  0.00    -0.460 OA
BRANCH  36  37
ATOM     37  C   UNL A   1      43.823  23.654  25.099  1.00  0.00     0.338 C 
ATOM     38  O   UNL A   1      44.532  23.992  24.162  1.00  0.00    -0.246 OA
BRANCH  37  39
ATOM     39  C   UNL A   1      43.521  24.504  26.279  1.00  0.00     0.060 A 
ATOM     40  C   UNL A   1      42.653  24.014  27.272  1.00  0.00     0.016 A 
ATOM     41  C   UNL A   1      44.131  25.748  26.434  1.00  0.00     0.016 A 
ATOM     42  C   UNL A   1      42.370  24.782  28.405  1.00  0.00     0.010 A 
ATOM     43  C   UNL A   1      43.821  26.530  27.551  1.00  0.00     0.010 A 
ATOM     44  C   UNL A   1      42.915  26.067  28.525  1.00  0.00    -0.014 A 
BRANCH  44  45
ATOM     45  C   UNL A   1      42.351  27.039  29.499  1.00  0.00     0.031 A 
ATOM     46  C   UNL A   1      43.027  27.132  30.840  1.00  0.00     0.074 A 
ATOM     47  C   UNL A   1      41.222  27.730  29.251  1.00  0.00     0.049 A 
ATOM     48  N   UNL A   1      42.696  27.830  31.893  1.00  0.00    -0.248 NA
ATOM     49  C   UNL A   1      44.222  26.287  31.029  1.00  0.00     0.031 C 
ATOM     50  C   UNL A   1      40.478  27.675  27.999  1.00  0.00     0.029 A 
ATOM     51  N   UNL A   1      40.492  28.594  30.035  1.00  0.00    -0.354 N 
ATOM     52  C   UNL A   1      43.598  27.461  32.884  1.00  0.00     0.074 A 
ATOM     53  C   UNL A   1      44.496  26.488  32.307  1.00  0.00     0.031 C 
ATOM     54  C   UNL A   1      39.394  28.463  28.103  1.00  0.00     0.029 A 
ATOM     55  C   UNL A   1      39.344  29.073  29.434  1.00  0.00     0.049 A 
ATOM     56  H   UNL A   1      40.763  28.850  30.947  1.00  0.00     0.167 HD
ATOM     57  C   UNL A   1      43.652  27.879  34.169  1.00  0.00     0.031 A 
ATOM     58  C   UNL A   1      38.386  29.910  29.908  1.00  0.00     0.031 A 
ATOM     59  C   UNL A   1      42.754  28.846  34.733  1.00  0.00     0.049 A 
ATOM     60  C   UNL A   1      38.567  30.435  31.329  1.00  0.00     0.074 A 
ATOM     61  C   UNL A   1      42.730  29.354  36.019  1.00  0.00     0.029 A 
ATOM     62  N   UNL A   1      41.717  29.449  34.040  1.00  0.00    -0.354 N 
ATOM     63  N   UNL A   1      39.553  30.233  32.177  1.00  0.00    -0.248 NA
ATOM     64  C   UNL A   1      37.519  31.322  31.860  1.00  0.00     0.031 C 
ATOM     65  C   UNL A   1      41.639  30.220  36.123  1.00  0.00     0.029 A 
ATOM     66  C   UNL A   1      41.024  30.297  34.884  1.00  0.00     0.049 A 
ATOM     67  H   UNL A   1      41.506  29.297  33.091  1.00  0.00     0.167 HD
ATOM     68  C   UNL A   1      39.267  31.017  33.292  1.00  0.00     0.074 A 
ATOM     69  C   UNL A   1      38.069  31.761  32.980  1.00  0.00     0.031 C 
ATOM     70  C   UNL A   1      39.881  31.079  34.500  1.00  0.00     0.031 A 
BRANCH  57  71
ATOM     71  C   UNL A   1      44.675  27.241  35.067  1.00  0.00    -0.014 A 
ATOM     72  C   UNL A   1      45.963  27.776  35.217  1.00  0.00     0.009 A 
ATOM     73  C   UNL A   1      44.322  26.099  35.805  1.00  0.00     0.009 A 
ATOM     74  C   UNL A   1      46.886  27.162  36.067  1.00  0.00     0.001 A 
ATOM     75  C   UNL A   1      45.235  25.508  36.679  1.00  0.00     0.001 A 
ATOM     76  C   UNL A   1      46.519  26.035  36.802  1.00  0.00     0.000 A 
ENDBRANCH  57  71
BRANCH  58  77
ATOM     77  C   UNL A   1      37.216  30.359  29.059  1.00  0.00    -0.014 A 
ATOM     78  C   UNL A   1      36.224  29.452  28.636  1.00  0.00     0.009 A 
ATOM     79  C   UNL A   1      37.046  31.693  28.655  1.00  0.00     0.009 A 
ATOM     80  C   UNL A   1      35.126  29.847  27.860  1.00  0.00     0.001 A 
ATOM     81  C   UNL A   1      35.905  32.110  27.953  1.00  0.00     0.001 A 
ATOM     82  C   UNL A   1      34.947  31.186  27.549  1.00  0.00     0.000 A 
ENDBRANCH  58  77
BRANCH  70  83
ATOM     83  C   UNL A   1      39.292  32.007  35.532  1.00  0.00    -0.014 A 
ATOM     84  C   UNL A   1      38.336  31.551  36.455  1.00  0.00     0.009 A 
ATOM     85  C   UNL A   1      39.720  33.341  35.605  1.00  0.00     0.009 A 
ATOM     86  C   UNL A   1      37.772  32.426  37.385  1.00  0.00     0.001 A 
ATOM     87  C   UNL A   1      39.187  34.203  36.566  1.00  0.00     0.001 A 
ATOM     88  C   UNL A   1      38.202  33.750  37.444  1.00  0.00     0.000 A 
ENDBRANCH  70  83
ENDBRANCH  44  45
ENDBRANCH  37  39
ENDBRANCH  36  37
ENDBRANCH  35  36
ENDBRANCH  34  35
ENDBRANCH  33  34
ENDBRANCH  32  33
ENDBRANCH  31  32
ENDBRANCH   1  31
TORSDOF 22
ENDMDL
MODEL 3
REMARK VINA RESULT:     -10.1      2.688      9.712
REMARK SMILES O=C(/C=C/c1ccc(C(=O)NC2CC2)cc1)NC1(C(=O)OCCOCCOCCOC(=O)c2ccc(-c3c4nc(c(-c5ccccc5)c5ccc([nH]5)c(-c5ccccc5)c5nc(c(-c6ccccc6)c6ccc3[nH]6)C=C5)C=C4)cc2)CCCC1
REMARK SMILES IDX 24 1 23 2 22 3 21 4 19 5 20 6 18 7 81 8 84 9 82 10 83 11
REMARK SMILES IDX 17 12 1 13 2 14 3 16 4 17 5 18 6 19 16 20 7 21 15 22 8 23
REMARK SMILES IDX 9 24 10 25 11 26 12 28 13 29 14 30 25 31 26 32 27 33 28 34
REMARK SMILES IDX 29 35 30 36 31 37 32 38 33 39 34 40 80 41 35 42 79 43 36 44
REMARK SMILES IDX 37 45 38 46 73 47 39 48 78 49 72 50 74 51 40 52 77 53 71 54
REMARK SMILES IDX 70 55 41 57 63 58 48 59 62 60 49 61 52 62 61 63 75 64 50 65
REMARK SMILES IDX 51 66 60 68 76 69 53 70 42 71 43 72 47 73 44 74 46 75 45 76
REMARK SMILES IDX 64 77 65 78 69 79 66 80 68 81 67 82 54 83 55 84 59 85 56 86
REMARK SMILES IDX 58 87 57 88
REMARK H PARENT 17 15 11 27 74 56 52 67
REMARK Flexibility Score: inf
ROOT
ATOM      1  O   UNL A   1      39.044  22.050  25.793  1.00  0.00    -0.376 OA
ENDROOT
BRANCH   1   2
ATOM      2  C   UNL A   1      38.367  20.856  25.404  1.00  0.00     0.202 C 
BRANCH   2   3
ATOM      3  C   UNL A   1      37.023  20.925  24.651  1.00  0.00     0.261 C 
BRANCH   3   4
ATOM      4  O   UNL A   1      35.842  20.599  25.421  1.00  0.00    -0.461 OA
BRANCH   4   5
ATOM      5  C   UNL A   1      35.034  19.636  24.897  1.00  0.00     0.331 C 
ATOM      6  O   UNL A   1      35.466  18.569  24.473  1.00  0.00    -0.249 OA
BRANCH   5   7
ATOM      7  C   UNL A   1      33.506  19.964  24.981  1.00  0.00     0.138 C 
ATOM      8  C   UNL A   1      32.872  19.081  26.069  1.00  0.00     0.040 C 
ATOM      9  C   UNL A   1      32.616  19.608  23.776  1.00  0.00     0.040 C 
ATOM     10  C   UNL A   1      32.555  17.771  25.361  1.00  0.00     0.003 C 
ATOM     11  C   UNL A   1      32.201  18.152  23.935  1.00  0.00     0.003 C 
BRANCH   7  12
ATOM     12  N   UNL A   1      33.378  21.416  25.252  1.00  0.00    -0.337 N 
ATOM     13  O   UNL A   1      33.786  22.144  23.109  1.00  0.00    -0.270 OA
ATOM     14  C   UNL A   1      33.484  22.366  24.274  1.00  0.00     0.244 C 
ATOM     15  H   UNL A   1      33.209  21.710  26.177  1.00  0.00     0.164 HD
BRANCH  14  16
ATOM     16  C   UNL A   1      33.159  23.756  24.660  1.00  0.00     0.072 C 
ATOM     17  C   UNL A   1      33.185  24.342  25.869  1.00  0.00     0.014 C 
BRANCH  17  18
ATOM     18  C   UNL A   1      32.848  25.769  25.969  1.00  0.00    -0.025 A 
ATOM     19  C   UNL A   1      33.778  26.770  25.673  1.00  0.00     0.009 A 
ATOM     20  C   UNL A   1      31.554  26.148  26.333  1.00  0.00     0.009 A 
ATOM     21  C   UNL A   1      33.372  28.114  25.604  1.00  0.00     0.014 A 
ATOM     22  C   UNL A   1      31.159  27.479  26.270  1.00  0.00     0.014 A 
ATOM     23  C   UNL A   1      32.035  28.467  25.833  1.00  0.00     0.039 A 
BRANCH  23  24
ATOM     24  C   UNL A   1      31.607  29.869  25.566  1.00  0.00     0.251 C 
ATOM     25  O   UNL A   1      31.876  30.755  26.376  1.00  0.00    -0.269 OA
ATOM     26  N   UNL A   1      30.983  30.220  24.383  1.00  0.00    -0.349 N 
ATOM     27  H   UNL A   1      30.830  31.185  24.265  1.00  0.00     0.164 HD
BRANCH  26  28
ATOM     28  C   UNL A   1      30.526  29.405  23.308  1.00  0.00     0.082 C 
ATOM     29  C   UNL A   1      29.062  29.169  23.079  1.00  0.00     0.027 C 
ATOM     30  C   UNL A   1      29.868  29.946  22.077  1.00  0.00     0.027 C 
ENDBRANCH  26  28
ENDBRANCH  23  24
ENDBRANCH  17  18
ENDBRANCH  14  16
ENDBRANCH   7  12
ENDBRANCH   5   7
ENDBRANCH   4   5
ENDBRANCH   3   4
ENDBRANCH   2   3
ENDBRANCH   1   2
BRANCH   1  31
ATOM     31  C   UNL A   1      40.301  21.930  26.433  1.00  0.00     0.188 C 
BRANCH  31  32
ATOM     32  C   UNL A   1      40.845  20.526  26.710  1.00  0.00     0.188 C 
BRANCH  32  33
ATOM     33  O   UNL A   1      41.774  20.032  25.782  1.00  0.00    -0.376 OA
BRANCH  33  34
ATOM     34  C   UNL A   1      42.513  18.845  26.034  1.00  0.00     0.202 C 
BRANCH  34  35
ATOM     35  C   UNL A   1      43.866  18.487  25.379  1.00  0.00     0.261 C 
BRANCH  35  36
ATOM     36  O   UNL A   1      44.271  19.190  24.198  1.00  0.00    -0.460 OA
BRANCH  36  37
ATOM     37  C   UNL A   1      45.470  19.819  24.228  1.00  0.00     0.338 C 
ATOM     38  O   UNL A   1      46.512  19.438  23.713  1.00  0.00    -0.246 OA
BRANCH  37  39
ATOM     39  C   UNL A   1      45.233  21.194  24.737  1.00  0.00     0.060 A 
ATOM     40  C   UNL A   1      44.764  22.180  23.851  1.00  0.00     0.016 A 
ATOM     41  C   UNL A   1      45.416  21.494  26.086  1.00  0.00     0.016 A 
ATOM     42  C   UNL A   1      44.508  23.477  24.308  1.00  0.00     0.010 A 
ATOM     43  C   UNL A   1      45.193  22.798  26.536  1.00  0.00     0.010 A 
ATOM     44  C   UNL A   1      44.770  23.805  25.644  1.00  0.00    -0.014 A 
BRANCH  44  45
ATOM     45  C   UNL A   1      44.874  25.227  26.068  1.00  0.00     0.031 A 
ATOM     46  C   UNL A   1      46.236  25.861  26.001  1.00  0.00     0.074 A 
ATOM     47  C   UNL A   1      43.831  25.895  26.596  1.00  0.00     0.049 A 
ATOM     48  N   UNL A   1      46.621  27.049  26.384  1.00  0.00    -0.248 NA
ATOM     49  C   UNL A   1      47.323  25.021  25.463  1.00  0.00     0.031 C 
ATOM     50  C   UNL A   1      42.487  25.351  26.736  1.00  0.00     0.029 A 
ATOM     51  N   UNL A   1      43.735  27.161  27.128  1.00  0.00    -0.354 N 
ATOM     52  C   UNL A   1      47.998  27.074  26.194  1.00  0.00     0.074 A 
ATOM     53  C   UNL A   1      48.381  25.791  25.653  1.00  0.00     0.031 C 
ATOM     54  C   UNL A   1      41.704  26.272  27.323  1.00  0.00     0.029 A 
ATOM     55  C   UNL A   1      42.485  27.476  27.624  1.00  0.00     0.049 A 
ATOM     56  H   UNL A   1      44.493  27.790  27.154  1.00  0.00     0.167 HD
ATOM     57  C   UNL A   1      48.867  28.072  26.473  1.00  0.00     0.031 A 
ATOM     58  C   UNL A   1      42.037  28.604  28.231  1.00  0.00     0.031 A 
ATOM     59  C   UNL A   1      48.476  29.344  27.012  1.00  0.00     0.049 A 
ATOM     60  C   UNL A   1      43.043  29.736  28.414  1.00  0.00     0.074 A 
ATOM     61  C   UNL A   1      49.272  30.434  27.316  1.00  0.00     0.029 A 
ATOM     62  N   UNL A   1      47.173  29.693  27.328  1.00  0.00    -0.354 N 
ATOM     63  N   UNL A   1      44.298  29.812  28.028  1.00  0.00    -0.248 NA
ATOM     64  C   UNL A   1      42.572  30.953  29.096  1.00  0.00     0.031 C 
ATOM     65  C   UNL A   1      48.459  31.422  27.876  1.00  0.00     0.029 A 
ATOM     66  C   UNL A   1      47.149  30.969  27.860  1.00  0.00     0.049 A 
ATOM     67  H   UNL A   1      46.384  29.120  27.194  1.00  0.00     0.167 HD
ATOM     68  C   UNL A   1      44.726  31.095  28.362  1.00  0.00     0.074 A 
ATOM     69  C   UNL A   1      43.578  31.789  28.898  1.00  0.00     0.031 C 
ATOM     70  C   UNL A   1      45.964  31.648  28.306  1.00  0.00     0.031 A 
BRANCH  57  71
ATOM     71  C   UNL A   1      50.330  27.802  26.264  1.00  0.00    -0.014 A 
ATOM     72  C   UNL A   1      51.001  28.221  25.105  1.00  0.00     0.009 A 
ATOM     73  C   UNL A   1      51.056  27.144  27.270  1.00  0.00     0.009 A 
ATOM     74  C   UNL A   1      52.364  27.960  24.947  1.00  0.00     0.001 A 
ATOM     75  C   UNL A   1      52.425  26.914  27.124  1.00  0.00     0.001 A 
ATOM     76  C   UNL A   1      53.075  27.316  25.958  1.00  0.00     0.000 A 
ENDBRANCH  57  71
BRANCH  58  77
ATOM     77  C   UNL A   1      40.595  28.770  28.661  1.00  0.00    -0.014 A 
ATOM     78  C   UNL A   1      39.608  29.223  27.763  1.00  0.00     0.009 A 
ATOM     79  C   UNL A   1      40.159  28.476  29.963  1.00  0.00     0.009 A 
ATOM     80  C   UNL A   1      38.265  29.372  28.136  1.00  0.00     0.001 A 
ATOM     81  C   UNL A   1      38.803  28.540  30.317  1.00  0.00     0.001 A 
ATOM     82  C   UNL A   1      37.856  28.995  29.405  1.00  0.00     0.000 A 
ENDBRANCH  58  77
BRANCH  70  83
ATOM     83  C   UNL A   1      46.112  33.067  28.793  1.00  0.00    -0.014 A 
ATOM     84  C   UNL A   1      46.408  33.345  30.139  1.00  0.00     0.009 A 
ATOM     85  C   UNL A   1      45.990  34.136  27.893  1.00  0.00     0.009 A 
ATOM     86  C   UNL A   1      46.512  34.663  30.586  1.00  0.00     0.001 A 
ATOM     87  C   UNL A   1      46.138  35.453  28.335  1.00  0.00     0.001 A 
ATOM     88  C   UNL A   1      46.382  35.716  29.682  1.00  0.00     0.000 A 
ENDBRANCH  70  83
ENDBRANCH  44  45
ENDBRANCH  37  39
ENDBRANCH  36  37
ENDBRANCH  35  36
ENDBRANCH  34  35
ENDBRANCH  33  34
ENDBRANCH  32  33
ENDBRANCH  31  32
ENDBRANCH   1  31
TORSDOF 22
ENDMDL
