MODEL 1
REMARK VINA RESULT:     -12.4      0.000      0.000
REMARK SMILES Cc1ccc(-c2c(C)sc(NC(=O)[C@H]3CC=CC[C@H]3C(=O)OCCOCCOCCOC(=O)c3ccc(-c4c5nc(c(-c6ccccc6)c6ccc([nH]6)c(-c6ccccc6)c6nc(c(-c7ccccc7)c7ccc4[nH]7)C=C6)C=C5)cc3)c2C(N)=O)cc1
REMARK SMILES IDX 26 1 25 2 24 3 23 4 22 5 20 6 21 7 19 8 14 9 15 10 16 11
REMARK SMILES IDX 18 12 17 13 12 14 11 15 13 17 10 18 6 19 7 20 82 21 8 22
REMARK SMILES IDX 9 23 5 24 1 25 2 26 3 27 87 28 4 29 86 30 83 31 84 32 85 33
REMARK SMILES IDX 27 36 28 37 29 38 30 39 31 40 32 41 33 42 34 43 35 44 81 45
REMARK SMILES IDX 36 46 80 47 37 48 38 49 39 50 74 51 40 52 79 53 73 54 75 55
REMARK SMILES IDX 41 56 78 57 72 58 71 59 42 61 64 62 49 63 63 64 50 65 53 66
REMARK SMILES IDX 62 67 76 68 51 69 52 70 61 72 77 73 54 74 43 75 44 76 48 77
REMARK SMILES IDX 45 78 47 79 46 80 65 81 66 82 70 83 67 84 69 85 68 86 55 87
REMARK SMILES IDX 56 88 60 89 57 90 59 91 58 92
REMARK H PARENT 11 16 84 34 84 35 75 60 53 71
REMARK Flexibility Score: inf
ROOT
ATOM      1  C   UNL A   1      34.979  33.612  28.204  1.00  0.00     0.188 C 
ENDROOT
BRANCH   1   2
ATOM      2  O   UNL A   1      34.453  32.508  27.499  1.00  0.00    -0.376 OA
BRANCH   2   3
ATOM      3  C   UNL A   1      35.170  31.305  27.756  1.00  0.00     0.202 C 
BRANCH   3   4
ATOM      4  C   UNL A   1      34.582  29.943  27.239  1.00  0.00     0.261 C 
BRANCH   4   5
ATOM      5  O   UNL A   1      33.253  29.652  26.237  1.00  0.00    -0.463 OA
BRANCH   5   6
ATOM      6  C   UNL A   1      32.997  29.100  24.921  1.00  0.00     0.310 C 
ATOM      7  O   UNL A   1      33.996  28.678  24.329  1.00  0.00    -0.252 OA
BRANCH   6   8
ATOM      8  C   UNL A   1      31.609  28.663  24.130  1.00  0.00     0.116 C 
ATOM      9  C   UNL A   1      30.961  27.430  23.329  1.00  0.00     0.097 C 
ATOM     10  C   UNL A   1      30.277  27.981  22.056  1.00  0.00     0.041 C 
ATOM     11  C   UNL A   1      29.520  29.260  22.276  1.00  0.00    -0.030 C 
ATOM     12  C   UNL A   1      30.414  29.544  24.602  1.00  0.00     0.043 C 
ATOM     13  C   UNL A   1      29.538  29.935  23.436  1.00  0.00    -0.030 C 
BRANCH   9  14
ATOM     14  C   UNL A   1      30.133  26.213  23.974  1.00  0.00     0.229 C 
ATOM     15  N   UNL A   1      30.334  24.862  23.868  1.00  0.00    -0.317 N 
ATOM     16  H   UNL A   1      29.633  24.361  23.392  1.00  0.00     0.170 HD
ATOM     17  O   UNL A   1      29.109  26.497  24.623  1.00  0.00    -0.274 OA
BRANCH  15  18
ATOM     18  C   UNL A   1      31.397  24.105  24.347  1.00  0.00     0.109 A 
ATOM     19  C   UNL A   1      33.447  23.284  25.054  1.00  0.00     0.010 A 
ATOM     20  C   UNL A   1      32.606  23.037  26.128  1.00  0.00     0.012 A 
ATOM     21  C   UNL A   1      32.703  23.837  23.908  1.00  0.00     0.082 A 
ATOM     22  C   UNL A   1      32.862  22.726  27.561  1.00  0.00     0.057 C 
ATOM     23  S   UNL A   1      31.028  22.940  25.528  1.00  0.00    -0.122 S 
BRANCH  19  24
ATOM     24  C   UNL A   1      34.848  22.892  25.170  1.00  0.00    -0.016 A 
ATOM     25  C   UNL A   1      38.872  21.468  25.745  1.00  0.00     0.044 C 
ATOM     26  C   UNL A   1      37.471  21.964  25.554  1.00  0.00    -0.051 A 
ATOM     27  C   UNL A   1      37.163  23.324  25.715  1.00  0.00     0.004 A 
ATOM     28  C   UNL A   1      36.460  21.074  25.183  1.00  0.00     0.004 A 
ATOM     29  C   UNL A   1      35.853  23.787  25.536  1.00  0.00     0.009 A 
ATOM     30  C   UNL A   1      35.167  21.539  24.977  1.00  0.00     0.009 A 
ENDBRANCH  19  24
BRANCH  21  31
ATOM     31  C   UNL A   1      33.338  24.085  22.603  1.00  0.00     0.252 C 
ATOM     32  N   UNL A   1      32.920  23.360  21.514  1.00  0.00    -0.365 N 
ATOM     33  O   UNL A   1      34.257  24.858  22.421  1.00  0.00    -0.269 OA
ATOM     34  H   UNL A   1      32.178  22.719  21.605  1.00  0.00     0.159 HD
ATOM     35  H   UNL A   1      33.361  23.482  20.642  1.00  0.00     0.159 HD
ENDBRANCH  21  31
ENDBRANCH  15  18
ENDBRANCH   9  14
ENDBRANCH   6   8
ENDBRANCH   5   6
ENDBRANCH   4   5
ENDBRANCH   3   4
ENDBRANCH   2   3
ENDBRANCH   1   2
BRANCH   1  36
ATOM     36  C   UNL A   1      34.048  34.138  29.315  1.00  0.00     0.188 C 
BRANCH  36  37
ATOM     37  O   UNL A   1      34.223  33.477  30.563  1.00  0.00    -0.376 OA
BRANCH  37  38
ATOM     38  C   UNL A   1      35.507  33.224  31.084  1.00  0.00     0.202 C 
BRANCH  38  39
ATOM     39  C   UNL A   1      35.574  31.853  31.750  1.00  0.00     0.261 C 
BRANCH  39  40
ATOM     40  O   UNL A   1      36.429  30.980  30.980  1.00  0.00    -0.460 OA
BRANCH  40  41
ATOM     41  C   UNL A   1      36.746  29.828  31.620  1.00  0.00     0.338 C 
ATOM     42  O   UNL A   1      36.746  29.673  32.832  1.00  0.00    -0.246 OA
BRANCH  41  43
ATOM     43  C   UNL A   1      37.448  28.942  30.647  1.00  0.00     0.060 A 
ATOM     44  C   UNL A   1      38.323  28.073  31.212  1.00  0.00     0.016 A 
ATOM     45  C   UNL A   1      37.576  29.169  29.270  1.00  0.00     0.016 A 
ATOM     46  C   UNL A   1      39.381  27.595  30.418  1.00  0.00     0.010 A 
ATOM     47  C   UNL A   1      38.694  28.677  28.512  1.00  0.00     0.010 A 
ATOM     48  C   UNL A   1      39.705  27.874  29.063  1.00  0.00    -0.014 A 
BRANCH  48  49
ATOM     49  C   UNL A   1      41.103  27.606  28.203  1.00  0.00     0.031 A 
ATOM     50  C   UNL A   1      41.532  26.181  28.197  1.00  0.00     0.074 A 
ATOM     51  C   UNL A   1      42.021  28.392  27.442  1.00  0.00     0.049 A 
ATOM     52  N   UNL A   1      42.765  25.794  28.105  1.00  0.00    -0.248 NA
ATOM     53  C   UNL A   1      40.594  25.080  28.382  1.00  0.00     0.031 C 
ATOM     54  C   UNL A   1      42.795  27.976  26.251  1.00  0.00     0.029 A 
ATOM     55  N   UNL A   1      42.396  29.764  27.418  1.00  0.00    -0.354 N 
ATOM     56  C   UNL A   1      42.717  24.448  27.854  1.00  0.00     0.074 A 
ATOM     57  C   UNL A   1      41.389  24.027  28.215  1.00  0.00     0.031 C 
ATOM     58  C   UNL A   1      43.587  28.979  25.793  1.00  0.00     0.029 A 
ATOM     59  C   UNL A   1      43.507  30.115  26.692  1.00  0.00     0.049 A 
ATOM     60  H   UNL A   1      41.875  30.441  27.908  1.00  0.00     0.167 HD
ATOM     61  C   UNL A   1      43.645  23.823  27.085  1.00  0.00     0.031 A 
ATOM     62  C   UNL A   1      44.449  31.025  27.118  1.00  0.00     0.031 A 
ATOM     63  C   UNL A   1      44.569  24.760  26.462  1.00  0.00     0.049 A 
ATOM     64  C   UNL A   1      45.749  30.279  27.175  1.00  0.00     0.074 A 
ATOM     65  C   UNL A   1      44.597  25.297  25.183  1.00  0.00     0.029 A 
ATOM     66  N   UNL A   1      45.446  25.524  27.225  1.00  0.00    -0.354 N 
ATOM     67  N   UNL A   1      45.765  28.979  27.221  1.00  0.00    -0.248 NA
ATOM     68  C   UNL A   1      47.087  30.853  27.176  1.00  0.00     0.031 C 
ATOM     69  C   UNL A   1      45.549  26.341  25.159  1.00  0.00     0.029 A 
ATOM     70  C   UNL A   1      46.106  26.438  26.422  1.00  0.00     0.049 A 
ATOM     71  H   UNL A   1      45.578  25.429  28.195  1.00  0.00     0.167 HD
ATOM     72  C   UNL A   1      47.036  28.531  27.088  1.00  0.00     0.074 A 
ATOM     73  C   UNL A   1      47.844  29.738  27.137  1.00  0.00     0.031 C 
ATOM     74  C   UNL A   1      47.252  27.201  26.908  1.00  0.00     0.031 A 
BRANCH  61  75
ATOM     75  C   UNL A   1      43.354  22.436  26.569  1.00  0.00    -0.014 A 
ATOM     76  C   UNL A   1      42.271  21.703  27.075  1.00  0.00     0.009 A 
ATOM     77  C   UNL A   1      44.181  21.777  25.639  1.00  0.00     0.009 A 
ATOM     78  C   UNL A   1      42.098  20.347  26.779  1.00  0.00     0.001 A 
ATOM     79  C   UNL A   1      44.044  20.408  25.378  1.00  0.00     0.001 A 
ATOM     80  C   UNL A   1      43.009  19.690  25.961  1.00  0.00     0.000 A 
ENDBRANCH  61  75
BRANCH  62  81
ATOM     81  C   UNL A   1      44.086  32.153  28.076  1.00  0.00    -0.014 A 
ATOM     82  C   UNL A   1      44.445  32.061  29.435  1.00  0.00     0.009 A 
ATOM     83  C   UNL A   1      43.640  33.416  27.643  1.00  0.00     0.009 A 
ATOM     84  C   UNL A   1      44.553  33.205  30.252  1.00  0.00     0.001 A 
ATOM     85  C   UNL A   1      43.835  34.572  28.430  1.00  0.00     0.001 A 
ATOM     86  C   UNL A   1      44.330  34.471  29.724  1.00  0.00     0.000 A 
ENDBRANCH  62  81
BRANCH  74  87
ATOM     87  C   UNL A   1      48.557  26.476  27.011  1.00  0.00    -0.014 A 
ATOM     88  C   UNL A   1      48.870  25.537  27.993  1.00  0.00     0.009 A 
ATOM     89  C   UNL A   1      49.505  26.660  25.976  1.00  0.00     0.009 A 
ATOM     90  C   UNL A   1      50.076  24.829  27.950  1.00  0.00     0.001 A 
ATOM     91  C   UNL A   1      50.681  25.924  25.901  1.00  0.00     0.001 A 
ATOM     92  C   UNL A   1      50.970  25.011  26.899  1.00  0.00     0.000 A 
ENDBRANCH  74  87
ENDBRANCH  48  49
ENDBRANCH  41  43
ENDBRANCH  40  41
ENDBRANCH  39  40
ENDBRANCH  38  39
ENDBRANCH  37  38
ENDBRANCH  36  37
ENDBRANCH   1  36
TORSDOF 21
ENDMDL
MODEL 2
REMARK VINA RESULT:     -11.7      1.813      5.611
REMARK SMILES Cc1ccc(-c2c(C)sc(NC(=O)[C@H]3CC=CC[C@H]3C(=O)OCCOCCOCCOC(=O)c3ccc(-c4c5nc(c(-c6ccccc6)c6ccc([nH]6)c(-c6ccccc6)c6nc(c(-c7ccccc7)c7ccc4[nH]7)C=C6)C=C5)cc3)c2C(N)=O)cc1
REMARK SMILES IDX 26 1 25 2 24 3 23 4 22 5 20 6 21 7 19 8 14 9 15 10 16 11
REMARK SMILES IDX 18 12 17 13 12 14 11 15 13 17 10 18 6 19 7 20 82 21 8 22
REMARK SMILES IDX 9 23 5 24 1 25 2 26 3 27 87 28 4 29 86 30 83 31 84 32 85 33
REMARK SMILES IDX 27 36 28 37 29 38 30 39 31 40 32 41 33 42 34 43 35 44 81 45
REMARK SMILES IDX 36 46 80 47 37 48 38 49 39 50 74 51 40 52 79 53 73 54 75 55
REMARK SMILES IDX 41 56 78 57 72 58 71 59 42 61 64 62 49 63 63 64 50 65 53 66
REMARK SMILES IDX 62 67 76 68 51 69 52 70 61 72 77 73 54 74 43 75 44 76 48 77
REMARK SMILES IDX 45 78 47 79 46 80 65 81 66 82 70 83 67 84 69 85 68 86 55 87
REMARK SMILES IDX 56 88 60 89 57 90 59 91 58 92
REMARK H PARENT 11 16 84 34 84 35 75 60 53 71
REMARK Flexibility Score: inf
ROOT
ATOM      1  C   UNL A   1      35.781  33.162  28.580  1.00  0.00     0.188 C 
ENDROOT
BRANCH   1   2
ATOM      2  O   UNL A   1      35.241  32.218  27.681  1.00  0.00    -0.376 OA
BRANCH   2   3
ATOM      3  C   UNL A   1      35.789  30.916  27.863  1.00  0.00     0.202 C 
BRANCH   3   4
ATOM      4  C   UNL A   1      34.939  29.666  27.436  1.00  0.00     0.261 C 
BRANCH   4   5
ATOM      5  O   UNL A   1      34.058  29.392  26.020  1.00  0.00    -0.463 OA
BRANCH   5   6
ATOM      6  C   UNL A   1      33.491  28.264  25.306  1.00  0.00     0.310 C 
ATOM      7  O   UNL A   1      34.039  27.179  25.526  1.00  0.00    -0.252 OA
BRANCH   6   8
ATOM      8  C   UNL A   1      32.087  28.059  24.453  1.00  0.00     0.116 C 
ATOM      9  C   UNL A   1      31.299  26.960  23.585  1.00  0.00     0.097 C 
ATOM     10  C   UNL A   1      30.750  27.646  22.312  1.00  0.00     0.041 C 
ATOM     11  C   UNL A   1      30.177  29.013  22.555  1.00  0.00    -0.030 C 
ATOM     12  C   UNL A   1      31.013  29.088  24.919  1.00  0.00     0.043 C 
ATOM     13  C   UNL A   1      30.248  29.640  23.740  1.00  0.00    -0.030 C 
BRANCH   9  14
ATOM     14  C   UNL A   1      30.281  25.856  24.155  1.00  0.00     0.229 C 
ATOM     15  N   UNL A   1      30.294  24.493  24.013  1.00  0.00    -0.317 N 
ATOM     16  H   UNL A   1      29.552  24.109  23.493  1.00  0.00     0.170 HD
ATOM     17  O   UNL A   1      29.278  26.264  24.772  1.00  0.00    -0.274 OA
BRANCH  15  18
ATOM     18  C   UNL A   1      31.218  23.580  24.509  1.00  0.00     0.109 A 
ATOM     19  C   UNL A   1      33.110  22.376  25.099  1.00  0.00     0.010 A 
ATOM     20  C   UNL A   1      32.472  22.599  26.309  1.00  0.00     0.012 A 
ATOM     21  C   UNL A   1      32.303  22.872  23.969  1.00  0.00     0.082 A 
ATOM     22  C   UNL A   1      32.933  22.526  27.723  1.00  0.00     0.057 C 
ATOM     23  S   UNL A   1      30.828  22.831  25.984  1.00  0.00    -0.122 S 
BRANCH  19  24
ATOM     24  C   UNL A   1      34.368  21.637  25.108  1.00  0.00    -0.016 A 
ATOM     25  C   UNL A   1      38.200  19.685  24.869  1.00  0.00     0.044 C 
ATOM     26  C   UNL A   1      36.866  20.363  24.944  1.00  0.00    -0.051 A 
ATOM     27  C   UNL A   1      35.678  19.619  24.882  1.00  0.00     0.004 A 
ATOM     28  C   UNL A   1      36.796  21.748  25.105  1.00  0.00     0.004 A 
ATOM     29  C   UNL A   1      34.431  20.252  24.952  1.00  0.00     0.009 A 
ATOM     30  C   UNL A   1      35.559  22.375  25.204  1.00  0.00     0.009 A 
ENDBRANCH  19  24
BRANCH  21  31
ATOM     31  C   UNL A   1      32.699  22.662  22.567  1.00  0.00     0.252 C 
ATOM     32  N   UNL A   1      32.165  21.599  21.879  1.00  0.00    -0.365 N 
ATOM     33  O   UNL A   1      33.517  23.336  21.975  1.00  0.00    -0.269 OA
ATOM     34  H   UNL A   1      31.497  21.019  22.312  1.00  0.00     0.159 HD
ATOM     35  H   UNL A   1      32.450  21.418  20.955  1.00  0.00     0.159 HD
ENDBRANCH  21  31
ENDBRANCH  15  18
ENDBRANCH   9  14
ENDBRANCH   6   8
ENDBRANCH   5   6
ENDBRANCH   4   5
ENDBRANCH   3   4
ENDBRANCH   2   3
ENDBRANCH   1   2
BRANCH   1  36
ATOM     36  C   UNL A   1      34.770  33.667  29.629  1.00  0.00     0.188 C 
BRANCH  36  37
ATOM     37  O   UNL A   1      34.408  32.681  30.589  1.00  0.00    -0.376 OA
BRANCH  37  38
ATOM     38  C   UNL A   1      35.228  32.405  31.701  1.00  0.00     0.202 C 
BRANCH  38  39
ATOM     39  C   UNL A   1      35.933  31.060  31.549  1.00  0.00     0.261 C 
BRANCH  39  40
ATOM     40  O   UNL A   1      37.247  31.261  30.984  1.00  0.00    -0.460 OA
BRANCH  40  41
ATOM     41  C   UNL A   1      38.246  30.734  31.733  1.00  0.00     0.338 C 
ATOM     42  O   UNL A   1      38.607  31.155  32.821  1.00  0.00    -0.246 OA
BRANCH  41  43
ATOM     43  C   UNL A   1      39.052  29.838  30.855  1.00  0.00     0.060 A 
ATOM     44  C   UNL A   1      39.778  28.906  31.523  1.00  0.00     0.016 A 
ATOM     45  C   UNL A   1      39.416  30.095  29.526  1.00  0.00     0.016 A 
ATOM     46  C   UNL A   1      40.927  28.393  30.894  1.00  0.00     0.010 A 
ATOM     47  C   UNL A   1      40.617  29.563  28.943  1.00  0.00     0.010 A 
ATOM     48  C   UNL A   1      41.482  28.691  29.620  1.00  0.00    -0.014 A 
BRANCH  48  49
ATOM     49  C   UNL A   1      42.987  28.370  28.989  1.00  0.00     0.031 A 
ATOM     50  C   UNL A   1      43.700  29.583  28.506  1.00  0.00     0.074 A 
ATOM     51  C   UNL A   1      43.803  27.215  28.789  1.00  0.00     0.049 A 
ATOM     52  N   UNL A   1      44.561  29.582  27.537  1.00  0.00    -0.248 NA
ATOM     53  C   UNL A   1      43.425  30.915  29.032  1.00  0.00     0.031 C 
ATOM     54  C   UNL A   1      45.280  27.134  28.837  1.00  0.00     0.029 A 
ATOM     55  N   UNL A   1      43.561  25.821  28.643  1.00  0.00    -0.354 N 
ATOM     56  C   UNL A   1      45.182  30.803  27.588  1.00  0.00     0.074 A 
ATOM     57  C   UNL A   1      44.334  31.644  28.390  1.00  0.00     0.031 C 
ATOM     58  C   UNL A   1      45.722  25.876  28.579  1.00  0.00     0.029 A 
ATOM     59  C   UNL A   1      44.600  25.028  28.224  1.00  0.00     0.049 A 
ATOM     60  H   UNL A   1      42.675  25.437  28.835  1.00  0.00     0.167 HD
ATOM     61  C   UNL A   1      46.485  30.965  27.241  1.00  0.00     0.031 A 
ATOM     62  C   UNL A   1      44.468  24.004  27.311  1.00  0.00     0.031 A 
ATOM     63  C   UNL A   1      47.147  29.696  26.970  1.00  0.00     0.049 A 
ATOM     64  C   UNL A   1      45.370  24.353  26.165  1.00  0.00     0.074 A 
ATOM     65  C   UNL A   1      47.973  28.912  27.762  1.00  0.00     0.029 A 
ATOM     66  N   UNL A   1      46.768  28.900  25.894  1.00  0.00    -0.354 N 
ATOM     67  N   UNL A   1      45.780  25.575  25.992  1.00  0.00    -0.248 NA
ATOM     68  C   UNL A   1      45.892  23.443  25.154  1.00  0.00     0.031 C 
ATOM     69  C   UNL A   1      48.149  27.664  27.123  1.00  0.00     0.029 A 
ATOM     70  C   UNL A   1      47.436  27.689  25.938  1.00  0.00     0.049 A 
ATOM     71  H   UNL A   1      46.119  29.160  25.202  1.00  0.00     0.167 HD
ATOM     72  C   UNL A   1      46.713  25.612  25.012  1.00  0.00     0.074 A 
ATOM     73  C   UNL A   1      46.702  24.268  24.461  1.00  0.00     0.031 C 
ATOM     74  C   UNL A   1      47.416  26.759  24.812  1.00  0.00     0.031 A 
BRANCH  61  75
ATOM     75  C   UNL A   1      47.196  32.234  27.640  1.00  0.00    -0.014 A 
ATOM     76  C   UNL A   1      48.004  32.266  28.785  1.00  0.00     0.009 A 
ATOM     77  C   UNL A   1      47.024  33.452  26.955  1.00  0.00     0.009 A 
ATOM     78  C   UNL A   1      48.502  33.467  29.299  1.00  0.00     0.001 A 
ATOM     79  C   UNL A   1      47.476  34.664  27.492  1.00  0.00     0.001 A 
ATOM     80  C   UNL A   1      48.205  34.672  28.674  1.00  0.00     0.000 A 
ENDBRANCH  61  75
BRANCH  62  81
ATOM     81  C   UNL A   1      43.152  23.254  27.145  1.00  0.00    -0.014 A 
ATOM     82  C   UNL A   1      42.768  22.290  28.097  1.00  0.00     0.009 A 
ATOM     83  C   UNL A   1      42.154  23.646  26.233  1.00  0.00     0.009 A 
ATOM     84  C   UNL A   1      41.422  21.904  28.261  1.00  0.00     0.001 A 
ATOM     85  C   UNL A   1      40.795  23.333  26.452  1.00  0.00     0.001 A 
ATOM     86  C   UNL A   1      40.424  22.491  27.492  1.00  0.00     0.000 A 
ENDBRANCH  62  81
BRANCH  74  87
ATOM     87  C   UNL A   1      48.278  27.097  23.637  1.00  0.00    -0.014 A 
ATOM     88  C   UNL A   1      47.837  27.756  22.490  1.00  0.00     0.009 A 
ATOM     89  C   UNL A   1      49.667  26.839  23.732  1.00  0.00     0.009 A 
ATOM     90  C   UNL A   1      48.737  28.125  21.484  1.00  0.00     0.001 A 
ATOM     91  C   UNL A   1      50.571  27.248  22.761  1.00  0.00     0.001 A 
ATOM     92  C   UNL A   1      50.101  27.887  21.627  1.00  0.00     0.000 A 
ENDBRANCH  74  87
ENDBRANCH  48  49
ENDBRANCH  41  43
ENDBRANCH  40  41
ENDBRANCH  39  40
ENDBRANCH  38  39
ENDBRANCH  37  38
ENDBRANCH  36  37
ENDBRANCH   1  36
TORSDOF 21
ENDMDL
MODEL 3
REMARK VINA RESULT:     -10.9      4.244      6.341
REMARK SMILES Cc1ccc(-c2c(C)sc(NC(=O)[C@H]3CC=CC[C@H]3C(=O)OCCOCCOCCOC(=O)c3ccc(-c4c5nc(c(-c6ccccc6)c6ccc([nH]6)c(-c6ccccc6)c6nc(c(-c7ccccc7)c7ccc4[nH]7)C=C6)C=C5)cc3)c2C(N)=O)cc1
REMARK SMILES IDX 26 1 25 2 24 3 23 4 22 5 20 6 21 7 19 8 14 9 15 10 16 11
REMARK SMILES IDX 18 12 17 13 12 14 11 15 13 17 10 18 6 19 7 20 82 21 8 22
REMARK SMILES IDX 9 23 5 24 1 25 2 26 3 27 87 28 4 29 86 30 83 31 84 32 85 33
REMARK SMILES IDX 27 36 28 37 29 38 30 39 31 40 32 41 33 42 34 43 35 44 81 45
REMARK SMILES IDX 36 46 80 47 37 48 38 49 39 50 74 51 40 52 79 53 73 54 75 55
REMARK SMILES IDX 41 56 78 57 72 58 71 59 42 61 64 62 49 63 63 64 50 65 53 66
REMARK SMILES IDX 62 67 76 68 51 69 52 70 61 72 77 73 54 74 43 75 44 76 48 77
REMARK SMILES IDX 45 78 47 79 46 80 65 81 66 82 70 83 67 84 69 85 68 86 55 87
REMARK SMILES IDX 56 88 60 89 57 90 59 91 58 92
REMARK H PARENT 11 16 84 34 84 35 75 60 53 71
REMARK Flexibility Score: inf
ROOT
ATOM      1  C   UNL A   1      36.948  32.840  28.441  1.00  0.00     0.188 C 
ENDROOT
BRANCH   1   2
ATOM      2  O   UNL A   1      35.958  32.081  27.782  1.00  0.00    -0.376 OA
BRANCH   2   3
ATOM      3  C   UNL A   1      35.965  30.713  28.178  1.00  0.00     0.202 C 
BRANCH   3   4
ATOM      4  C   UNL A   1      35.194  29.662  27.301  1.00  0.00     0.261 C 
BRANCH   4   5
ATOM      5  O   UNL A   1      33.856  29.873  26.291  1.00  0.00    -0.463 OA
BRANCH   5   6
ATOM      6  C   UNL A   1      32.516  29.338  26.153  1.00  0.00     0.310 C 
ATOM      7  O   UNL A   1      31.754  29.593  27.092  1.00  0.00    -0.252 OA
BRANCH   6   8
ATOM      8  C   UNL A   1      31.689  28.676  24.881  1.00  0.00     0.116 C 
ATOM      9  C   UNL A   1      31.526  27.296  24.076  1.00  0.00     0.097 C 
ATOM     10  C   UNL A   1      31.531  27.609  22.562  1.00  0.00     0.041 C 
ATOM     11  C   UNL A   1      30.742  28.833  22.190  1.00  0.00    -0.030 C 
ATOM     12  C   UNL A   1      30.400  29.501  24.583  1.00  0.00     0.043 C 
ATOM     13  C   UNL A   1      30.189  29.654  23.096  1.00  0.00    -0.030 C 
BRANCH   9  14
ATOM     14  C   UNL A   1      30.509  26.105  24.436  1.00  0.00     0.229 C 
ATOM     15  N   UNL A   1      30.563  24.775  24.108  1.00  0.00    -0.317 N 
ATOM     16  H   UNL A   1      29.856  24.455  23.503  1.00  0.00     0.170 HD
ATOM     17  O   UNL A   1      29.468  26.405  25.051  1.00  0.00    -0.274 OA
BRANCH  15  18
ATOM     18  C   UNL A   1      31.484  23.819  24.519  1.00  0.00     0.109 A 
ATOM     19  C   UNL A   1      33.368  22.542  24.964  1.00  0.00     0.010 A 
ATOM     20  C   UNL A   1      32.796  22.730  26.214  1.00  0.00     0.012 A 
ATOM     21  C   UNL A   1      32.521  23.107  23.898  1.00  0.00     0.082 A 
ATOM     22  C   UNL A   1      33.322  22.585  27.598  1.00  0.00     0.057 C 
ATOM     23  S   UNL A   1      31.145  23.018  25.980  1.00  0.00    -0.122 S 
BRANCH  19  24
ATOM     24  C   UNL A   1      34.604  21.772  24.881  1.00  0.00    -0.016 A 
ATOM     25  C   UNL A   1      38.137  19.309  24.932  1.00  0.00     0.044 C 
ATOM     26  C   UNL A   1      36.910  20.168  24.923  1.00  0.00    -0.051 A 
ATOM     27  C   UNL A   1      37.012  21.566  24.869  1.00  0.00     0.004 A 
ATOM     28  C   UNL A   1      35.645  19.577  24.939  1.00  0.00     0.004 A 
ATOM     29  C   UNL A   1      35.865  22.369  24.861  1.00  0.00     0.009 A 
ATOM     30  C   UNL A   1      34.505  20.372  24.900  1.00  0.00     0.009 A 
ENDBRANCH  19  24
BRANCH  21  31
ATOM     31  C   UNL A   1      32.843  22.946  22.470  1.00  0.00     0.252 C 
ATOM     32  N   UNL A   1      32.223  21.947  21.760  1.00  0.00    -0.365 N 
ATOM     33  O   UNL A   1      33.668  23.607  21.872  1.00  0.00    -0.269 OA
ATOM     34  H   UNL A   1      31.546  21.380  22.196  1.00  0.00     0.159 HD
ATOM     35  H   UNL A   1      32.457  21.796  20.815  1.00  0.00     0.159 HD
ENDBRANCH  21  31
ENDBRANCH  15  18
ENDBRANCH   9  14
ENDBRANCH   6   8
ENDBRANCH   5   6
ENDBRANCH   4   5
ENDBRANCH   3   4
ENDBRANCH   2   3
ENDBRANCH   1   2
BRANCH   1  36
ATOM     36  C   UNL A   1      36.380  33.988  29.299  1.00  0.00     0.188 C 
BRANCH  36  37
ATOM     37  O   UNL A   1      35.050  34.353  28.949  1.00  0.00    -0.376 OA
BRANCH  37  38
ATOM     38  C   UNL A   1      33.977  34.152  29.838  1.00  0.00     0.202 C 
BRANCH  38  39
ATOM     39  C   UNL A   1      34.422  33.385  31.080  1.00  0.00     0.261 C 
BRANCH  39  40
ATOM     40  O   UNL A   1      33.687  33.855  32.231  1.00  0.00    -0.460 OA
BRANCH  40  41
ATOM     41  C   UNL A   1      34.249  34.932  32.831  1.00  0.00     0.338 C 
ATOM     42  O   UNL A   1      33.903  36.092  32.663  1.00  0.00    -0.246 OA
BRANCH  41  43
ATOM     43  C   UNL A   1      35.562  34.508  33.397  1.00  0.00     0.060 A 
ATOM     44  C   UNL A   1      36.641  35.049  32.776  1.00  0.00     0.016 A 
ATOM     45  C   UNL A   1      35.789  33.380  34.197  1.00  0.00     0.016 A 
ATOM     46  C   UNL A   1      37.860  34.352  32.849  1.00  0.00     0.010 A 
ATOM     47  C   UNL A   1      37.050  32.692  34.213  1.00  0.00     0.010 A 
ATOM     48  C   UNL A   1      38.174  33.125  33.494  1.00  0.00    -0.014 A 
BRANCH  48  49
ATOM     49  C   UNL A   1      39.485  32.116  33.328  1.00  0.00     0.031 A 
ATOM     50  C   UNL A   1      39.223  30.940  32.454  1.00  0.00     0.074 A 
ATOM     51  C   UNL A   1      40.832  32.077  33.804  1.00  0.00     0.049 A 
ATOM     52  N   UNL A   1      39.810  29.792  32.585  1.00  0.00    -0.248 NA
ATOM     53  C   UNL A   1      38.204  30.952  31.411  1.00  0.00     0.031 C 
ATOM     54  C   UNL A   1      42.020  31.537  33.105  1.00  0.00     0.029 A 
ATOM     55  N   UNL A   1      41.522  32.615  34.924  1.00  0.00    -0.354 N 
ATOM     56  C   UNL A   1      39.513  29.090  31.447  1.00  0.00     0.074 A 
ATOM     57  C   UNL A   1      38.389  29.759  30.851  1.00  0.00     0.031 C 
ATOM     58  C   UNL A   1      43.140  31.648  33.865  1.00  0.00     0.029 A 
ATOM     59  C   UNL A   1      42.793  32.160  35.176  1.00  0.00     0.049 A 
ATOM     60  H   UNL A   1      41.102  33.292  35.502  1.00  0.00     0.167 HD
ATOM     61  C   UNL A   1      40.384  28.202  30.899  1.00  0.00     0.031 A 
ATOM     62  C   UNL A   1      43.273  31.878  36.436  1.00  0.00     0.031 A 
ATOM     63  C   UNL A   1      41.678  28.214  31.565  1.00  0.00     0.049 A 
ATOM     64  C   UNL A   1      43.656  30.427  36.417  1.00  0.00     0.074 A 
ATOM     65  C   UNL A   1      42.872  28.835  31.225  1.00  0.00     0.029 A 
ATOM     66  N   UNL A   1      41.813  27.809  32.889  1.00  0.00    -0.354 N 
ATOM     67  N   UNL A   1      43.179  29.628  35.509  1.00  0.00    -0.248 NA
ATOM     68  C   UNL A   1      44.559  29.749  37.338  1.00  0.00     0.031 C 
ATOM     69  C   UNL A   1      43.753  28.738  32.326  1.00  0.00     0.029 A 
ATOM     70  C   UNL A   1      43.100  28.053  33.335  1.00  0.00     0.049 A 
ATOM     71  H   UNL A   1      41.096  27.408  33.430  1.00  0.00     0.167 HD
ATOM     72  C   UNL A   1      43.797  28.426  35.586  1.00  0.00     0.074 A 
ATOM     73  C   UNL A   1      44.602  28.517  36.792  1.00  0.00     0.031 C 
ATOM     74  C   UNL A   1      43.590  27.512  34.600  1.00  0.00     0.031 A 
BRANCH  61  75
ATOM     75  C   UNL A   1      40.151  27.727  29.486  1.00  0.00    -0.014 A 
ATOM     76  C   UNL A   1      39.609  26.456  29.246  1.00  0.00     0.009 A 
ATOM     77  C   UNL A   1      40.535  28.473  28.356  1.00  0.00     0.009 A 
ATOM     78  C   UNL A   1      39.577  25.903  27.961  1.00  0.00     0.001 A 
ATOM     79  C   UNL A   1      40.554  27.906  27.076  1.00  0.00     0.001 A 
ATOM     80  C   UNL A   1      40.087  26.613  26.882  1.00  0.00     0.000 A 
ENDBRANCH  61  75
BRANCH  62  81
ATOM     81  C   UNL A   1      42.729  32.585  37.671  1.00  0.00    -0.014 A 
ATOM     82  C   UNL A   1      42.659  31.900  38.899  1.00  0.00     0.009 A 
ATOM     83  C   UNL A   1      42.527  33.977  37.733  1.00  0.00     0.009 A 
ATOM     84  C   UNL A   1      42.606  32.587  40.129  1.00  0.00     0.001 A 
ATOM     85  C   UNL A   1      42.566  34.671  38.962  1.00  0.00     0.001 A 
ATOM     86  C   UNL A   1      42.645  33.976  40.162  1.00  0.00     0.000 A 
ENDBRANCH  62  81
BRANCH  74  87
ATOM     87  C   UNL A   1      43.947  26.060  34.624  1.00  0.00    -0.014 A 
ATOM     88  C   UNL A   1      43.630  25.180  35.658  1.00  0.00     0.009 A 
ATOM     89  C   UNL A   1      44.547  25.501  33.470  1.00  0.00     0.009 A 
ATOM     90  C   UNL A   1      43.911  23.814  35.550  1.00  0.00     0.001 A 
ATOM     91  C   UNL A   1      44.781  24.138  33.336  1.00  0.00     0.001 A 
ATOM     92  C   UNL A   1      44.469  23.293  34.386  1.00  0.00     0.000 A 
ENDBRANCH  74  87
ENDBRANCH  48  49
ENDBRANCH  41  43
ENDBRANCH  40  41
ENDBRANCH  39  40
ENDBRANCH  38  39
ENDBRANCH  37  38
ENDBRANCH  36  37
ENDBRANCH   1  36
TORSDOF 21
ENDMDL
