MODEL 1
REMARK VINA RESULT:     -10.1      0.000      0.000
REMARK SMILES Cc1ccccc1C(=O)Nc1ccc(N2CCC(n3c(C)nc4cccnc43)CC2)c(C(=O)OCCOCCOCCOC(=O)c2ccc(-c3c4nc(c(-c5ccccc5)c5ccc([nH]5)c(-c5ccccc5)c5nc(c(-c6ccccc6)c6ccc3[nH]6)C=C5)C=C4)cc2)c1
REMARK SMILES IDX 38 1 37 2 36 3 35 4 34 5 32 6 33 7 31 8 11 9 12 10 94 11
REMARK SMILES IDX 13 12 14 13 10 14 8 15 9 16 7 18 1 19 2 20 3 21 4 22 6 23
REMARK SMILES IDX 5 24 15 25 16 26 30 27 17 28 29 29 18 30 19 31 20 32 28 33
REMARK SMILES IDX 21 34 22 35 23 36 27 37 24 38 26 39 25 40 39 41 40 42 41 43
REMARK SMILES IDX 42 44 43 45 44 46 45 47 46 48 47 49 93 50 48 51 92 52 49 53
REMARK SMILES IDX 50 54 51 55 86 56 52 57 91 58 85 59 87 60 53 61 90 62 84 63
REMARK SMILES IDX 83 64 54 66 76 67 61 68 75 69 62 70 65 71 74 72 88 73 63 74
REMARK SMILES IDX 64 75 73 77 89 78 66 79 55 80 56 81 60 82 57 83 59 84 58 85
REMARK SMILES IDX 77 86 78 87 82 88 79 89 81 90 80 91 67 92 68 93 72 94 69 95
REMARK SMILES IDX 71 96 70 97
REMARK H PARENT 10 17 87 65 65 76
REMARK Flexibility Score: inf
ROOT
ATOM      1  C   UNL A   1      50.773  28.285  29.903  1.00  0.00     0.188 C 
ENDROOT
BRANCH   1   2
ATOM      2  O   UNL A   1      49.999  27.126  29.536  1.00  0.00    -0.376 OA
BRANCH   2   3
ATOM      3  C   UNL A   1      49.105  26.946  28.419  1.00  0.00     0.202 C 
BRANCH   3   4
ATOM      4  C   UNL A   1      47.434  27.291  28.215  1.00  0.00     0.261 C 
BRANCH   4   5
ATOM      5  O   UNL A   1      46.563  28.118  27.042  1.00  0.00    -0.460 OA
BRANCH   5   6
ATOM      6  C   UNL A   1      45.478  28.170  26.145  1.00  0.00     0.340 C 
ATOM      7  O   UNL A   1      45.497  28.344  24.929  1.00  0.00    -0.246 OA
BRANCH   6   8
ATOM      8  C   UNL A   1      44.047  28.008  26.510  1.00  0.00     0.085 A 
ATOM      9  C   UNL A   1      42.492  29.140  28.072  1.00  0.00     0.042 A 
ATOM     10  C   UNL A   1      41.855  27.931  28.267  1.00  0.00     0.028 A 
ATOM     11  C   UNL A   1      43.477  29.193  27.093  1.00  0.00     0.044 A 
ATOM     12  C   UNL A   1      42.289  26.787  27.549  1.00  0.00     0.029 A 
ATOM     13  C   UNL A   1      43.449  26.771  26.735  1.00  0.00     0.051 A 
BRANCH   9  14
ATOM     14  N   UNL A   1      42.284  30.320  28.810  1.00  0.00    -0.322 N 
ATOM     15  C   UNL A   1      43.088  31.408  29.105  1.00  0.00     0.255 C 
ATOM     16  O   UNL A   1      42.574  32.329  29.749  1.00  0.00    -0.269 OA
ATOM     17  H   UNL A   1      41.382  30.384  29.198  1.00  0.00     0.170 HD
BRANCH  15  18
ATOM     18  C   UNL A   1      44.501  31.589  28.660  1.00  0.00     0.043 A 
ATOM     19  C   UNL A   1      44.031  33.118  26.656  1.00  0.00     0.045 C 
ATOM     20  C   UNL A   1      44.923  32.259  27.501  1.00  0.00    -0.038 A 
ATOM     21  C   UNL A   1      46.292  32.252  27.162  1.00  0.00     0.004 A 
ATOM     22  C   UNL A   1      47.249  31.768  28.050  1.00  0.00     0.000 A 
ATOM     23  C   UNL A   1      45.487  31.191  29.587  1.00  0.00     0.014 A 
ATOM     24  C   UNL A   1      46.850  31.296  29.293  1.00  0.00     0.001 A 
ENDBRANCH  15  18
ENDBRANCH   9  14
BRANCH  13  25
ATOM     25  N   UNL A   1      43.995  25.543  26.376  1.00  0.00    -0.371 N 
ATOM     26  C   UNL A   1      44.512  25.363  25.031  1.00  0.00     0.118 C 
ATOM     27  C   UNL A   1      44.791  24.829  27.342  1.00  0.00     0.118 C 
ATOM     28  C   UNL A   1      44.340  23.879  24.710  1.00  0.00     0.047 C 
ATOM     29  C   UNL A   1      44.748  23.372  27.220  1.00  0.00     0.047 C 
ATOM     30  C   UNL A   1      44.880  22.927  25.803  1.00  0.00     0.094 C 
BRANCH  30  31
ATOM     31  N   UNL A   1      44.401  21.562  25.657  1.00  0.00    -0.310 N 
ATOM     32  C   UNL A   1      44.996  20.385  25.214  1.00  0.00     0.108 A 
ATOM     33  C   UNL A   1      43.096  21.279  25.957  1.00  0.00     0.160 A 
ATOM     34  C   UNL A   1      46.369  20.170  24.659  1.00  0.00     0.088 C 
ATOM     35  N   UNL A   1      44.143  19.379  25.325  1.00  0.00    -0.232 NA
ATOM     36  C   UNL A   1      42.976  19.916  25.780  1.00  0.00     0.108 A 
ATOM     37  N   UNL A   1      42.156  22.157  26.357  1.00  0.00    -0.237 NA
ATOM     38  C   UNL A   1      41.745  19.337  26.069  1.00  0.00     0.034 A 
ATOM     39  C   UNL A   1      40.973  21.558  26.602  1.00  0.00     0.113 A 
ATOM     40  C   UNL A   1      40.723  20.193  26.488  1.00  0.00     0.022 A 
ENDBRANCH  30  31
ENDBRANCH  13  25
ENDBRANCH   6   8
ENDBRANCH   5   6
ENDBRANCH   4   5
ENDBRANCH   3   4
ENDBRANCH   2   3
ENDBRANCH   1   2
BRANCH   1  41
ATOM     41  C   UNL A   1      51.829  28.950  29.027  1.00  0.00     0.188 C 
BRANCH  41  42
ATOM     42  O   UNL A   1      51.788  30.354  29.140  1.00  0.00    -0.376 OA
BRANCH  42  43
ATOM     43  C   UNL A   1      50.730  30.990  28.446  1.00  0.00     0.202 C 
BRANCH  43  44
ATOM     44  C   UNL A   1      51.100  31.550  27.051  1.00  0.00     0.261 C 
BRANCH  44  45
ATOM     45  O   UNL A   1      49.971  32.204  26.412  1.00  0.00    -0.460 OA
BRANCH  45  46
ATOM     46  C   UNL A   1      50.217  33.312  25.618  1.00  0.00     0.338 C 
ATOM     47  O   UNL A   1      50.913  33.311  24.631  1.00  0.00    -0.246 OA
BRANCH  46  48
ATOM     48  C   UNL A   1      49.706  34.559  26.306  1.00  0.00     0.060 A 
ATOM     49  C   UNL A   1      49.555  34.819  27.679  1.00  0.00     0.016 A 
ATOM     50  C   UNL A   1      48.972  35.350  25.512  1.00  0.00     0.016 A 
ATOM     51  C   UNL A   1      48.506  35.728  28.195  1.00  0.00     0.010 A 
ATOM     52  C   UNL A   1      47.800  35.823  26.087  1.00  0.00     0.010 A 
ATOM     53  C   UNL A   1      47.465  36.209  27.404  1.00  0.00    -0.014 A 
BRANCH  53  54
ATOM     54  C   UNL A   1      46.094  37.156  27.763  1.00  0.00     0.031 A 
ATOM     55  C   UNL A   1      45.638  38.722  27.326  1.00  0.00     0.074 A 
ATOM     56  C   UNL A   1      45.017  36.491  28.220  1.00  0.00     0.049 A 
ATOM     57  N   UNL A   1      44.633  39.023  26.523  1.00  0.00    -0.248 NA
ATOM     58  C   UNL A   1      46.283  40.014  27.727  1.00  0.00     0.031 C 
ATOM     59  C   UNL A   1      43.618  36.912  28.320  1.00  0.00     0.029 A 
ATOM     60  N   UNL A   1      45.031  35.318  28.964  1.00  0.00    -0.354 N 
ATOM     61  C   UNL A   1      44.688  40.370  26.100  1.00  0.00     0.074 A 
ATOM     62  C   UNL A   1      45.813  40.918  26.849  1.00  0.00     0.031 C 
ATOM     63  C   UNL A   1      43.094  36.327  29.415  1.00  0.00     0.029 A 
ATOM     64  C   UNL A   1      44.200  35.625  30.055  1.00  0.00     0.049 A 
ATOM     65  H   UNL A   1      45.507  34.478  28.775  1.00  0.00     0.167 HD
ATOM     66  C   UNL A   1      43.551  41.129  25.970  1.00  0.00     0.031 A 
ATOM     67  C   UNL A   1      44.837  36.006  31.203  1.00  0.00     0.031 A 
ATOM     68  C   UNL A   1      42.682  40.862  27.075  1.00  0.00     0.049 A 
ATOM     69  C   UNL A   1      44.524  37.464  31.513  1.00  0.00     0.074 A 
ATOM     70  C   UNL A   1      41.642  39.990  27.291  1.00  0.00     0.029 A 
ATOM     71  N   UNL A   1      43.142  41.274  28.304  1.00  0.00    -0.354 N 
ATOM     72  N   UNL A   1      44.231  38.384  30.621  1.00  0.00    -0.248 NA
ATOM     73  C   UNL A   1      44.361  37.950  32.877  1.00  0.00     0.031 C 
ATOM     74  C   UNL A   1      41.672  39.689  28.690  1.00  0.00     0.029 A 
ATOM     75  C   UNL A   1      42.678  40.436  29.288  1.00  0.00     0.049 A 
ATOM     76  H   UNL A   1      43.720  42.056  28.456  1.00  0.00     0.167 HD
ATOM     77  C   UNL A   1      43.748  39.498  31.255  1.00  0.00     0.074 A 
ATOM     78  C   UNL A   1      43.884  39.189  32.667  1.00  0.00     0.031 C 
ATOM     79  C   UNL A   1      43.215  40.593  30.632  1.00  0.00     0.031 A 
BRANCH  66  80
ATOM     80  C   UNL A   1      43.258  42.148  24.888  1.00  0.00    -0.014 A 
ATOM     81  C   UNL A   1      42.175  41.991  24.001  1.00  0.00     0.009 A 
ATOM     82  C   UNL A   1      44.130  43.204  24.583  1.00  0.00     0.009 A 
ATOM     83  C   UNL A   1      41.989  42.834  22.884  1.00  0.00     0.001 A 
ATOM     84  C   UNL A   1      43.944  44.066  23.484  1.00  0.00     0.001 A 
ATOM     85  C   UNL A   1      42.875  43.873  22.624  1.00  0.00     0.000 A 
ENDBRANCH  66  80
BRANCH  67  86
ATOM     86  C   UNL A   1      46.116  35.216  31.429  1.00  0.00    -0.014 A 
ATOM     87  C   UNL A   1      47.338  35.954  31.414  1.00  0.00     0.009 A 
ATOM     88  C   UNL A   1      46.179  33.923  31.958  1.00  0.00     0.009 A 
ATOM     89  C   UNL A   1      48.490  35.517  32.079  1.00  0.00     0.001 A 
ATOM     90  C   UNL A   1      47.382  33.440  32.530  1.00  0.00     0.001 A 
ATOM     91  C   UNL A   1      48.508  34.261  32.656  1.00  0.00     0.000 A 
ENDBRANCH  67  86
BRANCH  79  92
ATOM     92  C   UNL A   1      43.211  41.974  31.260  1.00  0.00    -0.014 A 
ATOM     93  C   UNL A   1      42.224  42.386  32.165  1.00  0.00     0.009 A 
ATOM     94  C   UNL A   1      44.331  42.825  31.119  1.00  0.00     0.009 A 
ATOM     95  C   UNL A   1      42.314  43.604  32.844  1.00  0.00     0.001 A 
ATOM     96  C   UNL A   1      44.466  44.003  31.861  1.00  0.00     0.001 A 
ATOM     97  C   UNL A   1      43.443  44.404  32.707  1.00  0.00     0.000 A 
ENDBRANCH  79  92
ENDBRANCH  53  54
ENDBRANCH  46  48
ENDBRANCH  45  46
ENDBRANCH  44  45
ENDBRANCH  43  44
ENDBRANCH  42  43
ENDBRANCH  41  42
ENDBRANCH   1  41
TORSDOF 21
ENDMDL
MODEL 2
REMARK VINA RESULT:     -10.0      2.674      6.088
REMARK SMILES Cc1ccccc1C(=O)Nc1ccc(N2CCC(n3c(C)nc4cccnc43)CC2)c(C(=O)OCCOCCOCCOC(=O)c2ccc(-c3c4nc(c(-c5ccccc5)c5ccc([nH]5)c(-c5ccccc5)c5nc(c(-c6ccccc6)c6ccc3[nH]6)C=C5)C=C4)cc2)c1
REMARK SMILES IDX 38 1 37 2 36 3 35 4 34 5 32 6 33 7 31 8 11 9 12 10 94 11
REMARK SMILES IDX 13 12 14 13 10 14 8 15 9 16 7 18 1 19 2 20 3 21 4 22 6 23
REMARK SMILES IDX 5 24 15 25 16 26 30 27 17 28 29 29 18 30 19 31 20 32 28 33
REMARK SMILES IDX 21 34 22 35 23 36 27 37 24 38 26 39 25 40 39 41 40 42 41 43
REMARK SMILES IDX 42 44 43 45 44 46 45 47 46 48 47 49 93 50 48 51 92 52 49 53
REMARK SMILES IDX 50 54 51 55 86 56 52 57 91 58 85 59 87 60 53 61 90 62 84 63
REMARK SMILES IDX 83 64 54 66 76 67 61 68 75 69 62 70 65 71 74 72 88 73 63 74
REMARK SMILES IDX 64 75 73 77 89 78 66 79 55 80 56 81 60 82 57 83 59 84 58 85
REMARK SMILES IDX 77 86 78 87 82 88 79 89 81 90 80 91 67 92 68 93 72 94 69 95
REMARK SMILES IDX 71 96 70 97
REMARK H PARENT 10 17 87 65 65 76
REMARK Flexibility Score: inf
ROOT
ATOM      1  C   UNL A   1      47.188  29.286  30.813  1.00  0.00     0.188 C 
ENDROOT
BRANCH   1   2
ATOM      2  O   UNL A   1      47.399  28.419  29.681  1.00  0.00    -0.376 OA
BRANCH   2   3
ATOM      3  C   UNL A   1      46.982  28.594  28.311  1.00  0.00     0.202 C 
BRANCH   3   4
ATOM      4  C   UNL A   1      45.552  28.132  27.476  1.00  0.00     0.261 C 
BRANCH   4   5
ATOM      5  O   UNL A   1      44.085  27.484  27.972  1.00  0.00    -0.460 OA
BRANCH   5   6
ATOM      6  C   UNL A   1      43.142  27.254  28.992  1.00  0.00     0.340 C 
ATOM      7  O   UNL A   1      43.339  27.057  30.189  1.00  0.00    -0.246 OA
BRANCH   6   8
ATOM      8  C   UNL A   1      41.668  27.213  28.812  1.00  0.00     0.085 A 
ATOM      9  C   UNL A   1      39.713  27.935  30.154  1.00  0.00     0.042 A 
ATOM     10  C   UNL A   1      39.006  26.865  29.644  1.00  0.00     0.028 A 
ATOM     11  C   UNL A   1      40.975  28.178  29.624  1.00  0.00     0.044 A 
ATOM     12  C   UNL A   1      39.618  26.010  28.692  1.00  0.00     0.029 A 
ATOM     13  C   UNL A   1      40.986  26.099  28.330  1.00  0.00     0.051 A 
BRANCH   9  14
ATOM     14  N   UNL A   1      39.307  28.777  31.205  1.00  0.00    -0.322 N 
ATOM     15  C   UNL A   1      38.403  29.823  31.287  1.00  0.00     0.255 C 
ATOM     16  O   UNL A   1      38.233  30.333  32.400  1.00  0.00    -0.269 OA
ATOM     17  H   UNL A   1      39.758  28.583  32.058  1.00  0.00     0.170 HD
BRANCH  15  18
ATOM     18  C   UNL A   1      37.575  30.346  30.161  1.00  0.00     0.043 A 
ATOM     19  C   UNL A   1      38.783  32.589  29.868  1.00  0.00     0.045 C 
ATOM     20  C   UNL A   1      37.666  31.627  29.595  1.00  0.00    -0.038 A 
ATOM     21  C   UNL A   1      36.737  32.009  28.605  1.00  0.00     0.004 A 
ATOM     22  C   UNL A   1      35.866  31.080  28.042  1.00  0.00     0.000 A 
ATOM     23  C   UNL A   1      36.755  29.396  29.516  1.00  0.00     0.014 A 
ATOM     24  C   UNL A   1      35.921  29.755  28.453  1.00  0.00     0.001 A 
ENDBRANCH  15  18
ENDBRANCH   9  14
BRANCH  13  25
ATOM     25  N   UNL A   1      41.578  25.017  27.687  1.00  0.00    -0.371 N 
ATOM     26  C   UNL A   1      41.510  23.704  28.301  1.00  0.00     0.118 C 
ATOM     27  C   UNL A   1      41.487  24.929  26.252  1.00  0.00     0.118 C 
ATOM     28  C   UNL A   1      42.761  22.958  27.842  1.00  0.00     0.047 C 
ATOM     29  C   UNL A   1      42.614  24.259  25.603  1.00  0.00     0.047 C 
ATOM     30  C   UNL A   1      43.004  23.008  26.315  1.00  0.00     0.094 C 
BRANCH  30  31
ATOM     31  N   UNL A   1      44.352  22.614  25.938  1.00  0.00    -0.310 N 
ATOM     32  C   UNL A   1      45.581  23.266  25.970  1.00  0.00     0.108 A 
ATOM     33  C   UNL A   1      44.554  21.374  25.395  1.00  0.00     0.160 A 
ATOM     34  C   UNL A   1      45.893  24.675  26.363  1.00  0.00     0.088 C 
ATOM     35  N   UNL A   1      46.537  22.445  25.566  1.00  0.00    -0.232 NA
ATOM     36  C   UNL A   1      45.919  21.283  25.211  1.00  0.00     0.108 A 
ATOM     37  N   UNL A   1      43.611  20.451  25.126  1.00  0.00    -0.237 NA
ATOM     38  C   UNL A   1      46.422  20.087  24.710  1.00  0.00     0.034 A 
ATOM     39  C   UNL A   1      44.138  19.318  24.620  1.00  0.00     0.113 A 
ATOM     40  C   UNL A   1      45.494  19.086  24.407  1.00  0.00     0.022 A 
ENDBRANCH  30  31
ENDBRANCH  13  25
ENDBRANCH   6   8
ENDBRANCH   5   6
ENDBRANCH   4   5
ENDBRANCH   3   4
ENDBRANCH   2   3
ENDBRANCH   1   2
BRANCH   1  41
ATOM     41  C   UNL A   1      46.475  28.891  32.101  1.00  0.00     0.188 C 
BRANCH  41  42
ATOM     42  O   UNL A   1      45.126  29.295  32.092  1.00  0.00    -0.376 OA
BRANCH  42  43
ATOM     43  C   UNL A   1      44.572  29.601  33.359  1.00  0.00     0.202 C 
BRANCH  43  44
ATOM     44  C   UNL A   1      43.394  30.603  33.339  1.00  0.00     0.261 C 
BRANCH  44  45
ATOM     45  O   UNL A   1      43.511  31.558  32.249  1.00  0.00    -0.460 OA
BRANCH  45  46
ATOM     46  C   UNL A   1      42.413  31.758  31.430  1.00  0.00     0.338 C 
ATOM     47  O   UNL A   1      41.779  30.875  30.902  1.00  0.00    -0.246 OA
BRANCH  46  48
ATOM     48  C   UNL A   1      42.285  33.226  31.091  1.00  0.00     0.060 A 
ATOM     49  C   UNL A   1      41.998  33.833  29.856  1.00  0.00     0.016 A 
ATOM     50  C   UNL A   1      42.878  34.037  31.978  1.00  0.00     0.016 A 
ATOM     51  C   UNL A   1      42.516  35.173  29.501  1.00  0.00     0.010 A 
ATOM     52  C   UNL A   1      43.641  35.052  31.416  1.00  0.00     0.010 A 
ATOM     53  C   UNL A   1      43.492  35.830  30.247  1.00  0.00    -0.014 A 
BRANCH  53  54
ATOM     54  C   UNL A   1      44.329  37.296  30.006  1.00  0.00     0.031 A 
ATOM     55  C   UNL A   1      43.862  38.914  30.130  1.00  0.00     0.074 A 
ATOM     56  C   UNL A   1      45.672  37.220  30.008  1.00  0.00     0.049 A 
ATOM     57  N   UNL A   1      44.292  39.758  31.051  1.00  0.00    -0.248 NA
ATOM     58  C   UNL A   1      42.886  39.660  29.272  1.00  0.00     0.031 C 
ATOM     59  C   UNL A   1      46.678  38.274  30.149  1.00  0.00     0.029 A 
ATOM     60  N   UNL A   1      46.433  36.130  29.604  1.00  0.00    -0.354 N 
ATOM     61  C   UNL A   1      43.504  40.930  31.094  1.00  0.00     0.074 A 
ATOM     62  C   UNL A   1      42.577  40.760  29.980  1.00  0.00     0.031 C 
ATOM     63  C   UNL A   1      47.742  37.924  29.399  1.00  0.00     0.029 A 
ATOM     64  C   UNL A   1      47.353  36.701  28.707  1.00  0.00     0.049 A 
ATOM     65  H   UNL A   1      46.349  35.189  29.878  1.00  0.00     0.167 HD
ATOM     66  C   UNL A   1      44.065  42.166  31.301  1.00  0.00     0.031 A 
ATOM     67  C   UNL A   1      47.040  36.592  27.381  1.00  0.00     0.031 A 
ATOM     68  C   UNL A   1      45.276  42.262  30.546  1.00  0.00     0.049 A 
ATOM     69  C   UNL A   1      46.754  37.970  26.799  1.00  0.00     0.074 A 
ATOM     70  C   UNL A   1      46.600  42.013  30.817  1.00  0.00     0.029 A 
ATOM     71  N   UNL A   1      45.123  42.261  29.178  1.00  0.00    -0.354 N 
ATOM     72  N   UNL A   1      46.287  38.998  27.473  1.00  0.00    -0.248 NA
ATOM     73  C   UNL A   1      47.131  38.332  25.439  1.00  0.00     0.031 C 
ATOM     74  C   UNL A   1      47.180  41.599  29.576  1.00  0.00     0.029 A 
ATOM     75  C   UNL A   1      46.213  41.675  28.581  1.00  0.00     0.049 A 
ATOM     76  H   UNL A   1      44.347  42.626  28.698  1.00  0.00     0.167 HD
ATOM     77  C   UNL A   1      46.404  40.133  26.716  1.00  0.00     0.074 A 
ATOM     78  C   UNL A   1      46.904  39.657  25.439  1.00  0.00     0.031 C 
ATOM     79  C   UNL A   1      46.149  41.404  27.153  1.00  0.00     0.031 A 
BRANCH  66  80
ATOM     80  C   UNL A   1      43.490  43.298  32.129  1.00  0.00    -0.014 A 
ATOM     81  C   UNL A   1      44.086  44.574  32.148  1.00  0.00     0.009 A 
ATOM     82  C   UNL A   1      42.453  43.110  33.054  1.00  0.00     0.009 A 
ATOM     83  C   UNL A   1      43.670  45.585  33.040  1.00  0.00     0.001 A 
ATOM     84  C   UNL A   1      42.013  44.118  33.936  1.00  0.00     0.001 A 
ATOM     85  C   UNL A   1      42.632  45.358  33.936  1.00  0.00     0.000 A 
ENDBRANCH  66  80
BRANCH  67  86
ATOM     86  C   UNL A   1      46.407  35.248  27.057  1.00  0.00    -0.014 A 
ATOM     87  C   UNL A   1      46.923  34.112  27.750  1.00  0.00     0.009 A 
ATOM     88  C   UNL A   1      45.183  35.074  26.405  1.00  0.00     0.009 A 
ATOM     89  C   UNL A   1      46.169  32.951  27.960  1.00  0.00     0.001 A 
ATOM     90  C   UNL A   1      44.473  33.853  26.527  1.00  0.00     0.001 A 
ATOM     91  C   UNL A   1      44.929  32.827  27.360  1.00  0.00     0.000 A 
ENDBRANCH  67  86
BRANCH  79  92
ATOM     92  C   UNL A   1      45.748  42.528  26.217  1.00  0.00    -0.014 A 
ATOM     93  C   UNL A   1      44.546  42.515  25.497  1.00  0.00     0.009 A 
ATOM     94  C   UNL A   1      46.476  43.740  26.203  1.00  0.00     0.009 A 
ATOM     95  C   UNL A   1      44.123  43.620  24.753  1.00  0.00     0.001 A 
ATOM     96  C   UNL A   1      46.014  44.876  25.532  1.00  0.00     0.001 A 
ATOM     97  C   UNL A   1      44.847  44.807  24.785  1.00  0.00     0.000 A 
ENDBRANCH  79  92
ENDBRANCH  53  54
ENDBRANCH  46  48
ENDBRANCH  45  46
ENDBRANCH  44  45
ENDBRANCH  43  44
ENDBRANCH  42  43
ENDBRANCH  41  42
ENDBRANCH   1  41
TORSDOF 21
ENDMDL
MODEL 3
REMARK VINA RESULT:     -10.0      4.860     12.291
REMARK SMILES Cc1ccccc1C(=O)Nc1ccc(N2CCC(n3c(C)nc4cccnc43)CC2)c(C(=O)OCCOCCOCCOC(=O)c2ccc(-c3c4nc(c(-c5ccccc5)c5ccc([nH]5)c(-c5ccccc5)c5nc(c(-c6ccccc6)c6ccc3[nH]6)C=C5)C=C4)cc2)c1
REMARK SMILES IDX 38 1 37 2 36 3 35 4 34 5 32 6 33 7 31 8 11 9 12 10 94 11
REMARK SMILES IDX 13 12 14 13 10 14 8 15 9 16 7 18 1 19 2 20 3 21 4 22 6 23
REMARK SMILES IDX 5 24 15 25 16 26 30 27 17 28 29 29 18 30 19 31 20 32 28 33
REMARK SMILES IDX 21 34 22 35 23 36 27 37 24 38 26 39 25 40 39 41 40 42 41 43
REMARK SMILES IDX 42 44 43 45 44 46 45 47 46 48 47 49 93 50 48 51 92 52 49 53
REMARK SMILES IDX 50 54 51 55 86 56 52 57 91 58 85 59 87 60 53 61 90 62 84 63
REMARK SMILES IDX 83 64 54 66 76 67 61 68 75 69 62 70 65 71 74 72 88 73 63 74
REMARK SMILES IDX 64 75 73 77 89 78 66 79 55 80 56 81 60 82 57 83 59 84 58 85
REMARK SMILES IDX 77 86 78 87 82 88 79 89 81 90 80 91 67 92 68 93 72 94 69 95
REMARK SMILES IDX 71 96 70 97
REMARK H PARENT 10 17 87 65 65 76
REMARK Flexibility Score: inf
ROOT
ATOM      1  C   UNL A   1      44.490  36.158  32.954  1.00  0.00     0.188 C 
ENDROOT
BRANCH   1   2
ATOM      2  O   UNL A   1      43.742  35.368  33.899  1.00  0.00    -0.376 OA
BRANCH   2   3
ATOM      3  C   UNL A   1      42.321  35.131  33.963  1.00  0.00     0.202 C 
BRANCH   3   4
ATOM      4  C   UNL A   1      41.394  33.684  33.942  1.00  0.00     0.261 C 
BRANCH   4   5
ATOM      5  O   UNL A   1      41.149  32.455  35.060  1.00  0.00    -0.460 OA
BRANCH   5   6
ATOM      6  C   UNL A   1      41.179  31.085  35.385  1.00  0.00     0.340 C 
ATOM      7  O   UNL A   1      40.478  30.472  36.188  1.00  0.00    -0.246 OA
BRANCH   6   8
ATOM      8  C   UNL A   1      42.095  30.076  34.792  1.00  0.00     0.085 A 
ATOM      9  C   UNL A   1      44.499  29.528  35.035  1.00  0.00     0.042 A 
ATOM     10  C   UNL A   1      44.518  29.158  33.705  1.00  0.00     0.028 A 
ATOM     11  C   UNL A   1      43.266  29.839  35.594  1.00  0.00     0.044 A 
ATOM     12  C   UNL A   1      43.319  29.207  32.947  1.00  0.00     0.029 A 
ATOM     13  C   UNL A   1      42.109  29.758  33.437  1.00  0.00     0.051 A 
BRANCH   9  14
ATOM     14  N   UNL A   1      45.619  29.679  35.873  1.00  0.00    -0.322 N 
ATOM     15  C   UNL A   1      46.265  28.829  36.755  1.00  0.00     0.255 C 
ATOM     16  O   UNL A   1      47.280  29.262  37.311  1.00  0.00    -0.269 OA
ATOM     17  H   UNL A   1      46.027  30.573  35.822  1.00  0.00     0.170 HD
BRANCH  15  18
ATOM     18  C   UNL A   1      45.874  27.419  37.045  1.00  0.00     0.043 A 
ATOM     19  C   UNL A   1      48.006  26.292  36.173  1.00  0.00     0.045 C 
ATOM     20  C   UNL A   1      46.598  26.271  36.686  1.00  0.00    -0.038 A 
ATOM     21  C   UNL A   1      46.041  25.000  36.938  1.00  0.00     0.004 A 
ATOM     22  C   UNL A   1      44.889  24.861  37.708  1.00  0.00     0.000 A 
ATOM     23  C   UNL A   1      44.765  27.258  37.902  1.00  0.00     0.014 A 
ATOM     24  C   UNL A   1      44.287  25.990  38.246  1.00  0.00     0.001 A 
ENDBRANCH  15  18
ENDBRANCH   9  14
BRANCH  13  25
ATOM     25  N   UNL A   1      41.112  30.096  32.527  1.00  0.00    -0.371 N 
ATOM     26  C   UNL A   1      41.465  30.846  31.336  1.00  0.00     0.118 C 
ATOM     27  C   UNL A   1      40.070  29.138  32.254  1.00  0.00     0.118 C 
ATOM     28  C   UNL A   1      40.226  31.660  30.969  1.00  0.00     0.047 C 
ATOM     29  C   UNL A   1      38.776  29.721  31.898  1.00  0.00     0.047 C 
ATOM     30  C   UNL A   1      38.918  30.836  30.919  1.00  0.00     0.094 C 
BRANCH  30  31
ATOM     31  N   UNL A   1      37.723  31.664  30.923  1.00  0.00    -0.310 N 
ATOM     32  C   UNL A   1      37.165  32.531  31.858  1.00  0.00     0.108 A 
ATOM     33  C   UNL A   1      36.884  31.627  29.842  1.00  0.00     0.160 A 
ATOM     34  C   UNL A   1      37.620  32.840  33.250  1.00  0.00     0.088 C 
ATOM     35  N   UNL A   1      36.080  33.099  31.356  1.00  0.00    -0.232 NA
ATOM     36  C   UNL A   1      35.899  32.551  30.121  1.00  0.00     0.108 A 
ATOM     37  N   UNL A   1      37.023  30.858  28.744  1.00  0.00    -0.237 NA
ATOM     38  C   UNL A   1      34.922  32.762  29.153  1.00  0.00     0.034 A 
ATOM     39  C   UNL A   1      36.044  31.076  27.844  1.00  0.00     0.113 A 
ATOM     40  C   UNL A   1      35.007  31.994  27.988  1.00  0.00     0.022 A 
ENDBRANCH  30  31
ENDBRANCH  13  25
ENDBRANCH   6   8
ENDBRANCH   5   6
ENDBRANCH   4   5
ENDBRANCH   3   4
ENDBRANCH   2   3
ENDBRANCH   1   2
BRANCH   1  41
ATOM     41  C   UNL A   1      44.767  35.768  31.505  1.00  0.00     0.188 C 
BRANCH  41  42
ATOM     42  O   UNL A   1      43.663  36.043  30.675  1.00  0.00    -0.376 OA
BRANCH  42  43
ATOM     43  C   UNL A   1      43.886  37.012  29.666  1.00  0.00     0.202 C 
BRANCH  43  44
ATOM     44  C   UNL A   1      42.910  36.952  28.467  1.00  0.00     0.261 C 
BRANCH  44  45
ATOM     45  O   UNL A   1      42.594  35.584  28.092  1.00  0.00    -0.460 OA
BRANCH  45  46
ATOM     46  C   UNL A   1      43.075  35.107  26.884  1.00  0.00     0.338 C 
ATOM     47  O   UNL A   1      42.643  35.417  25.800  1.00  0.00    -0.246 OA
BRANCH  46  48
ATOM     48  C   UNL A   1      44.032  33.962  27.130  1.00  0.00     0.060 A 
ATOM     49  C   UNL A   1      44.732  33.172  26.202  1.00  0.00     0.016 A 
ATOM     50  C   UNL A   1      43.906  33.405  28.342  1.00  0.00     0.016 A 
ATOM     51  C   UNL A   1      45.088  31.762  26.481  1.00  0.00     0.010 A 
ATOM     52  C   UNL A   1      43.899  32.016  28.345  1.00  0.00     0.010 A 
ATOM     53  C   UNL A   1      44.574  31.052  27.564  1.00  0.00    -0.014 A 
BRANCH  53  54
ATOM     54  C   UNL A   1      44.725  29.422  28.044  1.00  0.00     0.031 A 
ATOM     55  C   UNL A   1      43.590  28.218  28.380  1.00  0.00     0.074 A 
ATOM     56  C   UNL A   1      45.930  28.856  27.850  1.00  0.00     0.049 A 
ATOM     57  N   UNL A   1      43.391  27.139  27.644  1.00  0.00    -0.248 NA
ATOM     58  C   UNL A   1      42.612  28.165  29.514  1.00  0.00     0.031 C 
ATOM     59  C   UNL A   1      46.320  27.445  27.840  1.00  0.00     0.029 A 
ATOM     60  N   UNL A   1      47.157  29.507  27.873  1.00  0.00    -0.354 N 
ATOM     61  C   UNL A   1      42.187  26.486  27.991  1.00  0.00     0.074 A 
ATOM     62  C   UNL A   1      41.706  27.244  29.141  1.00  0.00     0.031 C 
ATOM     63  C   UNL A   1      47.570  27.365  28.337  1.00  0.00     0.029 A 
ATOM     64  C   UNL A   1      47.916  28.718  28.755  1.00  0.00     0.049 A 
ATOM     65  H   UNL A   1      47.429  30.321  27.392  1.00  0.00     0.167 HD
ATOM     66  C   UNL A   1      42.095  25.116  28.021  1.00  0.00     0.031 A 
ATOM     67  C   UNL A   1      47.992  29.168  30.044  1.00  0.00     0.031 A 
ATOM     68  C   UNL A   1      43.283  24.581  28.613  1.00  0.00     0.049 A 
ATOM     69  C   UNL A   1      47.279  28.197  30.976  1.00  0.00     0.074 A 
ATOM     70  C   UNL A   1      44.484  24.131  28.120  1.00  0.00     0.029 A 
ATOM     71  N   UNL A   1      43.461  24.868  29.947  1.00  0.00    -0.354 N 
ATOM     72  N   UNL A   1      46.274  27.419  30.640  1.00  0.00    -0.248 NA
ATOM     73  C   UNL A   1      47.761  27.918  32.322  1.00  0.00     0.031 C 
ATOM     74  C   UNL A   1      45.451  24.412  29.137  1.00  0.00     0.029 A 
ATOM     75  C   UNL A   1      44.801  24.957  30.236  1.00  0.00     0.049 A 
ATOM     76  H   UNL A   1      42.734  24.992  30.599  1.00  0.00     0.167 HD
ATOM     77  C   UNL A   1      46.058  26.497  31.629  1.00  0.00     0.074 A 
ATOM     78  C   UNL A   1      46.990  26.876  32.675  1.00  0.00     0.031 C 
ATOM     79  C   UNL A   1      45.187  25.446  31.551  1.00  0.00     0.031 A 
BRANCH  66  80
ATOM     80  C   UNL A   1      40.916  24.274  27.576  1.00  0.00    -0.014 A 
ATOM     81  C   UNL A   1      41.062  22.910  27.256  1.00  0.00     0.009 A 
ATOM     82  C   UNL A   1      39.659  24.824  27.283  1.00  0.00     0.009 A 
ATOM     83  C   UNL A   1      40.019  22.157  26.678  1.00  0.00     0.001 A 
ATOM     84  C   UNL A   1      38.601  24.078  26.726  1.00  0.00     0.001 A 
ATOM     85  C   UNL A   1      38.785  22.742  26.411  1.00  0.00     0.000 A 
ENDBRANCH  66  80
BRANCH  67  86
ATOM     86  C   UNL A   1      48.094  30.684  30.110  1.00  0.00    -0.014 A 
ATOM     87  C   UNL A   1      49.206  31.282  29.443  1.00  0.00     0.009 A 
ATOM     88  C   UNL A   1      47.054  31.543  30.475  1.00  0.00     0.009 A 
ATOM     89  C   UNL A   1      49.185  32.603  28.980  1.00  0.00     0.001 A 
ATOM     90  C   UNL A   1      47.089  32.910  30.102  1.00  0.00     0.001 A 
ATOM     91  C   UNL A   1      48.113  33.417  29.295  1.00  0.00     0.000 A 
ENDBRANCH  67  86
BRANCH  79  92
ATOM     92  C   UNL A   1      44.563  24.805  32.777  1.00  0.00    -0.014 A 
ATOM     93  C   UNL A   1      43.702  25.502  33.634  1.00  0.00     0.009 A 
ATOM     94  C   UNL A   1      44.659  23.409  32.980  1.00  0.00     0.009 A 
ATOM     95  C   UNL A   1      43.023  24.860  34.674  1.00  0.00     0.001 A 
ATOM     96  C   UNL A   1      43.915  22.749  33.963  1.00  0.00     0.001 A 
ATOM     97  C   UNL A   1      43.114  23.482  34.827  1.00  0.00     0.000 A 
ENDBRANCH  79  92
ENDBRANCH  53  54
ENDBRANCH  46  48
ENDBRANCH  45  46
ENDBRANCH  44  45
ENDBRANCH  43  44
ENDBRANCH  42  43
ENDBRANCH  41  42
ENDBRANCH   1  41
TORSDOF 21
ENDMDL
