MODEL 1
REMARK VINA RESULT:     -11.1      0.000      0.000
REMARK SMILES C[C@@H]1C(C(=O)OCCOCCOCCOC(=O)c2ccc(-c3c4nc(c(-c5ccccc5)c5ccc([nH]5)c(-c5ccccc5)c5nc(c(-c6ccccc6)c6ccc3[nH]6)C=C5)C=C4)cc2)=NC2=C1C(=O)C[C@H](c1ccccc1)C2
REMARK SMILES IDX 11 1 10 2 9 3 8 4 7 5 6 6 4 7 5 8 3 9 1 10 2 11 68 12 66 13
REMARK SMILES IDX 67 14 69 15 79 16 70 17 71 18 72 19 73 20 74 21 78 22 75 23
REMARK SMILES IDX 77 24 76 25 12 26 13 27 14 28 15 29 16 30 17 31 18 32 19 33
REMARK SMILES IDX 65 34 20 35 64 36 21 37 22 38 23 39 58 40 24 41 63 42 57 43
REMARK SMILES IDX 59 44 25 45 62 46 56 47 55 48 26 50 48 51 33 52 47 53 34 54
REMARK SMILES IDX 37 55 46 56 60 57 35 58 36 59 45 61 61 62 38 63 27 64 28 65
REMARK SMILES IDX 32 66 29 67 31 68 30 69 49 70 50 71 54 72 51 73 53 74 52 75
REMARK SMILES IDX 39 76 40 77 44 78 41 79 43 80 42 81
REMARK H PARENT 59 49 37 60
REMARK Flexibility Score: inf
ROOT
ATOM      1  C   UNL A   1      40.912  20.366  27.410  1.00  0.00     0.188 C 
ENDROOT
BRANCH   1   2
ATOM      2  C   UNL A   1      40.446  21.227  26.257  1.00  0.00     0.188 C 
BRANCH   2   3
ATOM      3  O   UNL A   1      39.142  20.923  25.793  1.00  0.00    -0.376 OA
BRANCH   3   4
ATOM      4  C   UNL A   1      38.223  22.017  25.740  1.00  0.00     0.202 C 
BRANCH   4   5
ATOM      5  C   UNL A   1      37.035  22.038  24.741  1.00  0.00     0.261 C 
BRANCH   5   6
ATOM      6  O   UNL A   1      36.041  23.067  24.953  1.00  0.00    -0.459 OA
BRANCH   6   7
ATOM      7  C   UNL A   1      34.731  22.803  24.720  1.00  0.00     0.353 C 
ATOM      8  O   UNL A   1      34.291  21.986  23.973  1.00  0.00    -0.245 OA
BRANCH   7   9
ATOM      9  C   UNL A   1      33.898  23.582  25.771  1.00  0.00     0.133 C 
ATOM     10  C   UNL A   1      33.311  22.406  27.897  1.00  0.00     0.020 C 
ATOM     11  C   UNL A   1      32.784  22.910  26.562  1.00  0.00     0.078 C 
ATOM     12  C   UNL A   1      32.026  24.178  26.728  1.00  0.00     0.026 C 
ATOM     13  N   UNL A   1      34.014  24.876  25.948  1.00  0.00    -0.249 NA
ATOM     14  C   UNL A   1      32.819  25.233  26.537  1.00  0.00     0.049 C 
ATOM     15  C   UNL A   1      30.576  24.378  26.606  1.00  0.00     0.161 C 
ATOM     16  C   UNL A   1      32.241  26.615  26.467  1.00  0.00     0.065 C 
ATOM     17  O   UNL A   1      29.811  23.555  27.098  1.00  0.00    -0.294 OA
ATOM     18  C   UNL A   1      30.073  25.581  25.785  1.00  0.00     0.089 C 
ATOM     19  C   UNL A   1      31.166  26.620  25.356  1.00  0.00     0.033 C 
BRANCH  19  20
ATOM     20  C   UNL A   1      31.780  26.457  23.951  1.00  0.00    -0.044 A 
ATOM     21  C   UNL A   1      32.737  27.373  23.465  1.00  0.00     0.004 A 
ATOM     22  C   UNL A   1      31.406  25.429  23.079  1.00  0.00     0.004 A 
ATOM     23  C   UNL A   1      33.408  27.185  22.258  1.00  0.00     0.000 A 
ATOM     24  C   UNL A   1      32.069  25.244  21.856  1.00  0.00     0.000 A 
ATOM     25  C   UNL A   1      33.090  26.101  21.459  1.00  0.00     0.000 A 
ENDBRANCH  19  20
ENDBRANCH   7   9
ENDBRANCH   6   7
ENDBRANCH   5   6
ENDBRANCH   4   5
ENDBRANCH   3   4
ENDBRANCH   2   3
ENDBRANCH   1   2
BRANCH   1  26
ATOM     26  O   UNL A   1      42.095  19.622  27.135  1.00  0.00    -0.376 OA
BRANCH  26  27
ATOM     27  C   UNL A   1      42.290  19.211  25.791  1.00  0.00     0.202 C 
BRANCH  27  28
ATOM     28  C   UNL A   1      43.596  18.481  25.537  1.00  0.00     0.261 C 
BRANCH  28  29
ATOM     29  O   UNL A   1      44.702  19.353  25.349  1.00  0.00    -0.460 OA
BRANCH  29  30
ATOM     30  C   UNL A   1      44.697  19.996  24.160  1.00  0.00     0.338 C 
ATOM     31  O   UNL A   1      44.580  19.518  23.044  1.00  0.00    -0.246 OA
BRANCH  30  32
ATOM     32  C   UNL A   1      45.040  21.398  24.388  1.00  0.00     0.060 A 
ATOM     33  C   UNL A   1      45.983  21.658  25.384  1.00  0.00     0.016 A 
ATOM     34  C   UNL A   1      44.205  22.393  23.858  1.00  0.00     0.016 A 
ATOM     35  C   UNL A   1      45.928  22.875  26.014  1.00  0.00     0.010 A 
ATOM     36  C   UNL A   1      44.137  23.600  24.501  1.00  0.00     0.010 A 
ATOM     37  C   UNL A   1      44.932  23.777  25.627  1.00  0.00    -0.014 A 
BRANCH  37  38
ATOM     38  C   UNL A   1      44.727  24.927  26.466  1.00  0.00     0.031 A 
ATOM     39  C   UNL A   1      45.814  25.913  26.394  1.00  0.00     0.074 A 
ATOM     40  C   UNL A   1      43.624  25.066  27.221  1.00  0.00     0.049 A 
ATOM     41  N   UNL A   1      46.665  26.191  27.322  1.00  0.00    -0.248 NA
ATOM     42  C   UNL A   1      46.083  26.549  25.098  1.00  0.00     0.031 C 
ATOM     43  C   UNL A   1      42.384  24.288  27.185  1.00  0.00     0.029 A 
ATOM     44  N   UNL A   1      43.355  26.039  28.125  1.00  0.00    -0.354 N 
ATOM     45  C   UNL A   1      47.476  27.181  26.791  1.00  0.00     0.074 A 
ATOM     46  C   UNL A   1      47.183  27.244  25.380  1.00  0.00     0.031 C 
ATOM     47  C   UNL A   1      41.421  24.968  27.848  1.00  0.00     0.029 A 
ATOM     48  C   UNL A   1      42.016  26.149  28.455  1.00  0.00     0.049 A 
ATOM     49  H   UNL A   1      44.052  26.617  28.514  1.00  0.00     0.167 HD
ATOM     50  C   UNL A   1      48.142  28.046  27.601  1.00  0.00     0.031 A 
ATOM     51  C   UNL A   1      41.446  27.195  29.101  1.00  0.00     0.031 A 
ATOM     52  C   UNL A   1      48.239  27.556  28.952  1.00  0.00     0.049 A 
ATOM     53  C   UNL A   1      42.522  27.922  29.821  1.00  0.00     0.074 A 
ATOM     54  C   UNL A   1      48.773  26.418  29.527  1.00  0.00     0.029 A 
ATOM     55  N   UNL A   1      47.374  28.079  29.885  1.00  0.00    -0.354 N 
ATOM     56  N   UNL A   1      43.151  27.428  30.848  1.00  0.00    -0.248 NA
ATOM     57  C   UNL A   1      43.221  28.996  29.128  1.00  0.00     0.031 C 
ATOM     58  C   UNL A   1      47.852  26.057  30.555  1.00  0.00     0.029 A 
ATOM     59  C   UNL A   1      46.848  27.026  30.591  1.00  0.00     0.049 A 
ATOM     60  H   UNL A   1      47.171  29.032  30.023  1.00  0.00     0.167 HD
ATOM     61  C   UNL A   1      44.479  27.786  30.658  1.00  0.00     0.074 A 
ATOM     62  C   UNL A   1      44.443  28.843  29.649  1.00  0.00     0.031 C 
ATOM     63  C   UNL A   1      45.497  26.995  31.111  1.00  0.00     0.031 A 
BRANCH  50  64
ATOM     64  C   UNL A   1      48.314  29.495  27.244  1.00  0.00    -0.014 A 
ATOM     65  C   UNL A   1      49.592  30.067  27.325  1.00  0.00     0.009 A 
ATOM     66  C   UNL A   1      47.225  30.381  27.101  1.00  0.00     0.009 A 
ATOM     67  C   UNL A   1      49.763  31.456  27.325  1.00  0.00     0.001 A 
ATOM     68  C   UNL A   1      47.396  31.764  27.057  1.00  0.00     0.001 A 
ATOM     69  C   UNL A   1      48.665  32.303  27.197  1.00  0.00     0.000 A 
ENDBRANCH  50  64
BRANCH  51  70
ATOM     70  C   UNL A   1      40.104  27.773  28.875  1.00  0.00    -0.014 A 
ATOM     71  C   UNL A   1      39.157  27.806  29.908  1.00  0.00     0.009 A 
ATOM     72  C   UNL A   1      39.840  28.535  27.721  1.00  0.00     0.009 A 
ATOM     73  C   UNL A   1      38.013  28.609  29.810  1.00  0.00     0.001 A 
ATOM     74  C   UNL A   1      38.695  29.330  27.618  1.00  0.00     0.001 A 
ATOM     75  C   UNL A   1      37.790  29.381  28.671  1.00  0.00     0.000 A 
ENDBRANCH  51  70
BRANCH  63  76
ATOM     76  C   UNL A   1      45.139  25.833  32.010  1.00  0.00    -0.014 A 
ATOM     77  C   UNL A   1      44.582  24.633  31.528  1.00  0.00     0.009 A 
ATOM     78  C   UNL A   1      45.487  25.897  33.367  1.00  0.00     0.009 A 
ATOM     79  C   UNL A   1      44.336  23.555  32.385  1.00  0.00     0.001 A 
ATOM     80  C   UNL A   1      45.264  24.812  34.219  1.00  0.00     0.001 A 
ATOM     81  C   UNL A   1      44.678  23.646  33.731  1.00  0.00     0.000 A 
ENDBRANCH  63  76
ENDBRANCH  37  38
ENDBRANCH  30  32
ENDBRANCH  29  30
ENDBRANCH  28  29
ENDBRANCH  27  28
ENDBRANCH  26  27
ENDBRANCH   1  26
TORSDOF 18
ENDMDL
MODEL 2
REMARK VINA RESULT:     -11.1      5.364     10.521
REMARK SMILES C[C@@H]1C(C(=O)OCCOCCOCCOC(=O)c2ccc(-c3c4nc(c(-c5ccccc5)c5ccc([nH]5)c(-c5ccccc5)c5nc(c(-c6ccccc6)c6ccc3[nH]6)C=C5)C=C4)cc2)=NC2=C1C(=O)C[C@H](c1ccccc1)C2
REMARK SMILES IDX 11 1 10 2 9 3 8 4 7 5 6 6 4 7 5 8 3 9 1 10 2 11 68 12 66 13
REMARK SMILES IDX 67 14 69 15 79 16 70 17 71 18 72 19 73 20 74 21 78 22 75 23
REMARK SMILES IDX 77 24 76 25 12 26 13 27 14 28 15 29 16 30 17 31 18 32 19 33
REMARK SMILES IDX 65 34 20 35 64 36 21 37 22 38 23 39 58 40 24 41 63 42 57 43
REMARK SMILES IDX 59 44 25 45 62 46 56 47 55 48 26 50 48 51 33 52 47 53 34 54
REMARK SMILES IDX 37 55 46 56 60 57 35 58 36 59 45 61 61 62 38 63 27 64 28 65
REMARK SMILES IDX 32 66 29 67 31 68 30 69 49 70 50 71 54 72 51 73 53 74 52 75
REMARK SMILES IDX 39 76 40 77 44 78 41 79 43 80 42 81
REMARK H PARENT 59 49 37 60
REMARK Flexibility Score: inf
ROOT
ATOM      1  C   UNL A   1      34.509  32.870  28.005  1.00  0.00     0.188 C 
ENDROOT
BRANCH   1   2
ATOM      2  C   UNL A   1      34.240  31.383  27.962  1.00  0.00     0.188 C 
BRANCH   2   3
ATOM      3  O   UNL A   1      33.146  31.012  27.142  1.00  0.00    -0.376 OA
BRANCH   3   4
ATOM      4  C   UNL A   1      32.724  29.649  27.235  1.00  0.00     0.202 C 
BRANCH   4   5
ATOM      5  C   UNL A   1      31.828  28.995  26.149  1.00  0.00     0.261 C 
BRANCH   5   6
ATOM      6  O   UNL A   1      32.516  28.268  25.106  1.00  0.00    -0.459 OA
BRANCH   6   7
ATOM      7  C   UNL A   1      33.119  27.086  25.388  1.00  0.00     0.353 C 
ATOM      8  O   UNL A   1      34.045  26.914  26.117  1.00  0.00    -0.245 OA
BRANCH   7   9
ATOM      9  C   UNL A   1      32.244  25.955  24.786  1.00  0.00     0.133 C 
ATOM     10  C   UNL A   1      29.774  26.076  25.146  1.00  0.00     0.020 C 
ATOM     11  C   UNL A   1      31.062  25.372  25.547  1.00  0.00     0.078 C 
ATOM     12  C   UNL A   1      31.180  24.049  24.881  1.00  0.00     0.026 C 
ATOM     13  N   UNL A   1      32.542  25.353  23.660  1.00  0.00    -0.249 NA
ATOM     14  C   UNL A   1      31.875  24.149  23.748  1.00  0.00     0.049 C 
ATOM     15  C   UNL A   1      31.060  22.721  25.498  1.00  0.00     0.161 C 
ATOM     16  C   UNL A   1      32.287  22.917  22.997  1.00  0.00     0.065 C 
ATOM     17  O   UNL A   1      30.172  22.516  26.320  1.00  0.00    -0.294 OA
ATOM     18  C   UNL A   1      32.117  21.655  25.145  1.00  0.00     0.089 C 
ATOM     19  C   UNL A   1      33.086  22.020  23.969  1.00  0.00     0.033 C 
BRANCH  19  20
ATOM     20  C   UNL A   1      34.449  22.637  24.343  1.00  0.00    -0.044 A 
ATOM     21  C   UNL A   1      34.727  23.037  25.667  1.00  0.00     0.004 A 
ATOM     22  C   UNL A   1      35.459  22.862  23.402  1.00  0.00     0.004 A 
ATOM     23  C   UNL A   1      35.989  23.475  26.068  1.00  0.00     0.000 A 
ATOM     24  C   UNL A   1      36.726  23.316  23.798  1.00  0.00     0.000 A 
ATOM     25  C   UNL A   1      37.001  23.592  25.134  1.00  0.00     0.000 A 
ENDBRANCH  19  20
ENDBRANCH   7   9
ENDBRANCH   6   7
ENDBRANCH   5   6
ENDBRANCH   4   5
ENDBRANCH   3   4
ENDBRANCH   2   3
ENDBRANCH   1   2
BRANCH   1  26
ATOM     26  O   UNL A   1      33.586  33.603  28.804  1.00  0.00    -0.376 OA
BRANCH  26  27
ATOM     27  C   UNL A   1      33.661  35.019  28.725  1.00  0.00     0.202 C 
BRANCH  27  28
ATOM     28  C   UNL A   1      32.870  35.753  29.793  1.00  0.00     0.261 C 
BRANCH  28  29
ATOM     29  O   UNL A   1      33.605  35.970  30.990  1.00  0.00    -0.460 OA
BRANCH  29  30
ATOM     30  C   UNL A   1      33.162  35.249  32.044  1.00  0.00     0.338 C 
ATOM     31  O   UNL A   1      32.051  35.254  32.547  1.00  0.00    -0.246 OA
BRANCH  30  32
ATOM     32  C   UNL A   1      34.298  34.553  32.642  1.00  0.00     0.060 A 
ATOM     33  C   UNL A   1      35.469  35.294  32.811  1.00  0.00     0.016 A 
ATOM     34  C   UNL A   1      34.273  33.151  32.710  1.00  0.00     0.016 A 
ATOM     35  C   UNL A   1      36.660  34.614  32.817  1.00  0.00     0.010 A 
ATOM     36  C   UNL A   1      35.463  32.475  32.696  1.00  0.00     0.010 A 
ATOM     37  C   UNL A   1      36.632  33.226  32.650  1.00  0.00    -0.014 A 
BRANCH  37  38
ATOM     38  C   UNL A   1      37.887  32.570  32.400  1.00  0.00     0.031 A 
ATOM     39  C   UNL A   1      38.751  32.476  33.584  1.00  0.00     0.074 A 
ATOM     40  C   UNL A   1      38.203  32.083  31.188  1.00  0.00     0.049 A 
ATOM     41  N   UNL A   1      39.858  33.107  33.783  1.00  0.00    -0.248 NA
ATOM     42  C   UNL A   1      38.257  31.716  34.739  1.00  0.00     0.031 C 
ATOM     43  C   UNL A   1      37.339  31.898  30.021  1.00  0.00     0.029 A 
ATOM     44  N   UNL A   1      39.381  31.540  30.794  1.00  0.00    -0.354 N 
ATOM     45  C   UNL A   1      40.304  32.684  35.025  1.00  0.00     0.074 A 
ATOM     46  C   UNL A   1      39.212  31.965  35.634  1.00  0.00     0.031 C 
ATOM     47  C   UNL A   1      37.956  31.070  29.147  1.00  0.00     0.029 A 
ATOM     48  C   UNL A   1      39.295  30.783  29.638  1.00  0.00     0.049 A 
ATOM     49  H   UNL A   1      40.223  31.673  31.286  1.00  0.00     0.167 HD
ATOM     50  C   UNL A   1      41.623  32.740  35.349  1.00  0.00     0.031 A 
ATOM     51  C   UNL A   1      40.236  29.917  29.190  1.00  0.00     0.031 A 
ATOM     52  C   UNL A   1      42.354  33.630  34.485  1.00  0.00     0.049 A 
ATOM     53  C   UNL A   1      41.526  30.285  29.827  1.00  0.00     0.074 A 
ATOM     54  C   UNL A   1      42.250  34.973  34.175  1.00  0.00     0.029 A 
ATOM     55  N   UNL A   1      43.105  33.070  33.477  1.00  0.00    -0.354 N 
ATOM     56  N   UNL A   1      42.173  31.380  29.545  1.00  0.00    -0.248 NA
ATOM     57  C   UNL A   1      41.870  29.677  31.105  1.00  0.00     0.031 C 
ATOM     58  C   UNL A   1      42.519  35.054  32.777  1.00  0.00     0.029 A 
ATOM     59  C   UNL A   1      42.834  33.770  32.327  1.00  0.00     0.049 A 
ATOM     60  H   UNL A   1      43.723  32.309  33.563  1.00  0.00     0.167 HD
ATOM     61  C   UNL A   1      42.642  31.840  30.768  1.00  0.00     0.074 A 
ATOM     62  C   UNL A   1      42.525  30.696  31.671  1.00  0.00     0.031 C 
ATOM     63  C   UNL A   1      42.800  33.176  31.008  1.00  0.00     0.031 A 
BRANCH  50  64
ATOM     64  C   UNL A   1      42.286  31.667  36.165  1.00  0.00    -0.014 A 
ATOM     65  C   UNL A   1      43.061  32.040  37.273  1.00  0.00     0.009 A 
ATOM     66  C   UNL A   1      42.404  30.333  35.722  1.00  0.00     0.009 A 
ATOM     67  C   UNL A   1      43.952  31.138  37.867  1.00  0.00     0.001 A 
ATOM     68  C   UNL A   1      43.259  29.420  36.338  1.00  0.00     0.001 A 
ATOM     69  C   UNL A   1      44.054  29.831  37.395  1.00  0.00     0.000 A 
ENDBRANCH  50  64
BRANCH  51  70
ATOM     70  C   UNL A   1      40.021  28.624  28.507  1.00  0.00    -0.014 A 
ATOM     71  C   UNL A   1      40.597  28.374  27.254  1.00  0.00     0.009 A 
ATOM     72  C   UNL A   1      39.469  27.532  29.203  1.00  0.00     0.009 A 
ATOM     73  C   UNL A   1      40.661  27.073  26.739  1.00  0.00     0.001 A 
ATOM     74  C   UNL A   1      39.525  26.234  28.688  1.00  0.00     0.001 A 
ATOM     75  C   UNL A   1      40.138  26.003  27.462  1.00  0.00     0.000 A 
ENDBRANCH  51  70
BRANCH  63  76
ATOM     76  C   UNL A   1      42.656  34.122  29.837  1.00  0.00    -0.014 A 
ATOM     77  C   UNL A   1      43.701  34.385  28.931  1.00  0.00     0.009 A 
ATOM     78  C   UNL A   1      41.394  34.669  29.562  1.00  0.00     0.009 A 
ATOM     79  C   UNL A   1      43.502  35.210  27.818  1.00  0.00     0.001 A 
ATOM     80  C   UNL A   1      41.188  35.473  28.437  1.00  0.00     0.001 A 
ATOM     81  C   UNL A   1      42.243  35.753  27.572  1.00  0.00     0.000 A 
ENDBRANCH  63  76
ENDBRANCH  37  38
ENDBRANCH  30  32
ENDBRANCH  29  30
ENDBRANCH  28  29
ENDBRANCH  27  28
ENDBRANCH  26  27
ENDBRANCH   1  26
TORSDOF 18
ENDMDL
MODEL 3
REMARK VINA RESULT:     -11.1      1.117      2.066
REMARK SMILES C[C@@H]1C(C(=O)OCCOCCOCCOC(=O)c2ccc(-c3c4nc(c(-c5ccccc5)c5ccc([nH]5)c(-c5ccccc5)c5nc(c(-c6ccccc6)c6ccc3[nH]6)C=C5)C=C4)cc2)=NC2=C1C(=O)C[C@H](c1ccccc1)C2
REMARK SMILES IDX 11 1 10 2 9 3 8 4 7 5 6 6 4 7 5 8 3 9 1 10 2 11 68 12 66 13
REMARK SMILES IDX 67 14 69 15 79 16 70 17 71 18 72 19 73 20 74 21 78 22 75 23
REMARK SMILES IDX 77 24 76 25 12 26 13 27 14 28 15 29 16 30 17 31 18 32 19 33
REMARK SMILES IDX 65 34 20 35 64 36 21 37 22 38 23 39 58 40 24 41 63 42 57 43
REMARK SMILES IDX 59 44 25 45 62 46 56 47 55 48 26 50 48 51 33 52 47 53 34 54
REMARK SMILES IDX 37 55 46 56 60 57 35 58 36 59 45 61 61 62 38 63 27 64 28 65
REMARK SMILES IDX 32 66 29 67 31 68 30 69 49 70 50 71 54 72 51 73 53 74 52 75
REMARK SMILES IDX 39 76 40 77 44 78 41 79 43 80 42 81
REMARK H PARENT 59 49 37 60
REMARK Flexibility Score: inf
ROOT
ATOM      1  C   UNL A   1      39.552  20.800  26.110  1.00  0.00     0.188 C 
ENDROOT
BRANCH   1   2
ATOM      2  C   UNL A   1      38.954  22.189  26.146  1.00  0.00     0.188 C 
BRANCH   2   3
ATOM      3  O   UNL A   1      37.583  22.243  25.796  1.00  0.00    -0.376 OA
BRANCH   3   4
ATOM      4  C   UNL A   1      36.946  23.515  25.940  1.00  0.00     0.202 C 
BRANCH   4   5
ATOM      5  C   UNL A   1      35.405  23.648  26.071  1.00  0.00     0.261 C 
BRANCH   5   6
ATOM      6  O   UNL A   1      34.700  22.473  26.533  1.00  0.00    -0.459 OA
BRANCH   6   7
ATOM      7  C   UNL A   1      33.377  22.546  26.822  1.00  0.00     0.353 C 
ATOM      8  O   UNL A   1      32.891  22.739  27.893  1.00  0.00    -0.245 OA
BRANCH   7   9
ATOM      9  C   UNL A   1      32.601  22.576  25.479  1.00  0.00     0.133 C 
ATOM     10  C   UNL A   1      32.808  20.595  23.970  1.00  0.00     0.020 C 
ATOM     11  C   UNL A   1      33.217  22.043  24.192  1.00  0.00     0.078 C 
ATOM     12  C   UNL A   1      32.423  22.963  23.335  1.00  0.00     0.026 C 
ATOM     13  N   UNL A   1      31.441  23.170  25.345  1.00  0.00    -0.249 NA
ATOM     14  C   UNL A   1      31.356  23.418  23.991  1.00  0.00     0.049 C 
ATOM     15  C   UNL A   1      32.886  23.721  22.166  1.00  0.00     0.161 C 
ATOM     16  C   UNL A   1      30.508  24.505  23.399  1.00  0.00     0.065 C 
ATOM     17  O   UNL A   1      33.622  23.177  21.347  1.00  0.00    -0.294 OA
ATOM     18  C   UNL A   1      32.494  25.208  22.059  1.00  0.00     0.089 C 
ATOM     19  C   UNL A   1      31.429  25.708  23.095  1.00  0.00     0.033 C 
BRANCH  19  20
ATOM     20  C   UNL A   1      31.957  26.377  24.380  1.00  0.00    -0.044 A 
ATOM     21  C   UNL A   1      31.072  26.943  25.322  1.00  0.00     0.004 A 
ATOM     22  C   UNL A   1      33.322  26.488  24.666  1.00  0.00     0.004 A 
ATOM     23  C   UNL A   1      31.503  27.436  26.553  1.00  0.00     0.000 A 
ATOM     24  C   UNL A   1      33.761  26.998  25.898  1.00  0.00     0.000 A 
ATOM     25  C   UNL A   1      32.853  27.442  26.853  1.00  0.00     0.000 A 
ENDBRANCH  19  20
ENDBRANCH   7   9
ENDBRANCH   6   7
ENDBRANCH   5   6
ENDBRANCH   4   5
ENDBRANCH   3   4
ENDBRANCH   2   3
ENDBRANCH   1   2
BRANCH   1  26
ATOM     26  O   UNL A   1      40.545  20.571  27.104  1.00  0.00    -0.376 OA
BRANCH  26  27
ATOM     27  C   UNL A   1      41.898  20.706  26.693  1.00  0.00     0.202 C 
BRANCH  27  28
ATOM     28  C   UNL A   1      42.386  19.610  25.762  1.00  0.00     0.261 C 
BRANCH  28  29
ATOM     29  O   UNL A   1      43.802  19.537  25.672  1.00  0.00    -0.460 OA
BRANCH  29  30
ATOM     30  C   UNL A   1      44.303  20.015  24.511  1.00  0.00     0.338 C 
ATOM     31  O   UNL A   1      44.547  19.401  23.485  1.00  0.00    -0.246 OA
BRANCH  30  32
ATOM     32  C   UNL A   1      44.695  21.408  24.712  1.00  0.00     0.060 A 
ATOM     33  C   UNL A   1      45.602  21.661  25.742  1.00  0.00     0.016 A 
ATOM     34  C   UNL A   1      43.929  22.419  24.111  1.00  0.00     0.016 A 
ATOM     35  C   UNL A   1      45.571  22.899  26.331  1.00  0.00     0.010 A 
ATOM     36  C   UNL A   1      43.884  23.648  24.713  1.00  0.00     0.010 A 
ATOM     37  C   UNL A   1      44.633  23.829  25.870  1.00  0.00    -0.014 A 
BRANCH  37  38
ATOM     38  C   UNL A   1      44.440  25.013  26.662  1.00  0.00     0.031 A 
ATOM     39  C   UNL A   1      45.523  25.997  26.529  1.00  0.00     0.074 A 
ATOM     40  C   UNL A   1      43.349  25.184  27.429  1.00  0.00     0.049 A 
ATOM     41  N   UNL A   1      46.388  26.317  27.429  1.00  0.00    -0.248 NA
ATOM     42  C   UNL A   1      45.768  26.577  25.203  1.00  0.00     0.031 C 
ATOM     43  C   UNL A   1      42.111  24.402  27.447  1.00  0.00     0.029 A 
ATOM     44  N   UNL A   1      43.093  26.194  28.295  1.00  0.00    -0.354 N 
ATOM     45  C   UNL A   1      47.188  27.284  26.843  1.00  0.00     0.074 A 
ATOM     46  C   UNL A   1      46.871  27.286  25.437  1.00  0.00     0.031 C 
ATOM     47  C   UNL A   1      41.157  25.109  28.096  1.00  0.00     0.029 A 
ATOM     48  C   UNL A   1      41.759  26.316  28.642  1.00  0.00     0.049 A 
ATOM     49  H   UNL A   1      43.795  26.788  28.646  1.00  0.00     0.167 HD
ATOM     50  C   UNL A   1      47.865  28.184  27.604  1.00  0.00     0.031 A 
ATOM     51  C   UNL A   1      41.197  27.388  29.251  1.00  0.00     0.031 A 
ATOM     52  C   UNL A   1      47.986  27.753  28.973  1.00  0.00     0.049 A 
ATOM     53  C   UNL A   1      42.284  28.147  29.921  1.00  0.00     0.074 A 
ATOM     54  C   UNL A   1      48.532  26.642  29.588  1.00  0.00     0.029 A 
ATOM     55  N   UNL A   1      47.136  28.314  29.898  1.00  0.00    -0.354 N 
ATOM     56  N   UNL A   1      42.931  27.697  30.958  1.00  0.00    -0.248 NA
ATOM     57  C   UNL A   1      42.968  29.191  29.171  1.00  0.00     0.031 C 
ATOM     58  C   UNL A   1      47.630  26.323  30.646  1.00  0.00     0.029 A 
ATOM     59  C   UNL A   1      46.624  27.291  30.657  1.00  0.00     0.049 A 
ATOM     60  H   UNL A   1      46.933  29.272  29.998  1.00  0.00     0.167 HD
ATOM     61  C   UNL A   1      44.255  28.049  30.730  1.00  0.00     0.074 A 
ATOM     62  C   UNL A   1      44.199  29.063  29.678  1.00  0.00     0.031 C 
ATOM     63  C   UNL A   1      45.282  27.280  31.200  1.00  0.00     0.031 A 
BRANCH  50  64
ATOM     64  C   UNL A   1      48.028  29.617  27.183  1.00  0.00    -0.014 A 
ATOM     65  C   UNL A   1      49.301  30.203  27.248  1.00  0.00     0.009 A 
ATOM     66  C   UNL A   1      46.933  30.486  26.991  1.00  0.00     0.009 A 
ATOM     67  C   UNL A   1      49.460  31.593  27.185  1.00  0.00     0.001 A 
ATOM     68  C   UNL A   1      47.092  31.867  26.885  1.00  0.00     0.001 A 
ATOM     69  C   UNL A   1      48.355  32.423  27.009  1.00  0.00     0.000 A 
ENDBRANCH  50  64
BRANCH  51  70
ATOM     70  C   UNL A   1      39.851  27.953  29.024  1.00  0.00    -0.014 A 
ATOM     71  C   UNL A   1      38.917  28.019  30.068  1.00  0.00     0.009 A 
ATOM     72  C   UNL A   1      39.568  28.673  27.848  1.00  0.00     0.009 A 
ATOM     73  C   UNL A   1      37.769  28.814  29.957  1.00  0.00     0.001 A 
ATOM     74  C   UNL A   1      38.420  29.461  27.732  1.00  0.00     0.001 A 
ATOM     75  C   UNL A   1      37.529  29.545  28.795  1.00  0.00     0.000 A 
ENDBRANCH  51  70
BRANCH  63  76
ATOM     76  C   UNL A   1      44.941  26.157  32.154  1.00  0.00    -0.014 A 
ATOM     77  C   UNL A   1      44.605  24.860  31.723  1.00  0.00     0.009 A 
ATOM     78  C   UNL A   1      45.086  26.376  33.531  1.00  0.00     0.009 A 
ATOM     79  C   UNL A   1      44.370  23.832  32.642  1.00  0.00     0.001 A 
ATOM     80  C   UNL A   1      44.875  25.343  34.449  1.00  0.00     0.001 A 
ATOM     81  C   UNL A   1      44.507  24.075  34.006  1.00  0.00     0.000 A 
ENDBRANCH  63  76
ENDBRANCH  37  38
ENDBRANCH  30  32
ENDBRANCH  29  30
ENDBRANCH  28  29
ENDBRANCH  27  28
ENDBRANCH  26  27
ENDBRANCH   1  26
TORSDOF 18
ENDMDL
