MODEL 1
REMARK VINA RESULT:      -8.2      0.000      0.000
REMARK SMILES COC[C@@H](C)[C@@](O)(C(=O)OCCOCCOCCOC(=O)c1ccc(-c2c3nc(c(-c4ccccc4)c4ccc([nH]4)c(-c4ccccc4)c4nc(c(-c5ccccc5)c5ccc2[nH]5)C=C4)C=C3)cc1)C(C)C
REMARK SMILES IDX 14 1 13 2 12 3 11 4 10 5 8 6 9 7 6 8 4 9 5 10 3 11 2 12 1 13
REMARK SMILES IDX 7 14 70 16 71 17 72 18 15 19 16 20 17 21 18 22 19 23 20 24
REMARK SMILES IDX 21 25 22 26 23 27 69 28 24 29 68 30 25 31 26 32 27 33 62 34
REMARK SMILES IDX 28 35 67 36 61 37 63 38 29 39 66 40 60 41 59 42 30 44 52 45
REMARK SMILES IDX 37 46 51 47 38 48 41 49 50 50 64 51 39 52 40 53 49 55 65 56
REMARK SMILES IDX 42 57 31 58 32 59 36 60 33 61 35 62 34 63 53 64 54 65 58 66
REMARK SMILES IDX 55 67 57 68 56 69 43 70 44 71 48 72 45 73 47 74 46 75
REMARK H PARENT 7 15 63 43 41 54
REMARK Flexibility Score: inf
ROOT
ATOM      1  C   UNL A   1      34.334  29.415  27.179  1.00  0.00     0.188 C 
ENDROOT
BRANCH   1   2
ATOM      2  O   UNL A   1      34.362  28.791  25.905  1.00  0.00    -0.376 OA
BRANCH   2   3
ATOM      3  C   UNL A   1      33.184  28.074  25.529  1.00  0.00     0.202 C 
BRANCH   3   4
ATOM      4  C   UNL A   1      33.067  27.613  24.063  1.00  0.00     0.261 C 
BRANCH   4   5
ATOM      5  O   UNL A   1      34.117  26.735  23.570  1.00  0.00    -0.461 OA
BRANCH   5   6
ATOM      6  C   UNL A   1      33.727  25.834  22.627  1.00  0.00     0.338 C 
ATOM      7  O   UNL A   1      33.418  26.153  21.477  1.00  0.00    -0.249 OA
BRANCH   6   8
ATOM      8  C   UNL A   1      33.671  24.325  23.050  1.00  0.00     0.168 C 
BRANCH   8   9
ATOM      9  C   UNL A   1      32.293  23.753  23.504  1.00  0.00     0.055 C 
ATOM     10  C   UNL A   1      31.996  22.307  23.111  1.00  0.00     0.014 C 
BRANCH   9  11
ATOM     11  C   UNL A   1      31.109  24.662  23.096  1.00  0.00     0.166 C 
BRANCH  11  12
ATOM     12  O   UNL A   1      30.356  25.077  24.239  1.00  0.00    -0.384 OA
ATOM     13  C   UNL A   1      29.602  26.269  24.040  1.00  0.00     0.194 C 
ENDBRANCH  11  12
ENDBRANCH   9  11
ENDBRANCH   8   9
BRANCH   8  14
ATOM     14  O   UNL A   1      33.901  23.693  21.744  1.00  0.00    -0.378 OA
ATOM     15  H   UNL A   1      34.271  22.806  21.875  1.00  0.00     0.212 HD
ENDBRANCH   8  14
BRANCH   8  16
ATOM     16  C   UNL A   1      34.969  24.007  23.891  1.00  0.00     0.026 C 
ATOM     17  C   UNL A   1      34.795  23.989  25.405  1.00  0.00     0.011 C 
ATOM     18  C   UNL A   1      35.768  22.760  23.468  1.00  0.00     0.011 C 
ENDBRANCH   8  16
ENDBRANCH   6   8
ENDBRANCH   5   6
ENDBRANCH   4   5
ENDBRANCH   3   4
ENDBRANCH   2   3
ENDBRANCH   1   2
BRANCH   1  19
ATOM     19  C   UNL A   1      33.547  30.729  27.293  1.00  0.00     0.188 C 
BRANCH  19  20
ATOM     20  O   UNL A   1      34.363  31.867  27.527  1.00  0.00    -0.376 OA
BRANCH  20  21
ATOM     21  C   UNL A   1      33.731  33.032  28.056  1.00  0.00     0.202 C 
BRANCH  21  22
ATOM     22  C   UNL A   1      34.214  33.462  29.448  1.00  0.00     0.261 C 
BRANCH  22  23
ATOM     23  O   UNL A   1      34.618  32.353  30.272  1.00  0.00    -0.460 OA
BRANCH  23  24
ATOM     24  C   UNL A   1      35.652  32.574  31.118  1.00  0.00     0.338 C 
ATOM     25  O   UNL A   1      35.619  33.193  32.168  1.00  0.00    -0.246 OA
BRANCH  24  26
ATOM     26  C   UNL A   1      36.790  31.728  30.691  1.00  0.00     0.060 A 
ATOM     27  C   UNL A   1      37.449  30.970  31.668  1.00  0.00     0.016 A 
ATOM     28  C   UNL A   1      37.179  31.633  29.351  1.00  0.00     0.016 A 
ATOM     29  C   UNL A   1      38.518  30.145  31.315  1.00  0.00     0.010 A 
ATOM     30  C   UNL A   1      38.257  30.817  29.000  1.00  0.00     0.010 A 
ATOM     31  C   UNL A   1      38.950  30.093  29.984  1.00  0.00    -0.014 A 
BRANCH  31  32
ATOM     32  C   UNL A   1      40.248  29.456  29.658  1.00  0.00     0.031 A 
ATOM     33  C   UNL A   1      41.494  30.290  29.775  1.00  0.00     0.074 A 
ATOM     34  C   UNL A   1      40.335  28.165  29.293  1.00  0.00     0.049 A 
ATOM     35  N   UNL A   1      42.735  29.971  29.508  1.00  0.00    -0.248 NA
ATOM     36  C   UNL A   1      41.315  31.667  30.264  1.00  0.00     0.031 C 
ATOM     37  C   UNL A   1      39.219  27.227  29.204  1.00  0.00     0.029 A 
ATOM     38  N   UNL A   1      41.431  27.425  28.925  1.00  0.00    -0.354 N 
ATOM     39  C   UNL A   1      43.481  31.108  29.788  1.00  0.00     0.074 A 
ATOM     40  C   UNL A   1      42.555  32.129  30.224  1.00  0.00     0.031 C 
ATOM     41  C   UNL A   1      39.689  26.032  28.801  1.00  0.00     0.029 A 
ATOM     42  C   UNL A   1      41.129  26.134  28.568  1.00  0.00     0.049 A 
ATOM     43  H   UNL A   1      42.347  27.785  28.918  1.00  0.00     0.167 HD
ATOM     44  C   UNL A   1      44.818  31.290  29.694  1.00  0.00     0.031 A 
ATOM     45  C   UNL A   1      41.922  25.155  28.086  1.00  0.00     0.031 A 
ATOM     46  C   UNL A   1      45.744  30.290  29.240  1.00  0.00     0.049 A 
ATOM     47  C   UNL A   1      43.394  25.420  27.882  1.00  0.00     0.074 A 
ATOM     48  C   UNL A   1      47.119  30.385  29.111  1.00  0.00     0.029 A 
ATOM     49  N   UNL A   1      45.389  29.016  28.826  1.00  0.00    -0.354 N 
ATOM     50  N   UNL A   1      44.091  26.492  28.167  1.00  0.00    -0.248 NA
ATOM     51  C   UNL A   1      44.185  24.330  27.288  1.00  0.00     0.031 C 
ATOM     52  C   UNL A   1      47.589  29.187  28.563  1.00  0.00     0.029 A 
ATOM     53  C   UNL A   1      46.515  28.326  28.411  1.00  0.00     0.049 A 
ATOM     54  H   UNL A   1      44.473  28.656  28.828  1.00  0.00     0.167 HD
ATOM     55  C   UNL A   1      45.405  26.195  27.819  1.00  0.00     0.074 A 
ATOM     56  C   UNL A   1      45.409  24.839  27.312  1.00  0.00     0.031 C 
ATOM     57  C   UNL A   1      46.509  26.975  27.914  1.00  0.00     0.031 A 
BRANCH  44  58
ATOM     58  C   UNL A   1      45.349  32.650  30.044  1.00  0.00    -0.014 A 
ATOM     59  C   UNL A   1      45.775  32.956  31.347  1.00  0.00     0.009 A 
ATOM     60  C   UNL A   1      45.438  33.635  29.048  1.00  0.00     0.009 A 
ATOM     61  C   UNL A   1      46.247  34.234  31.651  1.00  0.00     0.001 A 
ATOM     62  C   UNL A   1      45.937  34.902  29.349  1.00  0.00     0.001 A 
ATOM     63  C   UNL A   1      46.331  35.203  30.652  1.00  0.00     0.000 A 
ENDBRANCH  44  58
BRANCH  45  64
ATOM     64  C   UNL A   1      41.349  23.833  27.724  1.00  0.00    -0.014 A 
ATOM     65  C   UNL A   1      41.652  22.689  28.480  1.00  0.00     0.009 A 
ATOM     66  C   UNL A   1      40.536  23.697  26.587  1.00  0.00     0.009 A 
ATOM     67  C   UNL A   1      41.179  21.434  28.087  1.00  0.00     0.001 A 
ATOM     68  C   UNL A   1      40.040  22.446  26.214  1.00  0.00     0.001 A 
ATOM     69  C   UNL A   1      40.371  21.315  26.958  1.00  0.00     0.000 A 
ENDBRANCH  45  64
BRANCH  57  70
ATOM     70  C   UNL A   1      47.826  26.373  27.506  1.00  0.00    -0.014 A 
ATOM     71  C   UNL A   1      48.542  25.523  28.363  1.00  0.00     0.009 A 
ATOM     72  C   UNL A   1      48.330  26.618  26.218  1.00  0.00     0.009 A 
ATOM     73  C   UNL A   1      49.750  24.957  27.950  1.00  0.00     0.001 A 
ATOM     74  C   UNL A   1      49.523  26.027  25.796  1.00  0.00     0.001 A 
ATOM     75  C   UNL A   1      50.236  25.204  26.666  1.00  0.00     0.000 A 
ENDBRANCH  57  70
ENDBRANCH  31  32
ENDBRANCH  24  26
ENDBRANCH  23  24
ENDBRANCH  22  23
ENDBRANCH  21  22
ENDBRANCH  20  21
ENDBRANCH  19  20
ENDBRANCH   1  19
TORSDOF 22
ENDMDL
MODEL 2
REMARK VINA RESULT:      -8.0      2.535      7.924
REMARK SMILES COC[C@@H](C)[C@@](O)(C(=O)OCCOCCOCCOC(=O)c1ccc(-c2c3nc(c(-c4ccccc4)c4ccc([nH]4)c(-c4ccccc4)c4nc(c(-c5ccccc5)c5ccc2[nH]5)C=C4)C=C3)cc1)C(C)C
REMARK SMILES IDX 14 1 13 2 12 3 11 4 10 5 8 6 9 7 6 8 4 9 5 10 3 11 2 12 1 13
REMARK SMILES IDX 7 14 70 16 71 17 72 18 15 19 16 20 17 21 18 22 19 23 20 24
REMARK SMILES IDX 21 25 22 26 23 27 69 28 24 29 68 30 25 31 26 32 27 33 62 34
REMARK SMILES IDX 28 35 67 36 61 37 63 38 29 39 66 40 60 41 59 42 30 44 52 45
REMARK SMILES IDX 37 46 51 47 38 48 41 49 50 50 64 51 39 52 40 53 49 55 65 56
REMARK SMILES IDX 42 57 31 58 32 59 36 60 33 61 35 62 34 63 53 64 54 65 58 66
REMARK SMILES IDX 55 67 57 68 56 69 43 70 44 71 48 72 45 73 47 74 46 75
REMARK H PARENT 7 15 63 43 41 54
REMARK Flexibility Score: inf
ROOT
ATOM      1  C   UNL A   1      33.096  21.791  24.532  1.00  0.00     0.188 C 
ENDROOT
BRANCH   1   2
ATOM      2  O   UNL A   1      32.162  21.948  25.589  1.00  0.00    -0.376 OA
BRANCH   2   3
ATOM      3  C   UNL A   1      31.125  22.908  25.375  1.00  0.00     0.202 C 
BRANCH   3   4
ATOM      4  C   UNL A   1      30.925  23.993  26.453  1.00  0.00     0.261 C 
BRANCH   4   5
ATOM      5  O   UNL A   1      31.677  25.226  26.283  1.00  0.00    -0.461 OA
BRANCH   5   6
ATOM      6  C   UNL A   1      31.144  26.115  25.400  1.00  0.00     0.338 C 
ATOM      7  O   UNL A   1      29.983  26.046  24.991  1.00  0.00    -0.249 OA
BRANCH   6   8
ATOM      8  C   UNL A   1      32.073  27.271  24.891  1.00  0.00     0.168 C 
BRANCH   8   9
ATOM      9  C   UNL A   1      33.203  26.898  23.882  1.00  0.00     0.055 C 
ATOM     10  C   UNL A   1      33.733  28.031  23.005  1.00  0.00     0.014 C 
BRANCH   9  11
ATOM     11  C   UNL A   1      32.834  25.679  23.001  1.00  0.00     0.166 C 
BRANCH  11  12
ATOM     12  O   UNL A   1      33.515  25.724  21.744  1.00  0.00    -0.384 OA
ATOM     13  C   UNL A   1      32.662  25.568  20.613  1.00  0.00     0.194 C 
ENDBRANCH  11  12
ENDBRANCH   9  11
ENDBRANCH   8   9
BRANCH   8  14
ATOM     14  O   UNL A   1      31.110  28.023  24.076  1.00  0.00    -0.378 OA
ATOM     15  H   UNL A   1      30.234  27.983  24.490  1.00  0.00     0.212 HD
ENDBRANCH   8  14
BRANCH   8  16
ATOM     16  C   UNL A   1      32.394  28.213  26.115  1.00  0.00     0.026 C 
ATOM     17  C   UNL A   1      33.805  28.113  26.684  1.00  0.00     0.011 C 
ATOM     18  C   UNL A   1      32.034  29.701  25.946  1.00  0.00     0.011 C 
ENDBRANCH   8  16
ENDBRANCH   6   8
ENDBRANCH   5   6
ENDBRANCH   4   5
ENDBRANCH   3   4
ENDBRANCH   2   3
ENDBRANCH   1   2
BRANCH   1  19
ATOM     19  C   UNL A   1      34.518  22.317  24.779  1.00  0.00     0.188 C 
BRANCH  19  20
ATOM     20  O   UNL A   1      35.540  21.444  24.319  1.00  0.00    -0.376 OA
BRANCH  20  21
ATOM     21  C   UNL A   1      36.592  21.127  25.230  1.00  0.00     0.202 C 
BRANCH  21  22
ATOM     22  C   UNL A   1      37.279  22.335  25.881  1.00  0.00     0.261 C 
BRANCH  22  23
ATOM     23  O   UNL A   1      38.680  22.426  25.563  1.00  0.00    -0.460 OA
BRANCH  23  24
ATOM     24  C   UNL A   1      39.544  22.305  26.598  1.00  0.00     0.338 C 
ATOM     25  O   UNL A   1      39.991  21.269  27.061  1.00  0.00    -0.246 OA
BRANCH  24  26
ATOM     26  C   UNL A   1      40.063  23.651  26.931  1.00  0.00     0.060 A 
ATOM     27  C   UNL A   1      40.680  23.829  28.176  1.00  0.00     0.016 A 
ATOM     28  C   UNL A   1      39.996  24.714  26.025  1.00  0.00     0.016 A 
ATOM     29  C   UNL A   1      41.201  25.073  28.533  1.00  0.00     0.010 A 
ATOM     30  C   UNL A   1      40.505  25.964  26.386  1.00  0.00     0.010 A 
ATOM     31  C   UNL A   1      41.082  26.157  27.653  1.00  0.00    -0.014 A 
BRANCH  31  32
ATOM     32  C   UNL A   1      41.365  27.529  28.136  1.00  0.00     0.031 A 
ATOM     33  C   UNL A   1      42.799  27.981  28.183  1.00  0.00     0.074 A 
ATOM     34  C   UNL A   1      40.383  28.371  28.502  1.00  0.00     0.049 A 
ATOM     35  N   UNL A   1      43.299  29.115  28.603  1.00  0.00    -0.248 NA
ATOM     36  C   UNL A   1      43.801  27.025  27.684  1.00  0.00     0.031 C 
ATOM     37  C   UNL A   1      38.951  28.088  28.444  1.00  0.00     0.029 A 
ATOM     38  N   UNL A   1      40.456  29.648  29.000  1.00  0.00    -0.354 N 
ATOM     39  C   UNL A   1      44.671  29.005  28.426  1.00  0.00     0.074 A 
ATOM     40  C   UNL A   1      44.928  27.690  27.883  1.00  0.00     0.031 C 
ATOM     41  C   UNL A   1      38.278  29.163  28.895  1.00  0.00     0.029 A 
ATOM     42  C   UNL A   1      39.233  30.190  29.309  1.00  0.00     0.049 A 
ATOM     43  H   UNL A   1      41.305  30.130  29.125  1.00  0.00     0.167 HD
ATOM     44  C   UNL A   1      45.636  29.916  28.689  1.00  0.00     0.031 A 
ATOM     45  C   UNL A   1      38.924  31.371  29.881  1.00  0.00     0.031 A 
ATOM     46  C   UNL A   1      45.395  31.216  29.250  1.00  0.00     0.049 A 
ATOM     47  C   UNL A   1      40.027  32.324  30.270  1.00  0.00     0.074 A 
ATOM     48  C   UNL A   1      46.313  32.208  29.552  1.00  0.00     0.029 A 
ATOM     49  N   UNL A   1      44.148  31.701  29.608  1.00  0.00    -0.354 N 
ATOM     50  N   UNL A   1      41.319  32.218  30.083  1.00  0.00    -0.248 NA
ATOM     51  C   UNL A   1      39.620  33.563  30.953  1.00  0.00     0.031 C 
ATOM     52  C   UNL A   1      45.626  33.270  30.147  1.00  0.00     0.029 A 
ATOM     53  C   UNL A   1      44.275  32.966  30.158  1.00  0.00     0.049 A 
ATOM     54  H   UNL A   1      43.298  31.219  29.488  1.00  0.00     0.167 HD
ATOM     55  C   UNL A   1      41.875  33.387  30.592  1.00  0.00     0.074 A 
ATOM     56  C   UNL A   1      40.779  34.193  31.086  1.00  0.00     0.031 C 
ATOM     57  C   UNL A   1      43.177  33.761  30.642  1.00  0.00     0.031 A 
BRANCH  44  58
ATOM     58  C   UNL A   1      47.056  29.507  28.417  1.00  0.00    -0.014 A 
ATOM     59  C   UNL A   1      47.833  28.867  29.395  1.00  0.00     0.009 A 
ATOM     60  C   UNL A   1      47.615  29.754  27.154  1.00  0.00     0.009 A 
ATOM     61  C   UNL A   1      49.156  28.515  29.123  1.00  0.00     0.001 A 
ATOM     62  C   UNL A   1      48.929  29.376  26.876  1.00  0.00     0.001 A 
ATOM     63  C   UNL A   1      49.701  28.765  27.864  1.00  0.00     0.000 A 
ENDBRANCH  44  58
BRANCH  45  64
ATOM     64  C   UNL A   1      37.506  31.723  30.159  1.00  0.00    -0.014 A 
ATOM     65  C   UNL A   1      36.739  32.413  29.207  1.00  0.00     0.009 A 
ATOM     66  C   UNL A   1      36.928  31.417  31.402  1.00  0.00     0.009 A 
ATOM     67  C   UNL A   1      35.434  32.815  29.506  1.00  0.00     0.001 A 
ATOM     68  C   UNL A   1      35.615  31.794  31.686  1.00  0.00     0.001 A 
ATOM     69  C   UNL A   1      34.873  32.502  30.742  1.00  0.00     0.000 A 
ENDBRANCH  45  64
BRANCH  57  70
ATOM     70  C   UNL A   1      43.492  35.118  31.209  1.00  0.00    -0.014 A 
ATOM     71  C   UNL A   1      43.645  36.242  30.383  1.00  0.00     0.009 A 
ATOM     72  C   UNL A   1      43.581  35.284  32.601  1.00  0.00     0.009 A 
ATOM     73  C   UNL A   1      43.913  37.496  30.937  1.00  0.00     0.001 A 
ATOM     74  C   UNL A   1      43.819  36.543  33.154  1.00  0.00     0.001 A 
ATOM     75  C   UNL A   1      43.993  37.646  32.321  1.00  0.00     0.000 A 
ENDBRANCH  57  70
ENDBRANCH  31  32
ENDBRANCH  24  26
ENDBRANCH  23  24
ENDBRANCH  22  23
ENDBRANCH  21  22
ENDBRANCH  20  21
ENDBRANCH  19  20
ENDBRANCH   1  19
TORSDOF 22
ENDMDL
MODEL 3
REMARK VINA RESULT:      -8.0      3.338      4.676
REMARK SMILES COC[C@@H](C)[C@@](O)(C(=O)OCCOCCOCCOC(=O)c1ccc(-c2c3nc(c(-c4ccccc4)c4ccc([nH]4)c(-c4ccccc4)c4nc(c(-c5ccccc5)c5ccc2[nH]5)C=C4)C=C3)cc1)C(C)C
REMARK SMILES IDX 14 1 13 2 12 3 11 4 10 5 8 6 9 7 6 8 4 9 5 10 3 11 2 12 1 13
REMARK SMILES IDX 7 14 70 16 71 17 72 18 15 19 16 20 17 21 18 22 19 23 20 24
REMARK SMILES IDX 21 25 22 26 23 27 69 28 24 29 68 30 25 31 26 32 27 33 62 34
REMARK SMILES IDX 28 35 67 36 61 37 63 38 29 39 66 40 60 41 59 42 30 44 52 45
REMARK SMILES IDX 37 46 51 47 38 48 41 49 50 50 64 51 39 52 40 53 49 55 65 56
REMARK SMILES IDX 42 57 31 58 32 59 36 60 33 61 35 62 34 63 53 64 54 65 58 66
REMARK SMILES IDX 55 67 57 68 56 69 43 70 44 71 48 72 45 73 47 74 46 75
REMARK H PARENT 7 15 63 43 41 54
REMARK Flexibility Score: inf
ROOT
ATOM      1  C   UNL A   1      35.117  31.325  28.308  1.00  0.00     0.188 C 
ENDROOT
BRANCH   1   2
ATOM      2  O   UNL A   1      34.690  30.019  27.952  1.00  0.00    -0.376 OA
BRANCH   2   3
ATOM      3  C   UNL A   1      33.500  29.938  27.165  1.00  0.00     0.202 C 
BRANCH   3   4
ATOM      4  C   UNL A   1      33.654  29.572  25.675  1.00  0.00     0.261 C 
BRANCH   4   5
ATOM      5  O   UNL A   1      32.425  29.407  24.915  1.00  0.00    -0.461 OA
BRANCH   5   6
ATOM      6  C   UNL A   1      32.372  28.296  24.130  1.00  0.00     0.338 C 
ATOM      7  O   UNL A   1      33.035  28.167  23.098  1.00  0.00    -0.249 OA
BRANCH   6   8
ATOM      8  C   UNL A   1      31.411  27.140  24.578  1.00  0.00     0.168 C 
BRANCH   8   9
ATOM      9  C   UNL A   1      32.060  25.793  25.023  1.00  0.00     0.055 C 
ATOM     10  C   UNL A   1      33.469  25.879  25.607  1.00  0.00     0.014 C 
BRANCH   9  11
ATOM     11  C   UNL A   1      32.016  24.717  23.911  1.00  0.00     0.166 C 
BRANCH  11  12
ATOM     12  O   UNL A   1      33.334  24.359  23.485  1.00  0.00    -0.384 OA
ATOM     13  C   UNL A   1      33.365  23.467  22.374  1.00  0.00     0.194 C 
ENDBRANCH  11  12
ENDBRANCH   9  11
ENDBRANCH   8   9
BRANCH   8  14
ATOM     14  O   UNL A   1      30.898  27.713  25.829  1.00  0.00    -0.378 OA
ATOM     15  H   UNL A   1      31.642  27.978  26.393  1.00  0.00     0.212 HD
ENDBRANCH   8  14
BRANCH   8  16
ATOM     16  C   UNL A   1      30.174  27.128  23.598  1.00  0.00     0.026 C 
ATOM     17  C   UNL A   1      28.961  26.330  24.062  1.00  0.00     0.011 C 
ATOM     18  C   UNL A   1      29.698  28.499  23.083  1.00  0.00     0.011 C 
ENDBRANCH   8  16
ENDBRANCH   6   8
ENDBRANCH   5   6
ENDBRANCH   4   5
ENDBRANCH   3   4
ENDBRANCH   2   3
ENDBRANCH   1   2
BRANCH   1  19
ATOM     19  C   UNL A   1      34.149  32.478  28.006  1.00  0.00     0.188 C 
BRANCH  19  20
ATOM     20  O   UNL A   1      34.796  33.691  27.648  1.00  0.00    -0.376 OA
BRANCH  20  21
ATOM     21  C   UNL A   1      34.147  34.912  28.002  1.00  0.00     0.202 C 
BRANCH  21  22
ATOM     22  C   UNL A   1      33.270  34.846  29.259  1.00  0.00     0.261 C 
BRANCH  22  23
ATOM     23  O   UNL A   1      33.883  35.460  30.408  1.00  0.00    -0.460 OA
BRANCH  23  24
ATOM     24  C   UNL A   1      33.922  34.720  31.540  1.00  0.00     0.338 C 
ATOM     25  O   UNL A   1      33.054  34.640  32.393  1.00  0.00    -0.246 OA
BRANCH  24  26
ATOM     26  C   UNL A   1      35.094  33.817  31.464  1.00  0.00     0.060 A 
ATOM     27  C   UNL A   1      34.974  32.536  32.021  1.00  0.00     0.016 A 
ATOM     28  C   UNL A   1      36.275  34.191  30.816  1.00  0.00     0.016 A 
ATOM     29  C   UNL A   1      36.043  31.641  31.961  1.00  0.00     0.010 A 
ATOM     30  C   UNL A   1      37.349  33.299  30.767  1.00  0.00     0.010 A 
ATOM     31  C   UNL A   1      37.249  32.032  31.366  1.00  0.00    -0.014 A 
BRANCH  31  32
ATOM     32  C   UNL A   1      38.464  31.206  31.557  1.00  0.00     0.031 A 
ATOM     33  C   UNL A   1      39.380  31.548  32.699  1.00  0.00     0.074 A 
ATOM     34  C   UNL A   1      38.745  30.160  30.761  1.00  0.00     0.049 A 
ATOM     35  N   UNL A   1      40.517  31.001  33.045  1.00  0.00    -0.248 NA
ATOM     36  C   UNL A   1      38.951  32.655  33.572  1.00  0.00     0.031 C 
ATOM     37  C   UNL A   1      37.913  29.677  29.662  1.00  0.00     0.029 A 
ATOM     38  N   UNL A   1      39.826  29.313  30.766  1.00  0.00    -0.354 N 
ATOM     39  C   UNL A   1      40.942  31.700  34.167  1.00  0.00     0.074 A 
ATOM     40  C   UNL A   1      39.955  32.723  34.431  1.00  0.00     0.031 C 
ATOM     41  C   UNL A   1      38.519  28.618  29.092  1.00  0.00     0.029 A 
ATOM     42  C   UNL A   1      39.796  28.376  29.762  1.00  0.00     0.049 A 
ATOM     43  H   UNL A   1      40.554  29.373  31.425  1.00  0.00     0.167 HD
ATOM     44  C   UNL A   1      42.053  31.510  34.915  1.00  0.00     0.031 A 
ATOM     45  C   UNL A   1      40.707  27.446  29.413  1.00  0.00     0.031 A 
ATOM     46  C   UNL A   1      43.052  30.513  34.648  1.00  0.00     0.049 A 
ATOM     47  C   UNL A   1      41.993  27.329  30.195  1.00  0.00     0.074 A 
ATOM     48  C   UNL A   1      44.213  30.246  35.352  1.00  0.00     0.029 A 
ATOM     49  N   UNL A   1      43.015  29.626  33.584  1.00  0.00    -0.354 N 
ATOM     50  N   UNL A   1      42.376  27.983  31.263  1.00  0.00    -0.248 NA
ATOM     51  C   UNL A   1      42.971  26.339  29.714  1.00  0.00     0.031 C 
ATOM     52  C   UNL A   1      44.909  29.237  34.680  1.00  0.00     0.029 A 
ATOM     53  C   UNL A   1      44.150  28.832  33.594  1.00  0.00     0.049 A 
ATOM     54  H   UNL A   1      42.290  29.568  32.921  1.00  0.00     0.167 HD
ATOM     55  C   UNL A   1      43.621  27.462  31.602  1.00  0.00     0.074 A 
ATOM     56  C   UNL A   1      43.923  26.431  30.632  1.00  0.00     0.031 C 
ATOM     57  C   UNL A   1      44.439  27.806  32.627  1.00  0.00     0.031 A 
BRANCH  44  58
ATOM     58  C   UNL A   1      42.268  32.445  36.070  1.00  0.00    -0.014 A 
ATOM     59  C   UNL A   1      42.947  33.664  35.908  1.00  0.00     0.009 A 
ATOM     60  C   UNL A   1      41.768  32.105  37.336  1.00  0.00     0.009 A 
ATOM     61  C   UNL A   1      43.151  34.506  37.003  1.00  0.00     0.001 A 
ATOM     62  C   UNL A   1      41.949  32.962  38.422  1.00  0.00     0.001 A 
ATOM     63  C   UNL A   1      42.648  34.157  38.256  1.00  0.00     0.000 A 
ENDBRANCH  44  58
BRANCH  45  64
ATOM     64  C   UNL A   1      40.467  26.560  28.243  1.00  0.00    -0.014 A 
ATOM     65  C   UNL A   1      39.700  25.392  28.376  1.00  0.00     0.009 A 
ATOM     66  C   UNL A   1      41.048  26.851  26.999  1.00  0.00     0.009 A 
ATOM     67  C   UNL A   1      39.546  24.519  27.295  1.00  0.00     0.001 A 
ATOM     68  C   UNL A   1      40.868  25.993  25.913  1.00  0.00     0.001 A 
ATOM     69  C   UNL A   1      40.127  24.822  26.065  1.00  0.00     0.000 A 
ENDBRANCH  45  64
BRANCH  57  70
ATOM     70  C   UNL A   1      45.719  27.033  32.787  1.00  0.00    -0.014 A 
ATOM     71  C   UNL A   1      45.772  25.844  33.530  1.00  0.00     0.009 A 
ATOM     72  C   UNL A   1      46.881  27.477  32.134  1.00  0.00     0.009 A 
ATOM     73  C   UNL A   1      46.969  25.133  33.642  1.00  0.00     0.001 A 
ATOM     74  C   UNL A   1      48.070  26.748  32.222  1.00  0.00     0.001 A 
ATOM     75  C   UNL A   1      48.114  25.582  32.983  1.00  0.00     0.000 A 
ENDBRANCH  57  70
ENDBRANCH  31  32
ENDBRANCH  24  26
ENDBRANCH  23  24
ENDBRANCH  22  23
ENDBRANCH  21  22
ENDBRANCH  20  21
ENDBRANCH  19  20
ENDBRANCH   1  19
TORSDOF 22
ENDMDL
