MODEL 1
REMARK VINA RESULT:     -11.0      0.000      0.000
REMARK SMILES CS(=O)(=O)c1ccc(-c2cc(Cl)cc3c2O[C@H](C(F)(F)F)C(C(=O)OCCOCCOCCOC(=O)c2ccc(-c4c5nc(c(-c6ccccc6)c6ccc([nH]6)c(-c6ccccc6)c6nc(c(-c7ccccc7)c7ccc4[nH]7)C=C6)C=C5)cc2)=C3)cc1
REMARK SMILES IDX 29 1 28 2 27 3 26 4 25 5 23 6 24 7 22 8 9 9 10 10 15 11
REMARK SMILES IDX 11 12 14 13 16 14 12 15 13 16 85 17 17 18 8 19 5 20 6 21
REMARK SMILES IDX 87 22 7 23 86 24 2 25 1 26 3 27 4 28 18 29 19 30 20 31 21 32
REMARK SMILES IDX 30 33 31 34 32 35 33 36 34 37 35 38 36 39 37 40 38 41 84 42
REMARK SMILES IDX 39 43 83 44 40 45 41 46 42 47 77 48 43 49 82 50 76 51 78 52
REMARK SMILES IDX 44 53 81 54 75 55 74 56 45 58 67 59 52 60 66 61 53 62 56 63
REMARK SMILES IDX 65 64 79 65 54 66 55 67 64 69 80 70 57 71 46 72 47 73 51 74
REMARK SMILES IDX 48 75 50 76 49 77 68 78 69 79 73 80 70 81 72 82 71 83 58 84
REMARK SMILES IDX 59 85 63 86 60 87 62 88 61 89
REMARK H PARENT 78 57 56 68
REMARK Flexibility Score: inf
ROOT
ATOM      1  C   UNL A   1      33.957  31.246  27.705  1.00  0.00     0.188 C 
ENDROOT
BRANCH   1   2
ATOM      2  O   UNL A   1      32.889  30.321  27.625  1.00  0.00    -0.376 OA
BRANCH   2   3
ATOM      3  C   UNL A   1      32.185  30.295  26.385  1.00  0.00     0.202 C 
BRANCH   3   4
ATOM      4  C   UNL A   1      32.465  29.062  25.511  1.00  0.00     0.261 C 
BRANCH   4   5
ATOM      5  O   UNL A   1      31.294  28.650  24.754  1.00  0.00    -0.460 OA
BRANCH   5   6
ATOM      6  C   UNL A   1      31.006  27.333  24.836  1.00  0.00     0.338 C 
ATOM      7  O   UNL A   1      29.915  26.892  25.176  1.00  0.00    -0.246 OA
BRANCH   6   8
ATOM      8  C   UNL A   1      32.113  26.457  24.355  1.00  0.00     0.087 C 
ATOM      9  C   UNL A   1      32.080  22.320  24.618  1.00  0.00     0.026 A 
ATOM     10  C   UNL A   1      31.110  22.075  25.615  1.00  0.00     0.033 A 
ATOM     11  C   UNL A   1      32.422  23.671  24.457  1.00  0.00     0.135 A 
ATOM     12  C   UNL A   1      30.666  23.046  26.513  1.00  0.00     0.042 A 
ATOM     13  C   UNL A   1      32.184  24.569  25.520  1.00  0.00     0.019 A 
ATOM     14  O   UNL A   1      32.786  24.273  23.251  1.00  0.00    -0.475 OA
ATOM     15  Cl  UNL A   1      29.428  22.705  27.651  1.00  0.00    -0.084 Cl
ATOM     16  C   UNL A   1      31.272  24.282  26.525  1.00  0.00     0.032 A 
ATOM     17  C   UNL A   1      32.761  25.924  25.403  1.00  0.00     0.027 C 
ATOM     18  C   UNL A   1      32.076  25.612  23.082  1.00  0.00     0.316 C 
BRANCH   9  19
ATOM     19  C   UNL A   1      32.806  21.080  24.183  1.00  0.00    -0.015 A 
ATOM     20  C   UNL A   1      33.704  18.353  24.219  1.00  0.00     0.067 A 
ATOM     21  C   UNL A   1      32.591  18.723  23.467  1.00  0.00     0.021 A 
ATOM     22  C   UNL A   1      34.396  19.331  24.932  1.00  0.00     0.021 A 
ATOM     23  C   UNL A   1      32.168  20.069  23.442  1.00  0.00     0.010 A 
ATOM     24  C   UNL A   1      33.955  20.676  24.902  1.00  0.00     0.010 A 
BRANCH  20  25
ATOM     25  S   UNL A   1      34.169  16.628  24.297  1.00  0.00     0.175 S 
ATOM     26  C   UNL A   1      32.874  15.807  25.170  1.00  0.00     0.163 C 
ATOM     27  O   UNL A   1      35.358  16.523  25.113  1.00  0.00    -0.224 OA
ATOM     28  O   UNL A   1      34.141  16.105  22.944  1.00  0.00    -0.224 OA
ENDBRANCH  20  25
ENDBRANCH   9  19
BRANCH  18  29
ATOM     29  C   UNL A   1      32.661  26.446  21.935  1.00  0.00     0.430 C 
ATOM     30  F   UNL A   1      32.813  27.744  22.278  1.00  0.00    -0.167 F 
ATOM     31  F   UNL A   1      33.863  25.977  21.532  1.00  0.00    -0.167 F 
ATOM     32  F   UNL A   1      31.845  26.414  20.852  1.00  0.00    -0.167 F 
ENDBRANCH  18  29
ENDBRANCH   6   8
ENDBRANCH   5   6
ENDBRANCH   4   5
ENDBRANCH   3   4
ENDBRANCH   2   3
ENDBRANCH   1   2
BRANCH   1  33
ATOM     33  C   UNL A   1      33.531  32.732  27.757  1.00  0.00     0.188 C 
BRANCH  33  34
ATOM     34  O   UNL A   1      34.022  33.599  28.765  1.00  0.00    -0.376 OA
BRANCH  34  35
ATOM     35  C   UNL A   1      35.310  33.387  29.320  1.00  0.00     0.202 C 
BRANCH  35  36
ATOM     36  C   UNL A   1      35.447  32.739  30.706  1.00  0.00     0.261 C 
BRANCH  36  37
ATOM     37  O   UNL A   1      36.739  32.189  31.021  1.00  0.00    -0.460 OA
BRANCH  37  38
ATOM     38  C   UNL A   1      36.763  30.853  31.251  1.00  0.00     0.338 C 
ATOM     39  O   UNL A   1      35.895  30.180  31.780  1.00  0.00    -0.246 OA
BRANCH  38  40
ATOM     40  C   UNL A   1      37.945  30.242  30.605  1.00  0.00     0.060 A 
ATOM     41  C   UNL A   1      38.784  29.452  31.393  1.00  0.00     0.016 A 
ATOM     42  C   UNL A   1      38.290  30.516  29.279  1.00  0.00     0.016 A 
ATOM     43  C   UNL A   1      39.974  28.957  30.859  1.00  0.00     0.010 A 
ATOM     44  C   UNL A   1      39.492  30.015  28.748  1.00  0.00     0.010 A 
ATOM     45  C   UNL A   1      40.354  29.239  29.537  1.00  0.00    -0.014 A 
BRANCH  45  46
ATOM     46  C   UNL A   1      41.729  28.871  29.082  1.00  0.00     0.031 A 
ATOM     47  C   UNL A   1      41.936  27.520  28.466  1.00  0.00     0.074 A 
ATOM     48  C   UNL A   1      42.772  29.721  29.169  1.00  0.00     0.049 A 
ATOM     49  N   UNL A   1      43.013  27.014  27.925  1.00  0.00    -0.248 NA
ATOM     50  C   UNL A   1      40.785  26.605  28.502  1.00  0.00     0.031 C 
ATOM     51  C   UNL A   1      42.710  31.030  29.795  1.00  0.00     0.029 A 
ATOM     52  N   UNL A   1      44.063  29.651  28.692  1.00  0.00    -0.354 N 
ATOM     53  C   UNL A   1      42.693  25.698  27.622  1.00  0.00     0.074 A 
ATOM     54  C   UNL A   1      41.309  25.499  27.998  1.00  0.00     0.031 C 
ATOM     55  C   UNL A   1      43.843  31.705  29.530  1.00  0.00     0.029 A 
ATOM     56  C   UNL A   1      44.763  30.839  28.801  1.00  0.00     0.049 A 
ATOM     57  H   UNL A   1      44.451  28.832  28.309  1.00  0.00     0.167 HD
ATOM     58  C   UNL A   1      43.498  24.727  27.130  1.00  0.00     0.031 A 
ATOM     59  C   UNL A   1      45.993  31.186  28.359  1.00  0.00     0.031 A 
ATOM     60  C   UNL A   1      44.887  24.918  26.805  1.00  0.00     0.049 A 
ATOM     61  C   UNL A   1      46.845  30.097  27.740  1.00  0.00     0.074 A 
ATOM     62  C   UNL A   1      45.801  23.983  26.353  1.00  0.00     0.029 A 
ATOM     63  N   UNL A   1      45.564  26.126  26.900  1.00  0.00    -0.354 N 
ATOM     64  N   UNL A   1      46.531  28.851  27.470  1.00  0.00    -0.248 NA
ATOM     65  C   UNL A   1      48.236  30.447  27.412  1.00  0.00     0.031 C 
ATOM     66  C   UNL A   1      47.047  24.609  26.243  1.00  0.00     0.029 A 
ATOM     67  C   UNL A   1      46.893  25.951  26.553  1.00  0.00     0.049 A 
ATOM     68  H   UNL A   1      45.158  26.980  27.174  1.00  0.00     0.167 HD
ATOM     69  C   UNL A   1      47.674  28.278  26.921  1.00  0.00     0.074 A 
ATOM     70  C   UNL A   1      48.679  29.319  26.874  1.00  0.00     0.031 C 
ATOM     71  C   UNL A   1      47.882  27.000  26.514  1.00  0.00     0.031 A 
BRANCH  58  72
ATOM     72  C   UNL A   1      42.913  23.345  27.034  1.00  0.00    -0.014 A 
ATOM     73  C   UNL A   1      42.565  22.769  25.802  1.00  0.00     0.009 A 
ATOM     74  C   UNL A   1      42.689  22.614  28.213  1.00  0.00     0.009 A 
ATOM     75  C   UNL A   1      41.964  21.508  25.759  1.00  0.00     0.001 A 
ATOM     76  C   UNL A   1      42.121  21.341  28.162  1.00  0.00     0.001 A 
ATOM     77  C   UNL A   1      41.746  20.795  26.937  1.00  0.00     0.000 A 
ENDBRANCH  58  72
BRANCH  59  78
ATOM     78  C   UNL A   1      46.502  32.599  28.455  1.00  0.00    -0.014 A 
ATOM     79  C   UNL A   1      46.284  33.513  27.408  1.00  0.00     0.009 A 
ATOM     80  C   UNL A   1      47.216  33.065  29.567  1.00  0.00     0.009 A 
ATOM     81  C   UNL A   1      46.750  34.831  27.457  1.00  0.00     0.001 A 
ATOM     82  C   UNL A   1      47.656  34.396  29.638  1.00  0.00     0.001 A 
ATOM     83  C   UNL A   1      47.428  35.277  28.582  1.00  0.00     0.000 A 
ENDBRANCH  59  78
BRANCH  71  84
ATOM     84  C   UNL A   1      49.247  26.646  25.980  1.00  0.00    -0.014 A 
ATOM     85  C   UNL A   1      50.211  26.021  26.787  1.00  0.00     0.009 A 
ATOM     86  C   UNL A   1      49.545  26.872  24.625  1.00  0.00     0.009 A 
ATOM     87  C   UNL A   1      51.455  25.665  26.262  1.00  0.00     0.001 A 
ATOM     88  C   UNL A   1      50.777  26.483  24.094  1.00  0.00     0.001 A 
ATOM     89  C   UNL A   1      51.734  25.889  24.914  1.00  0.00     0.000 A 
ENDBRANCH  71  84
ENDBRANCH  45  46
ENDBRANCH  38  40
ENDBRANCH  37  38
ENDBRANCH  36  37
ENDBRANCH  35  36
ENDBRANCH  34  35
ENDBRANCH  33  34
ENDBRANCH   1  33
TORSDOF 20
ENDMDL
MODEL 2
REMARK VINA RESULT:     -10.8      1.823      5.952
REMARK SMILES CS(=O)(=O)c1ccc(-c2cc(Cl)cc3c2O[C@H](C(F)(F)F)C(C(=O)OCCOCCOCCOC(=O)c2ccc(-c4c5nc(c(-c6ccccc6)c6ccc([nH]6)c(-c6ccccc6)c6nc(c(-c7ccccc7)c7ccc4[nH]7)C=C6)C=C5)cc2)=C3)cc1
REMARK SMILES IDX 29 1 28 2 27 3 26 4 25 5 23 6 24 7 22 8 9 9 10 10 15 11
REMARK SMILES IDX 11 12 14 13 16 14 12 15 13 16 85 17 17 18 8 19 5 20 6 21
REMARK SMILES IDX 87 22 7 23 86 24 2 25 1 26 3 27 4 28 18 29 19 30 20 31 21 32
REMARK SMILES IDX 30 33 31 34 32 35 33 36 34 37 35 38 36 39 37 40 38 41 84 42
REMARK SMILES IDX 39 43 83 44 40 45 41 46 42 47 77 48 43 49 82 50 76 51 78 52
REMARK SMILES IDX 44 53 81 54 75 55 74 56 45 58 67 59 52 60 66 61 53 62 56 63
REMARK SMILES IDX 65 64 79 65 54 66 55 67 64 69 80 70 57 71 46 72 47 73 51 74
REMARK SMILES IDX 48 75 50 76 49 77 68 78 69 79 73 80 70 81 72 82 71 83 58 84
REMARK SMILES IDX 59 85 63 86 60 87 62 88 61 89
REMARK H PARENT 78 57 56 68
REMARK Flexibility Score: inf
ROOT
ATOM      1  C   UNL A   1      34.278  30.911  27.468  1.00  0.00     0.188 C 
ENDROOT
BRANCH   1   2
ATOM      2  O   UNL A   1      32.867  30.872  27.360  1.00  0.00    -0.376 OA
BRANCH   2   3
ATOM      3  C   UNL A   1      32.325  29.703  26.752  1.00  0.00     0.202 C 
BRANCH   3   4
ATOM      4  C   UNL A   1      33.017  29.274  25.449  1.00  0.00     0.261 C 
BRANCH   4   5
ATOM      5  O   UNL A   1      32.947  27.837  25.238  1.00  0.00    -0.460 OA
BRANCH   5   6
ATOM      6  C   UNL A   1      33.131  27.447  23.958  1.00  0.00     0.338 C 
ATOM      7  O   UNL A   1      33.917  27.983  23.187  1.00  0.00    -0.246 OA
BRANCH   6   8
ATOM      8  C   UNL A   1      32.371  26.214  23.603  1.00  0.00     0.087 C 
ATOM      9  C   UNL A   1      33.434  22.398  24.826  1.00  0.00     0.026 A 
ATOM     10  C   UNL A   1      34.797  22.546  25.169  1.00  0.00     0.033 A 
ATOM     11  C   UNL A   1      32.867  23.518  24.201  1.00  0.00     0.135 A 
ATOM     12  C   UNL A   1      35.585  23.619  24.753  1.00  0.00     0.042 A 
ATOM     13  C   UNL A   1      33.714  24.447  23.560  1.00  0.00     0.019 A 
ATOM     14  O   UNL A   1      31.539  23.930  24.334  1.00  0.00    -0.475 OA
ATOM     15  Cl  UNL A   1      37.213  23.779  25.269  1.00  0.00    -0.084 Cl
ATOM     16  C   UNL A   1      35.064  24.533  23.866  1.00  0.00     0.032 A 
ATOM     17  C   UNL A   1      33.073  25.483  22.723  1.00  0.00     0.027 C 
ATOM     18  C   UNL A   1      31.461  25.437  24.554  1.00  0.00     0.316 C 
BRANCH   9  19
ATOM     19  C   UNL A   1      32.965  20.973  24.868  1.00  0.00    -0.015 A 
ATOM     20  C   UNL A   1      33.076  18.112  24.655  1.00  0.00     0.067 A 
ATOM     21  C   UNL A   1      33.281  18.740  25.881  1.00  0.00     0.021 A 
ATOM     22  C   UNL A   1      32.785  18.890  23.534  1.00  0.00     0.021 A 
ATOM     23  C   UNL A   1      33.208  20.145  25.979  1.00  0.00     0.010 A 
ATOM     24  C   UNL A   1      32.722  20.300  23.648  1.00  0.00     0.010 A 
BRANCH  20  25
ATOM     25  S   UNL A   1      33.255  16.336  24.543  1.00  0.00     0.175 S 
ATOM     26  C   UNL A   1      34.759  15.939  25.376  1.00  0.00     0.163 C 
ATOM     27  O   UNL A   1      33.442  15.993  23.150  1.00  0.00    -0.224 OA
ATOM     28  O   UNL A   1      32.188  15.738  25.324  1.00  0.00    -0.224 OA
ENDBRANCH  20  25
ENDBRANCH   9  19
BRANCH  18  29
ATOM     29  C   UNL A   1      30.035  25.979  24.406  1.00  0.00     0.430 C 
ATOM     30  F   UNL A   1      30.022  27.278  24.033  1.00  0.00    -0.167 F 
ATOM     31  F   UNL A   1      29.319  25.278  23.499  1.00  0.00    -0.167 F 
ATOM     32  F   UNL A   1      29.363  25.897  25.582  1.00  0.00    -0.167 F 
ENDBRANCH  18  29
ENDBRANCH   6   8
ENDBRANCH   5   6
ENDBRANCH   4   5
ENDBRANCH   3   4
ENDBRANCH   2   3
ENDBRANCH   1   2
BRANCH   1  33
ATOM     33  C   UNL A   1      34.823  31.826  28.589  1.00  0.00     0.188 C 
BRANCH  33  34
ATOM     34  O   UNL A   1      33.968  32.715  29.289  1.00  0.00    -0.376 OA
BRANCH  34  35
ATOM     35  C   UNL A   1      34.489  33.913  29.842  1.00  0.00     0.202 C 
BRANCH  35  36
ATOM     36  C   UNL A   1      34.727  34.013  31.357  1.00  0.00     0.261 C 
BRANCH  36  37
ATOM     37  O   UNL A   1      36.049  33.675  31.812  1.00  0.00    -0.460 OA
BRANCH  37  38
ATOM     38  C   UNL A   1      36.290  32.350  31.971  1.00  0.00     0.338 C 
ATOM     39  O   UNL A   1      35.500  31.495  32.332  1.00  0.00    -0.246 OA
BRANCH  38  40
ATOM     40  C   UNL A   1      37.640  32.011  31.469  1.00  0.00     0.060 A 
ATOM     41  C   UNL A   1      37.962  32.382  30.162  1.00  0.00     0.016 A 
ATOM     42  C   UNL A   1      38.542  31.253  32.221  1.00  0.00     0.016 A 
ATOM     43  C   UNL A   1      39.175  31.976  29.605  1.00  0.00     0.010 A 
ATOM     44  C   UNL A   1      39.762  30.846  31.651  1.00  0.00     0.010 A 
ATOM     45  C   UNL A   1      40.087  31.194  30.332  1.00  0.00    -0.014 A 
BRANCH  45  46
ATOM     46  C   UNL A   1      41.265  30.607  29.625  1.00  0.00     0.031 A 
ATOM     47  C   UNL A   1      42.525  31.416  29.549  1.00  0.00     0.074 A 
ATOM     48  C   UNL A   1      41.247  29.368  29.093  1.00  0.00     0.049 A 
ATOM     49  N   UNL A   1      43.693  31.086  29.065  1.00  0.00    -0.248 NA
ATOM     50  C   UNL A   1      42.443  32.797  30.052  1.00  0.00     0.031 C 
ATOM     51  C   UNL A   1      40.074  28.512  29.054  1.00  0.00     0.029 A 
ATOM     52  N   UNL A   1      42.237  28.586  28.538  1.00  0.00    -0.354 N 
ATOM     53  C   UNL A   1      44.464  32.237  29.136  1.00  0.00     0.074 A 
ATOM     54  C   UNL A   1      43.645  33.260  29.752  1.00  0.00     0.031 C 
ATOM     55  C   UNL A   1      40.435  27.279  28.658  1.00  0.00     0.029 A 
ATOM     56  C   UNL A   1      41.852  27.277  28.312  1.00  0.00     0.049 A 
ATOM     57  H   UNL A   1      43.134  28.928  28.322  1.00  0.00     0.167 HD
ATOM     58  C   UNL A   1      45.721  32.439  28.676  1.00  0.00     0.031 A 
ATOM     59  C   UNL A   1      42.560  26.207  27.885  1.00  0.00     0.031 A 
ATOM     60  C   UNL A   1      46.512  31.432  28.019  1.00  0.00     0.049 A 
ATOM     61  C   UNL A   1      43.991  26.446  27.449  1.00  0.00     0.074 A 
ATOM     62  C   UNL A   1      47.775  31.553  27.468  1.00  0.00     0.029 A 
ATOM     63  N   UNL A   1      46.115  30.116  27.824  1.00  0.00    -0.354 N 
ATOM     64  N   UNL A   1      44.705  27.547  27.511  1.00  0.00    -0.248 NA
ATOM     65  C   UNL A   1      44.698  25.310  26.836  1.00  0.00     0.031 C 
ATOM     66  C   UNL A   1      48.112  30.332  26.876  1.00  0.00     0.029 A 
ATOM     67  C   UNL A   1      47.092  29.427  27.125  1.00  0.00     0.049 A 
ATOM     68  H   UNL A   1      45.264  29.731  28.136  1.00  0.00     0.167 HD
ATOM     69  C   UNL A   1      45.947  27.230  26.971  1.00  0.00     0.074 A 
ATOM     70  C   UNL A   1      45.897  25.829  26.609  1.00  0.00     0.031 C 
ATOM     71  C   UNL A   1      47.024  28.031  26.770  1.00  0.00     0.031 A 
BRANCH  58  72
ATOM     72  C   UNL A   1      46.259  33.841  28.764  1.00  0.00    -0.014 A 
ATOM     73  C   UNL A   1      46.259  34.708  27.661  1.00  0.00     0.009 A 
ATOM     74  C   UNL A   1      46.794  34.292  29.983  1.00  0.00     0.009 A 
ATOM     75  C   UNL A   1      46.825  35.981  27.765  1.00  0.00     0.001 A 
ATOM     76  C   UNL A   1      47.327  35.576  30.092  1.00  0.00     0.001 A 
ATOM     77  C   UNL A   1      47.355  36.415  28.979  1.00  0.00     0.000 A 
ENDBRANCH  58  72
BRANCH  59  78
ATOM     78  C   UNL A   1      41.969  24.824  27.857  1.00  0.00    -0.014 A 
ATOM     79  C   UNL A   1      40.968  24.488  26.926  1.00  0.00     0.009 A 
ATOM     80  C   UNL A   1      42.368  23.819  28.748  1.00  0.00     0.009 A 
ATOM     81  C   UNL A   1      40.389  23.217  26.877  1.00  0.00     0.001 A 
ATOM     82  C   UNL A   1      41.816  22.530  28.682  1.00  0.00     0.001 A 
ATOM     83  C   UNL A   1      40.823  22.230  27.751  1.00  0.00     0.000 A 
ENDBRANCH  59  78
BRANCH  71  84
ATOM     84  C   UNL A   1      48.244  27.419  26.128  1.00  0.00    -0.014 A 
ATOM     85  C   UNL A   1      49.276  26.861  26.899  1.00  0.00     0.009 A 
ATOM     86  C   UNL A   1      48.324  27.329  24.728  1.00  0.00     0.009 A 
ATOM     87  C   UNL A   1      50.378  26.263  26.285  1.00  0.00     0.001 A 
ATOM     88  C   UNL A   1      49.410  26.698  24.116  1.00  0.00     0.001 A 
ATOM     89  C   UNL A   1      50.441  26.175  24.894  1.00  0.00     0.000 A 
ENDBRANCH  71  84
ENDBRANCH  45  46
ENDBRANCH  38  40
ENDBRANCH  37  38
ENDBRANCH  36  37
ENDBRANCH  35  36
ENDBRANCH  34  35
ENDBRANCH  33  34
ENDBRANCH   1  33
TORSDOF 20
ENDMDL
MODEL 3
REMARK VINA RESULT:     -10.7      1.403      2.067
REMARK SMILES CS(=O)(=O)c1ccc(-c2cc(Cl)cc3c2O[C@H](C(F)(F)F)C(C(=O)OCCOCCOCCOC(=O)c2ccc(-c4c5nc(c(-c6ccccc6)c6ccc([nH]6)c(-c6ccccc6)c6nc(c(-c7ccccc7)c7ccc4[nH]7)C=C6)C=C5)cc2)=C3)cc1
REMARK SMILES IDX 29 1 28 2 27 3 26 4 25 5 23 6 24 7 22 8 9 9 10 10 15 11
REMARK SMILES IDX 11 12 14 13 16 14 12 15 13 16 85 17 17 18 8 19 5 20 6 21
REMARK SMILES IDX 87 22 7 23 86 24 2 25 1 26 3 27 4 28 18 29 19 30 20 31 21 32
REMARK SMILES IDX 30 33 31 34 32 35 33 36 34 37 35 38 36 39 37 40 38 41 84 42
REMARK SMILES IDX 39 43 83 44 40 45 41 46 42 47 77 48 43 49 82 50 76 51 78 52
REMARK SMILES IDX 44 53 81 54 75 55 74 56 45 58 67 59 52 60 66 61 53 62 56 63
REMARK SMILES IDX 65 64 79 65 54 66 55 67 64 69 80 70 57 71 46 72 47 73 51 74
REMARK SMILES IDX 48 75 50 76 49 77 68 78 69 79 73 80 70 81 72 82 71 83 58 84
REMARK SMILES IDX 59 85 63 86 60 87 62 88 61 89
REMARK H PARENT 78 57 56 68
REMARK Flexibility Score: inf
ROOT
ATOM      1  C   UNL A   1      34.009  29.257  27.204  1.00  0.00     0.188 C 
ENDROOT
BRANCH   1   2
ATOM      2  O   UNL A   1      33.445  29.767  26.011  1.00  0.00    -0.376 OA
BRANCH   2   3
ATOM      3  C   UNL A   1      32.177  30.404  26.149  1.00  0.00     0.202 C 
BRANCH   3   4
ATOM      4  C   UNL A   1      31.052  29.793  25.299  1.00  0.00     0.261 C 
BRANCH   4   5
ATOM      5  O   UNL A   1      31.526  28.697  24.469  1.00  0.00    -0.460 OA
BRANCH   5   6
ATOM      6  C   UNL A   1      31.453  27.480  25.049  1.00  0.00     0.338 C 
ATOM      7  O   UNL A   1      30.549  27.134  25.799  1.00  0.00    -0.246 OA
BRANCH   6   8
ATOM      8  C   UNL A   1      32.522  26.545  24.593  1.00  0.00     0.087 C 
ATOM      9  C   UNL A   1      32.176  22.414  24.665  1.00  0.00     0.026 A 
ATOM     10  C   UNL A   1      31.132  22.202  25.593  1.00  0.00     0.033 A 
ATOM     11  C   UNL A   1      32.623  23.741  24.585  1.00  0.00     0.135 A 
ATOM     12  C   UNL A   1      30.706  23.165  26.507  1.00  0.00     0.042 A 
ATOM     13  C   UNL A   1      32.386  24.610  25.672  1.00  0.00     0.019 A 
ATOM     14  O   UNL A   1      33.101  24.364  23.430  1.00  0.00    -0.475 OA
ATOM     15  Cl  UNL A   1      29.381  22.870  27.556  1.00  0.00    -0.084 Cl
ATOM     16  C   UNL A   1      31.398  24.351  26.610  1.00  0.00     0.032 A 
ATOM     17  C   UNL A   1      33.065  25.923  25.650  1.00  0.00     0.027 C 
ATOM     18  C   UNL A   1      32.501  25.758  23.282  1.00  0.00     0.316 C 
BRANCH   9  19
ATOM     19  C   UNL A   1      32.837  21.143  24.216  1.00  0.00    -0.015 A 
ATOM     20  C   UNL A   1      33.461  18.342  24.117  1.00  0.00     0.067 A 
ATOM     21  C   UNL A   1      32.503  18.885  23.264  1.00  0.00     0.021 A 
ATOM     22  C   UNL A   1      34.136  19.183  25.002  1.00  0.00     0.021 A 
ATOM     23  C   UNL A   1      32.216  20.266  23.308  1.00  0.00     0.010 A 
ATOM     24  C   UNL A   1      33.831  20.565  25.039  1.00  0.00     0.010 A 
BRANCH  20  25
ATOM     25  S   UNL A   1      33.747  16.577  24.097  1.00  0.00     0.175 S 
ATOM     26  C   UNL A   1      35.157  16.294  25.119  1.00  0.00     0.163 C 
ATOM     27  O   UNL A   1      34.121  16.202  22.751  1.00  0.00    -0.224 OA
ATOM     28  O   UNL A   1      32.626  15.944  24.766  1.00  0.00    -0.224 OA
ENDBRANCH  20  25
ENDBRANCH   9  19
BRANCH  18  29
ATOM     29  C   UNL A   1      33.212  26.593  22.210  1.00  0.00     0.430 C 
ATOM     30  F   UNL A   1      34.303  27.223  22.698  1.00  0.00    -0.167 F 
ATOM     31  F   UNL A   1      33.602  25.838  21.158  1.00  0.00    -0.167 F 
ATOM     32  F   UNL A   1      32.385  27.551  21.719  1.00  0.00    -0.167 F 
ENDBRANCH  18  29
ENDBRANCH   6   8
ENDBRANCH   5   6
ENDBRANCH   4   5
ENDBRANCH   3   4
ENDBRANCH   2   3
ENDBRANCH   1   2
BRANCH   1  33
ATOM     33  C   UNL A   1      35.491  29.629  27.437  1.00  0.00     0.188 C 
BRANCH  33  34
ATOM     34  O   UNL A   1      35.888  30.381  28.571  1.00  0.00    -0.376 OA
BRANCH  34  35
ATOM     35  C   UNL A   1      35.295  31.644  28.828  1.00  0.00     0.202 C 
BRANCH  35  36
ATOM     36  C   UNL A   1      34.766  31.966  30.233  1.00  0.00     0.261 C 
BRANCH  36  37
ATOM     37  O   UNL A   1      35.494  32.966  30.968  1.00  0.00    -0.460 OA
BRANCH  37  38
ATOM     38  C   UNL A   1      36.195  32.510  32.035  1.00  0.00     0.338 C 
ATOM     39  O   UNL A   1      35.780  32.327  33.167  1.00  0.00    -0.246 OA
BRANCH  38  40
ATOM     40  C   UNL A   1      37.545  32.075  31.614  1.00  0.00     0.060 A 
ATOM     41  C   UNL A   1      38.155  32.765  30.565  1.00  0.00     0.016 A 
ATOM     42  C   UNL A   1      38.166  30.949  32.162  1.00  0.00     0.016 A 
ATOM     43  C   UNL A   1      39.371  32.314  30.052  1.00  0.00     0.010 A 
ATOM     44  C   UNL A   1      39.392  30.500  31.639  1.00  0.00     0.010 A 
ATOM     45  C   UNL A   1      40.003  31.172  30.570  1.00  0.00    -0.014 A 
BRANCH  45  46
ATOM     46  C   UNL A   1      41.185  30.607  29.852  1.00  0.00     0.031 A 
ATOM     47  C   UNL A   1      41.013  29.320  29.101  1.00  0.00     0.074 A 
ATOM     48  C   UNL A   1      42.381  31.230  29.823  1.00  0.00     0.049 A 
ATOM     49  N   UNL A   1      41.866  28.686  28.340  1.00  0.00    -0.248 NA
ATOM     50  C   UNL A   1      39.719  28.640  29.264  1.00  0.00     0.031 C 
ATOM     51  C   UNL A   1      42.686  32.447  30.554  1.00  0.00     0.029 A 
ATOM     52  N   UNL A   1      43.540  30.974  29.122  1.00  0.00    -0.354 N 
ATOM     53  C   UNL A   1      41.240  27.498  27.992  1.00  0.00     0.074 A 
ATOM     54  C   UNL A   1      39.921  27.521  28.587  1.00  0.00     0.031 C 
ATOM     55  C   UNL A   1      43.877  32.923  30.149  1.00  0.00     0.029 A 
ATOM     56  C   UNL A   1      44.475  31.989  29.203  1.00  0.00     0.049 A 
ATOM     57  H   UNL A   1      43.687  30.146  28.612  1.00  0.00     0.167 HD
ATOM     58  C   UNL A   1      41.743  26.456  27.288  1.00  0.00     0.031 A 
ATOM     59  C   UNL A   1      45.666  32.146  28.581  1.00  0.00     0.031 A 
ATOM     60  C   UNL A   1      43.073  26.418  26.741  1.00  0.00     0.049 A 
ATOM     61  C   UNL A   1      46.171  30.995  27.736  1.00  0.00     0.074 A 
ATOM     62  C   UNL A   1      43.695  25.386  26.061  1.00  0.00     0.029 A 
ATOM     63  N   UNL A   1      43.989  27.459  26.814  1.00  0.00    -0.354 N 
ATOM     64  N   UNL A   1      45.570  29.869  27.425  1.00  0.00    -0.248 NA
ATOM     65  C   UNL A   1      47.535  31.113  27.198  1.00  0.00     0.031 C 
ATOM     66  C   UNL A   1      45.010  25.775  25.785  1.00  0.00     0.029 A 
ATOM     67  C   UNL A   1      45.184  27.078  26.225  1.00  0.00     0.049 A 
ATOM     68  H   UNL A   1      43.815  28.337  27.223  1.00  0.00     0.167 HD
ATOM     69  C   UNL A   1      46.472  29.159  26.639  1.00  0.00     0.074 A 
ATOM     70  C   UNL A   1      47.648  29.992  26.500  1.00  0.00     0.031 C 
ATOM     71  C   UNL A   1      46.348  27.920  26.099  1.00  0.00     0.031 A 
BRANCH  58  72
ATOM     72  C   UNL A   1      40.880  25.228  27.185  1.00  0.00    -0.014 A 
ATOM     73  C   UNL A   1      41.214  24.027  27.829  1.00  0.00     0.009 A 
ATOM     74  C   UNL A   1      39.712  25.278  26.405  1.00  0.00     0.009 A 
ATOM     75  C   UNL A   1      40.421  22.890  27.656  1.00  0.00     0.001 A 
ATOM     76  C   UNL A   1      38.904  24.150  26.263  1.00  0.00     0.001 A 
ATOM     77  C   UNL A   1      39.266  22.953  26.878  1.00  0.00     0.000 A 
ENDBRANCH  58  72
BRANCH  59  78
ATOM     78  C   UNL A   1      46.461  33.419  28.701  1.00  0.00    -0.014 A 
ATOM     79  C   UNL A   1      47.295  33.644  29.811  1.00  0.00     0.009 A 
ATOM     80  C   UNL A   1      46.404  34.433  27.735  1.00  0.00     0.009 A 
ATOM     81  C   UNL A   1      48.041  34.817  29.961  1.00  0.00     0.001 A 
ATOM     82  C   UNL A   1      47.176  35.598  27.862  1.00  0.00     0.001 A 
ATOM     83  C   UNL A   1      47.990  35.793  28.976  1.00  0.00     0.000 A 
ENDBRANCH  59  78
BRANCH  71  84
ATOM     84  C   UNL A   1      47.511  27.380  25.306  1.00  0.00    -0.014 A 
ATOM     85  C   UNL A   1      47.586  27.539  23.913  1.00  0.00     0.009 A 
ATOM     86  C   UNL A   1      48.587  26.770  25.975  1.00  0.00     0.009 A 
ATOM     87  C   UNL A   1      48.692  27.068  23.203  1.00  0.00     0.001 A 
ATOM     88  C   UNL A   1      49.708  26.331  25.266  1.00  0.00     0.001 A 
ATOM     89  C   UNL A   1      49.755  26.471  23.880  1.00  0.00     0.000 A 
ENDBRANCH  71  84
ENDBRANCH  45  46
ENDBRANCH  38  40
ENDBRANCH  37  38
ENDBRANCH  36  37
ENDBRANCH  35  36
ENDBRANCH  34  35
ENDBRANCH  33  34
ENDBRANCH   1  33
TORSDOF 20
ENDMDL
