MODEL 1
REMARK VINA RESULT:     -10.7      0.000      0.000
REMARK SMILES C[C@H](NC(=O)N1CC[C@@H](C(=O)OCCOCCOCCOC(=O)c2ccc(-c3c4nc(c(-c5ccccc5)c5ccc([nH]5)c(-c5ccccc5)c5nc(c(-c6ccccc6)c6ccc3[nH]6)C=C5)C=C4)cc2)[C@H]1C)c1ccc(Cl)cc1
REMARK SMILES IDX 16 1 15 2 14 3 13 4 12 5 10 6 11 7 9 8 6 9 7 10 72 11 8 12
REMARK SMILES IDX 73 13 4 14 3 15 5 17 2 18 1 19 74 20 75 21 80 22 76 23 79 24
REMARK SMILES IDX 77 25 78 26 17 27 18 28 19 29 20 30 21 31 22 32 23 33 24 34
REMARK SMILES IDX 25 35 71 36 26 37 70 38 27 39 28 40 29 41 64 42 30 43 69 44
REMARK SMILES IDX 63 45 65 46 31 47 68 48 62 49 61 50 32 52 54 53 39 54 53 55
REMARK SMILES IDX 40 56 43 57 52 58 66 59 41 60 42 61 51 63 67 64 44 65 33 66
REMARK SMILES IDX 34 67 38 68 35 69 37 70 36 71 55 72 56 73 60 74 57 75 59 76
REMARK SMILES IDX 58 77 45 78 46 79 50 80 47 81 49 82 48 83
REMARK H PARENT 3 16 65 51 43 62
REMARK Flexibility Score: inf
ROOT
ATOM      1  C   UNL A   1      40.847  20.030  26.472  1.00  0.00     0.188 C 
ENDROOT
BRANCH   1   2
ATOM      2  O   UNL A   1      40.475  21.293  25.941  1.00  0.00    -0.376 OA
BRANCH   2   3
ATOM      3  C   UNL A   1      39.198  21.795  26.332  1.00  0.00     0.202 C 
BRANCH   3   4
ATOM      4  C   UNL A   1      38.132  21.785  25.234  1.00  0.00     0.261 C 
BRANCH   4   5
ATOM      5  O   UNL A   1      36.837  21.949  25.838  1.00  0.00    -0.463 OA
BRANCH   5   6
ATOM      6  C   UNL A   1      35.813  21.179  25.414  1.00  0.00     0.311 C 
ATOM      7  O   UNL A   1      35.953  20.155  24.756  1.00  0.00    -0.252 OA
BRANCH   6   8
ATOM      8  C   UNL A   1      34.461  21.642  25.941  1.00  0.00     0.123 C 
ATOM      9  N   UNL A   1      32.529  23.051  25.930  1.00  0.00    -0.321 N 
ATOM     10  C   UNL A   1      32.122  21.691  25.596  1.00  0.00     0.122 C 
ATOM     11  C   UNL A   1      34.032  23.143  25.962  1.00  0.00     0.098 C 
ATOM     12  C   UNL A   1      33.366  21.009  25.084  1.00  0.00     0.039 C 
ATOM     13  C   UNL A   1      34.680  23.905  24.795  1.00  0.00     0.032 C 
BRANCH   9  14
ATOM     14  C   UNL A   1      31.560  23.817  26.555  1.00  0.00     0.318 C 
ATOM     15  N   UNL A   1      31.109  24.974  26.003  1.00  0.00    -0.331 N 
ATOM     16  H   UNL A   1      30.598  25.580  26.587  1.00  0.00     0.165 HD
ATOM     17  O   UNL A   1      30.977  23.427  27.571  1.00  0.00    -0.249 OA
BRANCH  15  18
ATOM     18  C   UNL A   1      31.311  25.391  24.646  1.00  0.00     0.111 C 
ATOM     19  C   UNL A   1      30.547  24.471  23.673  1.00  0.00     0.036 C 
BRANCH  18  20
ATOM     20  C   UNL A   1      31.001  26.817  24.230  1.00  0.00    -0.026 A 
ATOM     21  C   UNL A   1      31.592  27.963  24.765  1.00  0.00     0.007 A 
ATOM     22  C   UNL A   1      29.904  26.970  23.347  1.00  0.00     0.007 A 
ATOM     23  C   UNL A   1      31.065  29.225  24.457  1.00  0.00     0.021 A 
ATOM     24  C   UNL A   1      29.369  28.219  23.058  1.00  0.00     0.021 A 
ATOM     25  C   UNL A   1      29.947  29.345  23.626  1.00  0.00     0.041 A 
ATOM     26  Cl  UNL A   1      29.252  30.889  23.326  1.00  0.00    -0.084 Cl
ENDBRANCH  18  20
ENDBRANCH  15  18
ENDBRANCH   9  14
ENDBRANCH   6   8
ENDBRANCH   5   6
ENDBRANCH   4   5
ENDBRANCH   3   4
ENDBRANCH   2   3
ENDBRANCH   1   2
BRANCH   1  27
ATOM     27  C   UNL A   1      42.315  19.648  26.322  1.00  0.00     0.188 C 
BRANCH  27  28
ATOM     28  O   UNL A   1      43.037  19.934  25.139  1.00  0.00    -0.376 OA
BRANCH  28  29
ATOM     29  C   UNL A   1      44.454  20.124  25.248  1.00  0.00     0.202 C 
BRANCH  29  30
ATOM     30  C   UNL A   1      45.170  21.508  25.186  1.00  0.00     0.261 C 
BRANCH  30  31
ATOM     31  O   UNL A   1      44.605  22.600  25.919  1.00  0.00    -0.460 OA
BRANCH  31  32
ATOM     32  C   UNL A   1      43.714  23.361  25.235  1.00  0.00     0.338 C 
ATOM     33  O   UNL A   1      43.289  23.144  24.112  1.00  0.00    -0.246 OA
BRANCH  32  34
ATOM     34  C   UNL A   1      43.119  24.357  26.169  1.00  0.00     0.060 A 
ATOM     35  C   UNL A   1      43.635  25.662  26.145  1.00  0.00     0.016 A 
ATOM     36  C   UNL A   1      42.023  24.061  26.987  1.00  0.00     0.016 A 
ATOM     37  C   UNL A   1      43.078  26.663  26.945  1.00  0.00     0.010 A 
ATOM     38  C   UNL A   1      41.482  25.059  27.810  1.00  0.00     0.010 A 
ATOM     39  C   UNL A   1      42.025  26.358  27.815  1.00  0.00    -0.014 A 
BRANCH  39  40
ATOM     40  C   UNL A   1      41.648  27.317  28.887  1.00  0.00     0.031 A 
ATOM     41  C   UNL A   1      42.450  27.297  30.162  1.00  0.00     0.074 A 
ATOM     42  C   UNL A   1      40.641  28.198  28.749  1.00  0.00     0.049 A 
ATOM     43  N   UNL A   1      42.281  27.981  31.264  1.00  0.00    -0.248 NA
ATOM     44  C   UNL A   1      43.598  26.375  30.193  1.00  0.00     0.031 C 
ATOM     45  C   UNL A   1      39.819  28.375  27.555  1.00  0.00     0.029 A 
ATOM     46  N   UNL A   1      40.136  29.113  29.644  1.00  0.00    -0.354 N 
ATOM     47  C   UNL A   1      43.292  27.563  32.122  1.00  0.00     0.074 A 
ATOM     48  C   UNL A   1      44.050  26.548  31.425  1.00  0.00     0.031 C 
ATOM     49  C   UNL A   1      38.903  29.332  27.795  1.00  0.00     0.029 A 
ATOM     50  C   UNL A   1      39.050  29.809  29.171  1.00  0.00     0.049 A 
ATOM     51  H   UNL A   1      40.517  29.255  30.540  1.00  0.00     0.167 HD
ATOM     52  C   UNL A   1      43.570  27.986  33.377  1.00  0.00     0.031 A 
ATOM     53  C   UNL A   1      38.252  30.706  29.784  1.00  0.00     0.031 A 
ATOM     54  C   UNL A   1      42.815  28.982  34.086  1.00  0.00     0.049 A 
ATOM     55  C   UNL A   1      38.519  31.087  31.221  1.00  0.00     0.074 A 
ATOM     56  C   UNL A   1      43.029  29.480  35.359  1.00  0.00     0.029 A 
ATOM     57  N   UNL A   1      41.694  29.625  33.587  1.00  0.00    -0.354 N 
ATOM     58  N   UNL A   1      39.489  30.701  32.014  1.00  0.00    -0.248 NA
ATOM     59  C   UNL A   1      37.581  32.034  31.843  1.00  0.00     0.031 C 
ATOM     60  C   UNL A   1      41.998  30.378  35.655  1.00  0.00     0.029 A 
ATOM     61  C   UNL A   1      41.185  30.490  34.540  1.00  0.00     0.049 A 
ATOM     62  H   UNL A   1      41.315  29.486  32.688  1.00  0.00     0.167 HD
ATOM     63  C   UNL A   1      39.294  31.379  33.213  1.00  0.00     0.074 A 
ATOM     64  C   UNL A   1      38.125  32.213  33.039  1.00  0.00     0.031 C 
ATOM     65  C   UNL A   1      40.021  31.319  34.357  1.00  0.00     0.031 A 
BRANCH  52  66
ATOM     66  C   UNL A   1      44.726  27.333  34.083  1.00  0.00    -0.014 A 
ATOM     67  C   UNL A   1      44.554  26.170  34.849  1.00  0.00     0.009 A 
ATOM     68  C   UNL A   1      46.012  27.879  33.957  1.00  0.00     0.009 A 
ATOM     69  C   UNL A   1      45.641  25.587  35.502  1.00  0.00     0.001 A 
ATOM     70  C   UNL A   1      47.103  27.277  34.585  1.00  0.00     0.001 A 
ATOM     71  C   UNL A   1      46.915  26.137  35.365  1.00  0.00     0.000 A 
ENDBRANCH  52  66
BRANCH  53  72
ATOM     72  C   UNL A   1      37.087  31.295  29.066  1.00  0.00    -0.014 A 
ATOM     73  C   UNL A   1      37.119  32.623  28.615  1.00  0.00     0.009 A 
ATOM     74  C   UNL A   1      35.916  30.544  28.874  1.00  0.00     0.009 A 
ATOM     75  C   UNL A   1      35.994  33.195  28.012  1.00  0.00     0.001 A 
ATOM     76  C   UNL A   1      34.805  31.107  28.242  1.00  0.00     0.001 A 
ATOM     77  C   UNL A   1      34.841  32.435  27.822  1.00  0.00     0.000 A 
ENDBRANCH  53  72
BRANCH  65  78
ATOM     78  C   UNL A   1      39.604  32.205  35.499  1.00  0.00    -0.014 A 
ATOM     79  C   UNL A   1      38.685  31.771  36.467  1.00  0.00     0.009 A 
ATOM     80  C   UNL A   1      40.186  33.476  35.639  1.00  0.00     0.009 A 
ATOM     81  C   UNL A   1      38.332  32.604  37.532  1.00  0.00     0.001 A 
ATOM     82  C   UNL A   1      39.857  34.293  36.722  1.00  0.00     0.001 A 
ATOM     83  C   UNL A   1      38.924  33.861  37.662  1.00  0.00     0.000 A 
ENDBRANCH  65  78
ENDBRANCH  39  40
ENDBRANCH  32  34
ENDBRANCH  31  32
ENDBRANCH  30  31
ENDBRANCH  29  30
ENDBRANCH  28  29
ENDBRANCH  27  28
ENDBRANCH   1  27
TORSDOF 20
ENDMDL
MODEL 2
REMARK VINA RESULT:     -10.4      1.207      5.889
REMARK SMILES C[C@H](NC(=O)N1CC[C@@H](C(=O)OCCOCCOCCOC(=O)c2ccc(-c3c4nc(c(-c5ccccc5)c5ccc([nH]5)c(-c5ccccc5)c5nc(c(-c6ccccc6)c6ccc3[nH]6)C=C5)C=C4)cc2)[C@H]1C)c1ccc(Cl)cc1
REMARK SMILES IDX 16 1 15 2 14 3 13 4 12 5 10 6 11 7 9 8 6 9 7 10 72 11 8 12
REMARK SMILES IDX 73 13 4 14 3 15 5 17 2 18 1 19 74 20 75 21 80 22 76 23 79 24
REMARK SMILES IDX 77 25 78 26 17 27 18 28 19 29 20 30 21 31 22 32 23 33 24 34
REMARK SMILES IDX 25 35 71 36 26 37 70 38 27 39 28 40 29 41 64 42 30 43 69 44
REMARK SMILES IDX 63 45 65 46 31 47 68 48 62 49 61 50 32 52 54 53 39 54 53 55
REMARK SMILES IDX 40 56 43 57 52 58 66 59 41 60 42 61 51 63 67 64 44 65 33 66
REMARK SMILES IDX 34 67 38 68 35 69 37 70 36 71 55 72 56 73 60 74 57 75 59 76
REMARK SMILES IDX 58 77 45 78 46 79 50 80 47 81 49 82 48 83
REMARK H PARENT 3 16 65 51 43 62
REMARK Flexibility Score: inf
ROOT
ATOM      1  C   UNL A   1      39.959  21.608  26.317  1.00  0.00     0.188 C 
ENDROOT
BRANCH   1   2
ATOM      2  O   UNL A   1      39.213  22.817  26.329  1.00  0.00    -0.376 OA
BRANCH   2   3
ATOM      3  C   UNL A   1      37.818  22.706  26.048  1.00  0.00     0.202 C 
BRANCH   3   4
ATOM      4  C   UNL A   1      37.469  21.857  24.823  1.00  0.00     0.261 C 
BRANCH   4   5
ATOM      5  O   UNL A   1      36.100  22.104  24.458  1.00  0.00    -0.463 OA
BRANCH   5   6
ATOM      6  C   UNL A   1      35.126  21.360  25.023  1.00  0.00     0.311 C 
ATOM      7  O   UNL A   1      35.132  20.135  25.057  1.00  0.00    -0.252 OA
BRANCH   6   8
ATOM      8  C   UNL A   1      34.069  22.200  25.730  1.00  0.00     0.123 C 
ATOM      9  N   UNL A   1      31.890  22.571  26.642  1.00  0.00    -0.321 N 
ATOM     10  C   UNL A   1      32.863  22.578  27.729  1.00  0.00     0.122 C 
ATOM     11  C   UNL A   1      32.553  22.131  25.363  1.00  0.00     0.098 C 
ATOM     12  C   UNL A   1      34.057  21.817  27.208  1.00  0.00     0.039 C 
ATOM     13  C   UNL A   1      32.182  20.725  24.866  1.00  0.00     0.032 C 
BRANCH   9  14
ATOM     14  C   UNL A   1      30.762  23.342  26.860  1.00  0.00     0.318 C 
ATOM     15  N   UNL A   1      30.717  24.650  26.495  1.00  0.00    -0.331 N 
ATOM     16  H   UNL A   1      29.991  25.197  26.872  1.00  0.00     0.165 HD
ATOM     17  O   UNL A   1      29.710  22.852  27.281  1.00  0.00    -0.249 OA
BRANCH  15  18
ATOM     18  C   UNL A   1      31.634  25.305  25.608  1.00  0.00     0.111 C 
ATOM     19  C   UNL A   1      31.263  25.028  24.137  1.00  0.00     0.036 C 
BRANCH  18  20
ATOM     20  C   UNL A   1      31.875  26.799  25.722  1.00  0.00    -0.026 A 
ATOM     21  C   UNL A   1      32.663  27.419  26.693  1.00  0.00     0.007 A 
ATOM     22  C   UNL A   1      31.091  27.610  24.866  1.00  0.00     0.007 A 
ATOM     23  C   UNL A   1      32.630  28.814  26.827  1.00  0.00     0.021 A 
ATOM     24  C   UNL A   1      31.040  28.991  25.014  1.00  0.00     0.021 A 
ATOM     25  C   UNL A   1      31.805  29.588  26.006  1.00  0.00     0.041 A 
ATOM     26  Cl  UNL A   1      31.700  31.289  26.239  1.00  0.00    -0.084 Cl
ENDBRANCH  18  20
ENDBRANCH  15  18
ENDBRANCH   9  14
ENDBRANCH   6   8
ENDBRANCH   5   6
ENDBRANCH   4   5
ENDBRANCH   3   4
ENDBRANCH   2   3
ENDBRANCH   1   2
BRANCH   1  27
ATOM     27  C   UNL A   1      40.852  21.363  27.526  1.00  0.00     0.188 C 
BRANCH  27  28
ATOM     28  O   UNL A   1      42.261  21.321  27.409  1.00  0.00    -0.376 OA
BRANCH  28  29
ATOM     29  C   UNL A   1      42.822  21.167  26.099  1.00  0.00     0.202 C 
BRANCH  29  30
ATOM     30  C   UNL A   1      43.644  22.262  25.352  1.00  0.00     0.261 C 
BRANCH  30  31
ATOM     31  O   UNL A   1      43.017  23.521  25.086  1.00  0.00    -0.460 OA
BRANCH  31  32
ATOM     32  C   UNL A   1      43.786  24.615  25.319  1.00  0.00     0.338 C 
ATOM     33  O   UNL A   1      44.700  25.019  24.620  1.00  0.00    -0.246 OA
BRANCH  32  34
ATOM     34  C   UNL A   1      43.165  25.410  26.415  1.00  0.00     0.060 A 
ATOM     35  C   UNL A   1      43.639  26.715  26.621  1.00  0.00     0.016 A 
ATOM     36  C   UNL A   1      42.084  24.940  27.168  1.00  0.00     0.016 A 
ATOM     37  C   UNL A   1      43.056  27.541  27.586  1.00  0.00     0.010 A 
ATOM     38  C   UNL A   1      41.518  25.758  28.155  1.00  0.00     0.010 A 
ATOM     39  C   UNL A   1      42.019  27.053  28.389  1.00  0.00    -0.014 A 
BRANCH  39  40
ATOM     40  C   UNL A   1      41.619  27.796  29.613  1.00  0.00     0.031 A 
ATOM     41  C   UNL A   1      40.427  28.713  29.521  1.00  0.00     0.074 A 
ATOM     42  C   UNL A   1      42.267  27.664  30.785  1.00  0.00     0.049 A 
ATOM     43  N   UNL A   1      39.921  29.516  30.421  1.00  0.00    -0.248 NA
ATOM     44  C   UNL A   1      39.713  28.722  28.233  1.00  0.00     0.031 C 
ATOM     45  C   UNL A   1      43.395  26.772  31.041  1.00  0.00     0.029 A 
ATOM     46  N   UNL A   1      42.062  28.300  31.987  1.00  0.00    -0.354 N 
ATOM     47  C   UNL A   1      38.839  30.134  29.806  1.00  0.00     0.074 A 
ATOM     48  C   UNL A   1      38.780  29.636  28.450  1.00  0.00     0.031 C 
ATOM     49  C   UNL A   1      43.791  26.926  32.318  1.00  0.00     0.029 A 
ATOM     50  C   UNL A   1      42.968  27.954  32.959  1.00  0.00     0.049 A 
ATOM     51  H   UNL A   1      41.332  28.944  32.137  1.00  0.00     0.167 HD
ATOM     52  C   UNL A   1      37.969  31.033  30.320  1.00  0.00     0.031 A 
ATOM     53  C   UNL A   1      43.133  28.429  34.210  1.00  0.00     0.031 A 
ATOM     54  C   UNL A   1      38.028  31.548  31.660  1.00  0.00     0.049 A 
ATOM     55  C   UNL A   1      42.212  29.508  34.728  1.00  0.00     0.074 A 
ATOM     56  C   UNL A   1      37.181  32.456  32.271  1.00  0.00     0.029 A 
ATOM     57  N   UNL A   1      38.992  31.206  32.594  1.00  0.00    -0.354 N 
ATOM     58  N   UNL A   1      41.182  30.070  34.144  1.00  0.00    -0.248 NA
ATOM     59  C   UNL A   1      42.479  30.015  36.084  1.00  0.00     0.031 C 
ATOM     60  C   UNL A   1      37.672  32.714  33.555  1.00  0.00     0.029 A 
ATOM     61  C   UNL A   1      38.782  31.912  33.766  1.00  0.00     0.049 A 
ATOM     62  H   UNL A   1      39.718  30.558  32.446  1.00  0.00     0.167 HD
ATOM     63  C   UNL A   1      40.662  30.969  35.070  1.00  0.00     0.074 A 
ATOM     64  C   UNL A   1      41.479  30.867  36.259  1.00  0.00     0.031 C 
ATOM     65  C   UNL A   1      39.600  31.803  34.947  1.00  0.00     0.031 A 
BRANCH  52  66
ATOM     66  C   UNL A   1      36.896  31.553  29.403  1.00  0.00    -0.014 A 
ATOM     67  C   UNL A   1      35.741  30.803  29.128  1.00  0.00     0.009 A 
ATOM     68  C   UNL A   1      37.034  32.824  28.826  1.00  0.00     0.009 A 
ATOM     69  C   UNL A   1      34.763  31.303  28.267  1.00  0.00     0.001 A 
ATOM     70  C   UNL A   1      36.041  33.335  27.990  1.00  0.00     0.001 A 
ATOM     71  C   UNL A   1      34.911  32.570  27.703  1.00  0.00     0.000 A 
ENDBRANCH  52  66
BRANCH  53  72
ATOM     72  C   UNL A   1      44.238  27.922  35.070  1.00  0.00    -0.014 A 
ATOM     73  C   UNL A   1      45.515  28.503  35.017  1.00  0.00     0.009 A 
ATOM     74  C   UNL A   1      44.034  26.819  35.914  1.00  0.00     0.009 A 
ATOM     75  C   UNL A   1      46.568  27.973  35.768  1.00  0.00     0.001 A 
ATOM     76  C   UNL A   1      45.080  26.311  36.688  1.00  0.00     0.001 A 
ATOM     77  C   UNL A   1      46.349  26.881  36.605  1.00  0.00     0.000 A 
ENDBRANCH  53  72
BRANCH  65  78
ATOM     78  C   UNL A   1      39.228  32.645  36.137  1.00  0.00    -0.014 A 
ATOM     79  C   UNL A   1      39.764  33.930  36.323  1.00  0.00     0.009 A 
ATOM     80  C   UNL A   1      38.283  32.166  37.058  1.00  0.00     0.009 A 
ATOM     81  C   UNL A   1      39.384  34.701  37.425  1.00  0.00     0.001 A 
ATOM     82  C   UNL A   1      37.880  32.951  38.139  1.00  0.00     0.001 A 
ATOM     83  C   UNL A   1      38.439  34.214  38.327  1.00  0.00     0.000 A 
ENDBRANCH  65  78
ENDBRANCH  39  40
ENDBRANCH  32  34
ENDBRANCH  31  32
ENDBRANCH  30  31
ENDBRANCH  29  30
ENDBRANCH  28  29
ENDBRANCH  27  28
ENDBRANCH   1  27
TORSDOF 20
ENDMDL
MODEL 3
REMARK VINA RESULT:     -10.2      4.373      9.448
REMARK SMILES C[C@H](NC(=O)N1CC[C@@H](C(=O)OCCOCCOCCOC(=O)c2ccc(-c3c4nc(c(-c5ccccc5)c5ccc([nH]5)c(-c5ccccc5)c5nc(c(-c6ccccc6)c6ccc3[nH]6)C=C5)C=C4)cc2)[C@H]1C)c1ccc(Cl)cc1
REMARK SMILES IDX 16 1 15 2 14 3 13 4 12 5 10 6 11 7 9 8 6 9 7 10 72 11 8 12
REMARK SMILES IDX 73 13 4 14 3 15 5 17 2 18 1 19 74 20 75 21 80 22 76 23 79 24
REMARK SMILES IDX 77 25 78 26 17 27 18 28 19 29 20 30 21 31 22 32 23 33 24 34
REMARK SMILES IDX 25 35 71 36 26 37 70 38 27 39 28 40 29 41 64 42 30 43 69 44
REMARK SMILES IDX 63 45 65 46 31 47 68 48 62 49 61 50 32 52 54 53 39 54 53 55
REMARK SMILES IDX 40 56 43 57 52 58 66 59 41 60 42 61 51 63 67 64 44 65 33 66
REMARK SMILES IDX 34 67 38 68 35 69 37 70 36 71 55 72 56 73 60 74 57 75 59 76
REMARK SMILES IDX 58 77 45 78 46 79 50 80 47 81 49 82 48 83
REMARK H PARENT 3 16 65 51 43 62
REMARK Flexibility Score: inf
ROOT
ATOM      1  C   UNL A   1      34.040  31.993  28.311  1.00  0.00     0.188 C 
ENDROOT
BRANCH   1   2
ATOM      2  O   UNL A   1      35.149  31.352  27.699  1.00  0.00    -0.376 OA
BRANCH   2   3
ATOM      3  C   UNL A   1      34.932  30.026  27.219  1.00  0.00     0.202 C 
BRANCH   3   4
ATOM      4  C   UNL A   1      33.463  29.615  27.093  1.00  0.00     0.261 C 
BRANCH   4   5
ATOM      5  O   UNL A   1      33.341  28.215  27.402  1.00  0.00    -0.463 OA
BRANCH   5   6
ATOM      6  C   UNL A   1      32.198  27.571  27.089  1.00  0.00     0.311 C 
ATOM      7  O   UNL A   1      31.128  27.757  27.658  1.00  0.00    -0.252 OA
BRANCH   6   8
ATOM      8  C   UNL A   1      32.335  26.672  25.867  1.00  0.00     0.123 C 
ATOM      9  N   UNL A   1      32.432  26.259  23.514  1.00  0.00    -0.321 N 
ATOM     10  C   UNL A   1      33.729  25.945  24.100  1.00  0.00     0.122 C 
ATOM     11  C   UNL A   1      31.552  26.924  24.541  1.00  0.00     0.098 C 
ATOM     12  C   UNL A   1      33.787  26.718  25.395  1.00  0.00     0.039 C 
ATOM     13  C   UNL A   1      31.307  28.428  24.337  1.00  0.00     0.032 C 
BRANCH   9  14
ATOM     14  C   UNL A   1      32.112  25.539  22.376  1.00  0.00     0.318 C 
ATOM     15  N   UNL A   1      32.082  24.180  22.384  1.00  0.00    -0.331 N 
ATOM     16  H   UNL A   1      32.073  23.727  21.511  1.00  0.00     0.165 HD
ATOM     17  O   UNL A   1      31.724  26.092  21.343  1.00  0.00    -0.249 OA
BRANCH  15  18
ATOM     18  C   UNL A   1      32.062  23.348  23.552  1.00  0.00     0.111 C 
ATOM     19  C   UNL A   1      30.701  23.447  24.269  1.00  0.00     0.036 C 
BRANCH  18  20
ATOM     20  C   UNL A   1      32.392  21.871  23.445  1.00  0.00    -0.026 A 
ATOM     21  C   UNL A   1      32.036  21.037  22.384  1.00  0.00     0.007 A 
ATOM     22  C   UNL A   1      32.959  21.288  24.605  1.00  0.00     0.007 A 
ATOM     23  C   UNL A   1      32.204  19.650  22.503  1.00  0.00     0.021 A 
ATOM     24  C   UNL A   1      33.105  19.912  24.732  1.00  0.00     0.021 A 
ATOM     25  C   UNL A   1      32.715  19.095  23.680  1.00  0.00     0.041 A 
ATOM     26  Cl  UNL A   1      32.831  17.388  23.853  1.00  0.00    -0.084 Cl
ENDBRANCH  18  20
ENDBRANCH  15  18
ENDBRANCH   9  14
ENDBRANCH   6   8
ENDBRANCH   5   6
ENDBRANCH   4   5
ENDBRANCH   3   4
ENDBRANCH   2   3
ENDBRANCH   1   2
BRANCH   1  27
ATOM     27  C   UNL A   1      33.891  33.483  28.033  1.00  0.00     0.188 C 
BRANCH  27  28
ATOM     28  O   UNL A   1      34.469  34.457  28.881  1.00  0.00    -0.376 OA
BRANCH  28  29
ATOM     29  C   UNL A   1      33.911  35.777  28.866  1.00  0.00     0.202 C 
BRANCH  29  30
ATOM     30  C   UNL A   1      32.699  36.236  29.734  1.00  0.00     0.261 C 
BRANCH  30  31
ATOM     31  O   UNL A   1      32.305  35.418  30.840  1.00  0.00    -0.460 OA
BRANCH  31  32
ATOM     32  C   UNL A   1      32.697  35.860  32.062  1.00  0.00     0.338 C 
ATOM     33  O   UNL A   1      32.084  36.629  32.783  1.00  0.00    -0.246 OA
BRANCH  32  34
ATOM     34  C   UNL A   1      33.862  35.049  32.513  1.00  0.00     0.060 A 
ATOM     35  C   UNL A   1      35.133  35.638  32.439  1.00  0.00     0.016 A 
ATOM     36  C   UNL A   1      33.720  33.779  33.082  1.00  0.00     0.016 A 
ATOM     37  C   UNL A   1      36.261  34.961  32.910  1.00  0.00     0.010 A 
ATOM     38  C   UNL A   1      34.855  33.087  33.527  1.00  0.00     0.010 A 
ATOM     39  C   UNL A   1      36.136  33.663  33.418  1.00  0.00    -0.014 A 
BRANCH  39  40
ATOM     40  C   UNL A   1      37.347  32.824  33.614  1.00  0.00     0.031 A 
ATOM     41  C   UNL A   1      38.144  33.024  34.877  1.00  0.00     0.074 A 
ATOM     42  C   UNL A   1      37.739  31.897  32.722  1.00  0.00     0.049 A 
ATOM     43  N   UNL A   1      39.267  32.470  35.252  1.00  0.00    -0.248 NA
ATOM     44  C   UNL A   1      37.592  33.985  35.848  1.00  0.00     0.031 C 
ATOM     45  C   UNL A   1      37.038  31.550  31.488  1.00  0.00     0.029 A 
ATOM     46  N   UNL A   1      38.843  31.077  32.724  1.00  0.00    -0.354 N 
ATOM     47  C   UNL A   1      39.563  33.022  36.492  1.00  0.00     0.074 A 
ATOM     48  C   UNL A   1      38.518  33.975  36.793  1.00  0.00     0.031 C 
ATOM     49  C   UNL A   1      37.737  30.596  30.845  1.00  0.00     0.029 A 
ATOM     50  C   UNL A   1      38.951  30.290  31.603  1.00  0.00     0.049 A 
ATOM     51  H   UNL A   1      39.496  31.055  33.461  1.00  0.00     0.167 HD
ATOM     52  C   UNL A   1      40.607  32.761  37.312  1.00  0.00     0.031 A 
ATOM     53  C   UNL A   1      39.928  29.444  31.219  1.00  0.00     0.031 A 
ATOM     54  C   UNL A   1      41.660  31.830  37.016  1.00  0.00     0.049 A 
ATOM     55  C   UNL A   1      41.136  29.245  32.104  1.00  0.00     0.074 A 
ATOM     56  C   UNL A   1      42.755  31.493  37.793  1.00  0.00     0.029 A 
ATOM     57  N   UNL A   1      41.755  31.091  35.848  1.00  0.00    -0.354 N 
ATOM     58  N   UNL A   1      41.394  29.758  33.282  1.00  0.00    -0.248 NA
ATOM     59  C   UNL A   1      42.186  28.344  31.602  1.00  0.00     0.031 C 
ATOM     60  C   UNL A   1      43.547  30.600  37.065  1.00  0.00     0.029 A 
ATOM     61  C   UNL A   1      42.909  30.327  35.867  1.00  0.00     0.049 A 
ATOM     62  H   UNL A   1      41.099  31.109  35.113  1.00  0.00     0.167 HD
ATOM     63  C   UNL A   1      42.616  29.219  33.674  1.00  0.00     0.074 A 
ATOM     64  C   UNL A   1      43.041  28.328  32.616  1.00  0.00     0.031 C 
ATOM     65  C   UNL A   1      43.322  29.440  34.810  1.00  0.00     0.031 A 
BRANCH  52  66
ATOM     66  C   UNL A   1      40.681  33.535  38.599  1.00  0.00    -0.014 A 
ATOM     67  C   UNL A   1      40.088  33.056  39.777  1.00  0.00     0.009 A 
ATOM     68  C   UNL A   1      41.377  34.753  38.636  1.00  0.00     0.009 A 
ATOM     69  C   UNL A   1      40.162  33.797  40.958  1.00  0.00     0.001 A 
ATOM     70  C   UNL A   1      41.477  35.477  39.824  1.00  0.00     0.001 A 
ATOM     71  C   UNL A   1      40.861  35.003  40.982  1.00  0.00     0.000 A 
ENDBRANCH  52  66
BRANCH  53  72
ATOM     72  C   UNL A   1      39.841  28.732  29.914  1.00  0.00    -0.014 A 
ATOM     73  C   UNL A   1      39.374  27.410  29.846  1.00  0.00     0.009 A 
ATOM     74  C   UNL A   1      40.272  29.356  28.733  1.00  0.00     0.009 A 
ATOM     75  C   UNL A   1      39.369  26.720  28.630  1.00  0.00     0.001 A 
ATOM     76  C   UNL A   1      40.235  28.676  27.513  1.00  0.00     0.001 A 
ATOM     77  C   UNL A   1      39.795  27.355  27.465  1.00  0.00     0.000 A 
ENDBRANCH  53  72
BRANCH  65  78
ATOM     78  C   UNL A   1      44.608  28.681  34.994  1.00  0.00    -0.014 A 
ATOM     79  C   UNL A   1      45.841  29.215  34.586  1.00  0.00     0.009 A 
ATOM     80  C   UNL A   1      44.591  27.433  35.640  1.00  0.00     0.009 A 
ATOM     81  C   UNL A   1      47.024  28.499  34.791  1.00  0.00     0.001 A 
ATOM     82  C   UNL A   1      45.777  26.736  35.873  1.00  0.00     0.001 A 
ATOM     83  C   UNL A   1      46.991  27.265  35.440  1.00  0.00     0.000 A 
ENDBRANCH  65  78
ENDBRANCH  39  40
ENDBRANCH  32  34
ENDBRANCH  31  32
ENDBRANCH  30  31
ENDBRANCH  29  30
ENDBRANCH  28  29
ENDBRANCH  27  28
ENDBRANCH   1  27
TORSDOF 20
ENDMDL
