MODEL 1
REMARK VINA RESULT:     -10.0      0.000      0.000
REMARK SMILES Cc1ccc(C(=O)N[C@@H]2C=C[C@H](C(=O)OCCOCCOCCOC(=O)c3ccc(-c4c5nc(c(-c6ccccc6)c6ccc([nH]6)c(-c6ccccc6)c6nc(c(-c7ccccc7)c7ccc4[nH]7)C=C6)C=C5)cc3)C2)c(F)c1
REMARK SMILES IDX 19 1 18 2 17 3 16 4 15 5 13 6 14 7 12 8 9 9 10 10 75 11
REMARK SMILES IDX 11 12 8 13 6 14 7 15 5 17 1 18 2 19 3 20 78 21 4 22 76 23
REMARK SMILES IDX 77 24 20 25 21 26 22 27 23 28 24 29 25 30 26 31 27 32 28 33
REMARK SMILES IDX 74 34 29 35 73 36 30 37 31 38 32 39 67 40 33 41 72 42 66 43
REMARK SMILES IDX 68 44 34 45 71 46 65 47 64 48 35 50 57 51 42 52 56 53 43 54
REMARK SMILES IDX 46 55 55 56 69 57 44 58 45 59 54 61 70 62 47 63 36 64 37 65
REMARK SMILES IDX 41 66 38 67 40 68 39 69 58 70 59 71 63 72 60 73 62 74 61 75
REMARK SMILES IDX 48 76 49 77 53 78 50 79 52 80 51 81
REMARK H PARENT 8 16 68 49 46 60
REMARK Flexibility Score: inf
ROOT
ATOM      1  C   UNL A   1      40.049  22.071  26.232  1.00  0.00     0.188 C 
ENDROOT
BRANCH   1   2
ATOM      2  O   UNL A   1      38.624  21.999  26.187  1.00  0.00    -0.376 OA
BRANCH   2   3
ATOM      3  C   UNL A   1      38.026  21.222  25.164  1.00  0.00     0.202 C 
BRANCH   3   4
ATOM      4  C   UNL A   1      36.852  21.873  24.434  1.00  0.00     0.261 C 
BRANCH   4   5
ATOM      5  O   UNL A   1      35.902  22.530  25.289  1.00  0.00    -0.463 OA
BRANCH   5   6
ATOM      6  C   UNL A   1      34.711  21.869  25.428  1.00  0.00     0.312 C 
ATOM      7  O   UNL A   1      34.535  20.683  25.182  1.00  0.00    -0.252 OA
BRANCH   6   8
ATOM      8  C   UNL A   1      33.600  22.857  25.773  1.00  0.00     0.124 C 
ATOM      9  C   UNL A   1      32.742  24.649  24.295  1.00  0.00     0.106 C 
ATOM     10  C   UNL A   1      33.701  25.168  25.308  1.00  0.00    -0.006 C 
ATOM     11  C   UNL A   1      32.645  23.146  24.609  1.00  0.00     0.048 C 
ATOM     12  C   UNL A   1      34.155  24.207  26.115  1.00  0.00    -0.014 C 
BRANCH   9  13
ATOM     13  N   UNL A   1      33.251  24.969  22.981  1.00  0.00    -0.346 N 
ATOM     14  C   UNL A   1      33.089  26.120  22.254  1.00  0.00     0.254 C 
ATOM     15  O   UNL A   1      33.699  26.288  21.205  1.00  0.00    -0.269 OA
ATOM     16  H   UNL A   1      33.787  24.265  22.550  1.00  0.00     0.164 HD
BRANCH  14  17
ATOM     17  C   UNL A   1      32.110  27.125  22.691  1.00  0.00     0.075 A 
ATOM     18  C   UNL A   1      29.590  30.436  23.788  1.00  0.00     0.044 C 
ATOM     19  C   UNL A   1      30.434  29.248  23.439  1.00  0.00    -0.048 A 
ATOM     20  C   UNL A   1      29.931  28.172  22.695  1.00  0.00     0.004 A 
ATOM     21  C   UNL A   1      31.759  29.206  23.869  1.00  0.00     0.043 A 
ATOM     22  C   UNL A   1      30.760  27.098  22.338  1.00  0.00     0.017 A 
ATOM     23  C   UNL A   1      32.594  28.172  23.461  1.00  0.00     0.136 A 
ATOM     24  F   UNL A   1      33.902  28.257  23.736  1.00  0.00    -0.206 F 
ENDBRANCH  14  17
ENDBRANCH   9  13
ENDBRANCH   6   8
ENDBRANCH   5   6
ENDBRANCH   4   5
ENDBRANCH   3   4
ENDBRANCH   2   3
ENDBRANCH   1   2
BRANCH   1  25
ATOM     25  C   UNL A   1      40.799  21.258  27.294  1.00  0.00     0.188 C 
BRANCH  25  26
ATOM     26  O   UNL A   1      41.993  20.670  26.781  1.00  0.00    -0.376 OA
BRANCH  26  27
ATOM     27  C   UNL A   1      41.772  19.518  25.963  1.00  0.00     0.202 C 
BRANCH  27  28
ATOM     28  C   UNL A   1      43.106  18.839  25.654  1.00  0.00     0.261 C 
BRANCH  28  29
ATOM     29  O   UNL A   1      43.646  19.241  24.381  1.00  0.00    -0.460 OA
BRANCH  29  30
ATOM     30  C   UNL A   1      44.946  19.619  24.373  1.00  0.00     0.338 C 
ATOM     31  O   UNL A   1      45.897  18.939  24.019  1.00  0.00    -0.246 OA
BRANCH  30  32
ATOM     32  C   UNL A   1      45.042  21.049  24.743  1.00  0.00     0.060 A 
ATOM     33  C   UNL A   1      45.408  21.365  26.054  1.00  0.00     0.016 A 
ATOM     34  C   UNL A   1      44.824  22.073  23.815  1.00  0.00     0.016 A 
ATOM     35  C   UNL A   1      45.660  22.692  26.410  1.00  0.00     0.010 A 
ATOM     36  C   UNL A   1      44.982  23.410  24.203  1.00  0.00     0.010 A 
ATOM     37  C   UNL A   1      45.413  23.731  25.501  1.00  0.00    -0.014 A 
BRANCH  37  38
ATOM     38  C   UNL A   1      45.475  25.147  25.956  1.00  0.00     0.031 A 
ATOM     39  C   UNL A   1      46.805  25.853  25.973  1.00  0.00     0.074 A 
ATOM     40  C   UNL A   1      44.370  25.810  26.350  1.00  0.00     0.049 A 
ATOM     41  N   UNL A   1      47.085  27.089  26.308  1.00  0.00    -0.248 NA
ATOM     42  C   UNL A   1      47.975  25.077  25.527  1.00  0.00     0.031 C 
ATOM     43  C   UNL A   1      43.002  25.296  26.297  1.00  0.00     0.029 A 
ATOM     44  N   UNL A   1      44.232  27.071  26.883  1.00  0.00    -0.354 N 
ATOM     45  C   UNL A   1      48.442  27.246  26.059  1.00  0.00     0.074 A 
ATOM     46  C   UNL A   1      48.935  25.988  25.548  1.00  0.00     0.031 C 
ATOM     47  C   UNL A   1      42.168  26.218  26.810  1.00  0.00     0.029 A 
ATOM     48  C   UNL A   1      42.941  27.379  27.244  1.00  0.00     0.049 A 
ATOM     49  H   UNL A   1      44.986  27.694  26.995  1.00  0.00     0.167 HD
ATOM     50  C   UNL A   1      49.226  28.329  26.265  1.00  0.00     0.031 A 
ATOM     51  C   UNL A   1      42.449  28.464  27.874  1.00  0.00     0.031 A 
ATOM     52  C   UNL A   1      48.793  29.534  26.909  1.00  0.00     0.049 A 
ATOM     53  C   UNL A   1      43.386  29.576  28.276  1.00  0.00     0.074 A 
ATOM     54  C   UNL A   1      49.544  30.641  27.261  1.00  0.00     0.029 A 
ATOM     55  N   UNL A   1      47.500  29.766  27.347  1.00  0.00    -0.354 N 
ATOM     56  N   UNL A   1      44.661  29.723  28.010  1.00  0.00    -0.248 NA
ATOM     57  C   UNL A   1      42.813  30.670  29.076  1.00  0.00     0.031 C 
ATOM     58  C   UNL A   1      48.717  31.517  27.971  1.00  0.00     0.029 A 
ATOM     59  C   UNL A   1      47.440  30.979  28.009  1.00  0.00     0.049 A 
ATOM     60  H   UNL A   1      46.737  29.159  27.207  1.00  0.00     0.167 HD
ATOM     61  C   UNL A   1      45.035  30.928  28.592  1.00  0.00     0.074 A 
ATOM     62  C   UNL A   1      43.851  31.485  29.210  1.00  0.00     0.031 C 
ATOM     63  C   UNL A   1      46.254  31.519  28.618  1.00  0.00     0.031 A 
BRANCH  50  64
ATOM     64  C   UNL A   1      50.665  28.197  25.869  1.00  0.00    -0.014 A 
ATOM     65  C   UNL A   1      51.084  28.504  24.567  1.00  0.00     0.009 A 
ATOM     66  C   UNL A   1      51.604  27.738  26.803  1.00  0.00     0.009 A 
ATOM     67  C   UNL A   1      52.419  28.328  24.199  1.00  0.00     0.001 A 
ATOM     68  C   UNL A   1      52.940  27.576  26.437  1.00  0.00     0.001 A 
ATOM     69  C   UNL A   1      53.346  27.864  25.135  1.00  0.00     0.000 A 
ENDBRANCH  50  64
BRANCH  51  70
ATOM     70  C   UNL A   1      41.008  28.544  28.241  1.00  0.00    -0.014 A 
ATOM     71  C   UNL A   1      40.529  27.941  29.413  1.00  0.00     0.009 A 
ATOM     72  C   UNL A   1      40.090  29.158  27.373  1.00  0.00     0.009 A 
ATOM     73  C   UNL A   1      39.159  27.920  29.691  1.00  0.00     0.001 A 
ATOM     74  C   UNL A   1      38.725  29.161  27.667  1.00  0.00     0.001 A 
ATOM     75  C   UNL A   1      38.258  28.530  28.819  1.00  0.00     0.000 A 
ENDBRANCH  51  70
BRANCH  63  76
ATOM     76  C   UNL A   1      46.372  32.843  29.317  1.00  0.00    -0.014 A 
ATOM     77  C   UNL A   1      46.871  32.928  30.626  1.00  0.00     0.009 A 
ATOM     78  C   UNL A   1      46.048  34.024  28.632  1.00  0.00     0.009 A 
ATOM     79  C   UNL A   1      47.023  34.172  31.242  1.00  0.00     0.001 A 
ATOM     80  C   UNL A   1      46.224  35.266  29.241  1.00  0.00     0.001 A 
ATOM     81  C   UNL A   1      46.706  35.339  30.547  1.00  0.00     0.000 A 
ENDBRANCH  63  76
ENDBRANCH  37  38
ENDBRANCH  30  32
ENDBRANCH  29  30
ENDBRANCH  28  29
ENDBRANCH  27  28
ENDBRANCH  26  27
ENDBRANCH  25  26
ENDBRANCH   1  25
TORSDOF 19
ENDMDL
MODEL 2
REMARK VINA RESULT:      -9.8      4.263      6.401
REMARK SMILES Cc1ccc(C(=O)N[C@@H]2C=C[C@H](C(=O)OCCOCCOCCOC(=O)c3ccc(-c4c5nc(c(-c6ccccc6)c6ccc([nH]6)c(-c6ccccc6)c6nc(c(-c7ccccc7)c7ccc4[nH]7)C=C6)C=C5)cc3)C2)c(F)c1
REMARK SMILES IDX 19 1 18 2 17 3 16 4 15 5 13 6 14 7 12 8 9 9 10 10 75 11
REMARK SMILES IDX 11 12 8 13 6 14 7 15 5 17 1 18 2 19 3 20 78 21 4 22 76 23
REMARK SMILES IDX 77 24 20 25 21 26 22 27 23 28 24 29 25 30 26 31 27 32 28 33
REMARK SMILES IDX 74 34 29 35 73 36 30 37 31 38 32 39 67 40 33 41 72 42 66 43
REMARK SMILES IDX 68 44 34 45 71 46 65 47 64 48 35 50 57 51 42 52 56 53 43 54
REMARK SMILES IDX 46 55 55 56 69 57 44 58 45 59 54 61 70 62 47 63 36 64 37 65
REMARK SMILES IDX 41 66 38 67 40 68 39 69 58 70 59 71 63 72 60 73 62 74 61 75
REMARK SMILES IDX 48 76 49 77 53 78 50 79 52 80 51 81
REMARK H PARENT 8 16 68 49 46 60
REMARK Flexibility Score: inf
ROOT
ATOM      1  C   UNL A   1      40.037  20.993  25.762  1.00  0.00     0.188 C 
ENDROOT
BRANCH   1   2
ATOM      2  O   UNL A   1      38.644  20.740  25.946  1.00  0.00    -0.376 OA
BRANCH   2   3
ATOM      3  C   UNL A   1      37.932  20.117  24.890  1.00  0.00     0.202 C 
BRANCH   3   4
ATOM      4  C   UNL A   1      36.558  20.707  24.577  1.00  0.00     0.261 C 
BRANCH   4   5
ATOM      5  O   UNL A   1      35.773  21.049  25.730  1.00  0.00    -0.463 OA
BRANCH   5   6
ATOM      6  C   UNL A   1      34.491  21.439  25.450  1.00  0.00     0.312 C 
ATOM      7  O   UNL A   1      33.740  20.868  24.670  1.00  0.00    -0.252 OA
BRANCH   6   8
ATOM      8  C   UNL A   1      34.191  22.778  26.119  1.00  0.00     0.124 C 
ATOM      9  C   UNL A   1      33.683  24.902  24.952  1.00  0.00     0.106 C 
ATOM     10  C   UNL A   1      35.098  24.837  25.409  1.00  0.00    -0.006 C 
ATOM     11  C   UNL A   1      33.074  23.575  25.437  1.00  0.00     0.048 C 
ATOM     12  C   UNL A   1      35.372  23.699  26.051  1.00  0.00    -0.014 C 
BRANCH   9  13
ATOM     13  N   UNL A   1      33.677  25.092  23.520  1.00  0.00    -0.346 N 
ATOM     14  C   UNL A   1      33.492  26.248  22.808  1.00  0.00     0.254 C 
ATOM     15  O   UNL A   1      33.648  26.267  21.593  1.00  0.00    -0.269 OA
ATOM     16  H   UNL A   1      33.825  24.280  22.983  1.00  0.00     0.164 HD
BRANCH  14  17
ATOM     17  C   UNL A   1      33.017  27.458  23.495  1.00  0.00     0.075 A 
ATOM     18  C   UNL A   1      31.228  30.692  25.699  1.00  0.00     0.044 C 
ATOM     19  C   UNL A   1      31.884  29.604  24.902  1.00  0.00    -0.048 A 
ATOM     20  C   UNL A   1      33.251  29.320  25.018  1.00  0.00     0.004 A 
ATOM     21  C   UNL A   1      31.113  28.854  24.016  1.00  0.00     0.043 A 
ATOM     22  C   UNL A   1      33.825  28.262  24.299  1.00  0.00     0.017 A 
ATOM     23  C   UNL A   1      31.672  27.767  23.353  1.00  0.00     0.136 A 
ATOM     24  F   UNL A   1      30.865  26.958  22.654  1.00  0.00    -0.206 F 
ENDBRANCH  14  17
ENDBRANCH   9  13
ENDBRANCH   6   8
ENDBRANCH   5   6
ENDBRANCH   4   5
ENDBRANCH   3   4
ENDBRANCH   2   3
ENDBRANCH   1   2
BRANCH   1  25
ATOM     25  C   UNL A   1      41.054  20.113  26.499  1.00  0.00     0.188 C 
BRANCH  25  26
ATOM     26  O   UNL A   1      42.284  20.795  26.741  1.00  0.00    -0.376 OA
BRANCH  26  27
ATOM     27  C   UNL A   1      43.385  20.302  25.974  1.00  0.00     0.202 C 
BRANCH  27  28
ATOM     28  C   UNL A   1      43.768  21.322  24.903  1.00  0.00     0.261 C 
BRANCH  28  29
ATOM     29  O   UNL A   1      43.052  22.563  25.043  1.00  0.00    -0.460 OA
BRANCH  29  30
ATOM     30  C   UNL A   1      43.802  23.689  25.065  1.00  0.00     0.338 C 
ATOM     31  O   UNL A   1      44.698  23.979  24.286  1.00  0.00    -0.246 OA
BRANCH  30  32
ATOM     32  C   UNL A   1      43.288  24.600  26.113  1.00  0.00     0.060 A 
ATOM     33  C   UNL A   1      43.836  25.883  26.194  1.00  0.00     0.016 A 
ATOM     34  C   UNL A   1      42.254  24.229  26.978  1.00  0.00     0.016 A 
ATOM     35  C   UNL A   1      43.283  26.826  27.061  1.00  0.00     0.010 A 
ATOM     36  C   UNL A   1      41.767  25.148  27.915  1.00  0.00     0.010 A 
ATOM     37  C   UNL A   1      42.268  26.460  27.958  1.00  0.00    -0.014 A 
BRANCH  37  38
ATOM     38  C   UNL A   1      41.839  27.408  29.022  1.00  0.00     0.031 A 
ATOM     39  C   UNL A   1      42.571  27.411  30.339  1.00  0.00     0.074 A 
ATOM     40  C   UNL A   1      40.814  28.262  28.835  1.00  0.00     0.049 A 
ATOM     41  N   UNL A   1      42.382  28.166  31.393  1.00  0.00    -0.248 NA
ATOM     42  C   UNL A   1      43.685  26.457  30.481  1.00  0.00     0.031 C 
ATOM     43  C   UNL A   1      40.074  28.446  27.586  1.00  0.00     0.029 A 
ATOM     44  N   UNL A   1      40.214  29.138  29.710  1.00  0.00    -0.354 N 
ATOM     45  C   UNL A   1      43.382  27.816  32.289  1.00  0.00     0.074 A 
ATOM     46  C   UNL A   1      44.176  26.783  31.666  1.00  0.00     0.031 C 
ATOM     47  C   UNL A   1      39.098  29.350  27.786  1.00  0.00     0.029 A 
ATOM     48  C   UNL A   1      39.131  29.795  29.177  1.00  0.00     0.049 A 
ATOM     49  H   UNL A   1      40.531  29.280  30.631  1.00  0.00     0.167 HD
ATOM     50  C   UNL A   1      43.609  28.283  33.538  1.00  0.00     0.031 A 
ATOM     51  C   UNL A   1      38.253  30.640  29.756  1.00  0.00     0.031 A 
ATOM     52  C   UNL A   1      42.747  29.195  34.232  1.00  0.00     0.049 A 
ATOM     53  C   UNL A   1      38.413  30.989  31.214  1.00  0.00     0.074 A 
ATOM     54  C   UNL A   1      42.836  29.638  35.539  1.00  0.00     0.029 A 
ATOM     55  N   UNL A   1      41.606  29.761  33.689  1.00  0.00    -0.354 N 
ATOM     56  N   UNL A   1      39.378  30.671  32.042  1.00  0.00    -0.248 NA
ATOM     57  C   UNL A   1      37.352  31.808  31.822  1.00  0.00     0.031 C 
ATOM     58  C   UNL A   1      41.710  30.423  35.808  1.00  0.00     0.029 A 
ATOM     59  C   UNL A   1      40.954  30.513  34.649  1.00  0.00     0.049 A 
ATOM     60  H   UNL A   1      41.305  29.645  32.758  1.00  0.00     0.167 HD
ATOM     61  C   UNL A   1      39.051  31.263  33.255  1.00  0.00     0.074 A 
ATOM     62  C   UNL A   1      37.807  31.977  33.055  1.00  0.00     0.031 C 
ATOM     63  C   UNL A   1      39.718  31.217  34.434  1.00  0.00     0.031 A 
BRANCH  50  64
ATOM     64  C   UNL A   1      44.796  27.720  34.258  1.00  0.00    -0.014 A 
ATOM     65  C   UNL A   1      46.072  28.276  34.085  1.00  0.00     0.009 A 
ATOM     66  C   UNL A   1      44.638  26.607  35.095  1.00  0.00     0.009 A 
ATOM     67  C   UNL A   1      47.177  27.709  34.723  1.00  0.00     0.001 A 
ATOM     68  C   UNL A   1      45.742  26.051  35.742  1.00  0.00     0.001 A 
ATOM     69  C   UNL A   1      47.010  26.597  35.550  1.00  0.00     0.000 A 
ENDBRANCH  50  64
BRANCH  51  70
ATOM     70  C   UNL A   1      37.092  31.173  28.992  1.00  0.00    -0.014 A 
ATOM     71  C   UNL A   1      37.038  32.522  28.611  1.00  0.00     0.009 A 
ATOM     72  C   UNL A   1      35.990  30.348  28.712  1.00  0.00     0.009 A 
ATOM     73  C   UNL A   1      35.894  33.042  27.998  1.00  0.00     0.001 A 
ATOM     74  C   UNL A   1      34.859  30.862  28.073  1.00  0.00     0.001 A 
ATOM     75  C   UNL A   1      34.806  32.212  27.729  1.00  0.00     0.000 A 
ENDBRANCH  51  70
BRANCH  63  76
ATOM     76  C   UNL A   1      39.134  31.969  35.596  1.00  0.00    -0.014 A 
ATOM     77  C   UNL A   1      39.417  33.329  35.794  1.00  0.00     0.009 A 
ATOM     78  C   UNL A   1      38.235  31.326  36.460  1.00  0.00     0.009 A 
ATOM     79  C   UNL A   1      38.824  34.025  36.849  1.00  0.00     0.001 A 
ATOM     80  C   UNL A   1      37.625  32.030  37.498  1.00  0.00     0.001 A 
ATOM     81  C   UNL A   1      37.924  33.377  37.695  1.00  0.00     0.000 A 
ENDBRANCH  63  76
ENDBRANCH  37  38
ENDBRANCH  30  32
ENDBRANCH  29  30
ENDBRANCH  28  29
ENDBRANCH  27  28
ENDBRANCH  26  27
ENDBRANCH  25  26
ENDBRANCH   1  25
TORSDOF 19
ENDMDL
MODEL 3
REMARK VINA RESULT:      -9.5      4.261      9.358
REMARK SMILES Cc1ccc(C(=O)N[C@@H]2C=C[C@H](C(=O)OCCOCCOCCOC(=O)c3ccc(-c4c5nc(c(-c6ccccc6)c6ccc([nH]6)c(-c6ccccc6)c6nc(c(-c7ccccc7)c7ccc4[nH]7)C=C6)C=C5)cc3)C2)c(F)c1
REMARK SMILES IDX 19 1 18 2 17 3 16 4 15 5 13 6 14 7 12 8 9 9 10 10 75 11
REMARK SMILES IDX 11 12 8 13 6 14 7 15 5 17 1 18 2 19 3 20 78 21 4 22 76 23
REMARK SMILES IDX 77 24 20 25 21 26 22 27 23 28 24 29 25 30 26 31 27 32 28 33
REMARK SMILES IDX 74 34 29 35 73 36 30 37 31 38 32 39 67 40 33 41 72 42 66 43
REMARK SMILES IDX 68 44 34 45 71 46 65 47 64 48 35 50 57 51 42 52 56 53 43 54
REMARK SMILES IDX 46 55 55 56 69 57 44 58 45 59 54 61 70 62 47 63 36 64 37 65
REMARK SMILES IDX 41 66 38 67 40 68 39 69 58 70 59 71 63 72 60 73 62 74 61 75
REMARK SMILES IDX 48 76 49 77 53 78 50 79 52 80 51 81
REMARK H PARENT 8 16 68 49 46 60
REMARK Flexibility Score: inf
ROOT
ATOM      1  C   UNL A   1      31.538  28.165  24.179  1.00  0.00     0.188 C 
ENDROOT
BRANCH   1   2
ATOM      2  O   UNL A   1      30.571  27.228  24.656  1.00  0.00    -0.376 OA
BRANCH   2   3
ATOM      3  C   UNL A   1      30.360  26.045  23.904  1.00  0.00     0.202 C 
BRANCH   3   4
ATOM      4  C   UNL A   1      31.418  24.955  24.070  1.00  0.00     0.261 C 
BRANCH   4   5
ATOM      5  O   UNL A   1      31.997  24.872  25.383  1.00  0.00    -0.463 OA
BRANCH   5   6
ATOM      6  C   UNL A   1      31.307  24.077  26.258  1.00  0.00     0.312 C 
ATOM      7  O   UNL A   1      30.257  24.385  26.805  1.00  0.00    -0.252 OA
BRANCH   6   8
ATOM      8  C   UNL A   1      32.119  22.826  26.583  1.00  0.00     0.124 C 
ATOM      9  C   UNL A   1      34.044  21.968  25.283  1.00  0.00     0.106 C 
ATOM     10  C   UNL A   1      32.787  21.235  24.973  1.00  0.00    -0.006 C 
ATOM     11  C   UNL A   1      33.626  22.990  26.355  1.00  0.00     0.048 C 
ATOM     12  C   UNL A   1      31.750  21.685  25.683  1.00  0.00    -0.014 C 
BRANCH   9  13
ATOM     13  N   UNL A   1      34.550  22.540  24.056  1.00  0.00    -0.346 N 
ATOM     14  C   UNL A   1      35.841  22.867  23.729  1.00  0.00     0.254 C 
ATOM     15  O   UNL A   1      36.127  23.222  22.592  1.00  0.00    -0.269 OA
ATOM     16  H   UNL A   1      33.876  22.719  23.361  1.00  0.00     0.164 HD
BRANCH  14  17
ATOM     17  C   UNL A   1      36.876  22.876  24.772  1.00  0.00     0.075 A 
ATOM     18  C   UNL A   1      40.246  22.732  27.445  1.00  0.00     0.044 C 
ATOM     19  C   UNL A   1      39.036  22.787  26.560  1.00  0.00    -0.048 A 
ATOM     20  C   UNL A   1      38.229  23.929  26.476  1.00  0.00     0.004 A 
ATOM     21  C   UNL A   1      38.700  21.668  25.800  1.00  0.00     0.043 A 
ATOM     22  C   UNL A   1      37.135  23.969  25.599  1.00  0.00     0.017 A 
ATOM     23  C   UNL A   1      37.653  21.733  24.888  1.00  0.00     0.136 A 
ATOM     24  F   UNL A   1      37.473  20.708  24.044  1.00  0.00    -0.206 F 
ENDBRANCH  14  17
ENDBRANCH   9  13
ENDBRANCH   6   8
ENDBRANCH   5   6
ENDBRANCH   4   5
ENDBRANCH   3   4
ENDBRANCH   2   3
ENDBRANCH   1   2
BRANCH   1  25
ATOM     25  C   UNL A   1      32.388  28.934  25.197  1.00  0.00     0.188 C 
BRANCH  25  26
ATOM     26  O   UNL A   1      31.704  30.068  25.726  1.00  0.00    -0.376 OA
BRANCH  26  27
ATOM     27  C   UNL A   1      32.396  30.723  26.792  1.00  0.00     0.202 C 
BRANCH  27  28
ATOM     28  C   UNL A   1      33.527  29.830  27.301  1.00  0.00     0.261 C 
BRANCH  28  29
ATOM     29  O   UNL A   1      34.801  30.500  27.301  1.00  0.00    -0.460 OA
BRANCH  29  30
ATOM     30  C   UNL A   1      35.179  31.070  28.469  1.00  0.00     0.338 C 
ATOM     31  O   UNL A   1      34.536  31.876  29.124  1.00  0.00    -0.246 OA
BRANCH  30  32
ATOM     32  C   UNL A   1      36.457  30.469  28.915  1.00  0.00     0.060 A 
ATOM     33  C   UNL A   1      37.647  31.033  28.447  1.00  0.00     0.016 A 
ATOM     34  C   UNL A   1      36.500  29.400  29.816  1.00  0.00     0.016 A 
ATOM     35  C   UNL A   1      38.873  30.602  28.955  1.00  0.00     0.010 A 
ATOM     36  C   UNL A   1      37.737  28.905  30.250  1.00  0.00     0.010 A 
ATOM     37  C   UNL A   1      38.935  29.510  29.833  1.00  0.00    -0.014 A 
BRANCH  37  38
ATOM     38  C   UNL A   1      40.253  28.922  30.197  1.00  0.00     0.031 A 
ATOM     39  C   UNL A   1      40.991  29.464  31.394  1.00  0.00     0.074 A 
ATOM     40  C   UNL A   1      40.799  27.917  29.483  1.00  0.00     0.049 A 
ATOM     41  N   UNL A   1      42.137  29.085  31.904  1.00  0.00    -0.248 NA
ATOM     42  C   UNL A   1      40.340  30.558  32.135  1.00  0.00     0.031 C 
ATOM     43  C   UNL A   1      40.165  27.224  28.363  1.00  0.00     0.029 A 
ATOM     44  N   UNL A   1      42.028  27.310  29.600  1.00  0.00    -0.354 N 
ATOM     45  C   UNL A   1      42.311  29.854  33.046  1.00  0.00     0.074 A 
ATOM     46  C   UNL A   1      41.160  30.721  33.161  1.00  0.00     0.031 C 
ATOM     47  C   UNL A   1      41.022  26.310  27.873  1.00  0.00     0.029 A 
ATOM     48  C   UNL A   1      42.270  26.365  28.630  1.00  0.00     0.049 A 
ATOM     49  H   UNL A   1      42.673  27.530  30.310  1.00  0.00     0.167 HD
ATOM     50  C   UNL A   1      43.348  29.869  33.914  1.00  0.00     0.031 A 
ATOM     51  C   UNL A   1      43.382  25.647  28.372  1.00  0.00     0.031 A 
ATOM     52  C   UNL A   1      44.564  29.129  33.738  1.00  0.00     0.049 A 
ATOM     53  C   UNL A   1      44.601  25.833  29.239  1.00  0.00     0.074 A 
ATOM     54  C   UNL A   1      45.713  29.166  34.506  1.00  0.00     0.029 A 
ATOM     55  N   UNL A   1      44.805  28.258  32.690  1.00  0.00    -0.354 N 
ATOM     56  N   UNL A   1      44.742  26.543  30.332  1.00  0.00    -0.248 NA
ATOM     57  C   UNL A   1      45.823  25.123  28.828  1.00  0.00     0.031 C 
ATOM     58  C   UNL A   1      46.676  28.364  33.884  1.00  0.00     0.029 A 
ATOM     59  C   UNL A   1      46.103  27.786  32.762  1.00  0.00     0.049 A 
ATOM     60  H   UNL A   1      44.150  28.011  31.996  1.00  0.00     0.167 HD
ATOM     61  C   UNL A   1      46.054  26.350  30.746  1.00  0.00     0.074 A 
ATOM     62  C   UNL A   1      46.666  25.442  29.800  1.00  0.00     0.031 C 
ATOM     63  C   UNL A   1      46.697  26.883  31.813  1.00  0.00     0.031 A 
BRANCH  50  64
ATOM     64  C   UNL A   1      43.232  30.803  35.080  1.00  0.00    -0.014 A 
ATOM     65  C   UNL A   1      42.543  30.422  36.240  1.00  0.00     0.009 A 
ATOM     66  C   UNL A   1      43.796  32.084  35.004  1.00  0.00     0.009 A 
ATOM     67  C   UNL A   1      42.399  31.321  37.298  1.00  0.00     0.001 A 
ATOM     68  C   UNL A   1      43.663  32.976  36.068  1.00  0.00     0.001 A 
ATOM     69  C   UNL A   1      42.959  32.597  37.211  1.00  0.00     0.000 A 
ENDBRANCH  50  64
BRANCH  51  70
ATOM     70  C   UNL A   1      43.441  24.730  27.200  1.00  0.00    -0.014 A 
ATOM     71  C   UNL A   1      43.413  23.338  27.373  1.00  0.00     0.009 A 
ATOM     72  C   UNL A   1      43.610  25.246  25.905  1.00  0.00     0.009 A 
ATOM     73  C   UNL A   1      43.587  22.484  26.281  1.00  0.00     0.001 A 
ATOM     74  C   UNL A   1      43.755  24.391  24.811  1.00  0.00     0.001 A 
ATOM     75  C   UNL A   1      43.757  23.010  25.001  1.00  0.00     0.000 A 
ENDBRANCH  51  70
BRANCH  63  76
ATOM     76  C   UNL A   1      48.130  26.488  32.031  1.00  0.00    -0.014 A 
ATOM     77  C   UNL A   1      49.180  27.246  31.492  1.00  0.00     0.009 A 
ATOM     78  C   UNL A   1      48.432  25.385  32.845  1.00  0.00     0.009 A 
ATOM     79  C   UNL A   1      50.507  26.895  31.749  1.00  0.00     0.001 A 
ATOM     80  C   UNL A   1      49.757  25.051  33.120  1.00  0.00     0.001 A 
ATOM     81  C   UNL A   1      50.793  25.802  32.567  1.00  0.00     0.000 A 
ENDBRANCH  63  76
ENDBRANCH  37  38
ENDBRANCH  30  32
ENDBRANCH  29  30
ENDBRANCH  28  29
ENDBRANCH  27  28
ENDBRANCH  26  27
ENDBRANCH  25  26
ENDBRANCH   1  25
TORSDOF 19
ENDMDL
