MODEL 1
REMARK VINA RESULT:     -10.7      0.000      0.000
REMARK SMILES COc1cc(Cl)c(C)cc1N1C(=O)C[C@H](Nc2cc(C(=O)OCCOCCOCCOC(=O)c3ccc(-c4c5nc(c(-c6ccccc6)c6ccc([nH]6)c(-c6ccccc6)c6nc(c(-c7ccccc7)c7ccc4[nH]7)C=C6)C=C5)cc3)ccc2C)C1=O
REMARK SMILES IDX 26 1 25 2 24 3 23 4 22 5 20 6 21 7 19 8 17 9 18 10 84 11
REMARK SMILES IDX 83 12 85 13 82 14 16 15 15 17 11 18 12 19 86 20 13 21 14 22
REMARK SMILES IDX 87 23 10 24 3 25 4 26 5 27 9 28 6 29 7 30 8 31 2 32 1 33
REMARK SMILES IDX 27 34 28 35 29 36 30 37 31 38 32 39 33 40 34 41 35 42 81 43
REMARK SMILES IDX 36 44 80 45 37 46 38 47 39 48 74 49 40 50 79 51 73 52 75 53
REMARK SMILES IDX 41 54 78 55 72 56 71 57 42 59 64 60 49 61 63 62 50 63 53 64
REMARK SMILES IDX 62 65 76 66 51 67 52 68 61 70 77 71 54 72 43 73 44 74 48 75
REMARK SMILES IDX 45 76 47 77 46 78 65 79 66 80 70 81 67 82 69 83 68 84 55 85
REMARK SMILES IDX 56 86 60 87 57 88 59 89 58 90
REMARK H PARENT 16 16 75 58 53 69
REMARK Flexibility Score: inf
ROOT
ATOM      1  C   UNL A   1      48.330  38.770  27.859  1.00  0.00     0.188 C 
ENDROOT
BRANCH   1   2
ATOM      2  O   UNL A   1      47.442  37.841  28.509  1.00  0.00    -0.376 OA
BRANCH   2   3
ATOM      3  C   UNL A   1      47.320  37.632  29.915  1.00  0.00     0.202 C 
BRANCH   3   4
ATOM      4  C   UNL A   1      46.580  38.677  31.046  1.00  0.00     0.261 C 
BRANCH   4   5
ATOM      5  O   UNL A   1      45.328  39.792  30.945  1.00  0.00    -0.460 OA
BRANCH   5   6
ATOM      6  C   UNL A   1      45.016  40.993  30.267  1.00  0.00     0.338 C 
ATOM      7  O   UNL A   1      45.637  42.051  30.191  1.00  0.00    -0.246 OA
BRANCH   6   8
ATOM      8  C   UNL A   1      43.837  41.199  29.409  1.00  0.00     0.062 A 
ATOM      9  C   UNL A   1      43.397  40.875  27.060  1.00  0.00     0.038 A 
ATOM     10  C   UNL A   1      44.155  41.454  28.093  1.00  0.00     0.041 A 
ATOM     11  C   UNL A   1      42.176  40.210  27.333  1.00  0.00    -0.028 A 
ATOM     12  C   UNL A   1      41.826  39.980  28.664  1.00  0.00     0.006 A 
ATOM     13  C   UNL A   1      41.279  39.632  26.274  1.00  0.00     0.046 C 
ATOM     14  C   UNL A   1      42.679  40.412  29.680  1.00  0.00     0.016 A 
BRANCH   9  15
ATOM     15  N   UNL A   1      44.077  40.645  25.845  1.00  0.00    -0.373 N 
ATOM     16  H   UNL A   1      43.927  39.863  25.266  1.00  0.00     0.161 HD
BRANCH  15  17
ATOM     17  C   UNL A   1      45.048  41.729  25.548  1.00  0.00     0.179 C 
ATOM     18  N   UNL A   1      45.247  42.528  23.357  1.00  0.00    -0.245 N 
ATOM     19  C   UNL A   1      46.210  41.564  23.483  1.00  0.00     0.236 C 
ATOM     20  C   UNL A   1      44.521  42.713  24.508  1.00  0.00     0.256 C 
ATOM     21  O   UNL A   1      46.969  41.142  22.622  1.00  0.00    -0.274 OA
ATOM     22  C   UNL A   1      46.306  41.161  24.920  1.00  0.00     0.136 C 
ATOM     23  O   UNL A   1      43.572  43.471  24.670  1.00  0.00    -0.272 OA
BRANCH  18  24
ATOM     24  C   UNL A   1      44.985  43.226  22.163  1.00  0.00     0.094 A 
ATOM     25  C   UNL A   1      45.729  44.354  21.785  1.00  0.00     0.144 A 
ATOM     26  C   UNL A   1      45.366  45.081  20.650  1.00  0.00     0.069 A 
ATOM     27  C   UNL A   1      44.273  44.682  19.878  1.00  0.00     0.047 A 
ATOM     28  C   UNL A   1      43.910  42.812  21.363  1.00  0.00     0.035 A 
ATOM     29  Cl  UNL A   1      43.882  45.621  18.483  1.00  0.00    -0.084 Cl
ATOM     30  C   UNL A   1      43.523  43.549  20.231  1.00  0.00    -0.030 A 
ATOM     31  C   UNL A   1      42.309  43.119  19.456  1.00  0.00     0.046 C 
BRANCH  25  32
ATOM     32  O   UNL A   1      46.826  44.821  22.464  1.00  0.00    -0.495 OA
ATOM     33  C   UNL A   1      47.236  46.123  22.040  1.00  0.00     0.278 C 
ENDBRANCH  25  32
ENDBRANCH  18  24
ENDBRANCH  15  17
ENDBRANCH   9  15
ENDBRANCH   6   8
ENDBRANCH   5   6
ENDBRANCH   4   5
ENDBRANCH   3   4
ENDBRANCH   2   3
ENDBRANCH   1   2
BRANCH   1  34
ATOM     34  C   UNL A   1      49.440  38.315  26.915  1.00  0.00     0.188 C 
BRANCH  34  35
ATOM     35  O   UNL A   1      48.885  37.983  25.659  1.00  0.00    -0.376 OA
BRANCH  35  36
ATOM     36  C   UNL A   1      49.589  37.001  24.921  1.00  0.00     0.202 C 
BRANCH  36  37
ATOM     37  C   UNL A   1      48.996  35.589  25.092  1.00  0.00     0.261 C 
BRANCH  37  38
ATOM     38  O   UNL A   1      47.703  35.646  25.746  1.00  0.00    -0.460 OA
BRANCH  38  39
ATOM     39  C   UNL A   1      47.446  34.769  26.773  1.00  0.00     0.338 C 
ATOM     40  O   UNL A   1      48.105  34.691  27.803  1.00  0.00    -0.246 OA
BRANCH  39  41
ATOM     41  C   UNL A   1      46.425  33.745  26.341  1.00  0.00     0.060 A 
ATOM     42  C   UNL A   1      45.061  33.972  26.094  1.00  0.00     0.016 A 
ATOM     43  C   UNL A   1      46.736  32.472  26.657  1.00  0.00     0.016 A 
ATOM     44  C   UNL A   1      44.041  32.944  26.357  1.00  0.00     0.010 A 
ATOM     45  C   UNL A   1      45.688  31.761  27.240  1.00  0.00     0.010 A 
ATOM     46  C   UNL A   1      44.310  31.751  27.040  1.00  0.00    -0.014 A 
BRANCH  46  47
ATOM     47  C   UNL A   1      43.274  30.735  27.791  1.00  0.00     0.031 A 
ATOM     48  C   UNL A   1      42.502  29.318  27.399  1.00  0.00     0.074 A 
ATOM     49  C   UNL A   1      42.893  31.131  29.029  1.00  0.00     0.049 A 
ATOM     50  N   UNL A   1      41.228  29.080  27.693  1.00  0.00    -0.248 NA
ATOM     51  C   UNL A   1      42.970  28.123  26.618  1.00  0.00     0.031 C 
ATOM     52  C   UNL A   1      42.118  30.393  30.025  1.00  0.00     0.029 A 
ATOM     53  N   UNL A   1      43.045  32.396  29.596  1.00  0.00    -0.354 N 
ATOM     54  C   UNL A   1      40.900  27.798  27.235  1.00  0.00     0.074 A 
ATOM     55  C   UNL A   1      41.871  27.465  26.291  1.00  0.00     0.031 C 
ATOM     56  C   UNL A   1      41.607  31.270  30.903  1.00  0.00     0.029 A 
ATOM     57  C   UNL A   1      41.956  32.602  30.447  1.00  0.00     0.049 A 
ATOM     58  H   UNL A   1      43.782  33.026  29.428  1.00  0.00     0.167 HD
ATOM     59  C   UNL A   1      39.972  26.950  27.753  1.00  0.00     0.031 A 
ATOM     60  C   UNL A   1      41.100  33.638  30.232  1.00  0.00     0.031 A 
ATOM     61  C   UNL A   1      39.177  27.638  28.728  1.00  0.00     0.049 A 
ATOM     62  C   UNL A   1      39.676  33.188  30.001  1.00  0.00     0.074 A 
ATOM     63  C   UNL A   1      39.171  27.640  30.106  1.00  0.00     0.029 A 
ATOM     64  N   UNL A   1      38.471  28.751  28.307  1.00  0.00    -0.354 N 
ATOM     65  N   UNL A   1      39.317  31.951  29.792  1.00  0.00    -0.248 NA
ATOM     66  C   UNL A   1      38.543  34.107  29.959  1.00  0.00     0.031 C 
ATOM     67  C   UNL A   1      38.542  28.848  30.516  1.00  0.00     0.029 A 
ATOM     68  C   UNL A   1      38.100  29.518  29.387  1.00  0.00     0.049 A 
ATOM     69  H   UNL A   1      38.263  28.963  27.369  1.00  0.00     0.167 HD
ATOM     70  C   UNL A   1      37.975  31.901  29.521  1.00  0.00     0.074 A 
ATOM     71  C   UNL A   1      37.529  33.272  29.674  1.00  0.00     0.031 C 
ATOM     72  C   UNL A   1      37.352  30.743  29.155  1.00  0.00     0.031 A 
BRANCH  59  73
ATOM     73  C   UNL A   1      39.914  25.437  27.467  1.00  0.00    -0.014 A 
ATOM     74  C   UNL A   1      38.830  24.898  26.754  1.00  0.00     0.009 A 
ATOM     75  C   UNL A   1      40.842  24.472  27.933  1.00  0.00     0.009 A 
ATOM     76  C   UNL A   1      38.706  23.513  26.508  1.00  0.00     0.001 A 
ATOM     77  C   UNL A   1      40.759  23.100  27.644  1.00  0.00     0.001 A 
ATOM     78  C   UNL A   1      39.680  22.616  26.935  1.00  0.00     0.000 A 
ENDBRANCH  59  73
BRANCH  60  79
ATOM     79  C   UNL A   1      41.753  34.859  29.664  1.00  0.00    -0.014 A 
ATOM     80  C   UNL A   1      42.871  35.381  30.355  1.00  0.00     0.009 A 
ATOM     81  C   UNL A   1      41.533  35.298  28.351  1.00  0.00     0.009 A 
ATOM     82  C   UNL A   1      43.797  36.218  29.723  1.00  0.00     0.001 A 
ATOM     83  C   UNL A   1      42.454  36.160  27.725  1.00  0.00     0.001 A 
ATOM     84  C   UNL A   1      43.599  36.592  28.399  1.00  0.00     0.000 A 
ENDBRANCH  60  79
BRANCH  72  85
ATOM     85  C   UNL A   1      35.975  30.623  28.537  1.00  0.00    -0.014 A 
ATOM     86  C   UNL A   1      35.113  31.701  28.311  1.00  0.00     0.009 A 
ATOM     87  C   UNL A   1      35.568  29.373  28.010  1.00  0.00     0.009 A 
ATOM     88  C   UNL A   1      33.892  31.535  27.641  1.00  0.00     0.001 A 
ATOM     89  C   UNL A   1      34.381  29.213  27.290  1.00  0.00     0.001 A 
ATOM     90  C   UNL A   1      33.533  30.295  27.121  1.00  0.00     0.000 A 
ENDBRANCH  72  85
ENDBRANCH  46  47
ENDBRANCH  39  41
ENDBRANCH  38  39
ENDBRANCH  37  38
ENDBRANCH  36  37
ENDBRANCH  35  36
ENDBRANCH  34  35
ENDBRANCH   1  34
TORSDOF 21
ENDMDL
MODEL 2
REMARK VINA RESULT:      -9.8      8.622     15.296
REMARK SMILES COc1cc(Cl)c(C)cc1N1C(=O)C[C@H](Nc2cc(C(=O)OCCOCCOCCOC(=O)c3ccc(-c4c5nc(c(-c6ccccc6)c6ccc([nH]6)c(-c6ccccc6)c6nc(c(-c7ccccc7)c7ccc4[nH]7)C=C6)C=C5)cc3)ccc2C)C1=O
REMARK SMILES IDX 26 1 25 2 24 3 23 4 22 5 20 6 21 7 19 8 17 9 18 10 84 11
REMARK SMILES IDX 83 12 85 13 82 14 16 15 15 17 11 18 12 19 86 20 13 21 14 22
REMARK SMILES IDX 87 23 10 24 3 25 4 26 5 27 9 28 6 29 7 30 8 31 2 32 1 33
REMARK SMILES IDX 27 34 28 35 29 36 30 37 31 38 32 39 33 40 34 41 35 42 81 43
REMARK SMILES IDX 36 44 80 45 37 46 38 47 39 48 74 49 40 50 79 51 73 52 75 53
REMARK SMILES IDX 41 54 78 55 72 56 71 57 42 59 64 60 49 61 63 62 50 63 53 64
REMARK SMILES IDX 62 65 76 66 51 67 52 68 61 70 77 71 54 72 43 73 44 74 48 75
REMARK SMILES IDX 45 76 47 77 46 78 65 79 66 80 70 81 67 82 69 83 68 84 55 85
REMARK SMILES IDX 56 86 60 87 57 88 59 89 58 90
REMARK H PARENT 16 16 75 58 53 69
REMARK Flexibility Score: inf
ROOT
ATOM      1  C   UNL A   1      39.195  25.059  27.484  1.00  0.00     0.188 C 
ENDROOT
BRANCH   1   2
ATOM      2  O   UNL A   1      38.159  24.501  26.653  1.00  0.00    -0.376 OA
BRANCH   2   3
ATOM      3  C   UNL A   1      38.122  23.178  26.122  1.00  0.00     0.202 C 
BRANCH   3   4
ATOM      4  C   UNL A   1      36.751  22.353  25.522  1.00  0.00     0.261 C 
BRANCH   4   5
ATOM      5  O   UNL A   1      35.614  21.335  26.224  1.00  0.00    -0.460 OA
BRANCH   5   6
ATOM      6  C   UNL A   1      34.244  21.338  26.570  1.00  0.00     0.338 C 
ATOM      7  O   UNL A   1      33.683  21.689  27.607  1.00  0.00    -0.246 OA
BRANCH   6   8
ATOM      8  C   UNL A   1      33.142  20.957  25.670  1.00  0.00     0.062 A 
ATOM      9  C   UNL A   1      32.114  21.992  23.749  1.00  0.00     0.038 A 
ATOM     10  C   UNL A   1      32.502  22.036  25.100  1.00  0.00     0.041 A 
ATOM     11  C   UNL A   1      32.164  20.783  23.013  1.00  0.00    -0.028 A 
ATOM     12  C   UNL A   1      32.776  19.673  23.596  1.00  0.00     0.006 A 
ATOM     13  C   UNL A   1      31.697  20.646  21.591  1.00  0.00     0.046 C 
ATOM     14  C   UNL A   1      33.313  19.784  24.879  1.00  0.00     0.016 A 
BRANCH   9  15
ATOM     15  N   UNL A   1      32.058  23.233  23.079  1.00  0.00    -0.373 N 
ATOM     16  H   UNL A   1      31.594  23.379  22.222  1.00  0.00     0.161 HD
BRANCH  15  17
ATOM     17  C   UNL A   1      32.783  24.292  23.826  1.00  0.00     0.179 C 
ATOM     18  N   UNL A   1      32.195  26.534  23.506  1.00  0.00    -0.245 N 
ATOM     19  C   UNL A   1      33.226  26.301  22.638  1.00  0.00     0.236 C 
ATOM     20  C   UNL A   1      31.867  25.432  24.257  1.00  0.00     0.256 C 
ATOM     21  O   UNL A   1      33.700  27.066  21.809  1.00  0.00    -0.274 OA
ATOM     22  C   UNL A   1      33.815  24.959  22.936  1.00  0.00     0.136 C 
ATOM     23  O   UNL A   1      30.959  25.338  25.074  1.00  0.00    -0.272 OA
BRANCH  18  24
ATOM     24  C   UNL A   1      31.503  27.757  23.594  1.00  0.00     0.094 A 
ATOM     25  C   UNL A   1      31.938  28.799  24.427  1.00  0.00     0.144 A 
ATOM     26  C   UNL A   1      31.163  29.951  24.567  1.00  0.00     0.069 A 
ATOM     27  C   UNL A   1      29.961  30.080  23.868  1.00  0.00     0.047 A 
ATOM     28  C   UNL A   1      30.311  27.910  22.869  1.00  0.00     0.035 A 
ATOM     29  Cl  UNL A   1      29.054  31.534  24.081  1.00  0.00    -0.084 Cl
ATOM     30  C   UNL A   1      29.513  29.056  23.020  1.00  0.00    -0.030 A 
ATOM     31  C   UNL A   1      28.200  29.136  22.293  1.00  0.00     0.046 C 
BRANCH  25  32
ATOM     32  O   UNL A   1      33.108  28.778  25.144  1.00  0.00    -0.495 OA
ATOM     33  C   UNL A   1      32.960  28.197  26.441  1.00  0.00     0.278 C 
ENDBRANCH  25  32
ENDBRANCH  18  24
ENDBRANCH  15  17
ENDBRANCH   9  15
ENDBRANCH   6   8
ENDBRANCH   5   6
ENDBRANCH   4   5
ENDBRANCH   3   4
ENDBRANCH   2   3
ENDBRANCH   1   2
BRANCH   1  34
ATOM     34  C   UNL A   1      40.505  25.592  26.910  1.00  0.00     0.188 C 
BRANCH  34  35
ATOM     35  O   UNL A   1      40.432  26.999  26.797  1.00  0.00    -0.376 OA
BRANCH  35  36
ATOM     36  C   UNL A   1      41.250  27.726  27.695  1.00  0.00     0.202 C 
BRANCH  36  37
ATOM     37  C   UNL A   1      42.493  26.933  28.143  1.00  0.00     0.261 C 
BRANCH  37  38
ATOM     38  O   UNL A   1      43.433  27.792  28.838  1.00  0.00    -0.460 OA
BRANCH  38  39
ATOM     39  C   UNL A   1      43.361  27.873  30.209  1.00  0.00     0.338 C 
ATOM     40  O   UNL A   1      43.456  26.916  30.968  1.00  0.00    -0.246 OA
BRANCH  39  41
ATOM     41  C   UNL A   1      42.880  29.241  30.626  1.00  0.00     0.060 A 
ATOM     42  C   UNL A   1      43.642  30.421  30.670  1.00  0.00     0.016 A 
ATOM     43  C   UNL A   1      41.801  29.236  31.434  1.00  0.00     0.016 A 
ATOM     44  C   UNL A   1      43.386  31.475  31.665  1.00  0.00     0.010 A 
ATOM     45  C   UNL A   1      41.922  30.070  32.546  1.00  0.00     0.010 A 
ATOM     46  C   UNL A   1      42.514  31.313  32.749  1.00  0.00    -0.014 A 
BRANCH  46  47
ATOM     47  C   UNL A   1      42.436  32.156  34.147  1.00  0.00     0.031 A 
ATOM     48  C   UNL A   1      42.922  31.908  35.715  1.00  0.00     0.074 A 
ATOM     49  C   UNL A   1      41.784  33.340  34.057  1.00  0.00     0.049 A 
ATOM     50  N   UNL A   1      42.167  32.209  36.766  1.00  0.00    -0.248 NA
ATOM     51  C   UNL A   1      44.160  31.264  36.274  1.00  0.00     0.031 C 
ATOM     52  C   UNL A   1      41.674  34.399  35.058  1.00  0.00     0.029 A 
ATOM     53  N   UNL A   1      40.953  33.770  33.024  1.00  0.00    -0.354 N 
ATOM     54  C   UNL A   1      42.877  31.886  37.930  1.00  0.00     0.074 A 
ATOM     55  C   UNL A   1      43.876  30.995  37.537  1.00  0.00     0.031 C 
ATOM     56  C   UNL A   1      40.622  35.173  34.747  1.00  0.00     0.029 A 
ATOM     57  C   UNL A   1      39.969  34.581  33.595  1.00  0.00     0.049 A 
ATOM     58  H   UNL A   1      41.043  33.545  32.070  1.00  0.00     0.167 HD
ATOM     59  C   UNL A   1      42.777  32.481  39.148  1.00  0.00     0.031 A 
ATOM     60  C   UNL A   1      38.654  34.246  33.489  1.00  0.00     0.031 A 
ATOM     61  C   UNL A   1      41.649  33.367  39.164  1.00  0.00     0.049 A 
ATOM     62  C   UNL A   1      37.986  34.047  34.830  1.00  0.00     0.074 A 
ATOM     63  C   UNL A   1      41.528  34.737  39.075  1.00  0.00     0.029 A 
ATOM     64  N   UNL A   1      40.403  32.822  38.912  1.00  0.00    -0.354 N 
ATOM     65  N   UNL A   1      38.621  33.966  35.967  1.00  0.00    -0.248 NA
ATOM     66  C   UNL A   1      36.543  33.893  34.990  1.00  0.00     0.031 C 
ATOM     67  C   UNL A   1      40.199  35.008  38.646  1.00  0.00     0.029 A 
ATOM     68  C   UNL A   1      39.511  33.809  38.564  1.00  0.00     0.049 A 
ATOM     69  H   UNL A   1      40.186  31.864  38.972  1.00  0.00     0.167 HD
ATOM     70  C   UNL A   1      37.733  33.686  36.971  1.00  0.00     0.074 A 
ATOM     71  C   UNL A   1      36.441  33.687  36.315  1.00  0.00     0.031 C 
ATOM     72  C   UNL A   1      38.140  33.438  38.250  1.00  0.00     0.031 A 
BRANCH  59  73
ATOM     73  C   UNL A   1      43.825  32.356  40.270  1.00  0.00    -0.014 A 
ATOM     74  C   UNL A   1      44.959  33.185  40.267  1.00  0.00     0.009 A 
ATOM     75  C   UNL A   1      43.807  31.397  41.314  1.00  0.00     0.009 A 
ATOM     76  C   UNL A   1      45.972  33.077  41.245  1.00  0.00     0.001 A 
ATOM     77  C   UNL A   1      44.778  31.320  42.326  1.00  0.00     0.001 A 
ATOM     78  C   UNL A   1      45.873  32.159  42.286  1.00  0.00     0.000 A 
ENDBRANCH  59  73
BRANCH  60  79
ATOM     79  C   UNL A   1      38.302  33.560  32.206  1.00  0.00    -0.014 A 
ATOM     80  C   UNL A   1      38.195  34.361  31.045  1.00  0.00     0.009 A 
ATOM     81  C   UNL A   1      38.400  32.172  32.035  1.00  0.00     0.009 A 
ATOM     82  C   UNL A   1      38.300  33.810  29.764  1.00  0.00     0.001 A 
ATOM     83  C   UNL A   1      38.481  31.618  30.743  1.00  0.00     0.001 A 
ATOM     84  C   UNL A   1      38.463  32.439  29.613  1.00  0.00     0.000 A 
ENDBRANCH  60  79
BRANCH  72  85
ATOM     85  C   UNL A   1      37.307  32.820  39.352  1.00  0.00    -0.014 A 
ATOM     86  C   UNL A   1      36.635  31.597  39.244  1.00  0.00     0.009 A 
ATOM     87  C   UNL A   1      37.309  33.423  40.633  1.00  0.00     0.009 A 
ATOM     88  C   UNL A   1      35.963  31.032  40.338  1.00  0.00     0.001 A 
ATOM     89  C   UNL A   1      36.692  32.835  41.741  1.00  0.00     0.001 A 
ATOM     90  C   UNL A   1      36.003  31.644  41.587  1.00  0.00     0.000 A 
ENDBRANCH  72  85
ENDBRANCH  46  47
ENDBRANCH  39  41
ENDBRANCH  38  39
ENDBRANCH  37  38
ENDBRANCH  36  37
ENDBRANCH  35  36
ENDBRANCH  34  35
ENDBRANCH   1  34
TORSDOF 21
ENDMDL
MODEL 3
REMARK VINA RESULT:      -9.6      4.598     15.697
REMARK SMILES COc1cc(Cl)c(C)cc1N1C(=O)C[C@H](Nc2cc(C(=O)OCCOCCOCCOC(=O)c3ccc(-c4c5nc(c(-c6ccccc6)c6ccc([nH]6)c(-c6ccccc6)c6nc(c(-c7ccccc7)c7ccc4[nH]7)C=C6)C=C5)cc3)ccc2C)C1=O
REMARK SMILES IDX 26 1 25 2 24 3 23 4 22 5 20 6 21 7 19 8 17 9 18 10 84 11
REMARK SMILES IDX 83 12 85 13 82 14 16 15 15 17 11 18 12 19 86 20 13 21 14 22
REMARK SMILES IDX 87 23 10 24 3 25 4 26 5 27 9 28 6 29 7 30 8 31 2 32 1 33
REMARK SMILES IDX 27 34 28 35 29 36 30 37 31 38 32 39 33 40 34 41 35 42 81 43
REMARK SMILES IDX 36 44 80 45 37 46 38 47 39 48 74 49 40 50 79 51 73 52 75 53
REMARK SMILES IDX 41 54 78 55 72 56 71 57 42 59 64 60 49 61 63 62 50 63 53 64
REMARK SMILES IDX 62 65 76 66 51 67 52 68 61 70 77 71 54 72 43 73 44 74 48 75
REMARK SMILES IDX 45 76 47 77 46 78 65 79 66 80 70 81 67 82 69 83 68 84 55 85
REMARK SMILES IDX 56 86 60 87 57 88 59 89 58 90
REMARK H PARENT 16 16 75 58 53 69
REMARK Flexibility Score: inf
ROOT
ATOM      1  C   UNL A   1      47.447  36.317  29.522  1.00  0.00     0.188 C 
ENDROOT
BRANCH   1   2
ATOM      2  O   UNL A   1      48.095  35.522  28.511  1.00  0.00    -0.376 OA
BRANCH   2   3
ATOM      3  C   UNL A   1      48.081  35.767  27.106  1.00  0.00     0.202 C 
BRANCH   3   4
ATOM      4  C   UNL A   1      47.515  34.711  25.887  1.00  0.00     0.261 C 
BRANCH   4   5
ATOM      5  O   UNL A   1      46.080  34.609  25.020  1.00  0.00    -0.460 OA
BRANCH   5   6
ATOM      6  C   UNL A   1      44.884  33.856  25.015  1.00  0.00     0.338 C 
ATOM      7  O   UNL A   1      44.261  33.353  24.082  1.00  0.00    -0.246 OA
BRANCH   6   8
ATOM      8  C   UNL A   1      44.137  33.446  26.216  1.00  0.00     0.062 A 
ATOM      9  C   UNL A   1      44.119  31.457  27.580  1.00  0.00     0.038 A 
ATOM     10  C   UNL A   1      43.984  32.081  26.327  1.00  0.00     0.041 A 
ATOM     11  C   UNL A   1      44.190  32.217  28.772  1.00  0.00    -0.028 A 
ATOM     12  C   UNL A   1      44.306  33.604  28.672  1.00  0.00     0.006 A 
ATOM     13  C   UNL A   1      44.261  31.617  30.149  1.00  0.00     0.046 C 
ATOM     14  C   UNL A   1      44.345  34.197  27.410  1.00  0.00     0.016 A 
BRANCH   9  15
ATOM     15  N   UNL A   1      44.565  30.117  27.561  1.00  0.00    -0.373 N 
ATOM     16  H   UNL A   1      45.510  29.850  27.475  1.00  0.00     0.161 HD
BRANCH  15  17
ATOM     17  C   UNL A   1      43.435  29.162  27.685  1.00  0.00     0.179 C 
ATOM     18  N   UNL A   1      43.463  27.179  26.442  1.00  0.00    -0.245 N 
ATOM     19  C   UNL A   1      42.755  28.073  25.687  1.00  0.00     0.236 C 
ATOM     20  C   UNL A   1      43.894  27.708  27.634  1.00  0.00     0.256 C 
ATOM     21  O   UNL A   1      42.295  27.912  24.564  1.00  0.00    -0.274 OA
ATOM     22  C   UNL A   1      42.492  29.298  26.505  1.00  0.00     0.136 C 
ATOM     23  O   UNL A   1      44.585  27.156  28.482  1.00  0.00    -0.272 OA
BRANCH  18  24
ATOM     24  C   UNL A   1      43.767  25.868  26.030  1.00  0.00     0.094 A 
ATOM     25  C   UNL A   1      42.889  24.797  26.254  1.00  0.00     0.144 A 
ATOM     26  C   UNL A   1      43.276  23.496  25.928  1.00  0.00     0.069 A 
ATOM     27  C   UNL A   1      44.531  23.257  25.362  1.00  0.00     0.047 A 
ATOM     28  C   UNL A   1      45.011  25.623  25.429  1.00  0.00     0.035 A 
ATOM     29  Cl  UNL A   1      44.945  21.626  24.975  1.00  0.00    -0.084 Cl
ATOM     30  C   UNL A   1      45.419  24.315  25.117  1.00  0.00    -0.030 A 
ATOM     31  C   UNL A   1      46.796  24.091  24.559  1.00  0.00     0.046 C 
BRANCH  25  32
ATOM     32  O   UNL A   1      41.632  24.926  26.790  1.00  0.00    -0.495 OA
ATOM     33  C   UNL A   1      41.620  24.850  28.217  1.00  0.00     0.278 C 
ENDBRANCH  25  32
ENDBRANCH  18  24
ENDBRANCH  15  17
ENDBRANCH   9  15
ENDBRANCH   6   8
ENDBRANCH   5   6
ENDBRANCH   4   5
ENDBRANCH   3   4
ENDBRANCH   2   3
ENDBRANCH   1   2
BRANCH   1  34
ATOM     34  C   UNL A   1      47.307  37.832  29.405  1.00  0.00     0.188 C 
BRANCH  34  35
ATOM     35  O   UNL A   1      46.605  38.328  30.527  1.00  0.00    -0.376 OA
BRANCH  35  36
ATOM     36  C   UNL A   1      45.667  37.438  31.102  1.00  0.00     0.202 C 
BRANCH  36  37
ATOM     37  C   UNL A   1      44.239  38.019  31.138  1.00  0.00     0.261 C 
BRANCH  37  38
ATOM     38  O   UNL A   1      43.707  38.169  29.797  1.00  0.00    -0.460 OA
BRANCH  38  39
ATOM     39  C   UNL A   1      43.224  39.399  29.415  1.00  0.00     0.338 C 
ATOM     40  O   UNL A   1      42.596  40.157  30.145  1.00  0.00    -0.246 OA
BRANCH  39  41
ATOM     41  C   UNL A   1      43.334  39.560  27.919  1.00  0.00     0.060 A 
ATOM     42  C   UNL A   1      44.516  39.558  27.159  1.00  0.00     0.016 A 
ATOM     43  C   UNL A   1      42.296  40.199  27.344  1.00  0.00     0.016 A 
ATOM     44  C   UNL A   1      44.653  40.360  25.933  1.00  0.00     0.010 A 
ATOM     45  C   UNL A   1      42.672  41.198  26.446  1.00  0.00     0.010 A 
ATOM     46  C   UNL A   1      43.715  41.319  25.532  1.00  0.00    -0.014 A 
BRANCH  46  47
ATOM     47  C   UNL A   1      43.894  42.569  24.495  1.00  0.00     0.031 A 
ATOM     48  C   UNL A   1      43.670  42.807  22.868  1.00  0.00     0.074 A 
ATOM     49  C   UNL A   1      44.385  43.701  25.055  1.00  0.00     0.049 A 
ATOM     50  N   UNL A   1      44.528  43.479  22.107  1.00  0.00    -0.248 NA
ATOM     51  C   UNL A   1      42.609  42.299  21.933  1.00  0.00     0.031 C 
ATOM     52  C   UNL A   1      44.514  45.031  24.462  1.00  0.00     0.029 A 
ATOM     53  N   UNL A   1      45.004  43.830  26.298  1.00  0.00    -0.354 N 
ATOM     54  C   UNL A   1      44.035  43.502  20.796  1.00  0.00     0.074 A 
ATOM     55  C   UNL A   1      43.100  42.469  20.717  1.00  0.00     0.031 C 
ATOM     56  C   UNL A   1      45.413  45.729  25.172  1.00  0.00     0.029 A 
ATOM     57  C   UNL A   1      45.959  44.842  26.182  1.00  0.00     0.049 A 
ATOM     58  H   UNL A   1      44.805  43.305  27.106  1.00  0.00     0.167 HD
ATOM     59  C   UNL A   1      44.239  44.461  19.855  1.00  0.00     0.031 A 
ATOM     60  C   UNL A   1      47.275  44.577  26.406  1.00  0.00     0.031 A 
ATOM     61  C   UNL A   1      45.247  45.377  20.306  1.00  0.00     0.049 A 
ATOM     62  C   UNL A   1      48.147  44.863  25.205  1.00  0.00     0.074 A 
ATOM     63  C   UNL A   1      45.194  46.650  20.831  1.00  0.00     0.029 A 
ATOM     64  N   UNL A   1      46.499  44.861  20.591  1.00  0.00    -0.354 N 
ATOM     65  N   UNL A   1      47.695  45.111  24.006  1.00  0.00    -0.248 NA
ATOM     66  C   UNL A   1      49.606  44.863  25.257  1.00  0.00     0.031 C 
ATOM     67  C   UNL A   1      46.408  46.855  21.545  1.00  0.00     0.029 A 
ATOM     68  C   UNL A   1      47.211  45.739  21.373  1.00  0.00     0.049 A 
ATOM     69  H   UNL A   1      46.832  43.989  20.278  1.00  0.00     0.167 HD
ATOM     70  C   UNL A   1      48.744  45.227  23.133  1.00  0.00     0.074 A 
ATOM     71  C   UNL A   1      49.920  45.100  23.971  1.00  0.00     0.031 C 
ATOM     72  C   UNL A   1      48.556  45.377  21.790  1.00  0.00     0.031 A 
BRANCH  59  73
ATOM     73  C   UNL A   1      43.385  44.636  18.585  1.00  0.00    -0.014 A 
ATOM     74  C   UNL A   1      43.944  44.385  17.321  1.00  0.00     0.009 A 
ATOM     75  C   UNL A   1      42.053  45.122  18.547  1.00  0.00     0.009 A 
ATOM     76  C   UNL A   1      43.217  44.578  16.126  1.00  0.00     0.001 A 
ATOM     77  C   UNL A   1      41.302  45.261  17.368  1.00  0.00     0.001 A 
ATOM     78  C   UNL A   1      41.890  44.996  16.149  1.00  0.00     0.000 A 
ENDBRANCH  59  73
BRANCH  60  79
ATOM     79  C   UNL A   1      47.516  43.540  27.457  1.00  0.00    -0.014 A 
ATOM     80  C   UNL A   1      46.990  43.783  28.747  1.00  0.00     0.009 A 
ATOM     81  C   UNL A   1      47.930  42.234  27.155  1.00  0.00     0.009 A 
ATOM     82  C   UNL A   1      46.776  42.743  29.658  1.00  0.00     0.001 A 
ATOM     83  C   UNL A   1      47.736  41.194  28.084  1.00  0.00     0.001 A 
ATOM     84  C   UNL A   1      47.131  41.443  29.319  1.00  0.00     0.000 A 
ENDBRANCH  60  79
BRANCH  72  85
ATOM     85  C   UNL A   1      49.605  45.201  20.713  1.00  0.00    -0.014 A 
ATOM     86  C   UNL A   1      49.785  44.030  19.968  1.00  0.00     0.009 A 
ATOM     87  C   UNL A   1      50.370  46.323  20.311  1.00  0.00     0.009 A 
ATOM     88  C   UNL A   1      50.709  43.967  18.914  1.00  0.00     0.001 A 
ATOM     89  C   UNL A   1      51.248  46.283  19.225  1.00  0.00     0.001 A 
ATOM     90  C   UNL A   1      51.430  45.096  18.536  1.00  0.00     0.000 A 
ENDBRANCH  72  85
ENDBRANCH  46  47
ENDBRANCH  39  41
ENDBRANCH  38  39
ENDBRANCH  37  38
ENDBRANCH  36  37
ENDBRANCH  35  36
ENDBRANCH  34  35
ENDBRANCH   1  34
TORSDOF 21
ENDMDL
