MODEL 1
REMARK VINA RESULT:     -11.6      0.000      0.000
REMARK SMILES O=C(OCCOCCOCCOC(=O)c1ccn(-c2cc(-c3ccncc3)nc(-c3ccccc3F)n2)n1)c1ccc(-c2c3nc(c(-c4ccccc4)c4ccc([nH]4)c(-c4ccccc4)c4nc(c(-c5ccccc5)c5ccc2[nH]5)C=C4)C=C3)cc1
REMARK SMILES IDX 7 1 6 2 5 3 4 4 3 5 2 6 1 7 39 8 40 9 86 10 41 11 85 12
REMARK SMILES IDX 42 13 43 14 44 15 79 16 45 17 84 18 78 19 80 20 46 21 83 22
REMARK SMILES IDX 77 23 76 24 47 26 69 27 54 28 68 29 55 30 58 31 67 32 81 33
REMARK SMILES IDX 56 34 57 35 66 37 82 38 59 39 48 40 49 41 53 42 50 43 52 44
REMARK SMILES IDX 51 45 70 46 71 47 75 48 72 49 74 50 73 51 60 52 61 53 65 54
REMARK SMILES IDX 62 55 64 56 63 57 8 58 9 59 10 60 11 61 12 62 13 63 14 64
REMARK SMILES IDX 15 65 16 66 38 67 17 68 18 69 19 70 20 71 37 72 21 73 29 74
REMARK SMILES IDX 28 75 22 76 23 77 27 78 24 79 26 80 25 81 30 82 31 83 35 84
REMARK SMILES IDX 32 85 34 86 36 87 33 88
REMARK H PARENT 80 25 58 36
REMARK Flexibility Score: inf
ROOT
ATOM      1  C   UNL A   1      32.446  28.347  27.252  1.00  0.00     0.188 C 
ENDROOT
BRANCH   1   2
ATOM      2  O   UNL A   1      32.478  29.769  27.309  1.00  0.00    -0.376 OA
BRANCH   2   3
ATOM      3  C   UNL A   1      33.772  30.350  27.285  1.00  0.00     0.202 C 
BRANCH   3   4
ATOM      4  C   UNL A   1      33.755  31.809  27.729  1.00  0.00     0.261 C 
BRANCH   4   5
ATOM      5  O   UNL A   1      34.916  32.256  28.458  1.00  0.00    -0.460 OA
BRANCH   5   6
ATOM      6  C   UNL A   1      35.524  31.732  29.540  1.00  0.00     0.338 C 
ATOM      7  O   UNL A   1      35.241  32.134  30.665  1.00  0.00    -0.246 OA
BRANCH   6   8
ATOM      8  C   UNL A   1      36.675  30.810  29.409  1.00  0.00     0.060 A 
ATOM      9  C   UNL A   1      36.586  29.429  29.581  1.00  0.00     0.016 A 
ATOM     10  C   UNL A   1      37.937  31.405  29.226  1.00  0.00     0.016 A 
ATOM     11  C   UNL A   1      37.741  28.651  29.583  1.00  0.00     0.010 A 
ATOM     12  C   UNL A   1      39.096  30.635  29.256  1.00  0.00     0.010 A 
ATOM     13  C   UNL A   1      38.996  29.259  29.483  1.00  0.00    -0.014 A 
BRANCH  13  14
ATOM     14  C   UNL A   1      40.161  28.440  29.824  1.00  0.00     0.031 A 
ATOM     15  C   UNL A   1      40.707  28.459  31.210  1.00  0.00     0.074 A 
ATOM     16  C   UNL A   1      40.713  27.620  28.905  1.00  0.00     0.049 A 
ATOM     17  N   UNL A   1      41.937  28.623  31.587  1.00  0.00    -0.248 NA
ATOM     18  C   UNL A   1      39.772  28.232  32.319  1.00  0.00     0.031 C 
ATOM     19  C   UNL A   1      40.162  27.261  27.595  1.00  0.00     0.029 A 
ATOM     20  N   UNL A   1      41.837  26.849  29.000  1.00  0.00    -0.354 N 
ATOM     21  C   UNL A   1      41.969  28.356  32.955  1.00  0.00     0.074 A 
ATOM     22  C   UNL A   1      40.599  28.159  33.363  1.00  0.00     0.031 C 
ATOM     23  C   UNL A   1      40.824  26.188  27.117  1.00  0.00     0.029 A 
ATOM     24  C   UNL A   1      41.917  25.873  28.021  1.00  0.00     0.049 A 
ATOM     25  H   UNL A   1      42.523  26.975  29.695  1.00  0.00     0.167 HD
ATOM     26  C   UNL A   1      43.127  28.164  33.646  1.00  0.00     0.031 A 
ATOM     27  C   UNL A   1      42.775  24.831  27.964  1.00  0.00     0.031 A 
ATOM     28  C   UNL A   1      44.270  28.726  32.987  1.00  0.00     0.049 A 
ATOM     29  C   UNL A   1      43.937  25.113  28.826  1.00  0.00     0.074 A 
ATOM     30  C   UNL A   1      44.665  29.994  32.617  1.00  0.00     0.029 A 
ATOM     31  N   UNL A   1      45.156  27.865  32.394  1.00  0.00    -0.354 N 
ATOM     32  N   UNL A   1      44.850  26.001  28.558  1.00  0.00    -0.248 NA
ATOM     33  C   UNL A   1      43.963  24.582  30.180  1.00  0.00     0.031 C 
ATOM     34  C   UNL A   1      45.510  29.813  31.485  1.00  0.00     0.029 A 
ATOM     35  C   UNL A   1      45.562  28.444  31.220  1.00  0.00     0.049 A 
ATOM     36  H   UNL A   1      45.446  26.992  32.745  1.00  0.00     0.167 HD
ATOM     37  C   UNL A   1      45.296  26.433  29.795  1.00  0.00     0.074 A 
ATOM     38  C   UNL A   1      44.849  25.413  30.733  1.00  0.00     0.031 C 
ATOM     39  C   UNL A   1      45.725  27.716  29.980  1.00  0.00     0.031 A 
BRANCH  26  40
ATOM     40  C   UNL A   1      43.279  27.199  34.798  1.00  0.00    -0.014 A 
ATOM     41  C   UNL A   1      43.280  25.813  34.548  1.00  0.00     0.009 A 
ATOM     42  C   UNL A   1      43.136  27.596  36.140  1.00  0.00     0.009 A 
ATOM     43  C   UNL A   1      43.098  24.881  35.578  1.00  0.00     0.001 A 
ATOM     44  C   UNL A   1      42.994  26.667  37.178  1.00  0.00     0.001 A 
ATOM     45  C   UNL A   1      42.952  25.309  36.894  1.00  0.00     0.000 A 
ENDBRANCH  26  40
BRANCH  27  46
ATOM     46  C   UNL A   1      42.547  23.523  27.322  1.00  0.00    -0.014 A 
ATOM     47  C   UNL A   1      42.851  23.309  25.971  1.00  0.00     0.009 A 
ATOM     48  C   UNL A   1      42.211  22.403  28.107  1.00  0.00     0.009 A 
ATOM     49  C   UNL A   1      42.823  22.018  25.429  1.00  0.00     0.001 A 
ATOM     50  C   UNL A   1      42.171  21.117  27.564  1.00  0.00     0.001 A 
ATOM     51  C   UNL A   1      42.486  20.924  26.225  1.00  0.00     0.000 A 
ENDBRANCH  27  46
BRANCH  39  52
ATOM     52  C   UNL A   1      46.035  28.540  28.756  1.00  0.00    -0.014 A 
ATOM     53  C   UNL A   1      45.116  29.460  28.224  1.00  0.00     0.009 A 
ATOM     54  C   UNL A   1      47.330  28.504  28.219  1.00  0.00     0.009 A 
ATOM     55  C   UNL A   1      45.468  30.291  27.158  1.00  0.00     0.001 A 
ATOM     56  C   UNL A   1      47.690  29.351  27.167  1.00  0.00     0.001 A 
ATOM     57  C   UNL A   1      46.758  30.239  26.633  1.00  0.00     0.000 A 
ENDBRANCH  39  52
ENDBRANCH  13  14
ENDBRANCH   6   8
ENDBRANCH   5   6
ENDBRANCH   4   5
ENDBRANCH   3   4
ENDBRANCH   2   3
ENDBRANCH   1   2
BRANCH   1  58
ATOM     58  C   UNL A   1      32.304  27.761  25.831  1.00  0.00     0.188 C 
BRANCH  58  59
ATOM     59  O   UNL A   1      33.387  27.687  24.907  1.00  0.00    -0.376 OA
BRANCH  59  60
ATOM     60  C   UNL A   1      33.499  28.630  23.859  1.00  0.00     0.202 C 
BRANCH  60  61
ATOM     61  C   UNL A   1      33.058  28.065  22.507  1.00  0.00     0.261 C 
BRANCH  61  62
ATOM     62  O   UNL A   1      31.754  27.462  22.532  1.00  0.00    -0.458 OA
BRANCH  62  63
ATOM     63  C   UNL A   1      31.675  26.230  21.942  1.00  0.00     0.358 C 
ATOM     64  O   UNL A   1      31.573  26.030  20.740  1.00  0.00    -0.244 OA
BRANCH  63  65
ATOM     65  C   UNL A   1      31.607  25.135  22.919  1.00  0.00     0.170 A 
ATOM     66  C   UNL A   1      30.438  24.383  23.189  1.00  0.00     0.058 A 
ATOM     67  N   UNL A   1      32.679  24.630  23.578  1.00  0.00    -0.159 NA
ATOM     68  C   UNL A   1      30.886  23.267  23.845  1.00  0.00     0.118 A 
ATOM     69  N   UNL A   1      32.248  23.403  23.987  1.00  0.00    -0.222 N 
BRANCH  69  70
ATOM     70  C   UNL A   1      33.128  22.347  24.358  1.00  0.00     0.158 A 
ATOM     71  C   UNL A   1      32.665  21.050  24.473  1.00  0.00     0.078 A 
ATOM     72  N   UNL A   1      34.421  22.696  24.551  1.00  0.00    -0.209 NA
ATOM     73  C   UNL A   1      33.636  20.102  24.750  1.00  0.00     0.077 A 
ATOM     74  C   UNL A   1      35.251  21.720  24.933  1.00  0.00     0.165 A 
ATOM     75  N   UNL A   1      34.913  20.430  25.034  1.00  0.00    -0.228 NA
BRANCH  73  76
ATOM     76  C   UNL A   1      33.431  18.653  24.649  1.00  0.00     0.003 A 
ATOM     77  C   UNL A   1      34.123  17.898  23.694  1.00  0.00     0.030 A 
ATOM     78  C   UNL A   1      32.676  17.959  25.602  1.00  0.00     0.030 A 
ATOM     79  C   UNL A   1      34.020  16.517  23.729  1.00  0.00     0.111 A 
ATOM     80  C   UNL A   1      32.628  16.573  25.547  1.00  0.00     0.111 A 
ATOM     81  N   UNL A   1      33.275  15.837  24.622  1.00  0.00    -0.265 NA
ENDBRANCH  73  76
BRANCH  74  82
ATOM     82  C   UNL A   1      36.579  22.101  25.380  1.00  0.00     0.055 A 
ATOM     83  C   UNL A   1      36.811  23.370  25.941  1.00  0.00     0.015 A 
ATOM     84  C   UNL A   1      37.653  21.215  25.284  1.00  0.00     0.134 A 
ATOM     85  C   UNL A   1      38.083  23.727  26.398  1.00  0.00     0.001 A 
ATOM     86  C   UNL A   1      38.926  21.568  25.731  1.00  0.00     0.040 A 
ATOM     87  F   UNL A   1      37.482  20.000  24.740  1.00  0.00    -0.206 F 
ATOM     88  C   UNL A   1      39.140  22.825  26.292  1.00  0.00     0.003 A 
ENDBRANCH  74  82
ENDBRANCH  69  70
ENDBRANCH  63  65
ENDBRANCH  62  63
ENDBRANCH  61  62
ENDBRANCH  60  61
ENDBRANCH  59  60
ENDBRANCH  58  59
ENDBRANCH   1  58
TORSDOF 20
ENDMDL
MODEL 2
REMARK VINA RESULT:     -10.6      1.580      3.347
REMARK SMILES O=C(OCCOCCOCCOC(=O)c1ccn(-c2cc(-c3ccncc3)nc(-c3ccccc3F)n2)n1)c1ccc(-c2c3nc(c(-c4ccccc4)c4ccc([nH]4)c(-c4ccccc4)c4nc(c(-c5ccccc5)c5ccc2[nH]5)C=C4)C=C3)cc1
REMARK SMILES IDX 7 1 6 2 5 3 4 4 3 5 2 6 1 7 39 8 40 9 86 10 41 11 85 12
REMARK SMILES IDX 42 13 43 14 44 15 79 16 45 17 84 18 78 19 80 20 46 21 83 22
REMARK SMILES IDX 77 23 76 24 47 26 69 27 54 28 68 29 55 30 58 31 67 32 81 33
REMARK SMILES IDX 56 34 57 35 66 37 82 38 59 39 48 40 49 41 53 42 50 43 52 44
REMARK SMILES IDX 51 45 70 46 71 47 75 48 72 49 74 50 73 51 60 52 61 53 65 54
REMARK SMILES IDX 62 55 64 56 63 57 8 58 9 59 10 60 11 61 12 62 13 63 14 64
REMARK SMILES IDX 15 65 16 66 38 67 17 68 18 69 19 70 20 71 37 72 21 73 29 74
REMARK SMILES IDX 28 75 22 76 23 77 27 78 24 79 26 80 25 81 30 82 31 83 35 84
REMARK SMILES IDX 32 85 34 86 36 87 33 88
REMARK H PARENT 80 25 58 36
REMARK Flexibility Score: inf
ROOT
ATOM      1  C   UNL A   1      33.452  28.990  23.631  1.00  0.00     0.188 C 
ENDROOT
BRANCH   1   2
ATOM      2  O   UNL A   1      33.542  29.185  25.038  1.00  0.00    -0.376 OA
BRANCH   2   3
ATOM      3  C   UNL A   1      32.459  29.887  25.626  1.00  0.00     0.202 C 
BRANCH   3   4
ATOM      4  C   UNL A   1      32.891  30.695  26.845  1.00  0.00     0.261 C 
BRANCH   4   5
ATOM      5  O   UNL A   1      34.227  30.440  27.324  1.00  0.00    -0.460 OA
BRANCH   5   6
ATOM      6  C   UNL A   1      35.157  31.284  27.810  1.00  0.00     0.338 C 
ATOM      7  O   UNL A   1      35.105  32.482  27.546  1.00  0.00    -0.246 OA
BRANCH   6   8
ATOM      8  C   UNL A   1      36.365  30.786  28.505  1.00  0.00     0.060 A 
ATOM      9  C   UNL A   1      37.518  31.546  28.699  1.00  0.00     0.016 A 
ATOM     10  C   UNL A   1      36.365  29.425  28.865  1.00  0.00     0.016 A 
ATOM     11  C   UNL A   1      38.660  30.956  29.233  1.00  0.00     0.010 A 
ATOM     12  C   UNL A   1      37.513  28.825  29.372  1.00  0.00     0.010 A 
ATOM     13  C   UNL A   1      38.678  29.586  29.512  1.00  0.00    -0.014 A 
BRANCH  13  14
ATOM     14  C   UNL A   1      39.986  28.972  29.748  1.00  0.00     0.031 A 
ATOM     15  C   UNL A   1      40.574  28.972  31.117  1.00  0.00     0.074 A 
ATOM     16  C   UNL A   1      40.641  28.352  28.745  1.00  0.00     0.049 A 
ATOM     17  N   UNL A   1      41.769  29.329  31.478  1.00  0.00    -0.248 NA
ATOM     18  C   UNL A   1      39.743  28.480  32.222  1.00  0.00     0.031 C 
ATOM     19  C   UNL A   1      40.111  28.010  27.420  1.00  0.00     0.029 A 
ATOM     20  N   UNL A   1      41.890  27.797  28.741  1.00  0.00    -0.354 N 
ATOM     21  C   UNL A   1      41.904  28.955  32.814  1.00  0.00     0.074 A 
ATOM     22  C   UNL A   1      40.612  28.472  33.235  1.00  0.00     0.031 C 
ATOM     23  C   UNL A   1      40.939  27.125  26.830  1.00  0.00     0.029 A 
ATOM     24  C   UNL A   1      42.107  26.942  27.675  1.00  0.00     0.049 A 
ATOM     25  H   UNL A   1      42.568  27.988  29.428  1.00  0.00     0.167 HD
ATOM     26  C   UNL A   1      43.105  28.923  33.456  1.00  0.00     0.031 A 
ATOM     27  C   UNL A   1      43.138  26.086  27.501  1.00  0.00     0.031 A 
ATOM     28  C   UNL A   1      44.098  29.742  32.825  1.00  0.00     0.049 A 
ATOM     29  C   UNL A   1      44.263  26.503  28.357  1.00  0.00     0.074 A 
ATOM     30  C   UNL A   1      44.239  31.089  32.565  1.00  0.00     0.029 A 
ATOM     31  N   UNL A   1      45.102  29.115  32.134  1.00  0.00    -0.354 N 
ATOM     32  N   UNL A   1      44.986  27.565  28.150  1.00  0.00    -0.248 NA
ATOM     33  C   UNL A   1      44.441  25.871  29.655  1.00  0.00     0.031 C 
ATOM     34  C   UNL A   1      45.056  31.167  31.400  1.00  0.00     0.029 A 
ATOM     35  C   UNL A   1      45.347  29.859  31.009  1.00  0.00     0.049 A 
ATOM     36  H   UNL A   1      45.560  28.285  32.396  1.00  0.00     0.167 HD
ATOM     37  C   UNL A   1      45.396  27.965  29.411  1.00  0.00     0.074 A 
ATOM     38  C   UNL A   1      45.181  26.802  30.261  1.00  0.00     0.031 C 
ATOM     39  C   UNL A   1      45.590  29.284  29.704  1.00  0.00     0.031 A 
BRANCH  26  40
ATOM     40  C   UNL A   1      43.477  27.908  34.511  1.00  0.00    -0.014 A 
ATOM     41  C   UNL A   1      43.667  26.562  34.142  1.00  0.00     0.009 A 
ATOM     42  C   UNL A   1      43.370  28.173  35.888  1.00  0.00     0.009 A 
ATOM     43  C   UNL A   1      43.697  25.536  35.097  1.00  0.00     0.001 A 
ATOM     44  C   UNL A   1      43.439  27.156  36.847  1.00  0.00     0.001 A 
ATOM     45  C   UNL A   1      43.580  25.834  36.450  1.00  0.00     0.000 A 
ENDBRANCH  26  40
BRANCH  27  46
ATOM     46  C   UNL A   1      43.128  24.818  26.747  1.00  0.00    -0.014 A 
ATOM     47  C   UNL A   1      43.246  24.798  25.351  1.00  0.00     0.009 A 
ATOM     48  C   UNL A   1      43.205  23.591  27.433  1.00  0.00     0.009 A 
ATOM     49  C   UNL A   1      43.438  23.591  24.668  1.00  0.00     0.001 A 
ATOM     50  C   UNL A   1      43.385  22.385  26.752  1.00  0.00     0.001 A 
ATOM     51  C   UNL A   1      43.510  22.386  25.368  1.00  0.00     0.000 A 
ENDBRANCH  27  46
BRANCH  39  52
ATOM     52  C   UNL A   1      45.694  30.254  28.554  1.00  0.00    -0.014 A 
ATOM     53  C   UNL A   1      44.558  30.810  27.942  1.00  0.00     0.009 A 
ATOM     54  C   UNL A   1      46.957  30.735  28.179  1.00  0.00     0.009 A 
ATOM     55  C   UNL A   1      44.682  31.790  26.955  1.00  0.00     0.001 A 
ATOM     56  C   UNL A   1      47.081  31.732  27.207  1.00  0.00     0.001 A 
ATOM     57  C   UNL A   1      45.945  32.254  26.591  1.00  0.00     0.000 A 
ENDBRANCH  39  52
ENDBRANCH  13  14
ENDBRANCH   6   8
ENDBRANCH   5   6
ENDBRANCH   4   5
ENDBRANCH   3   4
ENDBRANCH   2   3
ENDBRANCH   1   2
BRANCH   1  58
ATOM     58  C   UNL A   1      33.874  27.588  23.145  1.00  0.00     0.188 C 
BRANCH  58  59
ATOM     59  O   UNL A   1      33.527  27.070  21.863  1.00  0.00    -0.376 OA
BRANCH  59  60
ATOM     60  C   UNL A   1      32.438  26.179  21.722  1.00  0.00     0.202 C 
BRANCH  60  61
ATOM     61  C   UNL A   1      31.106  26.804  22.139  1.00  0.00     0.261 C 
BRANCH  61  62
ATOM     62  O   UNL A   1      30.356  26.000  23.064  1.00  0.00    -0.458 OA
BRANCH  62  63
ATOM     63  C   UNL A   1      30.479  26.363  24.378  1.00  0.00     0.358 C 
ATOM     64  O   UNL A   1      30.192  27.461  24.834  1.00  0.00    -0.244 OA
BRANCH  63  65
ATOM     65  C   UNL A   1      31.112  25.323  25.199  1.00  0.00     0.170 A 
ATOM     66  C   UNL A   1      30.401  24.413  26.017  1.00  0.00     0.058 A 
ATOM     67  N   UNL A   1      32.435  25.027  25.171  1.00  0.00    -0.159 NA
ATOM     68  C   UNL A   1      31.298  23.416  26.292  1.00  0.00     0.118 A 
ATOM     69  N   UNL A   1      32.487  23.770  25.697  1.00  0.00    -0.222 N 
BRANCH  69  70
ATOM     70  C   UNL A   1      33.586  22.885  25.505  1.00  0.00     0.158 A 
ATOM     71  C   UNL A   1      34.886  23.324  25.672  1.00  0.00     0.078 A 
ATOM     72  N   UNL A   1      33.267  21.609  25.186  1.00  0.00    -0.209 NA
ATOM     73  C   UNL A   1      35.858  22.346  25.546  1.00  0.00     0.077 A 
ATOM     74  C   UNL A   1      34.290  20.775  24.969  1.00  0.00     0.165 A 
ATOM     75  N   UNL A   1      35.577  21.090  25.143  1.00  0.00    -0.228 NA
BRANCH  73  76
ATOM     76  C   UNL A   1      37.260  22.517  25.944  1.00  0.00     0.003 A 
ATOM     77  C   UNL A   1      38.180  21.474  25.780  1.00  0.00     0.030 A 
ATOM     78  C   UNL A   1      37.757  23.765  26.335  1.00  0.00     0.030 A 
ATOM     79  C   UNL A   1      39.522  21.721  26.022  1.00  0.00     0.111 A 
ATOM     80  C   UNL A   1      39.117  23.910  26.563  1.00  0.00     0.111 A 
ATOM     81  N   UNL A   1      40.010  22.909  26.427  1.00  0.00    -0.265 NA
ENDBRANCH  73  76
BRANCH  74  82
ATOM     82  C   UNL A   1      33.990  19.476  24.395  1.00  0.00     0.055 A 
ATOM     83  C   UNL A   1      34.808  18.364  24.666  1.00  0.00     0.015 A 
ATOM     84  C   UNL A   1      32.874  19.290  23.577  1.00  0.00     0.134 A 
ATOM     85  C   UNL A   1      34.504  17.107  24.137  1.00  0.00     0.001 A 
ATOM     86  C   UNL A   1      32.570  18.041  23.039  1.00  0.00     0.040 A 
ATOM     87  F   UNL A   1      32.075  20.326  23.277  1.00  0.00    -0.206 F 
ATOM     88  C   UNL A   1      33.385  16.946  23.323  1.00  0.00     0.003 A 
ENDBRANCH  74  82
ENDBRANCH  69  70
ENDBRANCH  63  65
ENDBRANCH  62  63
ENDBRANCH  61  62
ENDBRANCH  60  61
ENDBRANCH  59  60
ENDBRANCH  58  59
ENDBRANCH   1  58
TORSDOF 20
ENDMDL
MODEL 3
REMARK VINA RESULT:     -10.6      1.493      2.220
REMARK SMILES O=C(OCCOCCOCCOC(=O)c1ccn(-c2cc(-c3ccncc3)nc(-c3ccccc3F)n2)n1)c1ccc(-c2c3nc(c(-c4ccccc4)c4ccc([nH]4)c(-c4ccccc4)c4nc(c(-c5ccccc5)c5ccc2[nH]5)C=C4)C=C3)cc1
REMARK SMILES IDX 7 1 6 2 5 3 4 4 3 5 2 6 1 7 39 8 40 9 86 10 41 11 85 12
REMARK SMILES IDX 42 13 43 14 44 15 79 16 45 17 84 18 78 19 80 20 46 21 83 22
REMARK SMILES IDX 77 23 76 24 47 26 69 27 54 28 68 29 55 30 58 31 67 32 81 33
REMARK SMILES IDX 56 34 57 35 66 37 82 38 59 39 48 40 49 41 53 42 50 43 52 44
REMARK SMILES IDX 51 45 70 46 71 47 75 48 72 49 74 50 73 51 60 52 61 53 65 54
REMARK SMILES IDX 62 55 64 56 63 57 8 58 9 59 10 60 11 61 12 62 13 63 14 64
REMARK SMILES IDX 15 65 16 66 38 67 17 68 18 69 19 70 20 71 37 72 21 73 29 74
REMARK SMILES IDX 28 75 22 76 23 77 27 78 24 79 26 80 25 81 30 82 31 83 35 84
REMARK SMILES IDX 32 85 34 86 36 87 33 88
REMARK H PARENT 80 25 58 36
REMARK Flexibility Score: inf
ROOT
ATOM      1  C   UNL A   1      33.392  29.038  23.568  1.00  0.00     0.188 C 
ENDROOT
BRANCH   1   2
ATOM      2  O   UNL A   1      33.562  29.347  24.947  1.00  0.00    -0.376 OA
BRANCH   2   3
ATOM      3  C   UNL A   1      32.403  29.826  25.611  1.00  0.00     0.202 C 
BRANCH   3   4
ATOM      4  C   UNL A   1      32.743  30.562  26.903  1.00  0.00     0.261 C 
BRANCH   4   5
ATOM      5  O   UNL A   1      34.100  30.417  27.368  1.00  0.00    -0.460 OA
BRANCH   5   6
ATOM      6  C   UNL A   1      34.960  31.332  27.855  1.00  0.00     0.338 C 
ATOM      7  O   UNL A   1      34.808  32.523  27.598  1.00  0.00    -0.246 OA
BRANCH   6   8
ATOM      8  C   UNL A   1      36.209  30.931  28.542  1.00  0.00     0.060 A 
ATOM      9  C   UNL A   1      37.300  31.779  28.727  1.00  0.00     0.016 A 
ATOM     10  C   UNL A   1      36.317  29.575  28.904  1.00  0.00     0.016 A 
ATOM     11  C   UNL A   1      38.488  31.282  29.254  1.00  0.00     0.010 A 
ATOM     12  C   UNL A   1      37.513  29.068  29.404  1.00  0.00     0.010 A 
ATOM     13  C   UNL A   1      38.615  29.918  29.535  1.00  0.00    -0.014 A 
BRANCH  13  14
ATOM     14  C   UNL A   1      39.968  29.408  29.763  1.00  0.00     0.031 A 
ATOM     15  C   UNL A   1      40.590  29.518  31.112  1.00  0.00     0.074 A 
ATOM     16  C   UNL A   1      40.640  28.787  28.772  1.00  0.00     0.049 A 
ATOM     17  N   UNL A   1      41.764  29.975  31.422  1.00  0.00    -0.248 NA
ATOM     18  C   UNL A   1      39.823  29.025  32.263  1.00  0.00     0.031 C 
ATOM     19  C   UNL A   1      40.104  28.344  27.481  1.00  0.00     0.029 A 
ATOM     20  N   UNL A   1      41.925  28.321  28.760  1.00  0.00    -0.354 N 
ATOM     21  C   UNL A   1      41.959  29.677  32.770  1.00  0.00     0.074 A 
ATOM     22  C   UNL A   1      40.715  29.127  33.250  1.00  0.00     0.031 C 
ATOM     23  C   UNL A   1      40.977  27.490  26.910  1.00  0.00     0.029 A 
ATOM     24  C   UNL A   1      42.176  27.431  27.729  1.00  0.00     0.049 A 
ATOM     25  H   UNL A   1      42.605  28.592  29.417  1.00  0.00     0.167 HD
ATOM     26  C   UNL A   1      43.174  29.760  33.379  1.00  0.00     0.031 A 
ATOM     27  C   UNL A   1      43.260  26.641  27.567  1.00  0.00     0.031 A 
ATOM     28  C   UNL A   1      44.091  30.615  32.682  1.00  0.00     0.049 A 
ATOM     29  C   UNL A   1      44.373  27.178  28.370  1.00  0.00     0.074 A 
ATOM     30  C   UNL A   1      44.130  31.953  32.353  1.00  0.00     0.029 A 
ATOM     31  N   UNL A   1      45.119  30.026  31.993  1.00  0.00    -0.354 N 
ATOM     32  N   UNL A   1      45.014  28.276  28.093  1.00  0.00    -0.248 NA
ATOM     33  C   UNL A   1      44.628  26.625  29.692  1.00  0.00     0.031 C 
ATOM     34  C   UNL A   1      44.911  32.030  31.164  1.00  0.00     0.029 A 
ATOM     35  C   UNL A   1      45.283  30.728  30.828  1.00  0.00     0.049 A 
ATOM     36  H   UNL A   1      45.642  29.243  32.281  1.00  0.00     0.167 HD
ATOM     37  C   UNL A   1      45.426  28.764  29.320  1.00  0.00     0.074 A 
ATOM     38  C   UNL A   1      45.316  27.634  30.231  1.00  0.00     0.031 C 
ATOM     39  C   UNL A   1      45.534  30.107  29.545  1.00  0.00     0.031 A 
BRANCH  26  40
ATOM     40  C   UNL A   1      43.644  28.827  34.470  1.00  0.00    -0.014 A 
ATOM     41  C   UNL A   1      44.153  29.363  35.669  1.00  0.00     0.009 A 
ATOM     42  C   UNL A   1      43.868  27.456  34.249  1.00  0.00     0.009 A 
ATOM     43  C   UNL A   1      44.886  28.579  36.571  1.00  0.00     0.001 A 
ATOM     44  C   UNL A   1      44.566  26.661  35.165  1.00  0.00     0.001 A 
ATOM     45  C   UNL A   1      45.095  27.227  36.316  1.00  0.00     0.000 A 
ENDBRANCH  26  40
BRANCH  27  46
ATOM     46  C   UNL A   1      43.321  25.340  26.875  1.00  0.00    -0.014 A 
ATOM     47  C   UNL A   1      42.891  24.161  27.497  1.00  0.00     0.009 A 
ATOM     48  C   UNL A   1      43.621  25.288  25.500  1.00  0.00     0.009 A 
ATOM     49  C   UNL A   1      42.764  22.973  26.766  1.00  0.00     0.001 A 
ATOM     50  C   UNL A   1      43.506  24.102  24.772  1.00  0.00     0.001 A 
ATOM     51  C   UNL A   1      43.069  22.945  25.405  1.00  0.00     0.000 A 
ENDBRANCH  27  46
BRANCH  39  52
ATOM     52  C   UNL A   1      45.540  31.024  28.347  1.00  0.00    -0.014 A 
ATOM     53  C   UNL A   1      44.354  31.527  27.787  1.00  0.00     0.009 A 
ATOM     54  C   UNL A   1      46.764  31.512  27.868  1.00  0.00     0.009 A 
ATOM     55  C   UNL A   1      44.391  32.462  26.750  1.00  0.00     0.001 A 
ATOM     56  C   UNL A   1      46.802  32.464  26.846  1.00  0.00     0.001 A 
ATOM     57  C   UNL A   1      45.616  32.934  26.283  1.00  0.00     0.000 A 
ENDBRANCH  39  52
ENDBRANCH  13  14
ENDBRANCH   6   8
ENDBRANCH   5   6
ENDBRANCH   4   5
ENDBRANCH   3   4
ENDBRANCH   2   3
ENDBRANCH   1   2
BRANCH   1  58
ATOM     58  C   UNL A   1      33.867  27.628  23.159  1.00  0.00     0.188 C 
BRANCH  58  59
ATOM     59  O   UNL A   1      33.691  27.098  21.847  1.00  0.00    -0.376 OA
BRANCH  59  60
ATOM     60  C   UNL A   1      32.615  26.224  21.567  1.00  0.00     0.202 C 
BRANCH  60  61
ATOM     61  C   UNL A   1      31.254  26.836  21.904  1.00  0.00     0.261 C 
BRANCH  61  62
ATOM     62  O   UNL A   1      30.475  26.043  22.815  1.00  0.00    -0.458 OA
BRANCH  62  63
ATOM     63  C   UNL A   1      30.513  26.455  24.119  1.00  0.00     0.358 C 
ATOM     64  O   UNL A   1      30.186  27.565  24.516  1.00  0.00    -0.244 OA
BRANCH  63  65
ATOM     65  C   UNL A   1      31.106  25.454  25.015  1.00  0.00     0.170 A 
ATOM     66  C   UNL A   1      30.390  24.771  26.028  1.00  0.00     0.058 A 
ATOM     67  N   UNL A   1      32.367  24.971  24.895  1.00  0.00    -0.159 NA
ATOM     68  C   UNL A   1      31.181  23.702  26.353  1.00  0.00     0.118 A 
ATOM     69  N   UNL A   1      32.324  23.801  25.593  1.00  0.00    -0.222 N 
BRANCH  69  70
ATOM     70  C   UNL A   1      33.270  22.751  25.421  1.00  0.00     0.158 A 
ATOM     71  C   UNL A   1      32.853  21.465  25.133  1.00  0.00     0.078 A 
ATOM     72  N   UNL A   1      34.572  23.105  25.526  1.00  0.00    -0.209 NA
ATOM     73  C   UNL A   1      33.871  20.555  24.899  1.00  0.00     0.077 A 
ATOM     74  C   UNL A   1      35.470  22.122  25.401  1.00  0.00     0.165 A 
ATOM     75  N   UNL A   1      35.173  20.858  25.083  1.00  0.00    -0.228 NA
BRANCH  73  76
ATOM     76  C   UNL A   1      33.673  19.223  24.318  1.00  0.00     0.003 A 
ATOM     77  C   UNL A   1      32.619  18.981  23.429  1.00  0.00     0.030 A 
ATOM     78  C   UNL A   1      34.618  18.206  24.496  1.00  0.00     0.030 A 
ATOM     79  C   UNL A   1      32.554  17.756  22.784  1.00  0.00     0.111 A 
ATOM     80  C   UNL A   1      34.461  17.010  23.812  1.00  0.00     0.111 A 
ATOM     81  N   UNL A   1      33.441  16.759  22.968  1.00  0.00    -0.265 NA
ENDBRANCH  73  76
BRANCH  74  82
ATOM     82  C   UNL A   1      36.848  22.420  25.745  1.00  0.00     0.055 A 
ATOM     83  C   UNL A   1      37.211  23.696  26.214  1.00  0.00     0.015 A 
ATOM     84  C   UNL A   1      37.843  21.447  25.641  1.00  0.00     0.134 A 
ATOM     85  C   UNL A   1      38.533  23.976  26.574  1.00  0.00     0.001 A 
ATOM     86  C   UNL A   1      39.164  21.722  25.991  1.00  0.00     0.040 A 
ATOM     87  F   UNL A   1      37.546  20.221  25.183  1.00  0.00    -0.206 F 
ATOM     88  C   UNL A   1      39.509  22.987  26.462  1.00  0.00     0.003 A 
ENDBRANCH  74  82
ENDBRANCH  69  70
ENDBRANCH  63  65
ENDBRANCH  62  63
ENDBRANCH  61  62
ENDBRANCH  60  61
ENDBRANCH  59  60
ENDBRANCH  58  59
ENDBRANCH   1  58
TORSDOF 20
ENDMDL
