MODEL 1
REMARK VINA RESULT:     -10.5      0.000      0.000
REMARK SMILES C=CCN1C(=O)/C(=C\c2cccn2-c2ccc(C(=O)OCCOCCOCCOC(=O)c3ccc(-c4c5nc(c(-c6ccccc6)c6ccc([nH]6)c(-c6ccccc6)c6nc(c(-c7ccccc7)c7ccc4[nH]7)C=C6)C=C5)cc3)cc2)C(O)=NC1=S
REMARK SMILES IDX 24 1 23 2 22 3 21 4 20 5 18 6 19 7 17 8 14 9 15 10 81 11
REMARK SMILES IDX 16 12 80 13 13 14 9 15 10 16 11 17 12 18 8 19 4 20 5 21
REMARK SMILES IDX 85 22 6 23 7 24 84 25 86 26 82 27 3 28 2 29 1 30 83 31 25 33
REMARK SMILES IDX 26 34 27 35 28 36 29 37 30 38 31 39 32 40 33 41 79 42 34 43
REMARK SMILES IDX 78 44 35 45 36 46 37 47 72 48 38 49 77 50 71 51 73 52 39 53
REMARK SMILES IDX 76 54 70 55 69 56 40 58 62 59 47 60 61 61 48 62 51 63 60 64
REMARK SMILES IDX 74 65 49 66 50 67 59 69 75 70 52 71 41 72 42 73 46 74 43 75
REMARK SMILES IDX 45 76 44 77 63 78 64 79 68 80 65 81 67 82 66 83 53 84 54 85
REMARK SMILES IDX 58 86 55 87 57 88 56 89
REMARK H PARENT 83 32 73 57 51 68
REMARK Flexibility Score: inf
ROOT
ATOM      1  C   UNL A   1      33.564  27.155  24.127  1.00  0.00     0.188 C 
ENDROOT
BRANCH   1   2
ATOM      2  O   UNL A   1      33.872  25.818  23.764  1.00  0.00    -0.376 OA
BRANCH   2   3
ATOM      3  C   UNL A   1      33.472  25.442  22.451  1.00  0.00     0.202 C 
BRANCH   3   4
ATOM      4  C   UNL A   1      32.869  24.036  22.284  1.00  0.00     0.261 C 
BRANCH   4   5
ATOM      5  O   UNL A   1      33.777  22.934  22.437  1.00  0.00    -0.460 OA
BRANCH   5   6
ATOM      6  C   UNL A   1      33.789  22.293  23.623  1.00  0.00     0.338 C 
ATOM      7  O   UNL A   1      32.971  21.478  24.020  1.00  0.00    -0.246 OA
BRANCH   6   8
ATOM      8  C   UNL A   1      35.053  22.611  24.334  1.00  0.00     0.060 A 
ATOM      9  C   UNL A   1      37.369  23.266  25.749  1.00  0.00     0.046 A 
ATOM     10  C   UNL A   1      36.209  22.916  26.448  1.00  0.00     0.027 A 
ATOM     11  C   UNL A   1      37.396  23.223  24.347  1.00  0.00     0.027 A 
ATOM     12  C   UNL A   1      35.043  22.623  25.736  1.00  0.00     0.018 A 
ATOM     13  C   UNL A   1      36.240  22.877  23.639  1.00  0.00     0.018 A 
BRANCH   9  14
ATOM     14  N   UNL A   1      38.496  23.740  26.471  1.00  0.00    -0.317 N 
ATOM     15  C   UNL A   1      39.590  22.989  26.895  1.00  0.00     0.047 A 
ATOM     16  C   UNL A   1      40.456  23.839  27.561  1.00  0.00     0.028 A 
ATOM     17  C   UNL A   1      39.920  25.144  27.490  1.00  0.00     0.020 A 
ATOM     18  C   UNL A   1      38.743  25.063  26.781  1.00  0.00     0.092 A 
BRANCH  15  19
ATOM     19  C   UNL A   1      39.739  21.633  26.497  1.00  0.00     0.046 C 
ATOM     20  N   UNL A   1      43.296  21.102  26.056  1.00  0.00    -0.279 N 
ATOM     21  C   UNL A   1      42.218  21.604  26.783  1.00  0.00     0.265 C 
ATOM     22  C   UNL A   1      43.255  19.867  25.388  1.00  0.00     0.206 C 
ATOM     23  O   UNL A   1      42.313  22.447  27.671  1.00  0.00    -0.268 OA
ATOM     24  C   UNL A   1      40.918  20.989  26.430  1.00  0.00     0.104 C 
ATOM     25  N   UNL A   1      42.108  19.112  25.456  1.00  0.00    -0.184 NA
ATOM     26  S   UNL A   1      44.558  19.223  24.516  1.00  0.00    -0.038 S 
ATOM     27  C   UNL A   1      41.030  19.627  25.915  1.00  0.00     0.226 C 
BRANCH  20  28
ATOM     28  C   UNL A   1      44.488  21.951  26.081  1.00  0.00     0.155 C 
BRANCH  28  29
ATOM     29  C   UNL A   1      44.376  22.942  24.950  1.00  0.00    -0.013 C 
ATOM     30  C   UNL A   1      45.117  22.898  23.833  1.00  0.00     0.006 C 
ENDBRANCH  28  29
ENDBRANCH  20  28
BRANCH  27  31
ATOM     31  O   UNL A   1      39.940  18.840  25.966  1.00  0.00    -0.493 OA
ATOM     32  H   UNL A   1      39.408  18.726  25.203  1.00  0.00     0.295 HD
ENDBRANCH  27  31
ENDBRANCH  15  19
ENDBRANCH   9  14
ENDBRANCH   6   8
ENDBRANCH   5   6
ENDBRANCH   4   5
ENDBRANCH   3   4
ENDBRANCH   2   3
ENDBRANCH   1   2
BRANCH   1  33
ATOM     33  C   UNL A   1      32.605  27.840  23.145  1.00  0.00     0.188 C 
BRANCH  33  34
ATOM     34  O   UNL A   1      32.090  29.121  23.456  1.00  0.00    -0.376 OA
BRANCH  34  35
ATOM     35  C   UNL A   1      31.217  29.341  24.553  1.00  0.00     0.202 C 
BRANCH  35  36
ATOM     36  C   UNL A   1      31.661  29.852  25.933  1.00  0.00     0.261 C 
BRANCH  36  37
ATOM     37  O   UNL A   1      33.048  30.027  26.179  1.00  0.00    -0.460 OA
BRANCH  37  38
ATOM     38  C   UNL A   1      33.329  30.939  27.121  1.00  0.00     0.338 C 
ATOM     39  O   UNL A   1      32.605  31.823  27.566  1.00  0.00    -0.246 OA
BRANCH  38  40
ATOM     40  C   UNL A   1      34.721  30.763  27.517  1.00  0.00     0.060 A 
ATOM     41  C   UNL A   1      35.154  29.503  27.931  1.00  0.00     0.016 A 
ATOM     42  C   UNL A   1      35.515  31.909  27.656  1.00  0.00     0.016 A 
ATOM     43  C   UNL A   1      36.374  29.401  28.577  1.00  0.00     0.010 A 
ATOM     44  C   UNL A   1      36.711  31.813  28.339  1.00  0.00     0.010 A 
ATOM     45  C   UNL A   1      37.116  30.564  28.826  1.00  0.00    -0.014 A 
BRANCH  45  46
ATOM     46  C   UNL A   1      38.341  30.460  29.636  1.00  0.00     0.031 A 
ATOM     47  C   UNL A   1      39.456  29.690  28.954  1.00  0.00     0.074 A 
ATOM     48  C   UNL A   1      38.289  31.039  30.871  1.00  0.00     0.049 A 
ATOM     49  N   UNL A   1      40.496  29.124  29.481  1.00  0.00    -0.248 NA
ATOM     50  C   UNL A   1      39.394  29.478  27.484  1.00  0.00     0.031 C 
ATOM     51  C   UNL A   1      37.115  31.775  31.386  1.00  0.00     0.029 A 
ATOM     52  N   UNL A   1      39.167  31.130  31.931  1.00  0.00    -0.354 N 
ATOM     53  C   UNL A   1      41.282  28.639  28.422  1.00  0.00     0.074 A 
ATOM     54  C   UNL A   1      40.515  28.807  27.224  1.00  0.00     0.031 C 
ATOM     55  C   UNL A   1      37.320  32.170  32.656  1.00  0.00     0.029 A 
ATOM     56  C   UNL A   1      38.644  31.761  33.083  1.00  0.00     0.049 A 
ATOM     57  H   UNL A   1      40.087  30.782  31.889  1.00  0.00     0.167 HD
ATOM     58  C   UNL A   1      42.574  28.240  28.574  1.00  0.00     0.031 A 
ATOM     59  C   UNL A   1      39.208  31.927  34.316  1.00  0.00     0.031 A 
ATOM     60  C   UNL A   1      42.953  28.211  29.946  1.00  0.00     0.049 A 
ATOM     61  C   UNL A   1      40.595  31.440  34.230  1.00  0.00     0.074 A 
ATOM     62  C   UNL A   1      42.620  27.401  31.002  1.00  0.00     0.029 A 
ATOM     63  N   UNL A   1      43.577  29.331  30.437  1.00  0.00    -0.354 N 
ATOM     64  N   UNL A   1      41.565  32.058  33.629  1.00  0.00    -0.248 NA
ATOM     65  C   UNL A   1      40.935  30.137  34.817  1.00  0.00     0.031 C 
ATOM     66  C   UNL A   1      42.684  28.250  32.133  1.00  0.00     0.029 A 
ATOM     67  C   UNL A   1      43.128  29.509  31.723  1.00  0.00     0.049 A 
ATOM     68  H   UNL A   1      44.224  29.897  29.957  1.00  0.00     0.167 HD
ATOM     69  C   UNL A   1      42.487  31.057  33.437  1.00  0.00     0.074 A 
ATOM     70  C   UNL A   1      42.206  30.045  34.429  1.00  0.00     0.031 C 
ATOM     71  C   UNL A   1      43.021  30.868  32.204  1.00  0.00     0.031 A 
BRANCH  58  72
ATOM     72  C   UNL A   1      43.642  28.087  27.532  1.00  0.00    -0.014 A 
ATOM     73  C   UNL A   1      43.491  27.057  26.579  1.00  0.00     0.009 A 
ATOM     74  C   UNL A   1      44.901  28.695  27.628  1.00  0.00     0.009 A 
ATOM     75  C   UNL A   1      44.568  26.594  25.820  1.00  0.00     0.001 A 
ATOM     76  C   UNL A   1      45.973  28.259  26.839  1.00  0.00     0.001 A 
ATOM     77  C   UNL A   1      45.814  27.190  25.959  1.00  0.00     0.000 A 
ENDBRANCH  58  72
BRANCH  59  78
ATOM     78  C   UNL A   1      38.752  32.421  35.664  1.00  0.00    -0.014 A 
ATOM     79  C   UNL A   1      38.055  31.671  36.615  1.00  0.00     0.009 A 
ATOM     80  C   UNL A   1      39.065  33.752  36.048  1.00  0.00     0.009 A 
ATOM     81  C   UNL A   1      37.761  32.192  37.891  1.00  0.00     0.001 A 
ATOM     82  C   UNL A   1      38.801  34.268  37.319  1.00  0.00     0.001 A 
ATOM     83  C   UNL A   1      38.155  33.478  38.250  1.00  0.00     0.000 A 
ENDBRANCH  59  78
BRANCH  71  84
ATOM     84  C   UNL A   1      42.963  32.089  31.302  1.00  0.00    -0.014 A 
ATOM     85  C   UNL A   1      43.975  33.058  31.348  1.00  0.00     0.009 A 
ATOM     86  C   UNL A   1      41.847  32.357  30.489  1.00  0.00     0.009 A 
ATOM     87  C   UNL A   1      43.865  34.253  30.622  1.00  0.00     0.001 A 
ATOM     88  C   UNL A   1      41.735  33.546  29.759  1.00  0.00     0.001 A 
ATOM     89  C   UNL A   1      42.744  34.498  29.831  1.00  0.00     0.000 A 
ENDBRANCH  71  84
ENDBRANCH  45  46
ENDBRANCH  38  40
ENDBRANCH  37  38
ENDBRANCH  36  37
ENDBRANCH  35  36
ENDBRANCH  34  35
ENDBRANCH  33  34
ENDBRANCH   1  33
TORSDOF 22
ENDMDL
MODEL 2
REMARK VINA RESULT:     -10.5      3.128      8.407
REMARK SMILES C=CCN1C(=O)/C(=C\c2cccn2-c2ccc(C(=O)OCCOCCOCCOC(=O)c3ccc(-c4c5nc(c(-c6ccccc6)c6ccc([nH]6)c(-c6ccccc6)c6nc(c(-c7ccccc7)c7ccc4[nH]7)C=C6)C=C5)cc3)cc2)C(O)=NC1=S
REMARK SMILES IDX 24 1 23 2 22 3 21 4 20 5 18 6 19 7 17 8 14 9 15 10 81 11
REMARK SMILES IDX 16 12 80 13 13 14 9 15 10 16 11 17 12 18 8 19 4 20 5 21
REMARK SMILES IDX 85 22 6 23 7 24 84 25 86 26 82 27 3 28 2 29 1 30 83 31 25 33
REMARK SMILES IDX 26 34 27 35 28 36 29 37 30 38 31 39 32 40 33 41 79 42 34 43
REMARK SMILES IDX 78 44 35 45 36 46 37 47 72 48 38 49 77 50 71 51 73 52 39 53
REMARK SMILES IDX 76 54 70 55 69 56 40 58 62 59 47 60 61 61 48 62 51 63 60 64
REMARK SMILES IDX 74 65 49 66 50 67 59 69 75 70 52 71 41 72 42 73 46 74 43 75
REMARK SMILES IDX 45 76 44 77 63 78 64 79 68 80 65 81 67 82 66 83 53 84 54 85
REMARK SMILES IDX 58 86 55 87 57 88 56 89
REMARK H PARENT 83 32 73 57 51 68
REMARK Flexibility Score: inf
ROOT
ATOM      1  C   UNL A   1      42.427  19.527  25.966  1.00  0.00     0.188 C 
ENDROOT
BRANCH   1   2
ATOM      2  O   UNL A   1      42.264  20.629  26.846  1.00  0.00    -0.376 OA
BRANCH   2   3
ATOM      3  C   UNL A   1      40.915  20.993  27.113  1.00  0.00     0.202 C 
BRANCH   3   4
ATOM      4  C   UNL A   1      40.363  22.216  26.360  1.00  0.00     0.261 C 
BRANCH   4   5
ATOM      5  O   UNL A   1      38.938  22.395  26.401  1.00  0.00    -0.460 OA
BRANCH   5   6
ATOM      6  C   UNL A   1      38.205  21.806  25.434  1.00  0.00     0.338 C 
ATOM      7  O   UNL A   1      38.348  20.675  24.998  1.00  0.00    -0.246 OA
BRANCH   6   8
ATOM      8  C   UNL A   1      37.073  22.696  25.074  1.00  0.00     0.060 A 
ATOM      9  C   UNL A   1      34.983  24.373  24.288  1.00  0.00     0.046 A 
ATOM     10  C   UNL A   1      35.413  23.357  23.428  1.00  0.00     0.027 A 
ATOM     11  C   UNL A   1      35.547  24.511  25.565  1.00  0.00     0.027 A 
ATOM     12  C   UNL A   1      36.482  22.543  23.811  1.00  0.00     0.018 A 
ATOM     13  C   UNL A   1      36.581  23.658  25.965  1.00  0.00     0.018 A 
BRANCH   9  14
ATOM     14  N   UNL A   1      34.025  25.313  23.825  1.00  0.00    -0.317 N 
ATOM     15  C   UNL A   1      33.046  25.096  22.858  1.00  0.00     0.047 A 
ATOM     16  C   UNL A   1      32.329  26.270  22.709  1.00  0.00     0.028 A 
ATOM     17  C   UNL A   1      32.830  27.204  23.644  1.00  0.00     0.020 A 
ATOM     18  C   UNL A   1      33.838  26.579  24.343  1.00  0.00     0.092 A 
BRANCH  15  19
ATOM     19  C   UNL A   1      32.828  23.797  22.322  1.00  0.00     0.046 C 
ATOM     20  N   UNL A   1      32.028  21.671  25.145  1.00  0.00    -0.279 N 
ATOM     21  C   UNL A   1      31.882  22.860  24.433  1.00  0.00     0.265 C 
ATOM     22  C   UNL A   1      32.146  20.419  24.520  1.00  0.00     0.206 C 
ATOM     23  O   UNL A   1      31.402  23.892  24.896  1.00  0.00    -0.268 OA
ATOM     24  C   UNL A   1      32.311  22.769  23.018  1.00  0.00     0.104 C 
ATOM     25  N   UNL A   1      32.110  20.354  23.147  1.00  0.00    -0.184 NA
ATOM     26  S   UNL A   1      32.304  18.956  25.362  1.00  0.00    -0.038 S 
ATOM     27  C   UNL A   1      32.203  21.427  22.454  1.00  0.00     0.226 C 
BRANCH  20  28
ATOM     28  C   UNL A   1      32.007  21.833  26.600  1.00  0.00     0.155 C 
BRANCH  28  29
ATOM     29  C   UNL A   1      33.378  22.283  27.037  1.00  0.00    -0.013 C 
ATOM     30  C   UNL A   1      34.403  21.452  27.275  1.00  0.00     0.006 C 
ENDBRANCH  28  29
ENDBRANCH  20  28
BRANCH  27  31
ATOM     31  O   UNL A   1      32.153  21.306  21.116  1.00  0.00    -0.493 OA
ATOM     32  H   UNL A   1      32.700  21.842  20.576  1.00  0.00     0.295 HD
ENDBRANCH  27  31
ENDBRANCH  15  19
ENDBRANCH   9  14
ENDBRANCH   6   8
ENDBRANCH   5   6
ENDBRANCH   4   5
ENDBRANCH   3   4
ENDBRANCH   2   3
ENDBRANCH   1   2
BRANCH   1  33
ATOM     33  C   UNL A   1      43.879  19.327  25.514  1.00  0.00     0.188 C 
BRANCH  33  34
ATOM     34  O   UNL A   1      44.373  20.069  24.415  1.00  0.00    -0.376 OA
BRANCH  34  35
ATOM     35  C   UNL A   1      45.456  20.978  24.540  1.00  0.00     0.202 C 
BRANCH  35  36
ATOM     36  C   UNL A   1      45.561  22.068  25.620  1.00  0.00     0.261 C 
BRANCH  36  37
ATOM     37  O   UNL A   1      45.227  23.403  25.273  1.00  0.00    -0.460 OA
BRANCH  37  38
ATOM     38  C   UNL A   1      43.914  23.673  25.325  1.00  0.00     0.338 C 
ATOM     39  O   UNL A   1      43.031  23.312  24.555  1.00  0.00    -0.246 OA
BRANCH  38  40
ATOM     40  C   UNL A   1      43.682  24.563  26.456  1.00  0.00     0.060 A 
ATOM     41  C   UNL A   1      42.928  24.105  27.536  1.00  0.00     0.016 A 
ATOM     42  C   UNL A   1      44.056  25.906  26.321  1.00  0.00     0.016 A 
ATOM     43  C   UNL A   1      42.465  25.027  28.459  1.00  0.00     0.010 A 
ATOM     44  C   UNL A   1      43.557  26.831  27.218  1.00  0.00     0.010 A 
ATOM     45  C   UNL A   1      42.735  26.388  28.262  1.00  0.00    -0.014 A 
BRANCH  45  46
ATOM     46  C   UNL A   1      42.120  27.369  29.171  1.00  0.00     0.031 A 
ATOM     47  C   UNL A   1      42.891  27.567  30.462  1.00  0.00     0.074 A 
ATOM     48  C   UNL A   1      40.953  27.929  28.740  1.00  0.00     0.049 A 
ATOM     49  N   UNL A   1      42.481  28.060  31.589  1.00  0.00    -0.248 NA
ATOM     50  C   UNL A   1      44.306  27.120  30.534  1.00  0.00     0.031 C 
ATOM     51  C   UNL A   1      40.333  27.635  27.431  1.00  0.00     0.029 A 
ATOM     52  N   UNL A   1      40.055  28.826  29.282  1.00  0.00    -0.354 N 
ATOM     53  C   UNL A   1      43.599  28.134  32.437  1.00  0.00     0.074 A 
ATOM     54  C   UNL A   1      44.673  27.463  31.768  1.00  0.00     0.031 C 
ATOM     55  C   UNL A   1      39.153  28.272  27.309  1.00  0.00     0.029 A 
ATOM     56  C   UNL A   1      38.900  29.058  28.500  1.00  0.00     0.049 A 
ATOM     57  H   UNL A   1      40.207  29.271  30.147  1.00  0.00     0.167 HD
ATOM     58  C   UNL A   1      43.613  28.854  33.591  1.00  0.00     0.031 A 
ATOM     59  C   UNL A   1      37.792  29.803  28.785  1.00  0.00     0.031 A 
ATOM     60  C   UNL A   1      42.320  29.360  33.906  1.00  0.00     0.049 A 
ATOM     61  C   UNL A   1      38.047  30.493  30.060  1.00  0.00     0.074 A 
ATOM     62  C   UNL A   1      41.153  28.777  34.330  1.00  0.00     0.029 A 
ATOM     63  N   UNL A   1      42.041  30.639  33.488  1.00  0.00    -0.354 N 
ATOM     64  N   UNL A   1      38.847  31.503  30.213  1.00  0.00    -0.248 NA
ATOM     65  C   UNL A   1      37.399  30.001  31.283  1.00  0.00     0.031 C 
ATOM     66  C   UNL A   1      40.131  29.581  33.769  1.00  0.00     0.029 A 
ATOM     67  C   UNL A   1      40.723  30.655  33.100  1.00  0.00     0.049 A 
ATOM     68  H   UNL A   1      42.667  31.398  33.472  1.00  0.00     0.167 HD
ATOM     69  C   UNL A   1      39.084  31.497  31.567  1.00  0.00     0.074 A 
ATOM     70  C   UNL A   1      37.969  30.809  32.175  1.00  0.00     0.031 C 
ATOM     71  C   UNL A   1      40.362  31.547  32.021  1.00  0.00     0.031 A 
BRANCH  58  72
ATOM     72  C   UNL A   1      44.789  29.356  34.376  1.00  0.00    -0.014 A 
ATOM     73  C   UNL A   1      44.838  29.056  35.755  1.00  0.00     0.009 A 
ATOM     74  C   UNL A   1      45.669  30.336  33.900  1.00  0.00     0.009 A 
ATOM     75  C   UNL A   1      45.661  29.766  36.632  1.00  0.00     0.001 A 
ATOM     76  C   UNL A   1      46.524  31.022  34.772  1.00  0.00     0.001 A 
ATOM     77  C   UNL A   1      46.498  30.758  36.140  1.00  0.00     0.000 A 
ENDBRANCH  58  72
BRANCH  59  78
ATOM     78  C   UNL A   1      36.443  30.031  28.155  1.00  0.00    -0.014 A 
ATOM     79  C   UNL A   1      35.603  29.037  27.645  1.00  0.00     0.009 A 
ATOM     80  C   UNL A   1      35.934  31.355  28.083  1.00  0.00     0.009 A 
ATOM     81  C   UNL A   1      34.312  29.340  27.167  1.00  0.00     0.001 A 
ATOM     82  C   UNL A   1      34.646  31.660  27.636  1.00  0.00     0.001 A 
ATOM     83  C   UNL A   1      33.826  30.644  27.185  1.00  0.00     0.000 A 
ENDBRANCH  59  78
BRANCH  71  84
ATOM     84  C   UNL A   1      41.355  32.137  31.035  1.00  0.00    -0.014 A 
ATOM     85  C   UNL A   1      42.489  31.411  30.646  1.00  0.00     0.009 A 
ATOM     86  C   UNL A   1      41.247  33.462  30.577  1.00  0.00     0.009 A 
ATOM     87  C   UNL A   1      43.481  31.996  29.845  1.00  0.00     0.001 A 
ATOM     88  C   UNL A   1      42.232  34.048  29.774  1.00  0.00     0.001 A 
ATOM     89  C   UNL A   1      43.354  33.314  29.412  1.00  0.00     0.000 A 
ENDBRANCH  71  84
ENDBRANCH  45  46
ENDBRANCH  38  40
ENDBRANCH  37  38
ENDBRANCH  36  37
ENDBRANCH  35  36
ENDBRANCH  34  35
ENDBRANCH  33  34
ENDBRANCH   1  33
TORSDOF 22
ENDMDL
MODEL 3
REMARK VINA RESULT:     -10.1      3.069      5.485
REMARK SMILES C=CCN1C(=O)/C(=C\c2cccn2-c2ccc(C(=O)OCCOCCOCCOC(=O)c3ccc(-c4c5nc(c(-c6ccccc6)c6ccc([nH]6)c(-c6ccccc6)c6nc(c(-c7ccccc7)c7ccc4[nH]7)C=C6)C=C5)cc3)cc2)C(O)=NC1=S
REMARK SMILES IDX 24 1 23 2 22 3 21 4 20 5 18 6 19 7 17 8 14 9 15 10 81 11
REMARK SMILES IDX 16 12 80 13 13 14 9 15 10 16 11 17 12 18 8 19 4 20 5 21
REMARK SMILES IDX 85 22 6 23 7 24 84 25 86 26 82 27 3 28 2 29 1 30 83 31 25 33
REMARK SMILES IDX 26 34 27 35 28 36 29 37 30 38 31 39 32 40 33 41 79 42 34 43
REMARK SMILES IDX 78 44 35 45 36 46 37 47 72 48 38 49 77 50 71 51 73 52 39 53
REMARK SMILES IDX 76 54 70 55 69 56 40 58 62 59 47 60 61 61 48 62 51 63 60 64
REMARK SMILES IDX 74 65 49 66 50 67 59 69 75 70 52 71 41 72 42 73 46 74 43 75
REMARK SMILES IDX 45 76 44 77 63 78 64 79 68 80 65 81 67 82 66 83 53 84 54 85
REMARK SMILES IDX 58 86 55 87 57 88 56 89
REMARK H PARENT 83 32 73 57 51 68
REMARK Flexibility Score: inf
ROOT
ATOM      1  C   UNL A   1      33.766  27.646  26.054  1.00  0.00     0.188 C 
ENDROOT
BRANCH   1   2
ATOM      2  O   UNL A   1      33.924  27.291  24.689  1.00  0.00    -0.376 OA
BRANCH   2   3
ATOM      3  C   UNL A   1      34.210  28.374  23.814  1.00  0.00     0.202 C 
BRANCH   3   4
ATOM      4  C   UNL A   1      33.255  28.578  22.624  1.00  0.00     0.261 C 
BRANCH   4   5
ATOM      5  O   UNL A   1      32.027  29.267  22.908  1.00  0.00    -0.460 OA
BRANCH   5   6
ATOM      6  C   UNL A   1      30.874  28.660  22.559  1.00  0.00     0.338 C 
ATOM      7  O   UNL A   1      30.163  28.939  21.607  1.00  0.00    -0.246 OA
BRANCH   6   8
ATOM      8  C   UNL A   1      30.668  27.474  23.428  1.00  0.00     0.060 A 
ATOM      9  C   UNL A   1      30.342  25.298  25.146  1.00  0.00     0.046 A 
ATOM     10  C   UNL A   1      30.296  26.596  25.662  1.00  0.00     0.027 A 
ATOM     11  C   UNL A   1      30.482  25.084  23.767  1.00  0.00     0.027 A 
ATOM     12  C   UNL A   1      30.493  27.682  24.804  1.00  0.00     0.018 A 
ATOM     13  C   UNL A   1      30.627  26.176  22.904  1.00  0.00     0.018 A 
BRANCH   9  14
ATOM     14  N   UNL A   1      30.325  24.196  26.042  1.00  0.00    -0.317 N 
ATOM     15  C   UNL A   1      31.408  23.398  26.402  1.00  0.00     0.047 A 
ATOM     16  C   UNL A   1      30.954  22.443  27.294  1.00  0.00     0.028 A 
ATOM     17  C   UNL A   1      29.585  22.696  27.538  1.00  0.00     0.020 A 
ATOM     18  C   UNL A   1      29.236  23.800  26.794  1.00  0.00     0.092 A 
BRANCH  15  19
ATOM     19  C   UNL A   1      32.725  23.727  25.980  1.00  0.00     0.046 C 
ATOM     20  N   UNL A   1      34.251  20.610  24.936  1.00  0.00    -0.279 N 
ATOM     21  C   UNL A   1      33.176  21.497  24.953  1.00  0.00     0.265 C 
ATOM     22  C   UNL A   1      35.587  21.035  24.852  1.00  0.00     0.206 C 
ATOM     23  O   UNL A   1      32.025  21.199  24.644  1.00  0.00    -0.268 OA
ATOM     24  C   UNL A   1      33.545  22.881  25.331  1.00  0.00     0.104 C 
ATOM     25  N   UNL A   1      35.854  22.381  24.774  1.00  0.00    -0.184 NA
ATOM     26  S   UNL A   1      36.911  19.977  24.807  1.00  0.00    -0.038 S 
ATOM     27  C   UNL A   1      34.926  23.231  25.011  1.00  0.00     0.226 C 
BRANCH  20  28
ATOM     28  C   UNL A   1      33.868  19.198  24.973  1.00  0.00     0.155 C 
BRANCH  28  29
ATOM     29  C   UNL A   1      33.347  18.822  23.608  1.00  0.00    -0.013 C 
ATOM     30  C   UNL A   1      33.263  17.564  23.154  1.00  0.00     0.006 C 
ENDBRANCH  28  29
ENDBRANCH  20  28
BRANCH  27  31
ATOM     31  O   UNL A   1      35.241  24.535  24.913  1.00  0.00    -0.493 OA
ATOM     32  H   UNL A   1      34.885  25.150  25.524  1.00  0.00     0.295 HD
ENDBRANCH  27  31
ENDBRANCH  15  19
ENDBRANCH   9  14
ENDBRANCH   6   8
ENDBRANCH   5   6
ENDBRANCH   4   5
ENDBRANCH   3   4
ENDBRANCH   2   3
ENDBRANCH   1   2
BRANCH   1  33
ATOM     33  C   UNL A   1      33.729  29.163  26.281  1.00  0.00     0.188 C 
BRANCH  33  34
ATOM     34  O   UNL A   1      32.552  29.760  26.792  1.00  0.00    -0.376 OA
BRANCH  34  35
ATOM     35  C   UNL A   1      32.381  31.168  26.852  1.00  0.00     0.202 C 
BRANCH  35  36
ATOM     36  C   UNL A   1      33.198  32.109  27.752  1.00  0.00     0.261 C 
BRANCH  36  37
ATOM     37  O   UNL A   1      33.269  33.485  27.410  1.00  0.00    -0.460 OA
BRANCH  37  38
ATOM     38  C   UNL A   1      33.241  34.316  28.463  1.00  0.00     0.338 C 
ATOM     39  O   UNL A   1      32.417  35.186  28.723  1.00  0.00    -0.246 OA
BRANCH  38  40
ATOM     40  C   UNL A   1      34.433  34.068  29.264  1.00  0.00     0.060 A 
ATOM     41  C   UNL A   1      35.689  34.259  28.689  1.00  0.00     0.016 A 
ATOM     42  C   UNL A   1      34.268  33.457  30.514  1.00  0.00     0.016 A 
ATOM     43  C   UNL A   1      36.800  33.751  29.339  1.00  0.00     0.010 A 
ATOM     44  C   UNL A   1      35.372  32.911  31.140  1.00  0.00     0.010 A 
ATOM     45  C   UNL A   1      36.627  33.032  30.530  1.00  0.00    -0.014 A 
BRANCH  45  46
ATOM     46  C   UNL A   1      37.798  32.377  31.136  1.00  0.00     0.031 A 
ATOM     47  C   UNL A   1      38.113  31.021  30.537  1.00  0.00     0.074 A 
ATOM     48  C   UNL A   1      38.404  33.062  32.150  1.00  0.00     0.049 A 
ATOM     49  N   UNL A   1      38.818  30.053  31.035  1.00  0.00    -0.248 NA
ATOM     50  C   UNL A   1      37.536  30.663  29.215  1.00  0.00     0.031 C 
ATOM     51  C   UNL A   1      37.975  34.400  32.610  1.00  0.00     0.029 A 
ATOM     52  N   UNL A   1      39.464  32.800  32.992  1.00  0.00    -0.354 N 
ATOM     53  C   UNL A   1      38.905  29.056  30.048  1.00  0.00     0.074 A 
ATOM     54  C   UNL A   1      38.028  29.446  28.985  1.00  0.00     0.031 C 
ATOM     55  C   UNL A   1      38.705  34.795  33.670  1.00  0.00     0.029 A 
ATOM     56  C   UNL A   1      39.691  33.780  33.985  1.00  0.00     0.049 A 
ATOM     57  H   UNL A   1      40.020  31.992  32.908  1.00  0.00     0.167 HD
ATOM     58  C   UNL A   1      39.792  28.026  30.105  1.00  0.00     0.031 A 
ATOM     59  C   UNL A   1      40.585  33.782  35.018  1.00  0.00     0.031 A 
ATOM     60  C   UNL A   1      40.476  27.995  31.354  1.00  0.00     0.049 A 
ATOM     61  C   UNL A   1      41.436  32.591  34.860  1.00  0.00     0.074 A 
ATOM     62  C   UNL A   1      40.093  27.685  32.634  1.00  0.00     0.029 A 
ATOM     63  N   UNL A   1      41.695  28.625  31.404  1.00  0.00    -0.354 N 
ATOM     64  N   UNL A   1      42.367  32.455  33.966  1.00  0.00    -0.248 NA
ATOM     65  C   UNL A   1      41.213  31.430  35.731  1.00  0.00     0.031 C 
ATOM     66  C   UNL A   1      40.902  28.507  33.454  1.00  0.00     0.029 A 
ATOM     67  C   UNL A   1      41.789  29.217  32.641  1.00  0.00     0.049 A 
ATOM     68  H   UNL A   1      42.372  28.648  30.690  1.00  0.00     0.167 HD
ATOM     69  C   UNL A   1      42.549  31.093  33.925  1.00  0.00     0.074 A 
ATOM     70  C   UNL A   1      42.086  30.580  35.194  1.00  0.00     0.031 C 
ATOM     71  C   UNL A   1      42.534  30.453  32.729  1.00  0.00     0.031 A 
BRANCH  58  72
ATOM     72  C   UNL A   1      40.284  27.143  28.997  1.00  0.00    -0.014 A 
ATOM     73  C   UNL A   1      41.042  27.739  27.965  1.00  0.00     0.009 A 
ATOM     74  C   UNL A   1      39.793  25.850  28.770  1.00  0.00     0.009 A 
ATOM     75  C   UNL A   1      41.225  27.110  26.732  1.00  0.00     0.001 A 
ATOM     76  C   UNL A   1      40.010  25.202  27.547  1.00  0.00     0.001 A 
ATOM     77  C   UNL A   1      40.699  25.844  26.520  1.00  0.00     0.000 A 
ENDBRANCH  58  72
BRANCH  59  78
ATOM     78  C   UNL A   1      40.852  34.644  36.224  1.00  0.00    -0.014 A 
ATOM     79  C   UNL A   1      42.034  35.343  36.481  1.00  0.00     0.009 A 
ATOM     80  C   UNL A   1      39.825  34.807  37.191  1.00  0.00     0.009 A 
ATOM     81  C   UNL A   1      42.151  36.207  37.589  1.00  0.00     0.001 A 
ATOM     82  C   UNL A   1      39.923  35.681  38.277  1.00  0.00     0.001 A 
ATOM     83  C   UNL A   1      41.090  36.394  38.470  1.00  0.00     0.000 A 
ENDBRANCH  59  78
BRANCH  71  84
ATOM     84  C   UNL A   1      42.853  31.341  31.539  1.00  0.00    -0.014 A 
ATOM     85  C   UNL A   1      44.183  31.573  31.160  1.00  0.00     0.009 A 
ATOM     86  C   UNL A   1      41.852  32.056  30.858  1.00  0.00     0.009 A 
ATOM     87  C   UNL A   1      44.495  32.497  30.151  1.00  0.00     0.001 A 
ATOM     88  C   UNL A   1      42.158  32.975  29.847  1.00  0.00     0.001 A 
ATOM     89  C   UNL A   1      43.485  33.199  29.498  1.00  0.00     0.000 A 
ENDBRANCH  71  84
ENDBRANCH  45  46
ENDBRANCH  38  40
ENDBRANCH  37  38
ENDBRANCH  36  37
ENDBRANCH  35  36
ENDBRANCH  34  35
ENDBRANCH  33  34
ENDBRANCH   1  33
TORSDOF 22
ENDMDL
