MODEL 1
REMARK VINA RESULT:      -8.9      0.000      0.000
REMARK SMILES C#CCN(CC(=O)OCCOCCOCCOC(=O)c1ccc(-c2c3nc(c(-c4ccccc4)c4ccc([nH]4)c(-c4ccccc4)c4nc(c(-c5ccccc5)c5ccc2[nH]5)C=C4)C=C3)cc1)C(=O)Cc1csc(-c2ccsc2)n1
REMARK SMILES IDX 11 1 10 2 9 3 8 4 6 5 7 6 5 7 4 8 3 9 2 10 1 11 68 12 69 13
REMARK SMILES IDX 70 14 71 15 72 16 80 17 73 18 74 19 75 20 76 21 79 22 77 23
REMARK SMILES IDX 78 24 12 25 13 26 14 27 15 28 16 29 17 30 18 31 19 32 20 33
REMARK SMILES IDX 21 34 67 35 22 36 66 37 23 38 24 39 25 40 60 41 26 42 65 43
REMARK SMILES IDX 59 44 61 45 27 46 64 47 58 48 57 49 28 51 50 52 35 53 49 54
REMARK SMILES IDX 36 55 39 56 48 57 62 58 37 59 38 60 47 62 63 63 40 64 29 65
REMARK SMILES IDX 30 66 34 67 31 68 33 69 32 70 51 71 52 72 56 73 53 74 55 75
REMARK SMILES IDX 54 76 41 77 42 78 46 79 43 80 45 81 44 82
REMARK H PARENT 61 50 39 61
REMARK Flexibility Score: inf
ROOT
ATOM      1  O   UNL A   1      34.546  31.583  28.486  1.00  0.00    -0.376 OA
ENDROOT
BRANCH   1   2
ATOM      2  C   UNL A   1      35.232  30.625  27.695  1.00  0.00     0.202 C 
BRANCH   2   3
ATOM      3  C   UNL A   1      34.348  29.536  27.081  1.00  0.00     0.261 C 
BRANCH   3   4
ATOM      4  O   UNL A   1      33.082  30.035  26.591  1.00  0.00    -0.462 OA
BRANCH   4   5
ATOM      5  C   UNL A   1      32.067  29.129  26.539  1.00  0.00     0.325 C 
ATOM      6  O   UNL A   1      31.453  28.726  27.523  1.00  0.00    -0.250 OA
BRANCH   5   7
ATOM      7  C   UNL A   1      31.782  28.574  25.133  1.00  0.00     0.243 C 
BRANCH   7   8
ATOM      8  N   UNL A   1      31.285  27.202  25.021  1.00  0.00    -0.320 N 
BRANCH   8   9
ATOM      9  C   UNL A   1      30.670  26.816  23.757  1.00  0.00     0.210 C 
BRANCH   9  10
ATOM     10  C   UNL A   1      29.839  28.002  23.295  1.00  0.00    -0.085 C 
ATOM     11  C   UNL A   1      29.127  29.020  22.898  1.00  0.00     0.006 C 
ENDBRANCH   9  10
ENDBRANCH   8   9
BRANCH   8  12
ATOM     12  C   UNL A   1      31.376  26.181  25.930  1.00  0.00     0.229 C 
ATOM     13  O   UNL A   1      30.326  25.749  26.441  1.00  0.00    -0.274 OA
BRANCH  12  14
ATOM     14  C   UNL A   1      32.606  25.403  26.291  1.00  0.00     0.157 C 
BRANCH  14  15
ATOM     15  C   UNL A   1      33.443  24.550  25.417  1.00  0.00     0.061 A 
ATOM     16  C   UNL A   1      34.699  24.757  24.880  1.00  0.00     0.091 A 
ATOM     17  N   UNL A   1      33.025  23.229  25.333  1.00  0.00    -0.241 NA
ATOM     18  S   UNL A   1      35.245  23.334  24.076  1.00  0.00    -0.122 S 
ATOM     19  C   UNL A   1      33.902  22.477  24.707  1.00  0.00     0.124 A 
BRANCH  19  20
ATOM     20  C   UNL A   1      33.712  20.991  24.657  1.00  0.00     0.021 A 
ATOM     21  C   UNL A   1      32.423  20.372  24.608  1.00  0.00     0.023 A 
ATOM     22  C   UNL A   1      34.725  20.059  24.694  1.00  0.00     0.076 A 
ATOM     23  C   UNL A   1      32.500  18.998  24.641  1.00  0.00     0.065 A 
ATOM     24  S   UNL A   1      34.120  18.456  24.615  1.00  0.00    -0.152 S 
ENDBRANCH  19  20
ENDBRANCH  14  15
ENDBRANCH  12  14
ENDBRANCH   8  12
ENDBRANCH   7   8
ENDBRANCH   5   7
ENDBRANCH   4   5
ENDBRANCH   3   4
ENDBRANCH   2   3
ENDBRANCH   1   2
BRANCH   1  25
ATOM     25  C   UNL A   1      34.949  32.942  28.379  1.00  0.00     0.188 C 
BRANCH  25  26
ATOM     26  C   UNL A   1      34.163  34.028  29.135  1.00  0.00     0.188 C 
BRANCH  26  27
ATOM     27  O   UNL A   1      34.698  34.528  30.349  1.00  0.00    -0.376 OA
BRANCH  27  28
ATOM     28  C   UNL A   1      34.499  33.773  31.535  1.00  0.00     0.202 C 
BRANCH  28  29
ATOM     29  C   UNL A   1      35.752  33.405  32.332  1.00  0.00     0.261 C 
BRANCH  29  30
ATOM     30  O   UNL A   1      35.701  32.042  32.797  1.00  0.00    -0.460 OA
BRANCH  30  31
ATOM     31  C   UNL A   1      36.829  31.649  33.424  1.00  0.00     0.338 C 
ATOM     32  O   UNL A   1      37.118  31.876  34.601  1.00  0.00    -0.246 OA
BRANCH  31  33
ATOM     33  C   UNL A   1      37.715  30.864  32.541  1.00  0.00     0.060 A 
ATOM     34  C   UNL A   1      38.834  30.209  33.050  1.00  0.00     0.016 A 
ATOM     35  C   UNL A   1      37.539  30.945  31.162  1.00  0.00     0.016 A 
ATOM     36  C   UNL A   1      39.849  29.768  32.192  1.00  0.00     0.010 A 
ATOM     37  C   UNL A   1      38.510  30.423  30.301  1.00  0.00     0.010 A 
ATOM     38  C   UNL A   1      39.713  29.896  30.804  1.00  0.00    -0.014 A 
BRANCH  38  39
ATOM     39  C   UNL A   1      40.855  29.627  29.877  1.00  0.00     0.031 A 
ATOM     40  C   UNL A   1      40.940  28.285  29.186  1.00  0.00     0.074 A 
ATOM     41  C   UNL A   1      41.796  30.554  29.610  1.00  0.00     0.049 A 
ATOM     42  N   UNL A   1      41.935  27.748  28.524  1.00  0.00    -0.248 NA
ATOM     43  C   UNL A   1      39.745  27.426  29.265  1.00  0.00     0.031 C 
ATOM     44  C   UNL A   1      41.799  31.931  30.098  1.00  0.00     0.029 A 
ATOM     45  N   UNL A   1      42.925  30.480  28.827  1.00  0.00    -0.354 N 
ATOM     46  C   UNL A   1      41.525  26.460  28.201  1.00  0.00     0.074 A 
ATOM     47  C   UNL A   1      40.176  26.306  28.702  1.00  0.00     0.031 C 
ATOM     48  C   UNL A   1      42.827  32.592  29.542  1.00  0.00     0.029 A 
ATOM     49  C   UNL A   1      43.617  31.665  28.736  1.00  0.00     0.049 A 
ATOM     50  H   UNL A   1      43.213  29.654  28.374  1.00  0.00     0.167 HD
ATOM     51  C   UNL A   1      42.219  25.481  27.573  1.00  0.00     0.031 A 
ATOM     52  C   UNL A   1      44.762  31.965  28.089  1.00  0.00     0.031 A 
ATOM     53  C   UNL A   1      43.535  25.652  27.020  1.00  0.00     0.049 A 
ATOM     54  C   UNL A   1      45.508  30.866  27.376  1.00  0.00     0.074 A 
ATOM     55  C   UNL A   1      44.353  24.710  26.421  1.00  0.00     0.029 A 
ATOM     56  N   UNL A   1      44.211  26.860  26.969  1.00  0.00    -0.354 N 
ATOM     57  N   UNL A   1      45.166  29.614  27.188  1.00  0.00    -0.248 NA
ATOM     58  C   UNL A   1      46.821  31.220  26.812  1.00  0.00     0.031 C 
ATOM     59  C   UNL A   1      45.537  25.345  26.030  1.00  0.00     0.029 A 
ATOM     60  C   UNL A   1      45.436  26.690  26.349  1.00  0.00     0.049 A 
ATOM     61  H   UNL A   1      43.870  27.714  27.322  1.00  0.00     0.167 HD
ATOM     62  C   UNL A   1      46.218  29.035  26.489  1.00  0.00     0.074 A 
ATOM     63  C   UNL A   1      47.188  30.081  26.243  1.00  0.00     0.031 C 
ATOM     64  C   UNL A   1      46.382  27.744  26.107  1.00  0.00     0.031 A 
BRANCH  51  65
ATOM     65  C   UNL A   1      41.601  24.113  27.538  1.00  0.00    -0.014 A 
ATOM     66  C   UNL A   1      41.966  23.104  28.440  1.00  0.00     0.009 A 
ATOM     67  C   UNL A   1      40.619  23.838  26.570  1.00  0.00     0.009 A 
ATOM     68  C   UNL A   1      41.383  21.836  28.352  1.00  0.00     0.001 A 
ATOM     69  C   UNL A   1      40.021  22.579  26.501  1.00  0.00     0.001 A 
ATOM     70  C   UNL A   1      40.411  21.576  27.385  1.00  0.00     0.000 A 
ENDBRANCH  51  65
BRANCH  52  71
ATOM     71  C   UNL A   1      45.286  33.362  28.076  1.00  0.00    -0.014 A 
ATOM     72  C   UNL A   1      44.951  34.230  27.024  1.00  0.00     0.009 A 
ATOM     73  C   UNL A   1      46.128  33.841  29.090  1.00  0.00     0.009 A 
ATOM     74  C   UNL A   1      45.432  35.541  26.989  1.00  0.00     0.001 A 
ATOM     75  C   UNL A   1      46.590  35.160  29.069  1.00  0.00     0.001 A 
ATOM     76  C   UNL A   1      46.245  36.008  28.017  1.00  0.00     0.000 A 
ENDBRANCH  52  71
BRANCH  64  77
ATOM     77  C   UNL A   1      47.652  27.398  25.383  1.00  0.00    -0.014 A 
ATOM     78  C   UNL A   1      48.816  27.060  26.092  1.00  0.00     0.009 A 
ATOM     79  C   UNL A   1      47.674  27.365  23.981  1.00  0.00     0.009 A 
ATOM     80  C   UNL A   1      49.988  26.728  25.409  1.00  0.00     0.001 A 
ATOM     81  C   UNL A   1      48.841  27.009  23.301  1.00  0.00     0.001 A 
ATOM     82  C   UNL A   1      49.998  26.699  24.015  1.00  0.00     0.000 A 
ENDBRANCH  64  77
ENDBRANCH  38  39
ENDBRANCH  31  33
ENDBRANCH  30  31
ENDBRANCH  29  30
ENDBRANCH  28  29
ENDBRANCH  27  28
ENDBRANCH  26  27
ENDBRANCH  25  26
ENDBRANCH   1  25
TORSDOF 24
ENDMDL
MODEL 2
REMARK VINA RESULT:      -8.8      3.640      7.712
REMARK SMILES C#CCN(CC(=O)OCCOCCOCCOC(=O)c1ccc(-c2c3nc(c(-c4ccccc4)c4ccc([nH]4)c(-c4ccccc4)c4nc(c(-c5ccccc5)c5ccc2[nH]5)C=C4)C=C3)cc1)C(=O)Cc1csc(-c2ccsc2)n1
REMARK SMILES IDX 11 1 10 2 9 3 8 4 6 5 7 6 5 7 4 8 3 9 2 10 1 11 68 12 69 13
REMARK SMILES IDX 70 14 71 15 72 16 80 17 73 18 74 19 75 20 76 21 79 22 77 23
REMARK SMILES IDX 78 24 12 25 13 26 14 27 15 28 16 29 17 30 18 31 19 32 20 33
REMARK SMILES IDX 21 34 67 35 22 36 66 37 23 38 24 39 25 40 60 41 26 42 65 43
REMARK SMILES IDX 59 44 61 45 27 46 64 47 58 48 57 49 28 51 50 52 35 53 49 54
REMARK SMILES IDX 36 55 39 56 48 57 62 58 37 59 38 60 47 62 63 63 40 64 29 65
REMARK SMILES IDX 30 66 34 67 31 68 33 69 32 70 51 71 52 72 56 73 53 74 55 75
REMARK SMILES IDX 54 76 41 77 42 78 46 79 43 80 45 81 44 82
REMARK H PARENT 61 50 39 61
REMARK Flexibility Score: inf
ROOT
ATOM      1  O   UNL A   1      33.931  27.285  21.961  1.00  0.00    -0.376 OA
ENDROOT
BRANCH   1   2
ATOM      2  C   UNL A   1      33.738  26.115  22.741  1.00  0.00     0.202 C 
BRANCH   2   3
ATOM      3  C   UNL A   1      32.822  25.060  22.115  1.00  0.00     0.261 C 
BRANCH   3   4
ATOM      4  O   UNL A   1      33.524  23.861  21.709  1.00  0.00    -0.462 OA
BRANCH   4   5
ATOM      5  C   UNL A   1      33.181  22.722  22.370  1.00  0.00     0.325 C 
ATOM      6  O   UNL A   1      32.292  21.956  22.009  1.00  0.00    -0.250 OA
BRANCH   5   7
ATOM      7  C   UNL A   1      33.956  22.489  23.679  1.00  0.00     0.243 C 
BRANCH   7   8
ATOM      8  N   UNL A   1      33.565  21.358  24.520  1.00  0.00    -0.320 N 
BRANCH   8   9
ATOM      9  C   UNL A   1      34.630  20.494  25.015  1.00  0.00     0.210 C 
BRANCH   9  10
ATOM     10  C   UNL A   1      35.933  21.252  24.823  1.00  0.00    -0.085 C 
ATOM     11  C   UNL A   1      37.051  21.903  24.659  1.00  0.00     0.006 C 
ENDBRANCH   9  10
ENDBRANCH   8   9
BRANCH   8  12
ATOM     12  C   UNL A   1      32.318  21.021  24.979  1.00  0.00     0.229 C 
ATOM     13  O   UNL A   1      32.040  19.814  25.105  1.00  0.00    -0.274 OA
BRANCH  12  14
ATOM     14  C   UNL A   1      31.265  21.956  25.494  1.00  0.00     0.157 C 
BRANCH  14  15
ATOM     15  C   UNL A   1      31.381  23.405  25.775  1.00  0.00     0.061 A 
ATOM     16  C   UNL A   1      32.372  24.130  26.409  1.00  0.00     0.091 A 
ATOM     17  N   UNL A   1      30.492  24.200  25.067  1.00  0.00    -0.241 NA
ATOM     18  S   UNL A   1      32.044  25.817  26.290  1.00  0.00    -0.122 S 
ATOM     19  C   UNL A   1      30.763  25.479  25.204  1.00  0.00     0.124 A 
BRANCH  19  20
ATOM     20  C   UNL A   1      30.018  26.492  24.387  1.00  0.00     0.021 A 
ATOM     21  C   UNL A   1      28.596  26.474  24.231  1.00  0.00     0.023 A 
ATOM     22  C   UNL A   1      30.598  27.514  23.669  1.00  0.00     0.076 A 
ATOM     23  C   UNL A   1      28.151  27.459  23.379  1.00  0.00     0.065 A 
ATOM     24  S   UNL A   1      29.426  28.470  22.861  1.00  0.00    -0.152 S 
ENDBRANCH  19  20
ENDBRANCH  14  15
ENDBRANCH  12  14
ENDBRANCH   8  12
ENDBRANCH   7   8
ENDBRANCH   5   7
ENDBRANCH   4   5
ENDBRANCH   3   4
ENDBRANCH   2   3
ENDBRANCH   1   2
BRANCH   1  25
ATOM     25  C   UNL A   1      34.099  28.519  22.647  1.00  0.00     0.188 C 
BRANCH  25  26
ATOM     26  C   UNL A   1      33.924  28.566  24.176  1.00  0.00     0.188 C 
BRANCH  26  27
ATOM     27  O   UNL A   1      33.195  29.645  24.740  1.00  0.00    -0.376 OA
BRANCH  27  28
ATOM     28  C   UNL A   1      32.530  29.435  25.978  1.00  0.00     0.202 C 
BRANCH  28  29
ATOM     29  C   UNL A   1      32.916  30.365  27.129  1.00  0.00     0.261 C 
BRANCH  29  30
ATOM     30  O   UNL A   1      34.335  30.339  27.377  1.00  0.00    -0.460 OA
BRANCH  30  31
ATOM     31  C   UNL A   1      34.766  31.376  28.125  1.00  0.00     0.338 C 
ATOM     32  O   UNL A   1      34.220  32.477  28.217  1.00  0.00    -0.246 OA
BRANCH  31  33
ATOM     33  C   UNL A   1      35.992  31.048  28.880  1.00  0.00     0.060 A 
ATOM     34  C   UNL A   1      37.166  31.773  28.687  1.00  0.00     0.016 A 
ATOM     35  C   UNL A   1      36.026  29.882  29.640  1.00  0.00     0.016 A 
ATOM     36  C   UNL A   1      38.395  31.261  29.121  1.00  0.00     0.010 A 
ATOM     37  C   UNL A   1      37.242  29.417  30.154  1.00  0.00     0.010 A 
ATOM     38  C   UNL A   1      38.452  30.059  29.838  1.00  0.00    -0.014 A 
BRANCH  38  39
ATOM     39  C   UNL A   1      39.755  29.386  30.134  1.00  0.00     0.031 A 
ATOM     40  C   UNL A   1      40.632  29.938  31.235  1.00  0.00     0.074 A 
ATOM     41  C   UNL A   1      40.158  28.282  29.475  1.00  0.00     0.049 A 
ATOM     42  N   UNL A   1      41.880  29.665  31.522  1.00  0.00    -0.248 NA
ATOM     43  C   UNL A   1      40.022  30.943  32.123  1.00  0.00     0.031 C 
ATOM     44  C   UNL A   1      39.383  27.557  28.471  1.00  0.00     0.029 A 
ATOM     45  N   UNL A   1      41.322  27.556  29.579  1.00  0.00    -0.354 N 
ATOM     46  C   UNL A   1      42.232  30.535  32.548  1.00  0.00     0.074 A 
ATOM     47  C   UNL A   1      41.056  31.316  32.864  1.00  0.00     0.031 C 
ATOM     48  C   UNL A   1      40.054  26.449  28.114  1.00  0.00     0.029 A 
ATOM     49  C   UNL A   1      41.351  26.434  28.785  1.00  0.00     0.049 A 
ATOM     50  H   UNL A   1      42.067  27.816  30.169  1.00  0.00     0.167 HD
ATOM     51  C   UNL A   1      43.434  30.692  33.152  1.00  0.00     0.031 A 
ATOM     52  C   UNL A   1      42.316  25.509  28.607  1.00  0.00     0.031 A 
ATOM     53  C   UNL A   1      44.586  29.875  32.884  1.00  0.00     0.049 A 
ATOM     54  C   UNL A   1      43.640  25.690  29.306  1.00  0.00     0.074 A 
ATOM     55  C   UNL A   1      45.869  29.990  33.391  1.00  0.00     0.029 A 
ATOM     56  N   UNL A   1      44.581  28.765  32.054  1.00  0.00    -0.354 N 
ATOM     57  N   UNL A   1      44.001  26.597  30.181  1.00  0.00    -0.248 NA
ATOM     58  C   UNL A   1      44.702  24.730  28.963  1.00  0.00     0.031 C 
ATOM     59  C   UNL A   1      46.647  28.962  32.848  1.00  0.00     0.029 A 
ATOM     60  C   UNL A   1      45.837  28.185  32.035  1.00  0.00     0.049 A 
ATOM     61  H   UNL A   1      43.800  28.437  31.553  1.00  0.00     0.167 HD
ATOM     62  C   UNL A   1      45.327  26.318  30.490  1.00  0.00     0.074 A 
ATOM     63  C   UNL A   1      45.693  25.131  29.747  1.00  0.00     0.031 C 
ATOM     64  C   UNL A   1      46.178  27.000  31.296  1.00  0.00     0.031 A 
BRANCH  51  65
ATOM     65  C   UNL A   1      43.585  31.852  34.093  1.00  0.00    -0.014 A 
ATOM     66  C   UNL A   1      43.905  33.142  33.646  1.00  0.00     0.009 A 
ATOM     67  C   UNL A   1      43.391  31.638  35.469  1.00  0.00     0.009 A 
ATOM     68  C   UNL A   1      44.063  34.186  34.562  1.00  0.00     0.001 A 
ATOM     69  C   UNL A   1      43.525  32.688  36.378  1.00  0.00     0.001 A 
ATOM     70  C   UNL A   1      43.870  33.959  35.925  1.00  0.00     0.000 A 
ENDBRANCH  51  65
BRANCH  52  71
ATOM     71  C   UNL A   1      42.083  24.323  27.733  1.00  0.00    -0.014 A 
ATOM     72  C   UNL A   1      41.388  23.207  28.230  1.00  0.00     0.009 A 
ATOM     73  C   UNL A   1      42.554  24.278  26.412  1.00  0.00     0.009 A 
ATOM     74  C   UNL A   1      41.161  22.084  27.430  1.00  0.00     0.001 A 
ATOM     75  C   UNL A   1      42.306  23.165  25.604  1.00  0.00     0.001 A 
ATOM     76  C   UNL A   1      41.612  22.068  26.115  1.00  0.00     0.000 A 
ENDBRANCH  52  71
BRANCH  64  77
ATOM     77  C   UNL A   1      47.580  26.475  31.416  1.00  0.00    -0.014 A 
ATOM     78  C   UNL A   1      48.586  26.901  30.535  1.00  0.00     0.009 A 
ATOM     79  C   UNL A   1      47.910  25.581  32.446  1.00  0.00     0.009 A 
ATOM     80  C   UNL A   1      49.890  26.416  30.663  1.00  0.00     0.001 A 
ATOM     81  C   UNL A   1      49.219  25.116  32.586  1.00  0.00     0.001 A 
ATOM     82  C   UNL A   1      50.206  25.527  31.689  1.00  0.00     0.000 A 
ENDBRANCH  64  77
ENDBRANCH  38  39
ENDBRANCH  31  33
ENDBRANCH  30  31
ENDBRANCH  29  30
ENDBRANCH  28  29
ENDBRANCH  27  28
ENDBRANCH  26  27
ENDBRANCH  25  26
ENDBRANCH   1  25
TORSDOF 24
ENDMDL
MODEL 3
REMARK VINA RESULT:      -8.8      3.859      8.313
REMARK SMILES C#CCN(CC(=O)OCCOCCOCCOC(=O)c1ccc(-c2c3nc(c(-c4ccccc4)c4ccc([nH]4)c(-c4ccccc4)c4nc(c(-c5ccccc5)c5ccc2[nH]5)C=C4)C=C3)cc1)C(=O)Cc1csc(-c2ccsc2)n1
REMARK SMILES IDX 11 1 10 2 9 3 8 4 6 5 7 6 5 7 4 8 3 9 2 10 1 11 68 12 69 13
REMARK SMILES IDX 70 14 71 15 72 16 80 17 73 18 74 19 75 20 76 21 79 22 77 23
REMARK SMILES IDX 78 24 12 25 13 26 14 27 15 28 16 29 17 30 18 31 19 32 20 33
REMARK SMILES IDX 21 34 67 35 22 36 66 37 23 38 24 39 25 40 60 41 26 42 65 43
REMARK SMILES IDX 59 44 61 45 27 46 64 47 58 48 57 49 28 51 50 52 35 53 49 54
REMARK SMILES IDX 36 55 39 56 48 57 62 58 37 59 38 60 47 62 63 63 40 64 29 65
REMARK SMILES IDX 30 66 34 67 31 68 33 69 32 70 51 71 52 72 56 73 53 74 55 75
REMARK SMILES IDX 54 76 41 77 42 78 46 79 43 80 45 81 44 82
REMARK H PARENT 61 50 39 61
REMARK Flexibility Score: inf
ROOT
ATOM      1  O   UNL A   1      32.312  27.137  26.484  1.00  0.00    -0.376 OA
ENDROOT
BRANCH   1   2
ATOM      2  C   UNL A   1      32.362  25.731  26.290  1.00  0.00     0.202 C 
BRANCH   2   3
ATOM      3  C   UNL A   1      31.023  25.005  26.447  1.00  0.00     0.261 C 
BRANCH   3   4
ATOM      4  O   UNL A   1      31.113  23.808  27.255  1.00  0.00    -0.462 OA
BRANCH   4   5
ATOM      5  C   UNL A   1      31.923  22.827  26.771  1.00  0.00     0.325 C 
ATOM      6  O   UNL A   1      33.019  22.542  27.245  1.00  0.00    -0.250 OA
BRANCH   5   7
ATOM      7  C   UNL A   1      31.389  22.127  25.509  1.00  0.00     0.243 C 
BRANCH   7   8
ATOM      8  N   UNL A   1      32.203  22.180  24.294  1.00  0.00    -0.320 N 
BRANCH   8   9
ATOM      9  C   UNL A   1      32.420  20.928  23.580  1.00  0.00     0.210 C 
BRANCH   9  10
ATOM     10  C   UNL A   1      32.662  19.861  24.635  1.00  0.00    -0.085 C 
ATOM     11  C   UNL A   1      32.869  18.944  25.539  1.00  0.00     0.006 C 
ENDBRANCH   9  10
ENDBRANCH   8   9
BRANCH   8  12
ATOM     12  C   UNL A   1      32.750  23.274  23.676  1.00  0.00     0.229 C 
ATOM     13  O   UNL A   1      33.983  23.435  23.740  1.00  0.00    -0.274 OA
BRANCH  12  14
ATOM     14  C   UNL A   1      32.043  24.256  22.789  1.00  0.00     0.157 C 
BRANCH  14  15
ATOM     15  C   UNL A   1      32.195  25.728  22.744  1.00  0.00     0.061 A 
ATOM     16  C   UNL A   1      33.258  26.519  22.350  1.00  0.00     0.091 A 
ATOM     17  N   UNL A   1      31.005  26.432  22.863  1.00  0.00    -0.241 NA
ATOM     18  S   UNL A   1      32.795  28.179  22.350  1.00  0.00    -0.122 S 
ATOM     19  C   UNL A   1      31.169  27.714  22.625  1.00  0.00     0.124 A 
BRANCH  19  20
ATOM     20  C   UNL A   1      29.975  28.617  22.541  1.00  0.00     0.021 A 
ATOM     21  C   UNL A   1      29.993  29.869  21.849  1.00  0.00     0.023 A 
ATOM     22  C   UNL A   1      28.758  28.381  23.140  1.00  0.00     0.076 A 
ATOM     23  C   UNL A   1      28.804  30.552  21.972  1.00  0.00     0.065 A 
ATOM     24  S   UNL A   1      27.636  29.638  22.819  1.00  0.00    -0.152 S 
ENDBRANCH  19  20
ENDBRANCH  14  15
ENDBRANCH  12  14
ENDBRANCH   8  12
ENDBRANCH   7   8
ENDBRANCH   5   7
ENDBRANCH   4   5
ENDBRANCH   3   4
ENDBRANCH   2   3
ENDBRANCH   1   2
BRANCH   1  25
ATOM     25  C   UNL A   1      33.263  27.935  25.791  1.00  0.00     0.188 C 
BRANCH  25  26
ATOM     26  C   UNL A   1      33.490  29.394  26.228  1.00  0.00     0.188 C 
BRANCH  26  27
ATOM     27  O   UNL A   1      32.557  30.377  25.812  1.00  0.00    -0.376 OA
BRANCH  27  28
ATOM     28  C   UNL A   1      31.743  30.995  26.799  1.00  0.00     0.202 C 
BRANCH  28  29
ATOM     29  C   UNL A   1      31.957  32.492  27.025  1.00  0.00     0.261 C 
BRANCH  29  30
ATOM     30  O   UNL A   1      33.338  32.861  26.851  1.00  0.00    -0.460 OA
BRANCH  30  31
ATOM     31  C   UNL A   1      33.930  33.270  27.992  1.00  0.00     0.338 C 
ATOM     32  O   UNL A   1      33.508  34.142  28.753  1.00  0.00    -0.246 OA
BRANCH  31  33
ATOM     33  C   UNL A   1      35.173  32.524  28.274  1.00  0.00     0.060 A 
ATOM     34  C   UNL A   1      35.160  31.138  28.413  1.00  0.00     0.016 A 
ATOM     35  C   UNL A   1      36.328  33.232  28.599  1.00  0.00     0.016 A 
ATOM     36  C   UNL A   1      36.236  30.474  29.014  1.00  0.00     0.010 A 
ATOM     37  C   UNL A   1      37.440  32.557  29.115  1.00  0.00     0.010 A 
ATOM     38  C   UNL A   1      37.382  31.182  29.400  1.00  0.00    -0.014 A 
BRANCH  38  39
ATOM     39  C   UNL A   1      38.455  30.544  30.224  1.00  0.00     0.031 A 
ATOM     40  C   UNL A   1      38.504  30.824  31.709  1.00  0.00     0.074 A 
ATOM     41  C   UNL A   1      39.360  29.697  29.693  1.00  0.00     0.049 A 
ATOM     42  N   UNL A   1      39.453  30.568  32.575  1.00  0.00    -0.248 NA
ATOM     43  C   UNL A   1      37.331  31.497  32.293  1.00  0.00     0.031 C 
ATOM     44  C   UNL A   1      39.381  29.230  28.309  1.00  0.00     0.029 A 
ATOM     45  N   UNL A   1      40.427  29.052  30.275  1.00  0.00    -0.354 N 
ATOM     46  C   UNL A   1      39.037  31.138  33.772  1.00  0.00     0.074 A 
ATOM     47  C   UNL A   1      37.733  31.717  33.537  1.00  0.00     0.031 C 
ATOM     48  C   UNL A   1      40.355  28.316  28.169  1.00  0.00     0.029 A 
ATOM     49  C   UNL A   1      41.093  28.202  29.424  1.00  0.00     0.049 A 
ATOM     50  H   UNL A   1      40.690  29.188  31.214  1.00  0.00     0.167 HD
ATOM     51  C   UNL A   1      39.695  31.202  34.955  1.00  0.00     0.031 A 
ATOM     52  C   UNL A   1      42.181  27.431  29.628  1.00  0.00     0.031 A 
ATOM     53  C   UNL A   1      40.962  30.573  35.209  1.00  0.00     0.049 A 
ATOM     54  C   UNL A   1      42.886  27.500  30.959  1.00  0.00     0.074 A 
ATOM     55  C   UNL A   1      41.745  30.629  36.349  1.00  0.00     0.029 A 
ATOM     56  N   UNL A   1      41.616  29.741  34.314  1.00  0.00    -0.354 N 
ATOM     57  N   UNL A   1      42.548  28.149  32.047  1.00  0.00    -0.248 NA
ATOM     58  C   UNL A   1      44.147  26.749  31.076  1.00  0.00     0.031 C 
ATOM     59  C   UNL A   1      42.887  29.850  36.133  1.00  0.00     0.029 A 
ATOM     60  C   UNL A   1      42.792  29.277  34.875  1.00  0.00     0.049 A 
ATOM     61  H   UNL A   1      41.292  29.514  33.413  1.00  0.00     0.167 HD
ATOM     62  C   UNL A   1      43.551  27.886  32.972  1.00  0.00     0.074 A 
ATOM     63  C   UNL A   1      44.485  26.981  32.336  1.00  0.00     0.031 C 
ATOM     64  C   UNL A   1      43.704  28.372  34.229  1.00  0.00     0.031 A 
BRANCH  51  65
ATOM     65  C   UNL A   1      39.095  32.061  36.031  1.00  0.00    -0.014 A 
ATOM     66  C   UNL A   1      38.241  31.540  37.013  1.00  0.00     0.009 A 
ATOM     67  C   UNL A   1      39.408  33.431  36.057  1.00  0.00     0.009 A 
ATOM     68  C   UNL A   1      37.684  32.383  37.979  1.00  0.00     0.001 A 
ATOM     69  C   UNL A   1      38.869  34.265  37.038  1.00  0.00     0.001 A 
ATOM     70  C   UNL A   1      38.000  33.742  37.992  1.00  0.00     0.000 A 
ENDBRANCH  51  65
BRANCH  52  71
ATOM     71  C   UNL A   1      42.684  26.524  28.556  1.00  0.00    -0.014 A 
ATOM     72  C   UNL A   1      42.241  25.192  28.496  1.00  0.00     0.009 A 
ATOM     73  C   UNL A   1      43.610  26.960  27.597  1.00  0.00     0.009 A 
ATOM     74  C   UNL A   1      42.700  24.323  27.503  1.00  0.00     0.001 A 
ATOM     75  C   UNL A   1      44.051  26.098  26.589  1.00  0.00     0.001 A 
ATOM     76  C   UNL A   1      43.599  24.780  26.545  1.00  0.00     0.000 A 
ENDBRANCH  52  71
BRANCH  64  77
ATOM     77  C   UNL A   1      44.919  27.931  34.994  1.00  0.00    -0.014 A 
ATOM     78  C   UNL A   1      44.858  26.837  35.872  1.00  0.00     0.009 A 
ATOM     79  C   UNL A   1      46.145  28.585  34.804  1.00  0.00     0.009 A 
ATOM     80  C   UNL A   1      45.997  26.428  36.570  1.00  0.00     0.001 A 
ATOM     81  C   UNL A   1      47.286  28.159  35.485  1.00  0.00     0.001 A 
ATOM     82  C   UNL A   1      47.210  27.087  36.374  1.00  0.00     0.000 A 
ENDBRANCH  64  77
ENDBRANCH  38  39
ENDBRANCH  31  33
ENDBRANCH  30  31
ENDBRANCH  29  30
ENDBRANCH  28  29
ENDBRANCH  27  28
ENDBRANCH  26  27
ENDBRANCH  25  26
ENDBRANCH   1  25
TORSDOF 24
ENDMDL
