MODEL 1
REMARK VINA RESULT:      -9.2      0.000      0.000
REMARK SMILES CN(C)Nc1ncnc(Nc2ccc(C(=O)OCCOCCOCCOC(=O)c3ccc(-c4c5nc(c(-c6ccccc6)c6ccc([nH]6)c(-c6ccccc6)c6nc(c(-c7ccccc7)c7ccc4[nH]7)C=C6)C=C5)cc3)cc2)c1[N+](=O)[O-]
REMARK SMILES IDX 21 1 20 2 19 3 18 4 17 5 15 6 16 7 14 8 11 9 12 10 78 11
REMARK SMILES IDX 13 12 77 13 10 14 9 16 5 17 6 18 79 19 7 20 8 21 4 22 2 24
REMARK SMILES IDX 1 25 3 26 80 27 81 28 82 29 22 30 23 31 24 32 25 33 26 34
REMARK SMILES IDX 27 35 28 36 29 37 30 38 76 39 31 40 75 41 32 42 33 43 34 44
REMARK SMILES IDX 69 45 35 46 74 47 68 48 70 49 36 50 73 51 67 52 66 53 37 55
REMARK SMILES IDX 59 56 44 57 58 58 45 59 48 60 57 61 71 62 46 63 47 64 56 66
REMARK SMILES IDX 72 67 49 68 38 69 39 70 43 71 40 72 42 73 41 74 60 75 61 76
REMARK SMILES IDX 65 77 62 78 64 79 63 80 50 81 51 82 55 83 52 84 54 85 53 86
REMARK H PARENT 10 15 4 23 70 54 48 65
REMARK Flexibility Score: inf
ROOT
ATOM      1  C   UNL A   1      33.846  34.751  32.410  1.00  0.00     0.188 C 
ENDROOT
BRANCH   1   2
ATOM      2  O   UNL A   1      34.198  35.352  31.178  1.00  0.00    -0.376 OA
BRANCH   2   3
ATOM      3  C   UNL A   1      33.896  34.710  29.950  1.00  0.00     0.202 C 
BRANCH   3   4
ATOM      4  C   UNL A   1      34.265  33.244  29.695  1.00  0.00     0.261 C 
BRANCH   4   5
ATOM      5  O   UNL A   1      33.639  32.662  28.547  1.00  0.00    -0.460 OA
BRANCH   5   6
ATOM      6  C   UNL A   1      34.475  31.941  27.755  1.00  0.00     0.338 C 
ATOM      7  O   UNL A   1      35.657  32.133  27.567  1.00  0.00    -0.246 OA
BRANCH   6   8
ATOM      8  C   UNL A   1      33.779  30.730  27.268  1.00  0.00     0.060 A 
ATOM      9  C   UNL A   1      32.275  28.484  26.549  1.00  0.00     0.040 A 
ATOM     10  C   UNL A   1      31.714  29.761  26.457  1.00  0.00     0.027 A 
ATOM     11  C   UNL A   1      33.625  28.357  26.920  1.00  0.00     0.027 A 
ATOM     12  C   UNL A   1      32.456  30.878  26.834  1.00  0.00     0.018 A 
ATOM     13  C   UNL A   1      34.386  29.476  27.268  1.00  0.00     0.018 A 
BRANCH   9  14
ATOM     14  N   UNL A   1      31.423  27.362  26.496  1.00  0.00    -0.334 N 
ATOM     15  H   UNL A   1      30.876  27.163  27.289  1.00  0.00     0.168 HD
BRANCH  14  16
ATOM     16  C   UNL A   1      31.303  26.507  25.381  1.00  0.00     0.215 A 
ATOM     17  C   UNL A   1      31.193  24.387  24.322  1.00  0.00     0.225 A 
ATOM     18  N   UNL A   1      30.845  24.971  23.155  1.00  0.00    -0.212 NA
ATOM     19  C   UNL A   1      31.510  25.140  25.436  1.00  0.00     0.354 A 
ATOM     20  C   UNL A   1      30.728  26.296  23.155  1.00  0.00     0.227 A 
ATOM     21  N   UNL A   1      30.900  27.076  24.220  1.00  0.00    -0.212 NA
BRANCH  17  22
ATOM     22  N   UNL A   1      31.067  22.998  24.262  1.00  0.00    -0.298 N 
ATOM     23  H   UNL A   1      30.236  22.609  24.620  1.00  0.00     0.184 HD
BRANCH  22  24
ATOM     24  N   UNL A   1      32.027  22.089  23.734  1.00  0.00    -0.228 NA
ATOM     25  C   UNL A   1      33.363  22.687  23.566  1.00  0.00     0.130 C 
ATOM     26  C   UNL A   1      32.155  20.997  24.721  1.00  0.00     0.130 C 
ENDBRANCH  22  24
ENDBRANCH  17  22
BRANCH  19  27
ATOM     27  N   UNL A   1      32.205  24.551  26.546  1.00  0.00     0.070 N 
ATOM     28  O   UNL A   1      33.441  24.656  26.568  1.00  0.00    -0.258 OA
ATOM     29  O   UNL A   1      31.543  23.866  27.338  1.00  0.00    -0.258 OA
ENDBRANCH  19  27
ENDBRANCH  14  16
ENDBRANCH   9  14
ENDBRANCH   6   8
ENDBRANCH   5   6
ENDBRANCH   4   5
ENDBRANCH   3   4
ENDBRANCH   2   3
ENDBRANCH   1   2
BRANCH   1  30
ATOM     30  C   UNL A   1      34.848  34.678  33.581  1.00  0.00     0.188 C 
BRANCH  30  31
ATOM     31  O   UNL A   1      36.108  35.289  33.448  1.00  0.00    -0.376 OA
BRANCH  31  32
ATOM     32  C   UNL A   1      37.286  34.528  33.256  1.00  0.00     0.202 C 
BRANCH  32  33
ATOM     33  C   UNL A   1      37.829  34.020  31.909  1.00  0.00     0.261 C 
BRANCH  33  34
ATOM     34  O   UNL A   1      37.049  33.072  31.187  1.00  0.00    -0.460 OA
BRANCH  34  35
ATOM     35  C   UNL A   1      37.057  31.814  31.695  1.00  0.00     0.338 C 
ATOM     36  O   UNL A   1      36.229  31.302  32.427  1.00  0.00    -0.246 OA
BRANCH  35  37
ATOM     37  C   UNL A   1      38.172  31.067  31.092  1.00  0.00     0.060 A 
ATOM     38  C   UNL A   1      39.110  30.467  31.940  1.00  0.00     0.016 A 
ATOM     39  C   UNL A   1      38.317  31.003  29.707  1.00  0.00     0.016 A 
ATOM     40  C   UNL A   1      40.220  29.820  31.400  1.00  0.00     0.010 A 
ATOM     41  C   UNL A   1      39.439  30.370  29.166  1.00  0.00     0.010 A 
ATOM     42  C   UNL A   1      40.409  29.801  30.012  1.00  0.00    -0.014 A 
BRANCH  42  43
ATOM     43  C   UNL A   1      41.700  29.339  29.450  1.00  0.00     0.031 A 
ATOM     44  C   UNL A   1      42.836  30.319  29.353  1.00  0.00     0.074 A 
ATOM     45  C   UNL A   1      41.867  28.069  29.044  1.00  0.00     0.049 A 
ATOM     46  N   UNL A   1      44.037  30.150  28.863  1.00  0.00    -0.248 NA
ATOM     47  C   UNL A   1      42.582  31.670  29.879  1.00  0.00     0.031 C 
ATOM     48  C   UNL A   1      40.859  27.013  29.125  1.00  0.00     0.029 A 
ATOM     49  N   UNL A   1      42.954  27.457  28.474  1.00  0.00    -0.354 N 
ATOM     50  C   UNL A   1      44.679  31.372  29.015  1.00  0.00     0.074 A 
ATOM     51  C   UNL A   1      43.728  32.281  29.617  1.00  0.00     0.031 C 
ATOM     52  C   UNL A   1      41.376  25.882  28.611  1.00  0.00     0.029 A 
ATOM     53  C   UNL A   1      42.733  26.145  28.137  1.00  0.00     0.049 A 
ATOM     54  H   UNL A   1      43.812  27.916  28.320  1.00  0.00     0.167 HD
ATOM     55  C   UNL A   1      45.949  31.709  28.688  1.00  0.00     0.031 A 
ATOM     56  C   UNL A   1      43.530  25.265  27.500  1.00  0.00     0.031 A 
ATOM     57  C   UNL A   1      46.891  30.816  28.069  1.00  0.00     0.049 A 
ATOM     58  C   UNL A   1      44.909  25.689  27.068  1.00  0.00     0.074 A 
ATOM     59  C   UNL A   1      48.203  31.063  27.708  1.00  0.00     0.029 A 
ATOM     60  N   UNL A   1      46.616  29.507  27.710  1.00  0.00    -0.354 N 
ATOM     61  N   UNL A   1      45.514  26.838  27.242  1.00  0.00    -0.248 NA
ATOM     62  C   UNL A   1      45.715  24.687  26.355  1.00  0.00     0.031 C 
ATOM     63  C   UNL A   1      48.705  29.919  27.078  1.00  0.00     0.029 A 
ATOM     64  C   UNL A   1      47.725  28.941  27.105  1.00  0.00     0.049 A 
ATOM     65  H   UNL A   1      45.758  29.046  27.863  1.00  0.00     0.167 HD
ATOM     66  C   UNL A   1      46.782  26.688  26.689  1.00  0.00     0.074 A 
ATOM     67  C   UNL A   1      46.861  25.333  26.186  1.00  0.00     0.031 C 
ATOM     68  C   UNL A   1      47.791  27.590  26.610  1.00  0.00     0.031 A 
BRANCH  55  69
ATOM     69  C   UNL A   1      46.378  33.122  28.963  1.00  0.00    -0.014 A 
ATOM     70  C   UNL A   1      46.174  34.143  28.020  1.00  0.00     0.009 A 
ATOM     71  C   UNL A   1      46.973  33.442  30.193  1.00  0.00     0.009 A 
ATOM     72  C   UNL A   1      46.588  35.448  28.292  1.00  0.00     0.001 A 
ATOM     73  C   UNL A   1      47.361  34.754  30.472  1.00  0.00     0.001 A 
ATOM     74  C   UNL A   1      47.177  35.753  29.519  1.00  0.00     0.000 A 
ENDBRANCH  55  69
BRANCH  56  75
ATOM     75  C   UNL A   1      43.039  23.892  27.207  1.00  0.00    -0.014 A 
ATOM     76  C   UNL A   1      42.720  23.510  25.895  1.00  0.00     0.009 A 
ATOM     77  C   UNL A   1      42.859  22.965  28.245  1.00  0.00     0.009 A 
ATOM     78  C   UNL A   1      42.205  22.238  25.634  1.00  0.00     0.001 A 
ATOM     79  C   UNL A   1      42.371  21.684  27.978  1.00  0.00     0.001 A 
ATOM     80  C   UNL A   1      42.035  21.326  26.674  1.00  0.00     0.000 A 
ENDBRANCH  56  75
BRANCH  68  81
ATOM     81  C   UNL A   1      49.083  27.130  25.993  1.00  0.00    -0.014 A 
ATOM     82  C   UNL A   1      50.035  26.412  26.733  1.00  0.00     0.009 A 
ATOM     83  C   UNL A   1      49.328  27.382  24.633  1.00  0.00     0.009 A 
ATOM     84  C   UNL A   1      51.221  25.987  26.132  1.00  0.00     0.001 A 
ATOM     85  C   UNL A   1      50.501  26.930  24.028  1.00  0.00     0.001 A 
ATOM     86  C   UNL A   1      51.451  26.241  24.779  1.00  0.00     0.000 A 
ENDBRANCH  68  81
ENDBRANCH  42  43
ENDBRANCH  35  37
ENDBRANCH  34  35
ENDBRANCH  33  34
ENDBRANCH  32  33
ENDBRANCH  31  32
ENDBRANCH  30  31
ENDBRANCH   1  30
TORSDOF 22
ENDMDL
MODEL 2
REMARK VINA RESULT:      -9.0      1.702      2.134
REMARK SMILES CN(C)Nc1ncnc(Nc2ccc(C(=O)OCCOCCOCCOC(=O)c3ccc(-c4c5nc(c(-c6ccccc6)c6ccc([nH]6)c(-c6ccccc6)c6nc(c(-c7ccccc7)c7ccc4[nH]7)C=C6)C=C5)cc3)cc2)c1[N+](=O)[O-]
REMARK SMILES IDX 21 1 20 2 19 3 18 4 17 5 15 6 16 7 14 8 11 9 12 10 78 11
REMARK SMILES IDX 13 12 77 13 10 14 9 16 5 17 6 18 79 19 7 20 8 21 4 22 2 24
REMARK SMILES IDX 1 25 3 26 80 27 81 28 82 29 22 30 23 31 24 32 25 33 26 34
REMARK SMILES IDX 27 35 28 36 29 37 30 38 76 39 31 40 75 41 32 42 33 43 34 44
REMARK SMILES IDX 69 45 35 46 74 47 68 48 70 49 36 50 73 51 67 52 66 53 37 55
REMARK SMILES IDX 59 56 44 57 58 58 45 59 48 60 57 61 71 62 46 63 47 64 56 66
REMARK SMILES IDX 72 67 49 68 38 69 39 70 43 71 40 72 42 73 41 74 60 75 61 76
REMARK SMILES IDX 65 77 62 78 64 79 63 80 50 81 51 82 55 83 52 84 54 85 53 86
REMARK H PARENT 10 15 4 23 70 54 48 65
REMARK Flexibility Score: inf
ROOT
ATOM      1  C   UNL A   1      33.827  35.549  33.087  1.00  0.00     0.188 C 
ENDROOT
BRANCH   1   2
ATOM      2  O   UNL A   1      33.897  36.630  32.176  1.00  0.00    -0.376 OA
BRANCH   2   3
ATOM      3  C   UNL A   1      33.201  36.577  30.940  1.00  0.00     0.202 C 
BRANCH   3   4
ATOM      4  C   UNL A   1      32.718  35.251  30.344  1.00  0.00     0.261 C 
BRANCH   4   5
ATOM      5  O   UNL A   1      32.705  35.209  28.914  1.00  0.00    -0.460 OA
BRANCH   5   6
ATOM      6  C   UNL A   1      33.790  34.608  28.358  1.00  0.00     0.338 C 
ATOM      7  O   UNL A   1      34.942  34.981  28.408  1.00  0.00    -0.246 OA
BRANCH   6   8
ATOM      8  C   UNL A   1      33.404  33.288  27.814  1.00  0.00     0.060 A 
ATOM      9  C   UNL A   1      32.456  30.800  26.958  1.00  0.00     0.040 A 
ATOM     10  C   UNL A   1      31.685  31.949  26.758  1.00  0.00     0.027 A 
ATOM     11  C   UNL A   1      33.742  30.928  27.510  1.00  0.00     0.027 A 
ATOM     12  C   UNL A   1      32.149  33.186  27.203  1.00  0.00     0.018 A 
ATOM     13  C   UNL A   1      34.228  32.170  27.928  1.00  0.00     0.018 A 
BRANCH   9  14
ATOM     14  N   UNL A   1      31.842  29.538  26.820  1.00  0.00    -0.334 N 
ATOM     15  H   UNL A   1      31.016  29.371  27.328  1.00  0.00     0.168 HD
BRANCH  14  16
ATOM     16  C   UNL A   1      32.334  28.501  26.001  1.00  0.00     0.215 A 
ATOM     17  C   UNL A   1      32.560  27.328  23.952  1.00  0.00     0.225 A 
ATOM     18  N   UNL A   1      33.534  26.557  24.483  1.00  0.00    -0.212 NA
ATOM     19  C   UNL A   1      31.882  28.257  24.717  1.00  0.00     0.354 A 
ATOM     20  C   UNL A   1      33.874  26.801  25.746  1.00  0.00     0.227 A 
ATOM     21  N   UNL A   1      33.349  27.759  26.505  1.00  0.00    -0.212 NA
BRANCH  17  22
ATOM     22  N   UNL A   1      32.444  27.136  22.573  1.00  0.00    -0.298 N 
ATOM     23  H   UNL A   1      32.843  27.824  21.993  1.00  0.00     0.184 HD
BRANCH  22  24
ATOM     24  N   UNL A   1      31.803  26.042  21.927  1.00  0.00    -0.228 NA
ATOM     25  C   UNL A   1      32.740  25.163  21.206  1.00  0.00     0.130 C 
ATOM     26  C   UNL A   1      31.178  25.235  22.996  1.00  0.00     0.130 C 
ENDBRANCH  22  24
ENDBRANCH  17  22
BRANCH  19  27
ATOM     27  N   UNL A   1      30.640  28.815  24.262  1.00  0.00     0.070 N 
ATOM     28  O   UNL A   1      29.724  28.024  23.987  1.00  0.00    -0.258 OA
ATOM     29  O   UNL A   1      30.604  30.034  24.047  1.00  0.00    -0.258 OA
ENDBRANCH  19  27
ENDBRANCH  14  16
ENDBRANCH   9  14
ENDBRANCH   6   8
ENDBRANCH   5   6
ENDBRANCH   4   5
ENDBRANCH   3   4
ENDBRANCH   2   3
ENDBRANCH   1   2
BRANCH   1  30
ATOM     30  C   UNL A   1      35.105  34.903  33.662  1.00  0.00     0.188 C 
BRANCH  30  31
ATOM     31  O   UNL A   1      36.360  35.297  33.164  1.00  0.00    -0.376 OA
BRANCH  31  32
ATOM     32  C   UNL A   1      37.189  34.400  32.449  1.00  0.00     0.202 C 
BRANCH  32  33
ATOM     33  C   UNL A   1      37.034  34.002  30.971  1.00  0.00     0.261 C 
BRANCH  33  34
ATOM     34  O   UNL A   1      36.147  32.934  30.654  1.00  0.00    -0.460 OA
BRANCH  34  35
ATOM     35  C   UNL A   1      36.311  31.810  31.396  1.00  0.00     0.338 C 
ATOM     36  O   UNL A   1      35.596  31.400  32.294  1.00  0.00    -0.246 OA
BRANCH  35  37
ATOM     37  C   UNL A   1      37.435  31.037  30.845  1.00  0.00     0.060 A 
ATOM     38  C   UNL A   1      38.131  30.171  31.696  1.00  0.00     0.016 A 
ATOM     39  C   UNL A   1      37.828  31.205  29.518  1.00  0.00     0.016 A 
ATOM     40  C   UNL A   1      39.249  29.485  31.225  1.00  0.00     0.010 A 
ATOM     41  C   UNL A   1      38.959  30.531  29.050  1.00  0.00     0.010 A 
ATOM     42  C   UNL A   1      39.690  29.691  29.910  1.00  0.00    -0.014 A 
BRANCH  42  43
ATOM     43  C   UNL A   1      41.008  29.164  29.485  1.00  0.00     0.031 A 
ATOM     44  C   UNL A   1      42.190  30.093  29.486  1.00  0.00     0.074 A 
ATOM     45  C   UNL A   1      41.157  27.881  29.114  1.00  0.00     0.049 A 
ATOM     46  N   UNL A   1      43.425  29.863  29.119  1.00  0.00    -0.248 NA
ATOM     47  C   UNL A   1      41.946  31.462  29.967  1.00  0.00     0.031 C 
ATOM     48  C   UNL A   1      40.100  26.871  29.109  1.00  0.00     0.029 A 
ATOM     49  N   UNL A   1      42.267  27.213  28.662  1.00  0.00    -0.354 N 
ATOM     50  C   UNL A   1      44.103  31.059  29.318  1.00  0.00     0.074 A 
ATOM     51  C   UNL A   1      43.139  32.018  29.812  1.00  0.00     0.031 C 
ATOM     52  C   UNL A   1      40.614  25.710  28.663  1.00  0.00     0.029 A 
ATOM     53  C   UNL A   1      42.021  25.906  28.322  1.00  0.00     0.049 A 
ATOM     54  H   UNL A   1      43.155  27.632  28.586  1.00  0.00     0.167 HD
ATOM     55  C   UNL A   1      45.412  31.336  29.114  1.00  0.00     0.031 A 
ATOM     56  C   UNL A   1      42.836  24.982  27.778  1.00  0.00     0.031 A 
ATOM     57  C   UNL A   1      46.369  30.392  28.601  1.00  0.00     0.049 A 
ATOM     58  C   UNL A   1      44.269  25.339  27.478  1.00  0.00     0.074 A 
ATOM     59  C   UNL A   1      47.720  30.576  28.368  1.00  0.00     0.029 A 
ATOM     60  N   UNL A   1      46.073  29.090  28.234  1.00  0.00    -0.354 N 
ATOM     61  N   UNL A   1      44.905  26.464  27.695  1.00  0.00    -0.248 NA
ATOM     62  C   UNL A   1      45.096  24.291  26.861  1.00  0.00     0.031 C 
ATOM     63  C   UNL A   1      48.230  29.401  27.806  1.00  0.00     0.029 A 
ATOM     64  C   UNL A   1      47.209  28.467  27.749  1.00  0.00     0.049 A 
ATOM     65  H   UNL A   1      45.185  28.670  28.309  1.00  0.00     0.167 HD
ATOM     66  C   UNL A   1      46.212  26.249  27.272  1.00  0.00     0.074 A 
ATOM     67  C   UNL A   1      46.280  24.883  26.797  1.00  0.00     0.031 C 
ATOM     68  C   UNL A   1      47.263  27.106  27.281  1.00  0.00     0.031 A 
BRANCH  55  69
ATOM     69  C   UNL A   1      45.874  32.734  29.410  1.00  0.00    -0.014 A 
ATOM     70  C   UNL A   1      45.859  33.732  28.423  1.00  0.00     0.009 A 
ATOM     71  C   UNL A   1      46.308  33.063  30.704  1.00  0.00     0.009 A 
ATOM     72  C   UNL A   1      46.302  35.024  28.718  1.00  0.00     0.001 A 
ATOM     73  C   UNL A   1      46.724  34.362  31.002  1.00  0.00     0.001 A 
ATOM     74  C   UNL A   1      46.729  35.338  30.007  1.00  0.00     0.000 A 
ENDBRANCH  55  69
BRANCH  56  75
ATOM     75  C   UNL A   1      42.316  23.626  27.456  1.00  0.00    -0.014 A 
ATOM     76  C   UNL A   1      41.927  23.300  26.147  1.00  0.00     0.009 A 
ATOM     77  C   UNL A   1      42.178  22.660  28.464  1.00  0.00     0.009 A 
ATOM     78  C   UNL A   1      41.385  22.045  25.862  1.00  0.00     0.001 A 
ATOM     79  C   UNL A   1      41.663  21.396  28.171  1.00  0.00     0.001 A 
ATOM     80  C   UNL A   1      41.258  21.093  26.873  1.00  0.00     0.000 A 
ENDBRANCH  56  75
BRANCH  68  81
ATOM     81  C   UNL A   1      48.588  26.580  26.800  1.00  0.00    -0.014 A 
ATOM     82  C   UNL A   1      49.457  25.888  27.656  1.00  0.00     0.009 A 
ATOM     83  C   UNL A   1      48.948  26.743  25.452  1.00  0.00     0.009 A 
ATOM     84  C   UNL A   1      50.676  25.400  27.181  1.00  0.00     0.001 A 
ATOM     85  C   UNL A   1      50.153  26.228  24.973  1.00  0.00     0.001 A 
ATOM     86  C   UNL A   1      51.021  25.565  25.839  1.00  0.00     0.000 A 
ENDBRANCH  68  81
ENDBRANCH  42  43
ENDBRANCH  35  37
ENDBRANCH  34  35
ENDBRANCH  33  34
ENDBRANCH  32  33
ENDBRANCH  31  32
ENDBRANCH  30  31
ENDBRANCH   1  30
TORSDOF 22
ENDMDL
MODEL 3
REMARK VINA RESULT:      -8.6      1.689      6.000
REMARK SMILES CN(C)Nc1ncnc(Nc2ccc(C(=O)OCCOCCOCCOC(=O)c3ccc(-c4c5nc(c(-c6ccccc6)c6ccc([nH]6)c(-c6ccccc6)c6nc(c(-c7ccccc7)c7ccc4[nH]7)C=C6)C=C5)cc3)cc2)c1[N+](=O)[O-]
REMARK SMILES IDX 21 1 20 2 19 3 18 4 17 5 15 6 16 7 14 8 11 9 12 10 78 11
REMARK SMILES IDX 13 12 77 13 10 14 9 16 5 17 6 18 79 19 7 20 8 21 4 22 2 24
REMARK SMILES IDX 1 25 3 26 80 27 81 28 82 29 22 30 23 31 24 32 25 33 26 34
REMARK SMILES IDX 27 35 28 36 29 37 30 38 76 39 31 40 75 41 32 42 33 43 34 44
REMARK SMILES IDX 69 45 35 46 74 47 68 48 70 49 36 50 73 51 67 52 66 53 37 55
REMARK SMILES IDX 59 56 44 57 58 58 45 59 48 60 57 61 71 62 46 63 47 64 56 66
REMARK SMILES IDX 72 67 49 68 38 69 39 70 43 71 40 72 42 73 41 74 60 75 61 76
REMARK SMILES IDX 65 77 62 78 64 79 63 80 50 81 51 82 55 83 52 84 54 85 53 86
REMARK H PARENT 10 15 4 23 70 54 48 65
REMARK Flexibility Score: inf
ROOT
ATOM      1  C   UNL A   1      33.653  35.428  33.096  1.00  0.00     0.188 C 
ENDROOT
BRANCH   1   2
ATOM      2  O   UNL A   1      33.813  36.479  32.162  1.00  0.00    -0.376 OA
BRANCH   2   3
ATOM      3  C   UNL A   1      33.179  36.419  30.895  1.00  0.00     0.202 C 
BRANCH   3   4
ATOM      4  C   UNL A   1      32.687  35.094  30.302  1.00  0.00     0.261 C 
BRANCH   4   5
ATOM      5  O   UNL A   1      32.664  35.053  28.871  1.00  0.00    -0.460 OA
BRANCH   5   6
ATOM      6  C   UNL A   1      33.746  34.454  28.308  1.00  0.00     0.338 C 
ATOM      7  O   UNL A   1      34.898  34.830  28.350  1.00  0.00    -0.246 OA
BRANCH   6   8
ATOM      8  C   UNL A   1      33.359  33.134  27.767  1.00  0.00     0.060 A 
ATOM      9  C   UNL A   1      32.418  30.638  26.927  1.00  0.00     0.040 A 
ATOM     10  C   UNL A   1      31.616  31.773  26.781  1.00  0.00     0.027 A 
ATOM     11  C   UNL A   1      33.728  30.785  27.415  1.00  0.00     0.027 A 
ATOM     12  C   UNL A   1      32.077  33.013  27.218  1.00  0.00     0.018 A 
ATOM     13  C   UNL A   1      34.210  32.031  27.824  1.00  0.00     0.018 A 
BRANCH   9  14
ATOM     14  N   UNL A   1      31.823  29.365  26.803  1.00  0.00    -0.334 N 
ATOM     15  H   UNL A   1      30.969  29.210  27.268  1.00  0.00     0.168 HD
BRANCH  14  16
ATOM     16  C   UNL A   1      32.370  28.302  26.056  1.00  0.00     0.215 A 
ATOM     17  C   UNL A   1      32.764  27.079  24.062  1.00  0.00     0.225 A 
ATOM     18  N   UNL A   1      33.670  26.304  24.698  1.00  0.00    -0.212 NA
ATOM     19  C   UNL A   1      32.035  28.036  24.740  1.00  0.00     0.354 A 
ATOM     20  C   UNL A   1      33.895  26.571  25.981  1.00  0.00     0.227 A 
ATOM     21  N   UNL A   1      33.319  27.555  26.668  1.00  0.00    -0.212 NA
BRANCH  17  22
ATOM     22  N   UNL A   1      32.774  26.858  22.683  1.00  0.00    -0.298 N 
ATOM     23  H   UNL A   1      33.448  27.348  22.158  1.00  0.00     0.184 HD
BRANCH  22  24
ATOM     24  N   UNL A   1      31.902  25.994  21.963  1.00  0.00    -0.228 NA
ATOM     25  C   UNL A   1      32.395  25.661  20.615  1.00  0.00     0.130 C 
ATOM     26  C   UNL A   1      31.837  24.733  22.731  1.00  0.00     0.130 C 
ENDBRANCH  22  24
ENDBRANCH  17  22
BRANCH  19  27
ATOM     27  N   UNL A   1      30.852  28.605  24.159  1.00  0.00     0.070 N 
ATOM     28  O   UNL A   1      29.945  27.824  23.830  1.00  0.00    -0.258 OA
ATOM     29  O   UNL A   1      30.864  29.816  23.902  1.00  0.00    -0.258 OA
ENDBRANCH  19  27
ENDBRANCH  14  16
ENDBRANCH   9  14
ENDBRANCH   6   8
ENDBRANCH   5   6
ENDBRANCH   4   5
ENDBRANCH   3   4
ENDBRANCH   2   3
ENDBRANCH   1   2
BRANCH   1  30
ATOM     30  C   UNL A   1      34.868  34.798  33.808  1.00  0.00     0.188 C 
BRANCH  30  31
ATOM     31  O   UNL A   1      36.166  35.182  33.426  1.00  0.00    -0.376 OA
BRANCH  31  32
ATOM     32  C   UNL A   1      36.990  34.339  32.643  1.00  0.00     0.202 C 
BRANCH  32  33
ATOM     33  C   UNL A   1      36.713  33.886  31.199  1.00  0.00     0.261 C 
BRANCH  33  34
ATOM     34  O   UNL A   1      35.920  32.720  31.003  1.00  0.00    -0.460 OA
BRANCH  34  35
ATOM     35  C   UNL A   1      36.417  31.586  31.559  1.00  0.00     0.338 C 
ATOM     36  O   UNL A   1      35.834  30.791  32.274  1.00  0.00    -0.246 OA
BRANCH  35  37
ATOM     37  C   UNL A   1      37.772  31.355  31.034  1.00  0.00     0.060 A 
ATOM     38  C   UNL A   1      37.947  31.285  29.647  1.00  0.00     0.016 A 
ATOM     39  C   UNL A   1      38.845  31.158  31.901  1.00  0.00     0.016 A 
ATOM     40  C   UNL A   1      39.203  30.989  29.120  1.00  0.00     0.010 A 
ATOM     41  C   UNL A   1      40.100  30.844  31.374  1.00  0.00     0.010 A 
ATOM     42  C   UNL A   1      40.277  30.730  29.983  1.00  0.00    -0.014 A 
BRANCH  42  43
ATOM     43  C   UNL A   1      41.539  30.175  29.441  1.00  0.00     0.031 A 
ATOM     44  C   UNL A   1      41.576  28.726  29.039  1.00  0.00     0.074 A 
ATOM     45  C   UNL A   1      42.632  30.944  29.296  1.00  0.00     0.049 A 
ATOM     46  N   UNL A   1      42.576  28.018  28.580  1.00  0.00    -0.248 NA
ATOM     47  C   UNL A   1      40.316  27.978  29.174  1.00  0.00     0.031 C 
ATOM     48  C   UNL A   1      42.713  32.369  29.607  1.00  0.00     0.029 A 
ATOM     49  N   UNL A   1      43.889  30.621  28.852  1.00  0.00    -0.354 N 
ATOM     50  C   UNL A   1      42.068  26.741  28.377  1.00  0.00     0.074 A 
ATOM     51  C   UNL A   1      40.681  26.764  28.788  1.00  0.00     0.031 C 
ATOM     52  C   UNL A   1      43.963  32.797  29.353  1.00  0.00     0.029 A 
ATOM     53  C   UNL A   1      44.773  31.671  28.895  1.00  0.00     0.049 A 
ATOM     54  H   UNL A   1      44.134  29.722  28.533  1.00  0.00     0.167 HD
ATOM     55  C   UNL A   1      42.697  25.647  27.887  1.00  0.00     0.031 A 
ATOM     56  C   UNL A   1      46.090  31.709  28.615  1.00  0.00     0.031 A 
ATOM     57  C   UNL A   1      44.082  25.614  27.499  1.00  0.00     0.049 A 
ATOM     58  C   UNL A   1      46.789  30.457  28.155  1.00  0.00     0.074 A 
ATOM     59  C   UNL A   1      44.807  24.554  26.983  1.00  0.00     0.029 A 
ATOM     60  N   UNL A   1      44.952  26.687  27.593  1.00  0.00    -0.354 N 
ATOM     61  N   UNL A   1      46.293  29.262  27.941  1.00  0.00    -0.248 NA
ATOM     62  C   UNL A   1      48.232  30.563  27.892  1.00  0.00     0.031 C 
ATOM     63  C   UNL A   1      46.131  24.972  26.818  1.00  0.00     0.029 A 
ATOM     64  C   UNL A   1      46.215  26.308  27.172  1.00  0.00     0.049 A 
ATOM     65  H   UNL A   1      44.708  27.587  27.911  1.00  0.00     0.167 HD
ATOM     66  C   UNL A   1      47.354  28.485  27.489  1.00  0.00     0.074 A 
ATOM     67  C   UNL A   1      48.517  29.347  27.448  1.00  0.00     0.031 C 
ATOM     68  C   UNL A   1      47.363  27.176  27.135  1.00  0.00     0.031 A 
BRANCH  55  69
ATOM     69  C   UNL A   1      41.894  24.381  27.783  1.00  0.00    -0.014 A 
ATOM     70  C   UNL A   1      40.854  24.252  26.848  1.00  0.00     0.009 A 
ATOM     71  C   UNL A   1      42.199  23.294  28.616  1.00  0.00     0.009 A 
ATOM     72  C   UNL A   1      40.114  23.070  26.774  1.00  0.00     0.001 A 
ATOM     73  C   UNL A   1      41.475  22.104  28.520  1.00  0.00     0.001 A 
ATOM     74  C   UNL A   1      40.428  21.997  27.607  1.00  0.00     0.000 A 
ENDBRANCH  55  69
BRANCH  56  75
ATOM     75  C   UNL A   1      46.851  32.976  28.783  1.00  0.00    -0.014 A 
ATOM     76  C   UNL A   1      46.992  33.874  27.715  1.00  0.00     0.009 A 
ATOM     77  C   UNL A   1      47.467  33.277  30.008  1.00  0.00     0.009 A 
ATOM     78  C   UNL A   1      47.757  35.034  27.861  1.00  0.00     0.001 A 
ATOM     79  C   UNL A   1      48.207  34.452  30.161  1.00  0.00     0.001 A 
ATOM     80  C   UNL A   1      48.359  35.324  29.085  1.00  0.00     0.000 A 
ENDBRANCH  56  75
BRANCH  68  81
ATOM     81  C   UNL A   1      48.661  26.605  26.633  1.00  0.00    -0.014 A 
ATOM     82  C   UNL A   1      49.094  26.815  25.315  1.00  0.00     0.009 A 
ATOM     83  C   UNL A   1      49.483  25.881  27.512  1.00  0.00     0.009 A 
ATOM     84  C   UNL A   1      50.309  26.283  24.879  1.00  0.00     0.001 A 
ATOM     85  C   UNL A   1      50.710  25.376  27.081  1.00  0.00     0.001 A 
ATOM     86  C   UNL A   1      51.119  25.569  25.762  1.00  0.00     0.000 A 
ENDBRANCH  68  81
ENDBRANCH  42  43
ENDBRANCH  35  37
ENDBRANCH  34  35
ENDBRANCH  33  34
ENDBRANCH  32  33
ENDBRANCH  31  32
ENDBRANCH  30  31
ENDBRANCH   1  30
TORSDOF 22
ENDMDL
