MODEL 1
REMARK VINA RESULT:     -10.7      0.000      0.000
REMARK SMILES O=C(C[C@H](C(=O)OCCOCCOCCOC(=O)c1ccc(-c2c3nc(c(-c4ccccc4)c4ccc([nH]4)c(-c4ccccc4)c4nc(c(-c5ccccc5)c5ccc2[nH]5)C=C4)C=C3)cc1)c1ccccc1)Nc1ccc(Cl)cc1Cl
REMARK SMILES IDX 11 1 10 2 9 3 8 4 7 5 5 6 6 7 4 8 3 9 2 10 1 11 73 12 74 14
REMARK SMILES IDX 75 15 80 16 76 17 79 18 81 19 77 20 78 21 67 22 68 23 72 24
REMARK SMILES IDX 69 25 71 26 70 27 12 28 13 29 14 30 15 31 16 32 17 33 18 34
REMARK SMILES IDX 19 35 20 36 66 37 21 38 65 39 22 40 23 41 24 42 59 43 25 44
REMARK SMILES IDX 64 45 58 46 60 47 26 48 63 49 57 50 56 51 27 53 49 54 34 55
REMARK SMILES IDX 48 56 35 57 38 58 47 59 61 60 36 61 37 62 46 64 62 65 39 66
REMARK SMILES IDX 28 67 29 68 33 69 30 70 32 71 31 72 50 73 51 74 55 75 52 76
REMARK SMILES IDX 54 77 53 78 40 79 41 80 45 81 42 82 44 83 43 84
REMARK H PARENT 73 13 60 52 38 63
REMARK Flexibility Score: inf
ROOT
ATOM      1  C   UNL A   1      40.101  21.384  26.993  1.00  0.00     0.188 C 
ENDROOT
BRANCH   1   2
ATOM      2  O   UNL A   1      39.285  21.003  25.896  1.00  0.00    -0.376 OA
BRANCH   2   3
ATOM      3  C   UNL A   1      38.212  21.856  25.507  1.00  0.00     0.202 C 
BRANCH   3   4
ATOM      4  C   UNL A   1      36.938  21.221  24.925  1.00  0.00     0.261 C 
BRANCH   4   5
ATOM      5  O   UNL A   1      35.704  21.626  25.577  1.00  0.00    -0.463 OA
BRANCH   5   6
ATOM      6  C   UNL A   1      34.610  21.719  24.775  1.00  0.00     0.314 C 
ATOM      7  O   UNL A   1      34.554  22.487  23.816  1.00  0.00    -0.252 OA
BRANCH   6   8
ATOM      8  C   UNL A   1      33.431  20.791  25.126  1.00  0.00     0.138 C 
BRANCH   8   9
ATOM      9  C   UNL A   1      31.985  21.288  25.298  1.00  0.00     0.120 C 
BRANCH   9  10
ATOM     10  C   UNL A   1      31.760  22.698  25.797  1.00  0.00     0.225 C 
ATOM     11  O   UNL A   1      31.769  22.970  26.991  1.00  0.00    -0.275 OA
ATOM     12  N   UNL A   1      31.581  23.597  24.772  1.00  0.00    -0.325 N 
ATOM     13  H   UNL A   1      31.468  23.224  23.868  1.00  0.00     0.169 HD
BRANCH  12  14
ATOM     14  C   UNL A   1      31.541  24.995  24.891  1.00  0.00     0.060 A 
ATOM     15  C   UNL A   1      30.378  25.604  24.405  1.00  0.00     0.029 A 
ATOM     16  C   UNL A   1      32.604  25.797  25.336  1.00  0.00     0.066 A 
ATOM     17  C   UNL A   1      30.252  26.989  24.384  1.00  0.00     0.023 A 
ATOM     18  C   UNL A   1      32.486  27.192  25.291  1.00  0.00     0.043 A 
ATOM     19  Cl  UNL A   1      34.158  25.158  25.748  1.00  0.00    -0.082 Cl
ATOM     20  C   UNL A   1      31.313  27.778  24.818  1.00  0.00     0.042 A 
ATOM     21  Cl  UNL A   1      31.183  29.490  24.723  1.00  0.00    -0.084 Cl
ENDBRANCH  12  14
ENDBRANCH   9  10
ENDBRANCH   8   9
BRANCH   8  22
ATOM     22  C   UNL A   1      33.515  19.476  24.360  1.00  0.00    -0.033 A 
ATOM     23  C   UNL A   1      34.515  18.527  24.623  1.00  0.00     0.004 A 
ATOM     24  C   UNL A   1      32.531  19.169  23.407  1.00  0.00     0.004 A 
ATOM     25  C   UNL A   1      34.507  17.291  23.979  1.00  0.00     0.000 A 
ATOM     26  C   UNL A   1      32.539  17.942  22.746  1.00  0.00     0.000 A 
ATOM     27  C   UNL A   1      33.522  17.000  23.041  1.00  0.00     0.000 A 
ENDBRANCH   8  22
ENDBRANCH   6   8
ENDBRANCH   5   6
ENDBRANCH   4   5
ENDBRANCH   3   4
ENDBRANCH   2   3
ENDBRANCH   1   2
BRANCH   1  28
ATOM     28  C   UNL A   1      41.331  20.520  27.309  1.00  0.00     0.188 C 
BRANCH  28  29
ATOM     29  O   UNL A   1      41.724  19.665  26.259  1.00  0.00    -0.376 OA
BRANCH  29  30
ATOM     30  C   UNL A   1      42.885  20.043  25.522  1.00  0.00     0.202 C 
BRANCH  30  31
ATOM     31  C   UNL A   1      43.607  21.389  25.770  1.00  0.00     0.261 C 
BRANCH  31  32
ATOM     32  O   UNL A   1      43.068  22.563  25.140  1.00  0.00    -0.460 OA
BRANCH  32  33
ATOM     33  C   UNL A   1      43.870  23.655  25.022  1.00  0.00     0.338 C 
ATOM     34  O   UNL A   1      44.625  23.912  24.115  1.00  0.00    -0.246 OA
BRANCH  33  35
ATOM     35  C   UNL A   1      43.442  24.614  26.077  1.00  0.00     0.060 A 
ATOM     36  C   UNL A   1      42.651  24.144  27.140  1.00  0.00     0.016 A 
ATOM     37  C   UNL A   1      43.897  25.933  26.072  1.00  0.00     0.016 A 
ATOM     38  C   UNL A   1      42.334  24.987  28.209  1.00  0.00     0.010 A 
ATOM     39  C   UNL A   1      43.544  26.786  27.123  1.00  0.00     0.010 A 
ATOM     40  C   UNL A   1      42.757  26.322  28.194  1.00  0.00    -0.014 A 
BRANCH  40  41
ATOM     41  C   UNL A   1      42.245  27.292  29.193  1.00  0.00     0.031 A 
ATOM     42  C   UNL A   1      42.957  27.394  30.512  1.00  0.00     0.074 A 
ATOM     43  C   UNL A   1      41.150  28.038  28.962  1.00  0.00     0.049 A 
ATOM     44  N   UNL A   1      42.623  28.056  31.589  1.00  0.00    -0.248 NA
ATOM     45  C   UNL A   1      44.213  26.637  30.629  1.00  0.00     0.031 C 
ATOM     46  C   UNL A   1      40.395  28.074  27.713  1.00  0.00     0.029 A 
ATOM     47  N   UNL A   1      40.468  28.891  29.796  1.00  0.00    -0.354 N 
ATOM     48  C   UNL A   1      43.617  27.780  32.519  1.00  0.00     0.074 A 
ATOM     49  C   UNL A   1      44.552  26.876  31.886  1.00  0.00     0.031 C 
ATOM     50  C   UNL A   1      39.333  28.883  27.872  1.00  0.00     0.029 A 
ATOM     51  C   UNL A   1      39.310  29.385  29.246  1.00  0.00     0.049 A 
ATOM     52  H   UNL A   1      40.779  29.128  30.700  1.00  0.00     0.167 HD
ATOM     53  C   UNL A   1      43.740  28.233  33.790  1.00  0.00     0.031 A 
ATOM     54  C   UNL A   1      38.322  30.117  29.800  1.00  0.00     0.031 A 
ATOM     55  C   UNL A   1      42.791  29.103  34.432  1.00  0.00     0.049 A 
ATOM     56  C   UNL A   1      38.424  30.531  31.246  1.00  0.00     0.074 A 
ATOM     57  C   UNL A   1      42.833  29.630  35.710  1.00  0.00     0.029 A 
ATOM     58  N   UNL A   1      41.619  29.558  33.849  1.00  0.00    -0.354 N 
ATOM     59  N   UNL A   1      39.383  30.292  32.110  1.00  0.00    -0.248 NA
ATOM     60  C   UNL A   1      37.308  31.317  31.794  1.00  0.00     0.031 C 
ATOM     61  C   UNL A   1      41.650  30.344  35.926  1.00  0.00     0.029 A 
ATOM     62  C   UNL A   1      40.907  30.324  34.756  1.00  0.00     0.049 A 
ATOM     63  H   UNL A   1      41.334  29.365  32.926  1.00  0.00     0.167 HD
ATOM     64  C   UNL A   1      38.995  30.914  33.293  1.00  0.00     0.074 A 
ATOM     65  C   UNL A   1      37.724  31.555  33.031  1.00  0.00     0.031 C 
ATOM     66  C   UNL A   1      39.636  30.950  34.487  1.00  0.00     0.031 A 
BRANCH  53  67
ATOM     67  C   UNL A   1      44.917  27.736  34.582  1.00  0.00    -0.014 A 
ATOM     68  C   UNL A   1      44.845  26.561  35.348  1.00  0.00     0.009 A 
ATOM     69  C   UNL A   1      46.121  28.460  34.565  1.00  0.00     0.009 A 
ATOM     70  C   UNL A   1      45.935  26.149  36.117  1.00  0.00     0.001 A 
ATOM     71  C   UNL A   1      47.220  28.026  35.306  1.00  0.00     0.001 A 
ATOM     72  C   UNL A   1      47.122  26.880  36.093  1.00  0.00     0.000 A 
ENDBRANCH  53  67
BRANCH  54  73
ATOM     73  C   UNL A   1      37.118  30.464  28.997  1.00  0.00    -0.014 A 
ATOM     74  C   UNL A   1      36.904  31.775  28.547  1.00  0.00     0.009 A 
ATOM     75  C   UNL A   1      36.169  29.478  28.682  1.00  0.00     0.009 A 
ATOM     76  C   UNL A   1      35.760  32.094  27.811  1.00  0.00     0.001 A 
ATOM     77  C   UNL A   1      35.041  29.792  27.920  1.00  0.00     0.001 A 
ATOM     78  C   UNL A   1      34.834  31.101  27.492  1.00  0.00     0.000 A 
ENDBRANCH  54  73
BRANCH  66  79
ATOM     79  C   UNL A   1      38.990  31.729  35.602  1.00  0.00    -0.014 A 
ATOM     80  C   UNL A   1      38.179  31.100  36.560  1.00  0.00     0.009 A 
ATOM     81  C   UNL A   1      39.251  33.103  35.732  1.00  0.00     0.009 A 
ATOM     82  C   UNL A   1      37.621  31.837  37.607  1.00  0.00     0.001 A 
ATOM     83  C   UNL A   1      38.718  33.830  36.797  1.00  0.00     0.001 A 
ATOM     84  C   UNL A   1      37.896  33.199  37.730  1.00  0.00     0.000 A 
ENDBRANCH  66  79
ENDBRANCH  40  41
ENDBRANCH  33  35
ENDBRANCH  32  33
ENDBRANCH  31  32
ENDBRANCH  30  31
ENDBRANCH  29  30
ENDBRANCH  28  29
ENDBRANCH   1  28
TORSDOF 21
ENDMDL
MODEL 2
REMARK VINA RESULT:     -10.4      4.057      6.140
REMARK SMILES O=C(C[C@H](C(=O)OCCOCCOCCOC(=O)c1ccc(-c2c3nc(c(-c4ccccc4)c4ccc([nH]4)c(-c4ccccc4)c4nc(c(-c5ccccc5)c5ccc2[nH]5)C=C4)C=C3)cc1)c1ccccc1)Nc1ccc(Cl)cc1Cl
REMARK SMILES IDX 11 1 10 2 9 3 8 4 7 5 5 6 6 7 4 8 3 9 2 10 1 11 73 12 74 14
REMARK SMILES IDX 75 15 80 16 76 17 79 18 81 19 77 20 78 21 67 22 68 23 72 24
REMARK SMILES IDX 69 25 71 26 70 27 12 28 13 29 14 30 15 31 16 32 17 33 18 34
REMARK SMILES IDX 19 35 20 36 66 37 21 38 65 39 22 40 23 41 24 42 59 43 25 44
REMARK SMILES IDX 64 45 58 46 60 47 26 48 63 49 57 50 56 51 27 53 49 54 34 55
REMARK SMILES IDX 48 56 35 57 38 58 47 59 61 60 36 61 37 62 46 64 62 65 39 66
REMARK SMILES IDX 28 67 29 68 33 69 30 70 32 71 31 72 50 73 51 74 55 75 52 76
REMARK SMILES IDX 54 77 53 78 40 79 41 80 45 81 42 82 44 83 43 84
REMARK H PARENT 73 13 60 52 38 63
REMARK Flexibility Score: inf
ROOT
ATOM      1  C   UNL A   1      39.865  22.289  26.322  1.00  0.00     0.188 C 
ENDROOT
BRANCH   1   2
ATOM      2  O   UNL A   1      38.790  21.428  25.980  1.00  0.00    -0.376 OA
BRANCH   2   3
ATOM      3  C   UNL A   1      37.601  21.993  25.435  1.00  0.00     0.202 C 
BRANCH   3   4
ATOM      4  C   UNL A   1      36.621  21.074  24.687  1.00  0.00     0.261 C 
BRANCH   4   5
ATOM      5  O   UNL A   1      35.244  21.539  24.667  1.00  0.00    -0.463 OA
BRANCH   5   6
ATOM      6  C   UNL A   1      34.479  21.181  25.732  1.00  0.00     0.314 C 
ATOM      7  O   UNL A   1      34.813  21.403  26.894  1.00  0.00    -0.252 OA
BRANCH   6   8
ATOM      8  C   UNL A   1      33.144  20.485  25.403  1.00  0.00     0.138 C 
BRANCH   8   9
ATOM      9  C   UNL A   1      31.871  21.248  24.995  1.00  0.00     0.120 C 
BRANCH   9  10
ATOM     10  C   UNL A   1      31.776  22.722  25.318  1.00  0.00     0.225 C 
ATOM     11  O   UNL A   1      31.087  23.138  26.242  1.00  0.00    -0.275 OA
ATOM     12  N   UNL A   1      32.556  23.495  24.490  1.00  0.00    -0.325 N 
ATOM     13  H   UNL A   1      32.956  23.046  23.711  1.00  0.00     0.169 HD
BRANCH  12  14
ATOM     14  C   UNL A   1      32.836  24.861  24.649  1.00  0.00     0.060 A 
ATOM     15  C   UNL A   1      33.795  25.165  25.622  1.00  0.00     0.029 A 
ATOM     16  C   UNL A   1      32.152  25.904  24.004  1.00  0.00     0.066 A 
ATOM     17  C   UNL A   1      34.098  26.487  25.937  1.00  0.00     0.023 A 
ATOM     18  C   UNL A   1      32.440  27.233  24.341  1.00  0.00     0.043 A 
ATOM     19  Cl  UNL A   1      30.805  25.639  22.953  1.00  0.00    -0.082 Cl
ATOM     20  C   UNL A   1      33.410  27.515  25.303  1.00  0.00     0.042 A 
ATOM     21  Cl  UNL A   1      33.734  29.145  25.747  1.00  0.00    -0.084 Cl
ENDBRANCH  12  14
ENDBRANCH   9  10
ENDBRANCH   8   9
BRANCH   8  22
ATOM     22  C   UNL A   1      33.365  19.223  24.579  1.00  0.00    -0.033 A 
ATOM     23  C   UNL A   1      32.583  18.926  23.453  1.00  0.00     0.004 A 
ATOM     24  C   UNL A   1      34.421  18.359  24.911  1.00  0.00     0.004 A 
ATOM     25  C   UNL A   1      32.874  17.817  22.659  1.00  0.00     0.000 A 
ATOM     26  C   UNL A   1      34.694  17.237  24.131  1.00  0.00     0.000 A 
ATOM     27  C   UNL A   1      33.927  16.974  22.999  1.00  0.00     0.000 A 
ENDBRANCH   8  22
ENDBRANCH   6   8
ENDBRANCH   5   6
ENDBRANCH   4   5
ENDBRANCH   3   4
ENDBRANCH   2   3
ENDBRANCH   1   2
BRANCH   1  28
ATOM     28  C   UNL A   1      41.294  21.804  26.036  1.00  0.00     0.188 C 
BRANCH  28  29
ATOM     29  O   UNL A   1      41.671  20.654  26.760  1.00  0.00    -0.376 OA
BRANCH  29  30
ATOM     30  C   UNL A   1      41.776  19.437  26.024  1.00  0.00     0.202 C 
BRANCH  30  31
ATOM     31  C   UNL A   1      43.147  18.832  25.636  1.00  0.00     0.261 C 
BRANCH  31  32
ATOM     32  O   UNL A   1      43.707  19.201  24.366  1.00  0.00    -0.460 OA
BRANCH  32  33
ATOM     33  C   UNL A   1      45.003  19.610  24.328  1.00  0.00     0.338 C 
ATOM     34  O   UNL A   1      45.939  19.027  23.835  1.00  0.00    -0.246 OA
BRANCH  33  35
ATOM     35  C   UNL A   1      45.012  21.036  24.757  1.00  0.00     0.060 A 
ATOM     36  C   UNL A   1      44.622  22.024  23.837  1.00  0.00     0.016 A 
ATOM     37  C   UNL A   1      45.303  21.383  26.077  1.00  0.00     0.016 A 
ATOM     38  C   UNL A   1      44.502  23.357  24.243  1.00  0.00     0.010 A 
ATOM     39  C   UNL A   1      45.221  22.723  26.470  1.00  0.00     0.010 A 
ATOM     40  C   UNL A   1      44.826  23.718  25.555  1.00  0.00    -0.014 A 
BRANCH  40  41
ATOM     41  C   UNL A   1      44.928  25.146  25.947  1.00  0.00     0.031 A 
ATOM     42  C   UNL A   1      46.284  25.793  25.926  1.00  0.00     0.074 A 
ATOM     43  C   UNL A   1      43.856  25.848  26.354  1.00  0.00     0.049 A 
ATOM     44  N   UNL A   1      46.650  26.973  26.355  1.00  0.00    -0.248 NA
ATOM     45  C   UNL A   1      47.374  24.990  25.350  1.00  0.00     0.031 C 
ATOM     46  C   UNL A   1      42.479  25.361  26.376  1.00  0.00     0.029 A 
ATOM     47  N   UNL A   1      43.772  27.124  26.859  1.00  0.00    -0.354 N 
ATOM     48  C   UNL A   1      48.016  27.047  26.118  1.00  0.00     0.074 A 
ATOM     49  C   UNL A   1      48.415  25.788  25.529  1.00  0.00     0.031 C 
ATOM     50  C   UNL A   1      41.690  26.315  26.899  1.00  0.00     0.029 A 
ATOM     51  C   UNL A   1      42.512  27.460  27.290  1.00  0.00     0.049 A 
ATOM     52  H   UNL A   1      44.540  27.738  26.906  1.00  0.00     0.167 HD
ATOM     53  C   UNL A   1      48.867  28.070  26.373  1.00  0.00     0.031 A 
ATOM     54  C   UNL A   1      42.080  28.545  27.964  1.00  0.00     0.031 A 
ATOM     55  C   UNL A   1      48.477  29.309  26.993  1.00  0.00     0.049 A 
ATOM     56  C   UNL A   1      43.058  29.633  28.330  1.00  0.00     0.074 A 
ATOM     57  C   UNL A   1      49.260  30.412  27.281  1.00  0.00     0.029 A 
ATOM     58  N   UNL A   1      47.197  29.598  27.439  1.00  0.00    -0.354 N 
ATOM     59  N   UNL A   1      44.343  29.710  28.075  1.00  0.00    -0.248 NA
ATOM     60  C   UNL A   1      42.527  30.783  29.076  1.00  0.00     0.031 C 
ATOM     61  C   UNL A   1      48.470  31.341  27.966  1.00  0.00     0.029 A 
ATOM     62  C   UNL A   1      47.177  30.846  28.038  1.00  0.00     0.049 A 
ATOM     63  H   UNL A   1      46.417  29.005  27.343  1.00  0.00     0.167 HD
ATOM     64  C   UNL A   1      44.767  30.923  28.610  1.00  0.00     0.074 A 
ATOM     65  C   UNL A   1      43.599  31.555  29.187  1.00  0.00     0.031 C 
ATOM     66  C   UNL A   1      46.010  31.462  28.620  1.00  0.00     0.031 A 
BRANCH  53  67
ATOM     67  C   UNL A   1      50.316  27.855  26.036  1.00  0.00    -0.014 A 
ATOM     68  C   UNL A   1      50.833  28.178  24.770  1.00  0.00     0.009 A 
ATOM     69  C   UNL A   1      51.181  27.316  27.003  1.00  0.00     0.009 A 
ATOM     70  C   UNL A   1      52.170  27.920  24.465  1.00  0.00     0.001 A 
ATOM     71  C   UNL A   1      52.525  27.093  26.707  1.00  0.00     0.001 A 
ATOM     72  C   UNL A   1      53.016  27.380  25.434  1.00  0.00     0.000 A 
ENDBRANCH  53  67
BRANCH  54  73
ATOM     73  C   UNL A   1      40.656  28.636  28.386  1.00  0.00    -0.014 A 
ATOM     74  C   UNL A   1      39.692  29.224  27.554  1.00  0.00     0.009 A 
ATOM     75  C   UNL A   1      40.255  28.137  29.637  1.00  0.00     0.009 A 
ATOM     76  C   UNL A   1      38.361  29.322  27.970  1.00  0.00     0.001 A 
ATOM     77  C   UNL A   1      38.919  28.208  30.038  1.00  0.00     0.001 A 
ATOM     78  C   UNL A   1      37.975  28.807  29.207  1.00  0.00     0.000 A 
ENDBRANCH  54  73
BRANCH  66  79
ATOM     79  C   UNL A   1      46.177  32.818  29.254  1.00  0.00    -0.014 A 
ATOM     80  C   UNL A   1      45.996  33.998  28.517  1.00  0.00     0.009 A 
ATOM     81  C   UNL A   1      46.458  32.913  30.627  1.00  0.00     0.009 A 
ATOM     82  C   UNL A   1      46.119  35.244  29.135  1.00  0.00     0.001 A 
ATOM     83  C   UNL A   1      46.550  34.158  31.249  1.00  0.00     0.001 A 
ATOM     84  C   UNL A   1      46.388  35.324  30.502  1.00  0.00     0.000 A 
ENDBRANCH  66  79
ENDBRANCH  40  41
ENDBRANCH  33  35
ENDBRANCH  32  33
ENDBRANCH  31  32
ENDBRANCH  30  31
ENDBRANCH  29  30
ENDBRANCH  28  29
ENDBRANCH   1  28
TORSDOF 21
ENDMDL
MODEL 3
REMARK VINA RESULT:     -10.4      3.526      4.456
REMARK SMILES O=C(C[C@H](C(=O)OCCOCCOCCOC(=O)c1ccc(-c2c3nc(c(-c4ccccc4)c4ccc([nH]4)c(-c4ccccc4)c4nc(c(-c5ccccc5)c5ccc2[nH]5)C=C4)C=C3)cc1)c1ccccc1)Nc1ccc(Cl)cc1Cl
REMARK SMILES IDX 11 1 10 2 9 3 8 4 7 5 5 6 6 7 4 8 3 9 2 10 1 11 73 12 74 14
REMARK SMILES IDX 75 15 80 16 76 17 79 18 81 19 77 20 78 21 67 22 68 23 72 24
REMARK SMILES IDX 69 25 71 26 70 27 12 28 13 29 14 30 15 31 16 32 17 33 18 34
REMARK SMILES IDX 19 35 20 36 66 37 21 38 65 39 22 40 23 41 24 42 59 43 25 44
REMARK SMILES IDX 64 45 58 46 60 47 26 48 63 49 57 50 56 51 27 53 49 54 34 55
REMARK SMILES IDX 48 56 35 57 38 58 47 59 61 60 36 61 37 62 46 64 62 65 39 66
REMARK SMILES IDX 28 67 29 68 33 69 30 70 32 71 31 72 50 73 51 74 55 75 52 76
REMARK SMILES IDX 54 77 53 78 40 79 41 80 45 81 42 82 44 83 43 84
REMARK H PARENT 73 13 60 52 38 63
REMARK Flexibility Score: inf
ROOT
ATOM      1  C   UNL A   1      39.863  22.899  26.464  1.00  0.00     0.188 C 
ENDROOT
BRANCH   1   2
ATOM      2  O   UNL A   1      38.617  23.459  26.847  1.00  0.00    -0.376 OA
BRANCH   2   3
ATOM      3  C   UNL A   1      37.669  23.789  25.835  1.00  0.00     0.202 C 
BRANCH   3   4
ATOM      4  C   UNL A   1      36.215  23.317  26.003  1.00  0.00     0.261 C 
BRANCH   4   5
ATOM      5  O   UNL A   1      35.912  22.043  25.374  1.00  0.00    -0.463 OA
BRANCH   5   6
ATOM      6  C   UNL A   1      34.765  21.996  24.644  1.00  0.00     0.314 C 
ATOM      7  O   UNL A   1      34.613  22.639  23.607  1.00  0.00    -0.252 OA
BRANCH   6   8
ATOM      8  C   UNL A   1      33.656  21.073  25.184  1.00  0.00     0.138 C 
BRANCH   8   9
ATOM      9  C   UNL A   1      32.242  21.568  25.538  1.00  0.00     0.120 C 
BRANCH   9  10
ATOM     10  C   UNL A   1      32.095  22.909  26.221  1.00  0.00     0.225 C 
ATOM     11  O   UNL A   1      31.919  23.003  27.430  1.00  0.00    -0.275 OA
ATOM     12  N   UNL A   1      32.209  23.962  25.344  1.00  0.00    -0.325 N 
ATOM     13  H   UNL A   1      32.220  23.742  24.384  1.00  0.00     0.169 HD
BRANCH  12  14
ATOM     14  C   UNL A   1      32.311  25.320  25.685  1.00  0.00     0.060 A 
ATOM     15  C   UNL A   1      33.617  25.815  25.779  1.00  0.00     0.029 A 
ATOM     16  C   UNL A   1      31.233  26.145  26.042  1.00  0.00     0.066 A 
ATOM     17  C   UNL A   1      33.856  27.122  26.195  1.00  0.00     0.023 A 
ATOM     18  C   UNL A   1      31.477  27.451  26.485  1.00  0.00     0.043 A 
ATOM     19  Cl  UNL A   1      29.607  25.567  26.171  1.00  0.00    -0.082 Cl
ATOM     20  C   UNL A   1      32.784  27.931  26.557  1.00  0.00     0.042 A 
ATOM     21  Cl  UNL A   1      33.087  29.520  27.141  1.00  0.00    -0.084 Cl
ENDBRANCH  12  14
ENDBRANCH   9  10
ENDBRANCH   8   9
BRANCH   8  22
ATOM     22  C   UNL A   1      33.648  19.734  24.457  1.00  0.00    -0.033 A 
ATOM     23  C   UNL A   1      34.634  18.762  24.682  1.00  0.00     0.004 A 
ATOM     24  C   UNL A   1      32.592  19.430  23.583  1.00  0.00     0.004 A 
ATOM     25  C   UNL A   1      34.545  17.508  24.080  1.00  0.00     0.000 A 
ATOM     26  C   UNL A   1      32.517  18.184  22.963  1.00  0.00     0.000 A 
ATOM     27  C   UNL A   1      33.489  17.221  23.221  1.00  0.00     0.000 A 
ENDBRANCH   8  22
ENDBRANCH   6   8
ENDBRANCH   5   6
ENDBRANCH   4   5
ENDBRANCH   3   4
ENDBRANCH   2   3
ENDBRANCH   1   2
BRANCH   1  28
ATOM     28  C   UNL A   1      40.752  22.303  27.564  1.00  0.00     0.188 C 
BRANCH  28  29
ATOM     29  O   UNL A   1      40.613  20.909  27.731  1.00  0.00    -0.376 OA
BRANCH  29  30
ATOM     30  C   UNL A   1      40.767  20.104  26.564  1.00  0.00     0.202 C 
BRANCH  30  31
ATOM     31  C   UNL A   1      42.162  19.705  26.025  1.00  0.00     0.261 C 
BRANCH  31  32
ATOM     32  O   UNL A   1      42.818  20.614  25.127  1.00  0.00    -0.460 OA
BRANCH  32  33
ATOM     33  C   UNL A   1      44.078  21.024  25.433  1.00  0.00     0.338 C 
ATOM     34  O   UNL A   1      45.114  20.468  25.158  1.00  0.00    -0.246 OA
BRANCH  33  35
ATOM     35  C   UNL A   1      43.961  22.425  25.924  1.00  0.00     0.060 A 
ATOM     36  C   UNL A   1      43.471  23.412  25.051  1.00  0.00     0.016 A 
ATOM     37  C   UNL A   1      44.236  22.742  27.254  1.00  0.00     0.016 A 
ATOM     38  C   UNL A   1      43.233  24.709  25.514  1.00  0.00     0.010 A 
ATOM     39  C   UNL A   1      44.036  24.051  27.706  1.00  0.00     0.010 A 
ATOM     40  C   UNL A   1      43.541  25.043  26.838  1.00  0.00    -0.014 A 
BRANCH  40  41
ATOM     41  C   UNL A   1      43.516  26.456  27.291  1.00  0.00     0.031 A 
ATOM     42  C   UNL A   1      44.828  27.154  27.509  1.00  0.00     0.074 A 
ATOM     43  C   UNL A   1      42.363  27.100  27.545  1.00  0.00     0.049 A 
ATOM     44  N   UNL A   1      45.069  28.329  28.032  1.00  0.00    -0.248 NA
ATOM     45  C   UNL A   1      46.030  26.418  27.087  1.00  0.00     0.031 C 
ATOM     46  C   UNL A   1      41.023  26.559  27.330  1.00  0.00     0.029 A 
ATOM     47  N   UNL A   1      42.144  28.349  28.074  1.00  0.00    -0.354 N 
ATOM     48  C   UNL A   1      46.451  28.465  28.018  1.00  0.00     0.074 A 
ATOM     49  C   UNL A   1      46.993  27.247  27.457  1.00  0.00     0.031 C 
ATOM     50  C   UNL A   1      40.120  27.461  27.754  1.00  0.00     0.029 A 
ATOM     51  C   UNL A   1      40.818  28.619  28.310  1.00  0.00     0.049 A 
ATOM     52  H   UNL A   1      42.867  28.990  28.265  1.00  0.00     0.167 HD
ATOM     53  C   UNL A   1      47.205  29.509  28.441  1.00  0.00     0.031 A 
ATOM     54  C   UNL A   1      40.237  29.659  28.944  1.00  0.00     0.031 A 
ATOM     55  C   UNL A   1      46.668  30.705  29.033  1.00  0.00     0.049 A 
ATOM     56  C   UNL A   1      41.097  30.767  29.499  1.00  0.00     0.074 A 
ATOM     57  C   UNL A   1      47.346  31.824  29.480  1.00  0.00     0.029 A 
ATOM     58  N   UNL A   1      45.322  30.927  29.279  1.00  0.00    -0.354 N 
ATOM     59  N   UNL A   1      42.401  30.903  29.455  1.00  0.00    -0.248 NA
ATOM     60  C   UNL A   1      40.403  31.864  30.190  1.00  0.00     0.031 C 
ATOM     61  C   UNL A   1      46.418  32.693  30.063  1.00  0.00     0.029 A 
ATOM     62  C   UNL A   1      45.152  32.147  29.910  1.00  0.00     0.049 A 
ATOM     63  H   UNL A   1      44.593  30.309  29.040  1.00  0.00     0.167 HD
ATOM     64  C   UNL A   1      42.681  32.108  30.092  1.00  0.00     0.074 A 
ATOM     65  C   UNL A   1      41.410  32.671  30.497  1.00  0.00     0.031 C 
ATOM     66  C   UNL A   1      43.882  32.694  30.319  1.00  0.00     0.031 A 
BRANCH  53  67
ATOM     67  C   UNL A   1      48.697  29.363  28.332  1.00  0.00    -0.014 A 
ATOM     68  C   UNL A   1      49.396  29.784  27.189  1.00  0.00     0.009 A 
ATOM     69  C   UNL A   1      49.418  28.790  29.393  1.00  0.00     0.009 A 
ATOM     70  C   UNL A   1      50.775  29.590  27.091  1.00  0.00     0.001 A 
ATOM     71  C   UNL A   1      50.801  28.630  29.307  1.00  0.00     0.001 A 
ATOM     72  C   UNL A   1      51.477  29.016  28.151  1.00  0.00     0.000 A 
ENDBRANCH  53  67
BRANCH  54  73
ATOM     73  C   UNL A   1      38.762  29.677  29.137  1.00  0.00    -0.014 A 
ATOM     74  C   UNL A   1      38.185  29.234  30.336  1.00  0.00     0.009 A 
ATOM     75  C   UNL A   1      37.919  30.133  28.109  1.00  0.00     0.009 A 
ATOM     76  C   UNL A   1      36.796  29.236  30.498  1.00  0.00     0.001 A 
ATOM     77  C   UNL A   1      36.534  30.163  28.284  1.00  0.00     0.001 A 
ATOM     78  C   UNL A   1      35.974  29.707  29.475  1.00  0.00     0.000 A 
ENDBRANCH  54  73
BRANCH  66  79
ATOM     79  C   UNL A   1      43.887  34.027  31.018  1.00  0.00    -0.014 A 
ATOM     80  C   UNL A   1      43.982  34.121  32.415  1.00  0.00     0.009 A 
ATOM     81  C   UNL A   1      43.861  35.209  30.260  1.00  0.00     0.009 A 
ATOM     82  C   UNL A   1      44.022  35.370  33.039  1.00  0.00     0.001 A 
ATOM     83  C   UNL A   1      43.934  36.456  30.883  1.00  0.00     0.001 A 
ATOM     84  C   UNL A   1      44.006  36.536  32.273  1.00  0.00     0.000 A 
ENDBRANCH  66  79
ENDBRANCH  40  41
ENDBRANCH  33  35
ENDBRANCH  32  33
ENDBRANCH  31  32
ENDBRANCH  30  31
ENDBRANCH  29  30
ENDBRANCH  28  29
ENDBRANCH   1  28
TORSDOF 21
ENDMDL
