MODEL 1
REMARK VINA RESULT:     -10.1      0.000      0.000
REMARK SMILES O=C(Cc1ccccc1-c1ccn(C(F)F)c(=O)c1)OCCOCCOCCOC(=O)c1ccc(-c2c3nc(c(-c4ccccc4)c4ccc([nH]4)c(-c4ccccc4)c4nc(c(-c5ccccc5)c5ccc2[nH]5)C=C4)C=C3)cc1
REMARK SMILES IDX 24 1 23 2 22 3 21 4 20 5 2 6 1 7 3 8 4 9 5 10 9 11 6 12 8 13
REMARK SMILES IDX 7 14 10 15 11 16 19 17 12 18 17 19 13 20 18 21 14 22 15 23
REMARK SMILES IDX 16 24 25 25 26 26 27 27 28 28 29 29 30 30 31 31 32 32 33 33
REMARK SMILES IDX 79 34 34 35 78 36 35 37 36 38 37 39 72 40 38 41 77 42 71 43
REMARK SMILES IDX 73 44 39 45 76 46 70 47 69 48 40 50 62 51 47 52 61 53 48 54
REMARK SMILES IDX 51 55 60 56 74 57 49 58 50 59 59 61 75 62 52 63 41 64 42 65
REMARK SMILES IDX 46 66 43 67 45 68 44 69 63 70 64 71 68 72 65 73 67 74 66 75
REMARK SMILES IDX 53 76 54 77 58 78 55 79 57 80 56 81
REMARK H PARENT 73 49 51 60
REMARK Flexibility Score: inf
ROOT
ATOM      1  C   UNL A   1      34.656  32.736  28.021  1.00  0.00     0.188 C 
ENDROOT
BRANCH   1   2
ATOM      2  O   UNL A   1      34.236  31.409  28.308  1.00  0.00    -0.376 OA
BRANCH   2   3
ATOM      3  C   UNL A   1      34.768  30.347  27.514  1.00  0.00     0.202 C 
BRANCH   3   4
ATOM      4  C   UNL A   1      33.903  29.105  27.374  1.00  0.00     0.261 C 
BRANCH   4   5
ATOM      5  O   UNL A   1      34.194  28.511  26.087  1.00  0.00    -0.463 OA
BRANCH   5   6
ATOM      6  C   UNL A   1      33.302  28.410  25.073  1.00  0.00     0.310 C 
ATOM      7  O   UNL A   1      33.624  28.718  23.927  1.00  0.00    -0.252 OA
BRANCH   6   8
ATOM      8  C   UNL A   1      31.904  27.951  25.384  1.00  0.00     0.158 C 
BRANCH   8   9
ATOM      9  C   UNL A   1      31.540  26.545  24.948  1.00  0.00    -0.029 A 
ATOM     10  C   UNL A   1      32.302  25.500  25.508  1.00  0.00     0.005 A 
ATOM     11  C   UNL A   1      30.536  26.247  23.988  1.00  0.00    -0.014 A 
ATOM     12  C   UNL A   1      32.135  24.191  25.076  1.00  0.00     0.000 A 
ATOM     13  C   UNL A   1      30.384  24.917  23.572  1.00  0.00     0.009 A 
ATOM     14  C   UNL A   1      31.184  23.901  24.104  1.00  0.00     0.001 A 
BRANCH  11  15
ATOM     15  C   UNL A   1      29.768  27.303  23.274  1.00  0.00    -0.011 A 
ATOM     16  C   UNL A   1      30.435  28.301  22.449  1.00  0.00     0.027 A 
ATOM     17  C   UNL A   1      28.460  27.464  23.542  1.00  0.00     0.080 A 
ATOM     18  C   UNL A   1      29.848  29.481  22.213  1.00  0.00     0.095 A 
ATOM     19  C   UNL A   1      27.746  28.715  23.133  1.00  0.00     0.255 A 
ATOM     20  N   UNL A   1      28.551  29.722  22.627  1.00  0.00    -0.258 N 
ATOM     21  O   UNL A   1      26.536  28.783  23.320  1.00  0.00    -0.269 OA
BRANCH  20  22
ATOM     22  C   UNL A   1      27.980  31.035  22.437  1.00  0.00     0.451 C 
ATOM     23  F   UNL A   1      27.560  31.541  23.622  1.00  0.00    -0.185 F 
ATOM     24  F   UNL A   1      28.853  31.918  21.896  1.00  0.00    -0.185 F 
ENDBRANCH  20  22
ENDBRANCH  11  15
ENDBRANCH   8   9
ENDBRANCH   6   8
ENDBRANCH   5   6
ENDBRANCH   4   5
ENDBRANCH   3   4
ENDBRANCH   2   3
ENDBRANCH   1   2
BRANCH   1  25
ATOM     25  C   UNL A   1      33.619  33.880  28.070  1.00  0.00     0.188 C 
BRANCH  25  26
ATOM     26  O   UNL A   1      34.004  35.167  28.517  1.00  0.00    -0.376 OA
BRANCH  26  27
ATOM     27  C   UNL A   1      33.030  36.032  29.086  1.00  0.00     0.202 C 
BRANCH  27  28
ATOM     28  C   UNL A   1      32.787  36.082  30.603  1.00  0.00     0.261 C 
BRANCH  28  29
ATOM     29  O   UNL A   1      33.101  34.852  31.277  1.00  0.00    -0.460 OA
BRANCH  29  30
ATOM     30  C   UNL A   1      34.047  34.941  32.249  1.00  0.00     0.338 C 
ATOM     31  O   UNL A   1      33.968  35.541  33.296  1.00  0.00    -0.246 OA
BRANCH  30  32
ATOM     32  C   UNL A   1      35.130  33.969  31.962  1.00  0.00     0.060 A 
ATOM     33  C   UNL A   1      35.103  32.747  32.656  1.00  0.00     0.016 A 
ATOM     34  C   UNL A   1      36.123  34.218  31.012  1.00  0.00     0.016 A 
ATOM     35  C   UNL A   1      36.086  31.786  32.425  1.00  0.00     0.010 A 
ATOM     36  C   UNL A   1      37.135  33.272  30.813  1.00  0.00     0.010 A 
ATOM     37  C   UNL A   1      37.142  32.071  31.548  1.00  0.00    -0.014 A 
BRANCH  37  38
ATOM     38  C   UNL A   1      38.389  31.277  31.659  1.00  0.00     0.031 A 
ATOM     39  C   UNL A   1      39.336  31.648  32.770  1.00  0.00     0.074 A 
ATOM     40  C   UNL A   1      38.675  30.245  30.846  1.00  0.00     0.049 A 
ATOM     41  N   UNL A   1      40.481  31.112  33.105  1.00  0.00    -0.248 NA
ATOM     42  C   UNL A   1      38.925  32.776  33.622  1.00  0.00     0.031 C 
ATOM     43  C   UNL A   1      37.827  29.744  29.768  1.00  0.00     0.029 A 
ATOM     44  N   UNL A   1      39.780  29.429  30.815  1.00  0.00    -0.354 N 
ATOM     45  C   UNL A   1      40.922  31.837  34.204  1.00  0.00     0.074 A 
ATOM     46  C   UNL A   1      39.942  32.867  34.462  1.00  0.00     0.031 C 
ATOM     47  C   UNL A   1      38.447  28.706  29.175  1.00  0.00     0.029 A 
ATOM     48  C   UNL A   1      39.743  28.487  29.816  1.00  0.00     0.049 A 
ATOM     49  H   UNL A   1      40.529  29.512  31.449  1.00  0.00     0.167 HD
ATOM     50  C   UNL A   1      42.041  31.665  34.943  1.00  0.00     0.031 A 
ATOM     51  C   UNL A   1      40.659  27.564  29.459  1.00  0.00     0.031 A 
ATOM     52  C   UNL A   1      43.043  30.675  34.670  1.00  0.00     0.049 A 
ATOM     53  C   UNL A   1      41.951  27.456  30.231  1.00  0.00     0.074 A 
ATOM     54  C   UNL A   1      44.219  30.426  35.355  1.00  0.00     0.029 A 
ATOM     55  N   UNL A   1      42.995  29.782  33.613  1.00  0.00    -0.354 N 
ATOM     56  N   UNL A   1      42.344  28.128  31.287  1.00  0.00    -0.248 NA
ATOM     57  C   UNL A   1      42.922  26.455  29.762  1.00  0.00     0.031 C 
ATOM     58  C   UNL A   1      44.912  29.419  34.674  1.00  0.00     0.029 A 
ATOM     59  C   UNL A   1      44.135  28.998  33.606  1.00  0.00     0.049 A 
ATOM     60  H   UNL A   1      42.258  29.714  32.962  1.00  0.00     0.167 HD
ATOM     61  C   UNL A   1      43.589  27.608  31.627  1.00  0.00     0.074 A 
ATOM     62  C   UNL A   1      43.882  26.562  30.671  1.00  0.00     0.031 C 
ATOM     63  C   UNL A   1      44.412  27.961  32.646  1.00  0.00     0.031 A 
BRANCH  50  64
ATOM     64  C   UNL A   1      42.251  32.619  36.084  1.00  0.00    -0.014 A 
ATOM     65  C   UNL A   1      41.855  32.293  37.392  1.00  0.00     0.009 A 
ATOM     66  C   UNL A   1      42.831  33.874  35.842  1.00  0.00     0.009 A 
ATOM     67  C   UNL A   1      41.994  33.222  38.424  1.00  0.00     0.001 A 
ATOM     68  C   UNL A   1      42.997  34.788  36.882  1.00  0.00     0.001 A 
ATOM     69  C   UNL A   1      42.568  34.468  38.169  1.00  0.00     0.000 A 
ENDBRANCH  50  64
BRANCH  51  70
ATOM     70  C   UNL A   1      40.402  26.662  28.304  1.00  0.00    -0.014 A 
ATOM     71  C   UNL A   1      39.619  25.508  28.457  1.00  0.00     0.009 A 
ATOM     72  C   UNL A   1      40.968  26.935  27.048  1.00  0.00     0.009 A 
ATOM     73  C   UNL A   1      39.426  24.635  27.382  1.00  0.00     0.001 A 
ATOM     74  C   UNL A   1      40.750  26.075  25.969  1.00  0.00     0.001 A 
ATOM     75  C   UNL A   1      39.987  24.922  26.139  1.00  0.00     0.000 A 
ENDBRANCH  51  70
BRANCH  63  76
ATOM     76  C   UNL A   1      45.690  27.184  32.811  1.00  0.00    -0.014 A 
ATOM     77  C   UNL A   1      45.739  26.006  33.571  1.00  0.00     0.009 A 
ATOM     78  C   UNL A   1      46.849  27.610  32.142  1.00  0.00     0.009 A 
ATOM     79  C   UNL A   1      46.932  25.288  33.683  1.00  0.00     0.001 A 
ATOM     80  C   UNL A   1      48.032  26.875  32.231  1.00  0.00     0.001 A 
ATOM     81  C   UNL A   1      48.076  25.719  33.009  1.00  0.00     0.000 A 
ENDBRANCH  63  76
ENDBRANCH  37  38
ENDBRANCH  30  32
ENDBRANCH  29  30
ENDBRANCH  28  29
ENDBRANCH  27  28
ENDBRANCH  26  27
ENDBRANCH  25  26
ENDBRANCH   1  25
TORSDOF 20
ENDMDL
MODEL 2
REMARK VINA RESULT:     -10.0      3.731      4.740
REMARK SMILES O=C(Cc1ccccc1-c1ccn(C(F)F)c(=O)c1)OCCOCCOCCOC(=O)c1ccc(-c2c3nc(c(-c4ccccc4)c4ccc([nH]4)c(-c4ccccc4)c4nc(c(-c5ccccc5)c5ccc2[nH]5)C=C4)C=C3)cc1
REMARK SMILES IDX 24 1 23 2 22 3 21 4 20 5 2 6 1 7 3 8 4 9 5 10 9 11 6 12 8 13
REMARK SMILES IDX 7 14 10 15 11 16 19 17 12 18 17 19 13 20 18 21 14 22 15 23
REMARK SMILES IDX 16 24 25 25 26 26 27 27 28 28 29 29 30 30 31 31 32 32 33 33
REMARK SMILES IDX 79 34 34 35 78 36 35 37 36 38 37 39 72 40 38 41 77 42 71 43
REMARK SMILES IDX 73 44 39 45 76 46 70 47 69 48 40 50 62 51 47 52 61 53 48 54
REMARK SMILES IDX 51 55 60 56 74 57 49 58 50 59 59 61 75 62 52 63 41 64 42 65
REMARK SMILES IDX 46 66 43 67 45 68 44 69 63 70 64 71 68 72 65 73 67 74 66 75
REMARK SMILES IDX 53 76 54 77 58 78 55 79 57 80 56 81
REMARK H PARENT 73 49 51 60
REMARK Flexibility Score: inf
ROOT
ATOM      1  C   UNL A   1      33.969  32.717  28.451  1.00  0.00     0.188 C 
ENDROOT
BRANCH   1   2
ATOM      2  O   UNL A   1      34.629  31.499  28.772  1.00  0.00    -0.376 OA
BRANCH   2   3
ATOM      3  C   UNL A   1      35.015  30.638  27.701  1.00  0.00     0.202 C 
BRANCH   3   4
ATOM      4  C   UNL A   1      33.900  30.123  26.806  1.00  0.00     0.261 C 
BRANCH   4   5
ATOM      5  O   UNL A   1      32.935  29.452  27.650  1.00  0.00    -0.463 OA
BRANCH   5   6
ATOM      6  C   UNL A   1      31.913  28.693  27.187  1.00  0.00     0.310 C 
ATOM      7  O   UNL A   1      31.131  28.158  27.970  1.00  0.00    -0.252 OA
BRANCH   6   8
ATOM      8  C   UNL A   1      31.779  28.490  25.703  1.00  0.00     0.158 C 
BRANCH   8   9
ATOM      9  C   UNL A   1      31.669  27.057  25.222  1.00  0.00    -0.029 A 
ATOM     10  C   UNL A   1      32.517  26.121  25.849  1.00  0.00     0.005 A 
ATOM     11  C   UNL A   1      30.821  26.637  24.162  1.00  0.00    -0.014 A 
ATOM     12  C   UNL A   1      32.588  24.811  25.394  1.00  0.00     0.000 A 
ATOM     13  C   UNL A   1      30.908  25.309  23.724  1.00  0.00     0.009 A 
ATOM     14  C   UNL A   1      31.791  24.408  24.328  1.00  0.00     0.001 A 
BRANCH  11  15
ATOM     15  C   UNL A   1      29.983  27.586  23.381  1.00  0.00    -0.011 A 
ATOM     16  C   UNL A   1      30.581  28.626  22.554  1.00  0.00     0.027 A 
ATOM     17  C   UNL A   1      28.654  27.616  23.585  1.00  0.00     0.080 A 
ATOM     18  C   UNL A   1      29.887  29.730  22.254  1.00  0.00     0.095 A 
ATOM     19  C   UNL A   1      27.834  28.773  23.104  1.00  0.00     0.255 A 
ATOM     20  N   UNL A   1      28.553  29.845  22.602  1.00  0.00    -0.258 N 
ATOM     21  O   UNL A   1      26.616  28.717  23.234  1.00  0.00    -0.269 OA
BRANCH  20  22
ATOM     22  C   UNL A   1      27.859  31.084  22.344  1.00  0.00     0.451 C 
ATOM     23  F   UNL A   1      28.436  32.099  23.032  1.00  0.00    -0.185 F 
ATOM     24  F   UNL A   1      27.853  31.424  21.033  1.00  0.00    -0.185 F 
ENDBRANCH  20  22
ENDBRANCH  11  15
ENDBRANCH   8   9
ENDBRANCH   6   8
ENDBRANCH   5   6
ENDBRANCH   4   5
ENDBRANCH   3   4
ENDBRANCH   2   3
ENDBRANCH   1   2
BRANCH   1  25
ATOM     25  C   UNL A   1      34.608  34.054  28.884  1.00  0.00     0.188 C 
BRANCH  25  26
ATOM     26  O   UNL A   1      35.244  34.160  30.146  1.00  0.00    -0.376 OA
BRANCH  26  27
ATOM     27  C   UNL A   1      34.463  34.420  31.304  1.00  0.00     0.202 C 
BRANCH  27  28
ATOM     28  C   UNL A   1      34.964  34.055  32.711  1.00  0.00     0.261 C 
BRANCH  28  29
ATOM     29  O   UNL A   1      36.396  33.981  32.810  1.00  0.00    -0.460 OA
BRANCH  29  30
ATOM     30  C   UNL A   1      36.881  32.918  33.503  1.00  0.00     0.338 C 
ATOM     31  O   UNL A   1      36.575  32.568  34.620  1.00  0.00    -0.246 OA
BRANCH  30  32
ATOM     32  C   UNL A   1      37.679  32.066  32.588  1.00  0.00     0.060 A 
ATOM     33  C   UNL A   1      38.660  31.241  33.164  1.00  0.00     0.016 A 
ATOM     34  C   UNL A   1      37.452  32.034  31.211  1.00  0.00     0.016 A 
ATOM     35  C   UNL A   1      39.439  30.409  32.360  1.00  0.00     0.010 A 
ATOM     36  C   UNL A   1      38.263  31.233  30.399  1.00  0.00     0.010 A 
ATOM     37  C   UNL A   1      39.285  30.448  30.968  1.00  0.00    -0.014 A 
BRANCH  37  38
ATOM     38  C   UNL A   1      40.389  29.941  30.119  1.00  0.00     0.031 A 
ATOM     39  C   UNL A   1      41.517  30.895  29.827  1.00  0.00     0.074 A 
ATOM     40  C   UNL A   1      40.430  28.683  29.644  1.00  0.00     0.049 A 
ATOM     41  N   UNL A   1      42.610  30.708  29.132  1.00  0.00    -0.248 NA
ATOM     42  C   UNL A   1      41.394  32.242  30.407  1.00  0.00     0.031 C 
ATOM     43  C   UNL A   1      39.437  27.642  29.894  1.00  0.00     0.029 A 
ATOM     44  N   UNL A   1      41.367  28.074  28.846  1.00  0.00    -0.354 N 
ATOM     45  C   UNL A   1      43.299  31.913  29.196  1.00  0.00     0.074 A 
ATOM     46  C   UNL A   1      42.493  32.830  29.968  1.00  0.00     0.031 C 
ATOM     47  C   UNL A   1      39.816  26.520  29.253  1.00  0.00     0.029 A 
ATOM     48  C   UNL A   1      41.064  26.771  28.533  1.00  0.00     0.049 A 
ATOM     49  H   UNL A   1      42.181  28.528  28.527  1.00  0.00     0.167 HD
ATOM     50  C   UNL A   1      44.501  32.234  28.666  1.00  0.00     0.031 A 
ATOM     51  C   UNL A   1      41.716  25.893  27.744  1.00  0.00     0.031 A 
ATOM     52  C   UNL A   1      45.290  31.346  27.860  1.00  0.00     0.049 A 
ATOM     53  C   UNL A   1      43.004  26.305  27.074  1.00  0.00     0.074 A 
ATOM     54  C   UNL A   1      46.518  31.580  27.268  1.00  0.00     0.029 A 
ATOM     55  N   UNL A   1      44.915  30.057  27.517  1.00  0.00    -0.354 N 
ATOM     56  N   UNL A   1      43.661  27.436  27.166  1.00  0.00    -0.248 NA
ATOM     57  C   UNL A   1      43.641  25.311  26.196  1.00  0.00     0.031 C 
ATOM     58  C   UNL A   1      46.859  30.451  26.516  1.00  0.00     0.029 A 
ATOM     59  C   UNL A   1      45.874  29.491  26.696  1.00  0.00     0.049 A 
ATOM     60  H   UNL A   1      44.090  29.610  27.815  1.00  0.00     0.167 HD
ATOM     61  C   UNL A   1      44.803  27.277  26.387  1.00  0.00     0.074 A 
ATOM     62  C   UNL A   1      44.752  25.939  25.836  1.00  0.00     0.031 C 
ATOM     63  C   UNL A   1      45.808  28.158  26.155  1.00  0.00     0.031 A 
BRANCH  50  64
ATOM     64  C   UNL A   1      44.993  33.633  28.904  1.00  0.00    -0.014 A 
ATOM     65  C   UNL A   1      45.835  33.936  29.987  1.00  0.00     0.009 A 
ATOM     66  C   UNL A   1      44.586  34.667  28.048  1.00  0.00     0.009 A 
ATOM     67  C   UNL A   1      46.223  35.254  30.232  1.00  0.00     0.001 A 
ATOM     68  C   UNL A   1      45.001  35.979  28.278  1.00  0.00     0.001 A 
ATOM     69  C   UNL A   1      45.808  36.274  29.375  1.00  0.00     0.000 A 
ENDBRANCH  50  64
BRANCH  51  70
ATOM     70  C   UNL A   1      41.165  24.528  27.528  1.00  0.00    -0.014 A 
ATOM     71  C   UNL A   1      40.111  24.315  26.627  1.00  0.00     0.009 A 
ATOM     72  C   UNL A   1      41.669  23.434  28.251  1.00  0.00     0.009 A 
ATOM     73  C   UNL A   1      39.561  23.040  26.468  1.00  0.00     0.001 A 
ATOM     74  C   UNL A   1      41.134  22.157  28.070  1.00  0.00     0.001 A 
ATOM     75  C   UNL A   1      40.076  21.962  27.186  1.00  0.00     0.000 A 
ENDBRANCH  51  70
BRANCH  63  76
ATOM     76  C   UNL A   1      46.959  27.695  25.304  1.00  0.00    -0.014 A 
ATOM     77  C   UNL A   1      48.045  26.998  25.856  1.00  0.00     0.009 A 
ATOM     78  C   UNL A   1      46.924  27.909  23.918  1.00  0.00     0.009 A 
ATOM     79  C   UNL A   1      49.086  26.553  25.039  1.00  0.00     0.001 A 
ATOM     80  C   UNL A   1      47.950  27.437  23.099  1.00  0.00     0.001 A 
ATOM     81  C   UNL A   1      49.036  26.767  23.661  1.00  0.00     0.000 A 
ENDBRANCH  63  76
ENDBRANCH  37  38
ENDBRANCH  30  32
ENDBRANCH  29  30
ENDBRANCH  28  29
ENDBRANCH  27  28
ENDBRANCH  26  27
ENDBRANCH  25  26
ENDBRANCH   1  25
TORSDOF 20
ENDMDL
MODEL 3
REMARK VINA RESULT:      -9.9      3.856      9.380
REMARK SMILES O=C(Cc1ccccc1-c1ccn(C(F)F)c(=O)c1)OCCOCCOCCOC(=O)c1ccc(-c2c3nc(c(-c4ccccc4)c4ccc([nH]4)c(-c4ccccc4)c4nc(c(-c5ccccc5)c5ccc2[nH]5)C=C4)C=C3)cc1
REMARK SMILES IDX 24 1 23 2 22 3 21 4 20 5 2 6 1 7 3 8 4 9 5 10 9 11 6 12 8 13
REMARK SMILES IDX 7 14 10 15 11 16 19 17 12 18 17 19 13 20 18 21 14 22 15 23
REMARK SMILES IDX 16 24 25 25 26 26 27 27 28 28 29 29 30 30 31 31 32 32 33 33
REMARK SMILES IDX 79 34 34 35 78 36 35 37 36 38 37 39 72 40 38 41 77 42 71 43
REMARK SMILES IDX 73 44 39 45 76 46 70 47 69 48 40 50 62 51 47 52 61 53 48 54
REMARK SMILES IDX 51 55 60 56 74 57 49 58 50 59 59 61 75 62 52 63 41 64 42 65
REMARK SMILES IDX 46 66 43 67 45 68 44 69 63 70 64 71 68 72 65 73 67 74 66 75
REMARK SMILES IDX 53 76 54 77 58 78 55 79 57 80 56 81
REMARK H PARENT 73 49 51 60
REMARK Flexibility Score: inf
ROOT
ATOM      1  C   UNL A   1      40.758  19.891  26.480  1.00  0.00     0.188 C 
ENDROOT
BRANCH   1   2
ATOM      2  O   UNL A   1      40.400  21.077  27.176  1.00  0.00    -0.376 OA
BRANCH   2   3
ATOM      3  C   UNL A   1      40.048  22.230  26.410  1.00  0.00     0.202 C 
BRANCH   3   4
ATOM      4  C   UNL A   1      38.582  22.630  26.419  1.00  0.00     0.261 C 
BRANCH   4   5
ATOM      5  O   UNL A   1      37.927  21.923  25.340  1.00  0.00    -0.463 OA
BRANCH   5   6
ATOM      6  C   UNL A   1      36.770  22.320  24.758  1.00  0.00     0.310 C 
ATOM      7  O   UNL A   1      36.777  22.808  23.629  1.00  0.00    -0.252 OA
BRANCH   6   8
ATOM      8  C   UNL A   1      35.489  22.189  25.533  1.00  0.00     0.158 C 
BRANCH   8   9
ATOM      9  C   UNL A   1      34.363  21.431  24.857  1.00  0.00    -0.029 A 
ATOM     10  C   UNL A   1      34.431  20.024  24.920  1.00  0.00     0.005 A 
ATOM     11  C   UNL A   1      33.308  22.052  24.136  1.00  0.00    -0.014 A 
ATOM     12  C   UNL A   1      33.522  19.238  24.223  1.00  0.00     0.000 A 
ATOM     13  C   UNL A   1      32.401  21.236  23.445  1.00  0.00     0.009 A 
ATOM     14  C   UNL A   1      32.514  19.843  23.481  1.00  0.00     0.001 A 
BRANCH  11  15
ATOM     15  C   UNL A   1      33.232  23.524  23.933  1.00  0.00    -0.011 A 
ATOM     16  C   UNL A   1      32.605  24.396  24.917  1.00  0.00     0.027 A 
ATOM     17  C   UNL A   1      33.571  24.045  22.740  1.00  0.00     0.080 A 
ATOM     18  C   UNL A   1      32.117  25.586  24.548  1.00  0.00     0.095 A 
ATOM     19  C   UNL A   1      33.175  25.442  22.376  1.00  0.00     0.255 A 
ATOM     20  N   UNL A   1      32.319  26.068  23.268  1.00  0.00    -0.258 N 
ATOM     21  O   UNL A   1      33.579  25.905  21.316  1.00  0.00    -0.269 OA
BRANCH  20  22
ATOM     22  C   UNL A   1      31.703  27.314  22.875  1.00  0.00     0.451 C 
ATOM     23  F   UNL A   1      30.826  27.106  21.862  1.00  0.00    -0.185 F 
ATOM     24  F   UNL A   1      31.030  27.914  23.886  1.00  0.00    -0.185 F 
ENDBRANCH  20  22
ENDBRANCH  11  15
ENDBRANCH   8   9
ENDBRANCH   6   8
ENDBRANCH   5   6
ENDBRANCH   4   5
ENDBRANCH   3   4
ENDBRANCH   2   3
ENDBRANCH   1   2
BRANCH   1  25
ATOM     25  C   UNL A   1      42.245  19.479  26.412  1.00  0.00     0.188 C 
BRANCH  25  26
ATOM     26  O   UNL A   1      43.044  19.887  25.315  1.00  0.00    -0.376 OA
BRANCH  26  27
ATOM     27  C   UNL A   1      43.922  20.995  25.462  1.00  0.00     0.202 C 
BRANCH  27  28
ATOM     28  C   UNL A   1      43.506  22.413  25.038  1.00  0.00     0.261 C 
BRANCH  28  29
ATOM     29  O   UNL A   1      43.548  23.368  26.112  1.00  0.00    -0.460 OA
BRANCH  29  30
ATOM     30  C   UNL A   1      43.765  24.658  25.741  1.00  0.00     0.338 C 
ATOM     31  O   UNL A   1      44.243  25.051  24.701  1.00  0.00    -0.246 OA
BRANCH  30  32
ATOM     32  C   UNL A   1      43.086  25.559  26.702  1.00  0.00     0.060 A 
ATOM     33  C   UNL A   1      43.581  26.869  26.821  1.00  0.00     0.016 A 
ATOM     34  C   UNL A   1      41.969  25.159  27.439  1.00  0.00     0.016 A 
ATOM     35  C   UNL A   1      42.981  27.770  27.700  1.00  0.00     0.010 A 
ATOM     36  C   UNL A   1      41.395  26.049  28.354  1.00  0.00     0.010 A 
ATOM     37  C   UNL A   1      41.925  27.344  28.516  1.00  0.00    -0.014 A 
BRANCH  37  38
ATOM     38  C   UNL A   1      41.613  28.125  29.737  1.00  0.00     0.031 A 
ATOM     39  C   UNL A   1      40.429  29.053  29.667  1.00  0.00     0.074 A 
ATOM     40  C   UNL A   1      42.312  28.009  30.880  1.00  0.00     0.049 A 
ATOM     41  N   UNL A   1      39.926  29.835  30.587  1.00  0.00    -0.248 NA
ATOM     42  C   UNL A   1      39.714  29.095  28.381  1.00  0.00     0.031 C 
ATOM     43  C   UNL A   1      43.442  27.112  31.104  1.00  0.00     0.029 A 
ATOM     44  N   UNL A   1      42.155  28.663  32.078  1.00  0.00    -0.354 N 
ATOM     45  C   UNL A   1      38.837  30.457  29.989  1.00  0.00     0.074 A 
ATOM     46  C   UNL A   1      38.769  29.988  28.624  1.00  0.00     0.031 C 
ATOM     47  C   UNL A   1      43.883  27.278  32.365  1.00  0.00     0.029 A 
ATOM     48  C   UNL A   1      43.081  28.306  33.027  1.00  0.00     0.049 A 
ATOM     49  H   UNL A   1      41.446  29.326  32.241  1.00  0.00     0.167 HD
ATOM     50  C   UNL A   1      37.962  31.338  30.524  1.00  0.00     0.031 A 
ATOM     51  C   UNL A   1      43.263  28.769  34.281  1.00  0.00     0.031 A 
ATOM     52  C   UNL A   1      38.045  31.845  31.864  1.00  0.00     0.049 A 
ATOM     53  C   UNL A   1      42.340  29.832  34.825  1.00  0.00     0.074 A 
ATOM     54  C   UNL A   1      37.212  32.748  32.498  1.00  0.00     0.029 A 
ATOM     55  N   UNL A   1      39.034  31.503  32.771  1.00  0.00    -0.354 N 
ATOM     56  N   UNL A   1      41.295  30.391  34.260  1.00  0.00    -0.248 NA
ATOM     57  C   UNL A   1      42.619  30.321  36.184  1.00  0.00     0.031 C 
ATOM     58  C   UNL A   1      37.733  33.000  33.771  1.00  0.00     0.029 A 
ATOM     59  C   UNL A   1      38.852  32.200  33.952  1.00  0.00     0.049 A 
ATOM     60  H   UNL A   1      39.759  30.858  32.601  1.00  0.00     0.167 HD
ATOM     61  C   UNL A   1      40.776  31.269  35.206  1.00  0.00     0.074 A 
ATOM     62  C   UNL A   1      41.615  31.164  36.382  1.00  0.00     0.031 C 
ATOM     63  C   UNL A   1      39.696  32.085  35.112  1.00  0.00     0.031 A 
BRANCH  50  64
ATOM     64  C   UNL A   1      36.876  31.845  29.619  1.00  0.00    -0.014 A 
ATOM     65  C   UNL A   1      35.679  31.130  29.442  1.00  0.00     0.009 A 
ATOM     66  C   UNL A   1      37.063  33.044  28.914  1.00  0.00     0.009 A 
ATOM     67  C   UNL A   1      34.713  31.583  28.542  1.00  0.00     0.001 A 
ATOM     68  C   UNL A   1      36.082  33.509  28.039  1.00  0.00     0.001 A 
ATOM     69  C   UNL A   1      34.914  32.774  27.844  1.00  0.00     0.000 A 
ENDBRANCH  50  64
BRANCH  51  70
ATOM     70  C   UNL A   1      44.373  28.243  35.120  1.00  0.00    -0.014 A 
ATOM     71  C   UNL A   1      44.253  27.006  35.771  1.00  0.00     0.009 A 
ATOM     72  C   UNL A   1      45.546  28.993  35.301  1.00  0.00     0.009 A 
ATOM     73  C   UNL A   1      45.276  26.541  36.603  1.00  0.00     0.001 A 
ATOM     74  C   UNL A   1      46.577  28.513  36.111  1.00  0.00     0.001 A 
ATOM     75  C   UNL A   1      46.439  27.292  36.768  1.00  0.00     0.000 A 
ENDBRANCH  51  70
BRANCH  63  76
ATOM     76  C   UNL A   1      39.328  32.897  36.324  1.00  0.00    -0.014 A 
ATOM     77  C   UNL A   1      38.480  32.388  37.318  1.00  0.00     0.009 A 
ATOM     78  C   UNL A   1      39.892  34.171  36.499  1.00  0.00     0.009 A 
ATOM     79  C   UNL A   1      38.179  33.152  38.448  1.00  0.00     0.001 A 
ATOM     80  C   UNL A   1      39.613  34.921  37.643  1.00  0.00     0.001 A 
ATOM     81  C   UNL A   1      38.750  34.415  38.613  1.00  0.00     0.000 A 
ENDBRANCH  63  76
ENDBRANCH  37  38
ENDBRANCH  30  32
ENDBRANCH  29  30
ENDBRANCH  28  29
ENDBRANCH  27  28
ENDBRANCH  26  27
ENDBRANCH  25  26
ENDBRANCH   1  25
TORSDOF 20
ENDMDL
