MODEL 1
REMARK VINA RESULT:     -10.8      0.000      0.000
REMARK SMILES CC(C)c1csc(C(=O)N2C[C@@H]3c4ccccc4OC[C@]3(C(=O)OCCOCCOCCOC(=O)c3ccc(-c4c5nc(c(-c6ccccc6)c6ccc([nH]6)c(-c6ccccc6)c6nc(c(-c7ccccc7)c7ccc4[nH]7)C=C6)C=C5)cc3)C2)n1
REMARK SMILES IDX 28 1 27 2 26 3 25 4 24 5 22 6 23 7 21 8 10 9 11 10 84 11
REMARK SMILES IDX 12 12 13 13 20 14 14 15 18 16 19 17 15 18 17 19 16 20 8 21
REMARK SMILES IDX 9 22 7 23 4 24 5 25 85 26 6 27 2 28 1 29 3 30 29 31 30 32
REMARK SMILES IDX 31 33 32 34 33 35 34 36 35 37 36 38 37 39 83 40 38 41 82 42
REMARK SMILES IDX 39 43 40 44 41 45 76 46 42 47 81 48 75 49 77 50 43 51 80 52
REMARK SMILES IDX 74 53 73 54 44 56 66 57 51 58 65 59 52 60 55 61 64 62 78 63
REMARK SMILES IDX 53 64 54 65 63 67 79 68 56 69 45 70 46 71 50 72 47 73 49 74
REMARK SMILES IDX 48 75 67 76 68 77 72 78 69 79 71 80 70 81 57 82 58 83 62 84
REMARK SMILES IDX 59 85 61 86 60 87
REMARK H PARENT 77 55 55 66
REMARK Flexibility Score: inf
ROOT
ATOM      1  C   UNL A   1      32.084  28.682  26.420  1.00  0.00     0.188 C 
ENDROOT
BRANCH   1   2
ATOM      2  O   UNL A   1      32.430  28.711  25.045  1.00  0.00    -0.376 OA
BRANCH   2   3
ATOM      3  C   UNL A   1      33.572  27.987  24.635  1.00  0.00     0.202 C 
BRANCH   3   4
ATOM      4  C   UNL A   1      34.089  26.814  25.515  1.00  0.00     0.261 C 
BRANCH   4   5
ATOM      5  O   UNL A   1      34.391  25.603  24.795  1.00  0.00    -0.463 OA
BRANCH   5   6
ATOM      6  C   UNL A   1      34.956  24.450  25.341  1.00  0.00     0.318 C 
ATOM      7  O   UNL A   1      36.088  24.364  25.778  1.00  0.00    -0.251 OA
BRANCH   6   8
ATOM      8  C   UNL A   1      33.830  23.381  25.339  1.00  0.00     0.128 C 
ATOM      9  N   UNL A   1      31.543  24.132  25.370  1.00  0.00    -0.335 N 
ATOM     10  C   UNL A   1      31.501  22.973  24.569  1.00  0.00     0.129 C 
ATOM     11  C   UNL A   1      32.754  24.173  26.150  1.00  0.00     0.143 C 
ATOM     12  C   UNL A   1      32.973  22.743  24.164  1.00  0.00     0.065 C 
ATOM     13  C   UNL A   1      32.991  21.205  24.056  1.00  0.00     0.000 A 
ATOM     14  C   UNL A   1      34.686  22.202  25.816  1.00  0.00     0.251 C 
ATOM     15  C   UNL A   1      32.306  20.516  23.047  1.00  0.00     0.008 A 
ATOM     16  C   UNL A   1      33.447  20.453  25.145  1.00  0.00     0.122 A 
ATOM     17  O   UNL A   1      33.958  21.075  26.243  1.00  0.00    -0.492 OA
ATOM     18  C   UNL A   1      32.116  19.127  23.135  1.00  0.00     0.001 A 
ATOM     19  C   UNL A   1      33.295  19.072  25.223  1.00  0.00     0.047 A 
ATOM     20  C   UNL A   1      32.631  18.402  24.209  1.00  0.00     0.004 A 
BRANCH   9  21
ATOM     21  C   UNL A   1      30.458  24.980  25.465  1.00  0.00     0.282 C 
ATOM     22  O   UNL A   1      29.623  24.832  26.357  1.00  0.00    -0.266 OA
BRANCH  21  23
ATOM     23  C   UNL A   1      30.312  25.878  24.322  1.00  0.00     0.181 A 
ATOM     24  C   UNL A   1      29.742  27.720  23.216  1.00  0.00     0.055 A 
ATOM     25  C   UNL A   1      30.682  27.201  22.340  1.00  0.00     0.091 A 
ATOM     26  N   UNL A   1      29.507  26.927  24.328  1.00  0.00    -0.236 NA
ATOM     27  S   UNL A   1      31.303  25.718  22.936  1.00  0.00    -0.117 S 
BRANCH  24  28
ATOM     28  C   UNL A   1      29.037  29.050  23.088  1.00  0.00     0.033 C 
ATOM     29  C   UNL A   1      29.523  29.841  21.871  1.00  0.00     0.014 C 
ATOM     30  C   UNL A   1      27.512  28.912  23.038  1.00  0.00     0.014 C 
ENDBRANCH  24  28
ENDBRANCH  21  23
ENDBRANCH   9  21
ENDBRANCH   6   8
ENDBRANCH   5   6
ENDBRANCH   4   5
ENDBRANCH   3   4
ENDBRANCH   2   3
ENDBRANCH   1   2
BRANCH   1  31
ATOM     31  C   UNL A   1      32.049  30.133  26.941  1.00  0.00     0.188 C 
BRANCH  31  32
ATOM     32  O   UNL A   1      33.247  30.897  26.844  1.00  0.00    -0.376 OA
BRANCH  32  33
ATOM     33  C   UNL A   1      33.277  32.126  27.555  1.00  0.00     0.202 C 
BRANCH  33  34
ATOM     34  C   UNL A   1      34.374  32.254  28.621  1.00  0.00     0.261 C 
BRANCH  34  35
ATOM     35  O   UNL A   1      35.047  31.006  28.911  1.00  0.00    -0.460 OA
BRANCH  35  36
ATOM     36  C   UNL A   1      35.906  31.003  29.955  1.00  0.00     0.338 C 
ATOM     37  O   UNL A   1      35.727  31.499  31.065  1.00  0.00    -0.246 OA
BRANCH  36  38
ATOM     38  C   UNL A   1      37.115  30.223  29.617  1.00  0.00     0.060 A 
ATOM     39  C   UNL A   1      37.626  30.220  28.321  1.00  0.00     0.016 A 
ATOM     40  C   UNL A   1      37.829  29.582  30.633  1.00  0.00     0.016 A 
ATOM     41  C   UNL A   1      38.837  29.559  28.051  1.00  0.00     0.010 A 
ATOM     42  C   UNL A   1      39.025  28.909  30.361  1.00  0.00     0.010 A 
ATOM     43  C   UNL A   1      39.560  28.904  29.071  1.00  0.00    -0.014 A 
BRANCH  43  44
ATOM     44  C   UNL A   1      40.939  28.382  28.838  1.00  0.00     0.031 A 
ATOM     45  C   UNL A   1      41.219  26.955  28.441  1.00  0.00     0.074 A 
ATOM     46  C   UNL A   1      41.985  29.197  29.084  1.00  0.00     0.049 A 
ATOM     47  N   UNL A   1      42.356  26.421  28.061  1.00  0.00    -0.248 NA
ATOM     48  C   UNL A   1      40.104  26.000  28.508  1.00  0.00     0.031 C 
ATOM     49  C   UNL A   1      41.878  30.552  29.628  1.00  0.00     0.029 A 
ATOM     50  N   UNL A   1      43.337  29.015  28.908  1.00  0.00    -0.354 N 
ATOM     51  C   UNL A   1      42.090  25.076  27.827  1.00  0.00     0.074 A 
ATOM     52  C   UNL A   1      40.701  24.861  28.174  1.00  0.00     0.031 C 
ATOM     53  C   UNL A   1      43.099  31.101  29.679  1.00  0.00     0.029 A 
ATOM     54  C   UNL A   1      44.081  30.135  29.190  1.00  0.00     0.049 A 
ATOM     55  H   UNL A   1      43.732  28.165  28.609  1.00  0.00     0.167 HD
ATOM     56  C   UNL A   1      42.919  24.121  27.340  1.00  0.00     0.031 A 
ATOM     57  C   UNL A   1      45.399  30.384  29.044  1.00  0.00     0.031 A 
ATOM     58  C   UNL A   1      44.307  24.339  27.010  1.00  0.00     0.049 A 
ATOM     59  C   UNL A   1      46.295  29.331  28.452  1.00  0.00     0.074 A 
ATOM     60  C   UNL A   1      45.188  23.467  26.392  1.00  0.00     0.029 A 
ATOM     61  N   UNL A   1      45.020  25.495  27.288  1.00  0.00    -0.354 N 
ATOM     62  N   UNL A   1      45.987  28.124  28.044  1.00  0.00    -0.248 NA
ATOM     63  C   UNL A   1      47.713  29.679  28.279  1.00  0.00     0.031 C 
ATOM     64  C   UNL A   1      46.452  24.060  26.373  1.00  0.00     0.029 A 
ATOM     65  C   UNL A   1      46.340  25.338  26.897  1.00  0.00     0.049 A 
ATOM     66  H   UNL A   1      44.645  26.305  27.701  1.00  0.00     0.167 HD
ATOM     67  C   UNL A   1      47.165  27.575  27.552  1.00  0.00     0.074 A 
ATOM     68  C   UNL A   1      48.189  28.589  27.687  1.00  0.00     0.031 C 
ATOM     69  C   UNL A   1      47.369  26.339  27.040  1.00  0.00     0.031 A 
BRANCH  56  70
ATOM     70  C   UNL A   1      42.362  22.744  27.075  1.00  0.00    -0.014 A 
ATOM     71  C   UNL A   1      41.482  22.528  26.000  1.00  0.00     0.009 A 
ATOM     72  C   UNL A   1      42.580  21.696  27.985  1.00  0.00     0.009 A 
ATOM     73  C   UNL A   1      40.820  21.306  25.854  1.00  0.00     0.001 A 
ATOM     74  C   UNL A   1      41.943  20.463  27.817  1.00  0.00     0.001 A 
ATOM     75  C   UNL A   1      41.053  20.274  26.761  1.00  0.00     0.000 A 
ENDBRANCH  56  70
BRANCH  57  76
ATOM     76  C   UNL A   1      45.917  31.737  29.385  1.00  0.00    -0.014 A 
ATOM     77  C   UNL A   1      46.530  31.983  30.623  1.00  0.00     0.009 A 
ATOM     78  C   UNL A   1      45.717  32.811  28.503  1.00  0.00     0.009 A 
ATOM     79  C   UNL A   1      46.899  33.280  30.987  1.00  0.00     0.001 A 
ATOM     80  C   UNL A   1      46.120  34.102  28.855  1.00  0.00     0.001 A 
ATOM     81  C   UNL A   1      46.696  34.337  30.102  1.00  0.00     0.000 A 
ENDBRANCH  57  76
BRANCH  69  82
ATOM     82  C   UNL A   1      48.758  25.970  26.586  1.00  0.00    -0.014 A 
ATOM     83  C   UNL A   1      49.653  25.368  27.487  1.00  0.00     0.009 A 
ATOM     84  C   UNL A   1      49.225  26.339  25.316  1.00  0.00     0.009 A 
ATOM     85  C   UNL A   1      50.992  25.175  27.138  1.00  0.00     0.001 A 
ATOM     86  C   UNL A   1      50.556  26.113  24.957  1.00  0.00     0.001 A 
ATOM     87  C   UNL A   1      51.442  25.545  25.873  1.00  0.00     0.000 A 
ENDBRANCH  69  82
ENDBRANCH  43  44
ENDBRANCH  36  38
ENDBRANCH  35  36
ENDBRANCH  34  35
ENDBRANCH  33  34
ENDBRANCH  32  33
ENDBRANCH  31  32
ENDBRANCH   1  31
TORSDOF 20
ENDMDL
MODEL 2
REMARK VINA RESULT:     -10.7      1.913      7.622
REMARK SMILES CC(C)c1csc(C(=O)N2C[C@@H]3c4ccccc4OC[C@]3(C(=O)OCCOCCOCCOC(=O)c3ccc(-c4c5nc(c(-c6ccccc6)c6ccc([nH]6)c(-c6ccccc6)c6nc(c(-c7ccccc7)c7ccc4[nH]7)C=C6)C=C5)cc3)C2)n1
REMARK SMILES IDX 28 1 27 2 26 3 25 4 24 5 22 6 23 7 21 8 10 9 11 10 84 11
REMARK SMILES IDX 12 12 13 13 20 14 14 15 18 16 19 17 15 18 17 19 16 20 8 21
REMARK SMILES IDX 9 22 7 23 4 24 5 25 85 26 6 27 2 28 1 29 3 30 29 31 30 32
REMARK SMILES IDX 31 33 32 34 33 35 34 36 35 37 36 38 37 39 83 40 38 41 82 42
REMARK SMILES IDX 39 43 40 44 41 45 76 46 42 47 81 48 75 49 77 50 43 51 80 52
REMARK SMILES IDX 74 53 73 54 44 56 66 57 51 58 65 59 52 60 55 61 64 62 78 63
REMARK SMILES IDX 53 64 54 65 63 67 79 68 56 69 45 70 46 71 50 72 47 73 49 74
REMARK SMILES IDX 48 75 67 76 68 77 72 78 69 79 71 80 70 81 57 82 58 83 62 84
REMARK SMILES IDX 59 85 61 86 60 87
REMARK H PARENT 77 55 55 66
REMARK Flexibility Score: inf
ROOT
ATOM      1  C   UNL A   1      34.485  20.138  24.968  1.00  0.00     0.188 C 
ENDROOT
BRANCH   1   2
ATOM      2  O   UNL A   1      33.148  20.423  25.347  1.00  0.00    -0.376 OA
BRANCH   2   3
ATOM      3  C   UNL A   1      32.834  21.752  25.713  1.00  0.00     0.202 C 
BRANCH   3   4
ATOM      4  C   UNL A   1      31.747  22.526  24.915  1.00  0.00     0.261 C 
BRANCH   4   5
ATOM      5  O   UNL A   1      31.882  23.960  24.939  1.00  0.00    -0.463 OA
BRANCH   5   6
ATOM      6  C   UNL A   1      31.462  24.801  25.970  1.00  0.00     0.318 C 
ATOM      7  O   UNL A   1      30.841  24.448  26.954  1.00  0.00    -0.251 OA
BRANCH   6   8
ATOM      8  C   UNL A   1      32.022  26.208  25.627  1.00  0.00     0.128 C 
ATOM      9  N   UNL A   1      31.140  27.347  23.697  1.00  0.00    -0.335 N 
ATOM     10  C   UNL A   1      31.385  28.389  24.614  1.00  0.00     0.129 C 
ATOM     11  C   UNL A   1      31.855  26.154  24.074  1.00  0.00     0.143 C 
ATOM     12  C   UNL A   1      31.507  27.671  25.975  1.00  0.00     0.065 C 
ATOM     13  C   UNL A   1      32.509  28.600  26.689  1.00  0.00     0.000 A 
ATOM     14  C   UNL A   1      33.318  26.101  26.437  1.00  0.00     0.251 C 
ATOM     15  C   UNL A   1      32.174  29.902  27.082  1.00  0.00     0.008 A 
ATOM     16  C   UNL A   1      33.868  28.265  26.686  1.00  0.00     0.122 A 
ATOM     17  O   UNL A   1      34.283  27.086  26.147  1.00  0.00    -0.492 OA
ATOM     18  C   UNL A   1      33.174  30.808  27.473  1.00  0.00     0.001 A 
ATOM     19  C   UNL A   1      34.862  29.143  27.107  1.00  0.00     0.047 A 
ATOM     20  C   UNL A   1      34.514  30.422  27.510  1.00  0.00     0.004 A 
BRANCH   9  21
ATOM     21  C   UNL A   1      30.436  27.567  22.532  1.00  0.00     0.282 C 
ATOM     22  O   UNL A   1      30.725  26.961  21.499  1.00  0.00    -0.266 OA
BRANCH  21  23
ATOM     23  C   UNL A   1      29.508  28.694  22.608  1.00  0.00     0.181 A 
ATOM     24  C   UNL A   1      28.708  30.728  22.203  1.00  0.00     0.055 A 
ATOM     25  C   UNL A   1      27.547  30.096  22.619  1.00  0.00     0.091 A 
ATOM     26  N   UNL A   1      29.836  29.922  22.245  1.00  0.00    -0.236 NA
ATOM     27  S   UNL A   1      27.867  28.464  23.035  1.00  0.00    -0.117 S 
BRANCH  24  28
ATOM     28  C   UNL A   1      28.820  32.137  21.672  1.00  0.00     0.033 C 
ATOM     29  C   UNL A   1      27.755  32.438  20.616  1.00  0.00     0.014 C 
ATOM     30  C   UNL A   1      28.761  33.195  22.779  1.00  0.00     0.014 C 
ENDBRANCH  24  28
ENDBRANCH  21  23
ENDBRANCH   9  21
ENDBRANCH   6   8
ENDBRANCH   5   6
ENDBRANCH   4   5
ENDBRANCH   3   4
ENDBRANCH   2   3
ENDBRANCH   1   2
BRANCH   1  31
ATOM     31  C   UNL A   1      35.285  21.456  24.989  1.00  0.00     0.188 C 
BRANCH  31  32
ATOM     32  O   UNL A   1      36.555  21.445  25.634  1.00  0.00    -0.376 OA
BRANCH  32  33
ATOM     33  C   UNL A   1      37.558  20.624  25.051  1.00  0.00     0.202 C 
BRANCH  33  34
ATOM     34  C   UNL A   1      38.985  20.842  25.572  1.00  0.00     0.261 C 
BRANCH  34  35
ATOM     35  O   UNL A   1      39.733  19.614  25.737  1.00  0.00    -0.460 OA
BRANCH  35  36
ATOM     36  C   UNL A   1      41.035  19.734  26.081  1.00  0.00     0.338 C 
ATOM     37  O   UNL A   1      41.916  18.884  25.965  1.00  0.00    -0.246 OA
BRANCH  36  38
ATOM     38  C   UNL A   1      41.312  21.105  26.560  1.00  0.00     0.060 A 
ATOM     39  C   UNL A   1      41.344  21.393  27.923  1.00  0.00     0.016 A 
ATOM     40  C   UNL A   1      41.669  22.097  25.645  1.00  0.00     0.016 A 
ATOM     41  C   UNL A   1      41.716  22.678  28.355  1.00  0.00     0.010 A 
ATOM     42  C   UNL A   1      42.022  23.382  26.073  1.00  0.00     0.010 A 
ATOM     43  C   UNL A   1      42.072  23.687  27.435  1.00  0.00    -0.014 A 
BRANCH  43  44
ATOM     44  C   UNL A   1      42.664  24.981  27.887  1.00  0.00     0.031 A 
ATOM     45  C   UNL A   1      44.143  25.267  27.840  1.00  0.00     0.074 A 
ATOM     46  C   UNL A   1      41.851  25.899  28.449  1.00  0.00     0.049 A 
ATOM     47  N   UNL A   1      44.764  26.402  28.059  1.00  0.00    -0.248 NA
ATOM     48  C   UNL A   1      45.043  24.142  27.547  1.00  0.00     0.031 C 
ATOM     49  C   UNL A   1      40.424  25.701  28.711  1.00  0.00     0.029 A 
ATOM     50  N   UNL A   1      42.098  27.176  28.895  1.00  0.00    -0.354 N 
ATOM     51  C   UNL A   1      46.120  26.135  27.912  1.00  0.00     0.074 A 
ATOM     52  C   UNL A   1      46.237  24.714  27.654  1.00  0.00     0.031 C 
ATOM     53  C   UNL A   1      39.910  26.835  29.209  1.00  0.00     0.029 A 
ATOM     54  C   UNL A   1      40.968  27.835  29.320  1.00  0.00     0.049 A 
ATOM     55  H   UNL A   1      42.995  27.579  28.910  1.00  0.00     0.167 HD
ATOM     56  C   UNL A   1      47.164  26.998  27.958  1.00  0.00     0.031 A 
ATOM     57  C   UNL A   1      40.785  29.110  29.723  1.00  0.00     0.031 A 
ATOM     58  C   UNL A   1      47.041  28.409  28.229  1.00  0.00     0.049 A 
ATOM     59  C   UNL A   1      41.943  30.068  29.716  1.00  0.00     0.074 A 
ATOM     60  C   UNL A   1      48.025  29.383  28.170  1.00  0.00     0.029 A 
ATOM     61  N   UNL A   1      45.877  29.045  28.632  1.00  0.00    -0.354 N 
ATOM     62  N   UNL A   1      43.190  29.848  29.378  1.00  0.00    -0.248 NA
ATOM     63  C   UNL A   1      41.668  31.454  30.124  1.00  0.00     0.031 C 
ATOM     64  C   UNL A   1      47.479  30.587  28.617  1.00  0.00     0.029 A 
ATOM     65  C   UNL A   1      46.132  30.386  28.870  1.00  0.00     0.049 A 
ATOM     66  H   UNL A   1      45.001  28.610  28.734  1.00  0.00     0.167 HD
ATOM     67  C   UNL A   1      43.844  31.066  29.515  1.00  0.00     0.074 A 
ATOM     68  C   UNL A   1      42.851  32.029  29.942  1.00  0.00     0.031 C 
ATOM     69  C   UNL A   1      45.152  31.350  29.307  1.00  0.00     0.031 A 
BRANCH  56  70
ATOM     70  C   UNL A   1      48.549  26.476  27.662  1.00  0.00    -0.014 A 
ATOM     71  C   UNL A   1      49.051  26.497  26.350  1.00  0.00     0.009 A 
ATOM     72  C   UNL A   1      49.292  25.816  28.655  1.00  0.00     0.009 A 
ATOM     73  C   UNL A   1      50.252  25.854  26.034  1.00  0.00     0.001 A 
ATOM     74  C   UNL A   1      50.509  25.204  28.344  1.00  0.00     0.001 A 
ATOM     75  C   UNL A   1      50.981  25.211  27.032  1.00  0.00     0.000 A 
ENDBRANCH  56  70
BRANCH  57  76
ATOM     76  C   UNL A   1      39.410  29.561  30.071  1.00  0.00    -0.014 A 
ATOM     77  C   UNL A   1      38.881  29.337  31.352  1.00  0.00     0.009 A 
ATOM     78  C   UNL A   1      38.588  30.141  29.092  1.00  0.00     0.009 A 
ATOM     79  C   UNL A   1      37.549  29.648  31.635  1.00  0.00     0.001 A 
ATOM     80  C   UNL A   1      37.266  30.484  29.388  1.00  0.00     0.001 A 
ATOM     81  C   UNL A   1      36.745  30.224  30.654  1.00  0.00     0.000 A 
ENDBRANCH  57  76
BRANCH  69  82
ATOM     82  C   UNL A   1      45.627  32.759  29.546  1.00  0.00    -0.014 A 
ATOM     83  C   UNL A   1      45.636  33.685  28.489  1.00  0.00     0.009 A 
ATOM     84  C   UNL A   1      46.192  33.133  30.774  1.00  0.00     0.009 A 
ATOM     85  C   UNL A   1      46.228  34.940  28.646  1.00  0.00     0.001 A 
ATOM     86  C   UNL A   1      46.753  34.401  30.940  1.00  0.00     0.001 A 
ATOM     87  C   UNL A   1      46.784  35.298  29.872  1.00  0.00     0.000 A 
ENDBRANCH  69  82
ENDBRANCH  43  44
ENDBRANCH  36  38
ENDBRANCH  35  36
ENDBRANCH  34  35
ENDBRANCH  33  34
ENDBRANCH  32  33
ENDBRANCH  31  32
ENDBRANCH   1  31
TORSDOF 20
ENDMDL
MODEL 3
REMARK VINA RESULT:     -10.7      3.651      8.567
REMARK SMILES CC(C)c1csc(C(=O)N2C[C@@H]3c4ccccc4OC[C@]3(C(=O)OCCOCCOCCOC(=O)c3ccc(-c4c5nc(c(-c6ccccc6)c6ccc([nH]6)c(-c6ccccc6)c6nc(c(-c7ccccc7)c7ccc4[nH]7)C=C6)C=C5)cc3)C2)n1
REMARK SMILES IDX 28 1 27 2 26 3 25 4 24 5 22 6 23 7 21 8 10 9 11 10 84 11
REMARK SMILES IDX 12 12 13 13 20 14 14 15 18 16 19 17 15 18 17 19 16 20 8 21
REMARK SMILES IDX 9 22 7 23 4 24 5 25 85 26 6 27 2 28 1 29 3 30 29 31 30 32
REMARK SMILES IDX 31 33 32 34 33 35 34 36 35 37 36 38 37 39 83 40 38 41 82 42
REMARK SMILES IDX 39 43 40 44 41 45 76 46 42 47 81 48 75 49 77 50 43 51 80 52
REMARK SMILES IDX 74 53 73 54 44 56 66 57 51 58 65 59 52 60 55 61 64 62 78 63
REMARK SMILES IDX 53 64 54 65 63 67 79 68 56 69 45 70 46 71 50 72 47 73 49 74
REMARK SMILES IDX 48 75 67 76 68 77 72 78 69 79 71 80 70 81 57 82 58 83 62 84
REMARK SMILES IDX 59 85 61 86 60 87
REMARK H PARENT 77 55 55 66
REMARK Flexibility Score: inf
ROOT
ATOM      1  C   UNL A   1      37.547  21.163  24.878  1.00  0.00     0.188 C 
ENDROOT
BRANCH   1   2
ATOM      2  O   UNL A   1      37.151  22.322  24.165  1.00  0.00    -0.376 OA
BRANCH   2   3
ATOM      3  C   UNL A   1      35.779  22.476  23.861  1.00  0.00     0.202 C 
BRANCH   3   4
ATOM      4  C   UNL A   1      35.180  23.906  23.742  1.00  0.00     0.261 C 
BRANCH   4   5
ATOM      5  O   UNL A   1      33.777  23.951  23.421  1.00  0.00    -0.463 OA
BRANCH   5   6
ATOM      6  C   UNL A   1      33.120  25.004  22.782  1.00  0.00     0.318 C 
ATOM      7  O   UNL A   1      33.098  25.190  21.581  1.00  0.00    -0.251 OA
BRANCH   6   8
ATOM      8  C   UNL A   1      32.388  25.792  23.902  1.00  0.00     0.128 C 
ATOM      9  N   UNL A   1      31.408  24.550  25.717  1.00  0.00    -0.335 N 
ATOM     10  C   UNL A   1      31.864  25.734  26.332  1.00  0.00     0.129 C 
ATOM     11  C   UNL A   1      31.323  24.716  24.288  1.00  0.00     0.143 C 
ATOM     12  C   UNL A   1      32.873  26.319  25.321  1.00  0.00     0.065 C 
ATOM     13  C   UNL A   1      32.693  27.825  25.592  1.00  0.00     0.000 A 
ATOM     14  C   UNL A   1      32.172  27.088  23.113  1.00  0.00     0.251 C 
ATOM     15  C   UNL A   1      33.107  28.426  26.789  1.00  0.00     0.008 A 
ATOM     16  C   UNL A   1      31.837  28.567  24.770  1.00  0.00     0.122 A 
ATOM     17  O   UNL A   1      31.251  27.985  23.687  1.00  0.00    -0.492 OA
ATOM     18  C   UNL A   1      32.686  29.726  27.116  1.00  0.00     0.001 A 
ATOM     19  C   UNL A   1      31.445  29.868  25.068  1.00  0.00     0.047 A 
ATOM     20  C   UNL A   1      31.877  30.456  26.246  1.00  0.00     0.004 A 
BRANCH   9  21
ATOM     21  C   UNL A   1      30.963  23.478  26.463  1.00  0.00     0.282 C 
ATOM     22  O   UNL A   1      30.068  23.621  27.296  1.00  0.00    -0.266 OA
BRANCH  21  23
ATOM     23  C   UNL A   1      31.782  22.277  26.312  1.00  0.00     0.181 A 
ATOM     24  C   UNL A   1      32.585  20.446  25.340  1.00  0.00     0.055 A 
ATOM     25  C   UNL A   1      33.598  20.692  26.253  1.00  0.00     0.091 A 
ATOM     26  N   UNL A   1      31.527  21.339  25.416  1.00  0.00    -0.236 NA
ATOM     27  S   UNL A   1      33.236  22.079  27.193  1.00  0.00    -0.117 S 
BRANCH  24  28
ATOM     28  C   UNL A   1      32.576  19.371  24.280  1.00  0.00     0.033 C 
ATOM     29  C   UNL A   1      32.297  19.942  22.888  1.00  0.00     0.014 C 
ATOM     30  C   UNL A   1      33.872  18.553  24.251  1.00  0.00     0.014 C 
ENDBRANCH  24  28
ENDBRANCH  21  23
ENDBRANCH   9  21
ENDBRANCH   6   8
ENDBRANCH   5   6
ENDBRANCH   4   5
ENDBRANCH   3   4
ENDBRANCH   2   3
ENDBRANCH   1   2
BRANCH   1  31
ATOM     31  C   UNL A   1      38.743  21.533  25.779  1.00  0.00     0.188 C 
BRANCH  31  32
ATOM     32  O   UNL A   1      38.946  22.912  26.069  1.00  0.00    -0.376 OA
BRANCH  32  33
ATOM     33  C   UNL A   1      39.916  23.218  27.061  1.00  0.00     0.202 C 
BRANCH  33  34
ATOM     34  C   UNL A   1      40.805  24.435  26.773  1.00  0.00     0.261 C 
BRANCH  34  35
ATOM     35  O   UNL A   1      42.124  24.340  27.362  1.00  0.00    -0.460 OA
BRANCH  35  36
ATOM     36  C   UNL A   1      43.118  23.889  26.564  1.00  0.00     0.338 C 
ATOM     37  O   UNL A   1      43.146  22.833  25.936  1.00  0.00    -0.246 OA
BRANCH  36  38
ATOM     38  C   UNL A   1      44.189  24.903  26.463  1.00  0.00     0.060 A 
ATOM     39  C   UNL A   1      44.438  25.564  25.261  1.00  0.00     0.016 A 
ATOM     40  C   UNL A   1      44.879  25.296  27.612  1.00  0.00     0.016 A 
ATOM     41  C   UNL A   1      45.388  26.599  25.220  1.00  0.00     0.010 A 
ATOM     42  C   UNL A   1      45.837  26.314  27.567  1.00  0.00     0.010 A 
ATOM     43  C   UNL A   1      46.093  26.997  26.376  1.00  0.00    -0.014 A 
BRANCH  43  44
ATOM     44  C   UNL A   1      46.944  28.223  26.387  1.00  0.00     0.031 A 
ATOM     45  C   UNL A   1      48.449  28.176  26.324  1.00  0.00     0.074 A 
ATOM     46  C   UNL A   1      46.345  29.420  26.556  1.00  0.00     0.049 A 
ATOM     47  N   UNL A   1      49.292  29.170  26.173  1.00  0.00    -0.248 NA
ATOM     48  C   UNL A   1      49.096  26.866  26.483  1.00  0.00     0.031 C 
ATOM     49  C   UNL A   1      44.914  29.611  26.792  1.00  0.00     0.029 A 
ATOM     50  N   UNL A   1      46.856  30.697  26.549  1.00  0.00    -0.354 N 
ATOM     51  C   UNL A   1      50.563  28.606  26.200  1.00  0.00     0.074 A 
ATOM     52  C   UNL A   1      50.383  27.192  26.452  1.00  0.00     0.031 C 
ATOM     53  C   UNL A   1      44.650  30.925  26.842  1.00  0.00     0.029 A 
ATOM     54  C   UNL A   1      45.893  31.672  26.660  1.00  0.00     0.049 A 
ATOM     55  H   UNL A   1      47.817  30.894  26.472  1.00  0.00     0.167 HD
ATOM     56  C   UNL A   1      51.761  29.208  26.003  1.00  0.00     0.031 A 
ATOM     57  C   UNL A   1      45.980  33.016  26.590  1.00  0.00     0.031 A 
ATOM     58  C   UNL A   1      51.933  30.620  25.765  1.00  0.00     0.049 A 
ATOM     59  C   UNL A   1      47.309  33.664  26.317  1.00  0.00     0.074 A 
ATOM     60  C   UNL A   1      53.094  31.298  25.429  1.00  0.00     0.029 A 
ATOM     61  N   UNL A   1      50.931  31.573  25.862  1.00  0.00    -0.354 N 
ATOM     62  N   UNL A   1      48.478  33.098  26.142  1.00  0.00    -0.248 NA
ATOM     63  C   UNL A   1      47.330  35.130  26.209  1.00  0.00     0.031 C 
ATOM     64  C   UNL A   1      52.813  32.665  25.405  1.00  0.00     0.029 A 
ATOM     65  C   UNL A   1      51.458  32.835  25.639  1.00  0.00     0.049 A 
ATOM     66  H   UNL A   1      49.987  31.382  26.061  1.00  0.00     0.167 HD
ATOM     67  C   UNL A   1      49.369  34.134  25.888  1.00  0.00     0.074 A 
ATOM     68  C   UNL A   1      48.602  35.361  25.905  1.00  0.00     0.031 C 
ATOM     69  C   UNL A   1      50.703  34.063  25.666  1.00  0.00     0.031 A 
BRANCH  56  70
ATOM     70  C   UNL A   1      53.005  28.353  25.978  1.00  0.00    -0.014 A 
ATOM     71  C   UNL A   1      53.415  27.728  24.789  1.00  0.00     0.009 A 
ATOM     72  C   UNL A   1      53.680  28.038  27.170  1.00  0.00     0.009 A 
ATOM     73  C   UNL A   1      54.454  26.793  24.795  1.00  0.00     0.001 A 
ATOM     74  C   UNL A   1      54.741  27.129  27.167  1.00  0.00     0.001 A 
ATOM     75  C   UNL A   1      55.118  26.497  25.984  1.00  0.00     0.000 A 
ENDBRANCH  56  70
BRANCH  57  76
ATOM     76  C   UNL A   1      44.733  33.822  26.688  1.00  0.00    -0.014 A 
ATOM     77  C   UNL A   1      44.016  34.183  25.537  1.00  0.00     0.009 A 
ATOM     78  C   UNL A   1      44.304  34.310  27.933  1.00  0.00     0.009 A 
ATOM     79  C   UNL A   1      42.919  35.044  25.624  1.00  0.00     0.001 A 
ATOM     80  C   UNL A   1      43.185  35.143  28.021  1.00  0.00     0.001 A 
ATOM     81  C   UNL A   1      42.504  35.520  26.865  1.00  0.00     0.000 A 
ENDBRANCH  57  76
BRANCH  69  82
ATOM     82  C   UNL A   1      51.461  35.345  25.431  1.00  0.00    -0.014 A 
ATOM     83  C   UNL A   1      51.673  35.804  24.121  1.00  0.00     0.009 A 
ATOM     84  C   UNL A   1      52.078  36.023  26.492  1.00  0.00     0.009 A 
ATOM     85  C   UNL A   1      52.513  36.892  23.874  1.00  0.00     0.001 A 
ATOM     86  C   UNL A   1      52.890  37.133  26.247  1.00  0.00     0.001 A 
ATOM     87  C   UNL A   1      53.119  37.557  24.937  1.00  0.00     0.000 A 
ENDBRANCH  69  82
ENDBRANCH  43  44
ENDBRANCH  36  38
ENDBRANCH  35  36
ENDBRANCH  34  35
ENDBRANCH  33  34
ENDBRANCH  32  33
ENDBRANCH  31  32
ENDBRANCH   1  31
TORSDOF 20
ENDMDL
