MODEL 1
REMARK VINA RESULT:     -12.7      0.000      0.000
REMARK SMILES Cc1ccc(C(=O)N2CCCC[C@@H]2C(=O)OCCOCCOCCOC(=O)c2ccc(-c3c4nc(c(-c5ccccc5)c5ccc([nH]5)c(-c5ccccc5)c5nc(c(-c6ccccc6)c6ccc3[nH]6)C=C5)C=C4)cc2)cc1S(=O)(=O)N1CCCCC1
REMARK SMILES IDX 20 1 19 2 18 3 17 4 16 5 14 6 15 7 13 8 8 9 9 10 10 11 12 12
REMARK SMILES IDX 11 13 6 14 7 15 5 16 1 17 2 18 3 19 77 20 4 21 76 22 78 23
REMARK SMILES IDX 79 24 80 25 81 26 82 27 86 28 83 29 85 30 84 31 21 32 22 33
REMARK SMILES IDX 23 34 24 35 25 36 26 37 27 38 28 39 29 40 75 41 30 42 74 43
REMARK SMILES IDX 31 44 32 45 33 46 68 47 34 48 73 49 67 50 69 51 35 52 72 53
REMARK SMILES IDX 66 54 65 55 36 57 58 58 43 59 57 60 44 61 47 62 56 63 70 64
REMARK SMILES IDX 45 65 46 66 55 68 71 69 48 70 37 71 38 72 42 73 39 74 41 75
REMARK SMILES IDX 40 76 59 77 60 78 64 79 61 80 63 81 62 82 49 83 50 84 54 85
REMARK SMILES IDX 51 86 53 87 52 88
REMARK H PARENT 69 56 47 67
REMARK Flexibility Score: inf
ROOT
ATOM      1  C   UNL A   1      32.320  29.001  25.441  1.00  0.00     0.188 C 
ENDROOT
BRANCH   1   2
ATOM      2  O   UNL A   1      31.331  28.863  24.389  1.00  0.00    -0.376 OA
BRANCH   2   3
ATOM      3  C   UNL A   1      31.024  27.719  23.499  1.00  0.00     0.202 C 
BRANCH   3   4
ATOM      4  C   UNL A   1      31.849  26.383  22.540  1.00  0.00     0.261 C 
BRANCH   4   5
ATOM      5  O   UNL A   1      32.190  24.573  22.888  1.00  0.00    -0.462 OA
BRANCH   5   6
ATOM      6  C   UNL A   1      33.421  23.559  23.014  1.00  0.00     0.328 C 
ATOM      7  O   UNL A   1      34.347  23.424  22.199  1.00  0.00    -0.250 OA
BRANCH   6   8
ATOM      8  C   UNL A   1      33.709  22.615  24.153  1.00  0.00     0.195 C 
ATOM      9  N   UNL A   1      34.994  21.808  24.067  1.00  0.00    -0.325 N 
ATOM     10  C   UNL A   1      35.049  20.583  24.849  1.00  0.00     0.121 C 
ATOM     11  C   UNL A   1      33.716  19.930  25.144  1.00  0.00     0.022 C 
ATOM     12  C   UNL A   1      32.441  21.986  24.673  1.00  0.00     0.037 C 
ATOM     13  C   UNL A   1      32.745  20.943  25.721  1.00  0.00     0.005 C 
BRANCH   9  14
ATOM     14  C   UNL A   1      36.350  22.289  23.879  1.00  0.00     0.254 C 
ATOM     15  O   UNL A   1      36.670  22.826  22.807  1.00  0.00    -0.269 OA
BRANCH  14  16
ATOM     16  C   UNL A   1      37.401  22.415  24.926  1.00  0.00     0.041 A 
ATOM     17  C   UNL A   1      41.075  24.516  28.125  1.00  0.00     0.046 C 
ATOM     18  C   UNL A   1      39.581  23.384  26.903  1.00  0.00    -0.031 A 
ATOM     19  C   UNL A   1      38.222  24.010  26.463  1.00  0.00     0.005 A 
ATOM     20  C   UNL A   1      39.545  21.935  26.290  1.00  0.00     0.086 A 
ATOM     21  C   UNL A   1      37.353  23.664  25.452  1.00  0.00     0.014 A 
ATOM     22  C   UNL A   1      38.458  21.544  25.335  1.00  0.00     0.035 A 
BRANCH  20  23
ATOM     23  S   UNL A   1      40.720  20.288  26.591  1.00  0.00     0.243 S 
ATOM     24  O   UNL A   1      40.624  20.011  28.008  1.00  0.00    -0.207 OA
ATOM     25  O   UNL A   1      40.158  19.337  25.647  1.00  0.00    -0.207 OA
BRANCH  23  26
ATOM     26  N   UNL A   1      42.472  20.347  26.217  1.00  0.00    -0.198 NA
ATOM     27  C   UNL A   1      43.119  19.036  25.930  1.00  0.00     0.102 C 
ATOM     28  C   UNL A   1      43.165  21.633  25.855  1.00  0.00     0.102 C 
ATOM     29  C   UNL A   1      44.369  19.034  25.032  1.00  0.00     0.017 C 
ATOM     30  C   UNL A   1      44.402  21.535  24.909  1.00  0.00     0.017 C 
ATOM     31  C   UNL A   1      44.635  20.236  24.144  1.00  0.00     0.003 C 
ENDBRANCH  23  26
ENDBRANCH  20  23
ENDBRANCH  14  16
ENDBRANCH   9  14
ENDBRANCH   6   8
ENDBRANCH   5   6
ENDBRANCH   4   5
ENDBRANCH   3   4
ENDBRANCH   2   3
ENDBRANCH   1   2
BRANCH   1  32
ATOM     32  C   UNL A   1      31.810  29.206  26.812  1.00  0.00     0.188 C 
BRANCH  32  33
ATOM     33  O   UNL A   1      32.916  29.729  27.482  1.00  0.00    -0.376 OA
BRANCH  33  34
ATOM     34  C   UNL A   1      34.196  29.297  27.173  1.00  0.00     0.202 C 
BRANCH  34  35
ATOM     35  C   UNL A   1      35.180  30.407  27.480  1.00  0.00     0.261 C 
BRANCH  35  36
ATOM     36  O   UNL A   1      34.556  31.478  28.284  1.00  0.00    -0.460 OA
BRANCH  36  37
ATOM     37  C   UNL A   1      35.018  32.785  28.291  1.00  0.00     0.338 C 
ATOM     38  O   UNL A   1      34.677  33.634  27.487  1.00  0.00    -0.246 OA
BRANCH  37  39
ATOM     39  C   UNL A   1      36.028  33.057  29.384  1.00  0.00     0.060 A 
ATOM     40  C   UNL A   1      37.143  33.916  29.289  1.00  0.00     0.016 A 
ATOM     41  C   UNL A   1      36.167  32.071  30.277  1.00  0.00     0.016 A 
ATOM     42  C   UNL A   1      38.506  33.486  29.649  1.00  0.00     0.010 A 
ATOM     43  C   UNL A   1      37.484  31.620  30.389  1.00  0.00     0.010 A 
ATOM     44  C   UNL A   1      38.838  32.169  29.978  1.00  0.00    -0.014 A 
BRANCH  44  45
ATOM     45  C   UNL A   1      40.544  31.425  30.335  1.00  0.00     0.031 A 
ATOM     46  C   UNL A   1      41.288  29.874  29.558  1.00  0.00     0.074 A 
ATOM     47  C   UNL A   1      41.429  32.013  31.187  1.00  0.00     0.049 A 
ATOM     48  N   UNL A   1      42.503  29.383  29.702  1.00  0.00    -0.248 NA
ATOM     49  C   UNL A   1      40.658  28.907  28.452  1.00  0.00     0.031 C 
ATOM     50  C   UNL A   1      42.894  31.881  31.304  1.00  0.00     0.029 A 
ATOM     51  N   UNL A   1      41.198  33.050  32.082  1.00  0.00    -0.354 N 
ATOM     52  C   UNL A   1      42.706  28.278  28.821  1.00  0.00     0.074 A 
ATOM     53  C   UNL A   1      41.574  28.079  28.027  1.00  0.00     0.031 C 
ATOM     54  C   UNL A   1      43.305  32.541  32.414  1.00  0.00     0.029 A 
ATOM     55  C   UNL A   1      42.107  32.932  33.119  1.00  0.00     0.049 A 
ATOM     56  H   UNL A   1      40.509  33.747  31.994  1.00  0.00     0.167 HD
ATOM     57  C   UNL A   1      43.771  27.447  28.794  1.00  0.00     0.031 A 
ATOM     58  C   UNL A   1      41.611  32.433  34.272  1.00  0.00     0.031 A 
ATOM     59  C   UNL A   1      44.518  27.622  29.990  1.00  0.00     0.049 A 
ATOM     60  C   UNL A   1      42.259  31.062  34.503  1.00  0.00     0.074 A 
ATOM     61  C   UNL A   1      45.402  28.612  30.341  1.00  0.00     0.029 A 
ATOM     62  N   UNL A   1      44.097  26.973  31.128  1.00  0.00    -0.354 N 
ATOM     63  N   UNL A   1      43.281  30.181  33.496  1.00  0.00    -0.248 NA
ATOM     64  C   UNL A   1      42.004  29.915  36.151  1.00  0.00     0.031 C 
ATOM     65  C   UNL A   1      45.418  28.649  31.749  1.00  0.00     0.029 A 
ATOM     66  C   UNL A   1      44.593  27.643  32.229  1.00  0.00     0.049 A 
ATOM     67  H   UNL A   1      43.536  26.165  31.153  1.00  0.00     0.167 HD
ATOM     68  C   UNL A   1      43.589  28.455  34.198  1.00  0.00     0.074 A 
ATOM     69  C   UNL A   1      42.685  28.429  35.905  1.00  0.00     0.031 C 
ATOM     70  C   UNL A   1      44.039  27.350  33.525  1.00  0.00     0.031 A 
BRANCH  57  71
ATOM     71  C   UNL A   1      44.261  26.634  27.607  1.00  0.00    -0.014 A 
ATOM     72  C   UNL A   1      44.538  25.286  27.897  1.00  0.00     0.009 A 
ATOM     73  C   UNL A   1      44.653  27.067  26.320  1.00  0.00     0.009 A 
ATOM     74  C   UNL A   1      45.269  24.465  27.038  1.00  0.00     0.001 A 
ATOM     75  C   UNL A   1      45.373  26.238  25.440  1.00  0.00     0.001 A 
ATOM     76  C   UNL A   1      45.709  24.947  25.816  1.00  0.00     0.000 A 
ENDBRANCH  57  71
BRANCH  58  77
ATOM     77  C   UNL A   1      40.141  32.871  34.445  1.00  0.00    -0.014 A 
ATOM     78  C   UNL A   1      39.763  34.219  34.210  1.00  0.00     0.009 A 
ATOM     79  C   UNL A   1      39.080  31.958  34.412  1.00  0.00     0.009 A 
ATOM     80  C   UNL A   1      38.445  34.585  33.842  1.00  0.00     0.001 A 
ATOM     81  C   UNL A   1      37.736  32.352  34.233  1.00  0.00     0.001 A 
ATOM     82  C   UNL A   1      37.429  33.643  33.838  1.00  0.00     0.000 A 
ENDBRANCH  58  77
BRANCH  70  83
ATOM     83  C   UNL A   1      43.848  25.941  34.059  1.00  0.00    -0.014 A 
ATOM     84  C   UNL A   1      44.784  24.900  33.942  1.00  0.00     0.009 A 
ATOM     85  C   UNL A   1      42.675  25.602  34.751  1.00  0.00     0.009 A 
ATOM     86  C   UNL A   1      44.463  23.562  34.185  1.00  0.00     0.001 A 
ATOM     87  C   UNL A   1      42.388  24.279  35.119  1.00  0.00     0.001 A 
ATOM     88  C   UNL A   1      43.243  23.248  34.754  1.00  0.00     0.000 A 
ENDBRANCH  70  83
ENDBRANCH  44  45
ENDBRANCH  37  39
ENDBRANCH  36  37
ENDBRANCH  35  36
ENDBRANCH  34  35
ENDBRANCH  33  34
ENDBRANCH  32  33
ENDBRANCH   1  32
TORSDOF 21
ENDMDL
MODEL 2
REMARK VINA RESULT:     -12.3      3.002      6.108
REMARK SMILES Cc1ccc(C(=O)N2CCCC[C@@H]2C(=O)OCCOCCOCCOC(=O)c2ccc(-c3c4nc(c(-c5ccccc5)c5ccc([nH]5)c(-c5ccccc5)c5nc(c(-c6ccccc6)c6ccc3[nH]6)C=C5)C=C4)cc2)cc1S(=O)(=O)N1CCCCC1
REMARK SMILES IDX 20 1 19 2 18 3 17 4 16 5 14 6 15 7 13 8 8 9 9 10 10 11 12 12
REMARK SMILES IDX 11 13 6 14 7 15 5 16 1 17 2 18 3 19 77 20 4 21 76 22 78 23
REMARK SMILES IDX 79 24 80 25 81 26 82 27 86 28 83 29 85 30 84 31 21 32 22 33
REMARK SMILES IDX 23 34 24 35 25 36 26 37 27 38 28 39 29 40 75 41 30 42 74 43
REMARK SMILES IDX 31 44 32 45 33 46 68 47 34 48 73 49 67 50 69 51 35 52 72 53
REMARK SMILES IDX 66 54 65 55 36 57 58 58 43 59 57 60 44 61 47 62 56 63 70 64
REMARK SMILES IDX 45 65 46 66 55 68 71 69 48 70 37 71 38 72 42 73 39 74 41 75
REMARK SMILES IDX 40 76 59 77 60 78 64 79 61 80 63 81 62 82 49 83 50 84 54 85
REMARK SMILES IDX 51 86 53 87 52 88
REMARK H PARENT 69 56 47 67
REMARK Flexibility Score: inf
ROOT
ATOM      1  C   UNL A   1      36.206  30.436  27.608  1.00  0.00     0.188 C 
ENDROOT
BRANCH   1   2
ATOM      2  O   UNL A   1      34.785  30.147  27.642  1.00  0.00    -0.376 OA
BRANCH   2   3
ATOM      3  C   UNL A   1      34.007  29.057  27.006  1.00  0.00     0.202 C 
BRANCH   3   4
ATOM      4  C   UNL A   1      32.469  28.766  26.040  1.00  0.00     0.261 C 
BRANCH   4   5
ATOM      5  O   UNL A   1      31.544  29.776  24.761  1.00  0.00    -0.462 OA
BRANCH   5   6
ATOM      6  C   UNL A   1      30.433  30.925  24.673  1.00  0.00     0.328 C 
ATOM      7  O   UNL A   1      30.387  31.955  25.365  1.00  0.00    -0.250 OA
BRANCH   6   8
ATOM      8  C   UNL A   1      29.271  30.995  23.717  1.00  0.00     0.195 C 
ATOM      9  N   UNL A   1      29.041  29.785  22.828  1.00  0.00    -0.325 N 
ATOM     10  C   UNL A   1      28.285  30.007  21.604  1.00  0.00     0.121 C 
ATOM     11  C   UNL A   1      28.346  31.411  21.040  1.00  0.00     0.022 C 
ATOM     12  C   UNL A   1      29.097  32.390  23.174  1.00  0.00     0.037 C 
ATOM     13  C   UNL A   1      28.020  32.429  22.117  1.00  0.00     0.005 C 
BRANCH   9  14
ATOM     14  C   UNL A   1      28.874  28.398  23.218  1.00  0.00     0.254 C 
ATOM     15  O   UNL A   1      27.734  27.915  23.308  1.00  0.00    -0.269 OA
BRANCH  14  16
ATOM     16  C   UNL A   1      29.946  27.371  23.331  1.00  0.00     0.041 A 
ATOM     17  C   UNL A   1      33.398  23.553  22.044  1.00  0.00     0.046 C 
ATOM     18  C   UNL A   1      32.045  25.144  22.848  1.00  0.00    -0.031 A 
ATOM     19  C   UNL A   1      31.646  26.396  22.010  1.00  0.00     0.005 A 
ATOM     20  C   UNL A   1      31.293  25.348  24.216  1.00  0.00     0.086 A 
ATOM     21  C   UNL A   1      30.591  27.272  22.142  1.00  0.00     0.014 A 
ATOM     22  C   UNL A   1      30.286  26.447  24.368  1.00  0.00     0.035 A 
BRANCH  20  23
ATOM     23  S   UNL A   1      31.451  24.405  26.024  1.00  0.00     0.243 S 
ATOM     24  O   UNL A   1      31.079  25.404  27.003  1.00  0.00    -0.207 OA
ATOM     25  O   UNL A   1      30.595  23.246  25.839  1.00  0.00    -0.207 OA
BRANCH  23  26
ATOM     26  N   UNL A   1      33.028  23.746  26.565  1.00  0.00    -0.198 NA
ATOM     27  C   UNL A   1      32.964  22.520  27.410  1.00  0.00     0.102 C 
ATOM     28  C   UNL A   1      34.326  24.165  25.928  1.00  0.00     0.102 C 
ATOM     29  C   UNL A   1      34.176  21.572  27.391  1.00  0.00     0.017 C 
ATOM     30  C   UNL A   1      35.487  23.123  25.924  1.00  0.00     0.017 C 
ATOM     31  C   UNL A   1      35.162  21.666  26.240  1.00  0.00     0.003 C 
ENDBRANCH  23  26
ENDBRANCH  20  23
ENDBRANCH  14  16
ENDBRANCH   9  14
ENDBRANCH   6   8
ENDBRANCH   5   6
ENDBRANCH   4   5
ENDBRANCH   3   4
ENDBRANCH   2   3
ENDBRANCH   1   2
BRANCH   1  32
ATOM     32  C   UNL A   1      37.085  29.544  28.389  1.00  0.00     0.188 C 
BRANCH  32  33
ATOM     33  O   UNL A   1      36.377  29.372  29.579  1.00  0.00    -0.376 OA
BRANCH  33  34
ATOM     34  C   UNL A   1      37.044  29.298  30.792  1.00  0.00     0.202 C 
BRANCH  34  35
ATOM     35  C   UNL A   1      36.370  30.225  31.783  1.00  0.00     0.261 C 
BRANCH  35  36
ATOM     36  O   UNL A   1      35.737  31.376  31.107  1.00  0.00    -0.460 OA
BRANCH  36  37
ATOM     37  C   UNL A   1      36.048  32.693  31.405  1.00  0.00     0.338 C 
ATOM     38  O   UNL A   1      35.254  33.496  31.863  1.00  0.00    -0.246 OA
BRANCH  37  39
ATOM     39  C   UNL A   1      37.478  33.060  31.072  1.00  0.00     0.060 A 
ATOM     40  C   UNL A   1      38.100  32.914  29.814  1.00  0.00     0.016 A 
ATOM     41  C   UNL A   1      38.321  33.032  32.110  1.00  0.00     0.016 A 
ATOM     42  C   UNL A   1      39.395  32.228  29.647  1.00  0.00     0.010 A 
ATOM     43  C   UNL A   1      39.417  32.194  31.899  1.00  0.00     0.010 A 
ATOM     44  C   UNL A   1      40.045  31.546  30.678  1.00  0.00    -0.014 A 
BRANCH  44  45
ATOM     45  C   UNL A   1      41.631  30.511  30.606  1.00  0.00     0.031 A 
ATOM     46  C   UNL A   1      41.836  28.807  29.819  1.00  0.00     0.074 A 
ATOM     47  C   UNL A   1      42.817  30.963  31.099  1.00  0.00     0.049 A 
ATOM     48  N   UNL A   1      42.938  28.102  29.659  1.00  0.00    -0.248 NA
ATOM     49  C   UNL A   1      40.748  27.921  29.053  1.00  0.00     0.031 C 
ATOM     50  C   UNL A   1      44.205  30.560  30.801  1.00  0.00     0.029 A 
ATOM     51  N   UNL A   1      43.044  32.071  31.905  1.00  0.00    -0.354 N 
ATOM     52  C   UNL A   1      42.677  26.933  28.880  1.00  0.00     0.074 A 
ATOM     53  C   UNL A   1      41.342  26.912  28.472  1.00  0.00     0.031 C 
ATOM     54  C   UNL A   1      45.037  31.187  31.668  1.00  0.00     0.029 A 
ATOM     55  C   UNL A   1      44.191  31.837  32.642  1.00  0.00     0.049 A 
ATOM     56  H   UNL A   1      42.486  32.881  31.946  1.00  0.00     0.167 HD
ATOM     57  C   UNL A   1      43.531  25.914  28.637  1.00  0.00     0.031 A 
ATOM     58  C   UNL A   1      43.993  31.504  33.936  1.00  0.00     0.031 A 
ATOM     59  C   UNL A   1      44.623  26.006  29.540  1.00  0.00     0.049 A 
ATOM     60  C   UNL A   1      44.443  30.048  34.117  1.00  0.00     0.074 A 
ATOM     61  C   UNL A   1      45.723  26.827  29.514  1.00  0.00     0.029 A 
ATOM     62  N   UNL A   1      44.465  25.511  30.814  1.00  0.00    -0.354 N 
ATOM     63  N   UNL A   1      44.951  28.936  32.958  1.00  0.00    -0.248 NA
ATOM     64  C   UNL A   1      44.513  29.059  35.881  1.00  0.00     0.031 C 
ATOM     65  C   UNL A   1      46.172  26.935  30.845  1.00  0.00     0.029 A 
ATOM     66  C   UNL A   1      45.375  26.131  31.647  1.00  0.00     0.049 A 
ATOM     67  H   UNL A   1      43.812  24.827  31.087  1.00  0.00     0.167 HD
ATOM     68  C   UNL A   1      45.166  27.223  33.723  1.00  0.00     0.074 A 
ATOM     69  C   UNL A   1      44.830  27.460  35.610  1.00  0.00     0.031 C 
ATOM     70  C   UNL A   1      45.200  26.018  33.072  1.00  0.00     0.031 A 
BRANCH  57  71
ATOM     71  C   UNL A   1      43.495  24.961  27.453  1.00  0.00    -0.014 A 
ATOM     72  C   UNL A   1      44.285  25.358  26.360  1.00  0.00     0.009 A 
ATOM     73  C   UNL A   1      42.652  23.851  27.218  1.00  0.00     0.009 A 
ATOM     74  C   UNL A   1      44.155  24.791  25.091  1.00  0.00     0.001 A 
ATOM     75  C   UNL A   1      42.531  23.261  25.946  1.00  0.00     0.001 A 
ATOM     76  C   UNL A   1      43.260  23.756  24.876  1.00  0.00     0.000 A 
ENDBRANCH  57  71
BRANCH  58  77
ATOM     77  C   UNL A   1      42.738  32.222  34.478  1.00  0.00    -0.014 A 
ATOM     78  C   UNL A   1      41.634  31.469  34.956  1.00  0.00     0.009 A 
ATOM     79  C   UNL A   1      42.769  33.550  34.918  1.00  0.00     0.009 A 
ATOM     80  C   UNL A   1      40.717  31.986  35.905  1.00  0.00     0.001 A 
ATOM     81  C   UNL A   1      41.748  34.117  35.713  1.00  0.00     0.001 A 
ATOM     82  C   UNL A   1      40.784  33.313  36.297  1.00  0.00     0.000 A 
ENDBRANCH  58  77
BRANCH  70  83
ATOM     83  C   UNL A   1      44.948  24.702  33.786  1.00  0.00    -0.014 A 
ATOM     84  C   UNL A   1      43.685  24.219  34.165  1.00  0.00     0.009 A 
ATOM     85  C   UNL A   1      46.020  23.850  34.094  1.00  0.00     0.009 A 
ATOM     86  C   UNL A   1      43.517  23.160  35.061  1.00  0.00     0.001 A 
ATOM     87  C   UNL A   1      45.852  22.707  34.890  1.00  0.00     0.001 A 
ATOM     88  C   UNL A   1      44.615  22.415  35.446  1.00  0.00     0.000 A 
ENDBRANCH  70  83
ENDBRANCH  44  45
ENDBRANCH  37  39
ENDBRANCH  36  37
ENDBRANCH  35  36
ENDBRANCH  34  35
ENDBRANCH  33  34
ENDBRANCH  32  33
ENDBRANCH   1  32
TORSDOF 21
ENDMDL
MODEL 3
REMARK VINA RESULT:     -11.4      7.619     14.616
REMARK SMILES Cc1ccc(C(=O)N2CCCC[C@@H]2C(=O)OCCOCCOCCOC(=O)c2ccc(-c3c4nc(c(-c5ccccc5)c5ccc([nH]5)c(-c5ccccc5)c5nc(c(-c6ccccc6)c6ccc3[nH]6)C=C5)C=C4)cc2)cc1S(=O)(=O)N1CCCCC1
REMARK SMILES IDX 20 1 19 2 18 3 17 4 16 5 14 6 15 7 13 8 8 9 9 10 10 11 12 12
REMARK SMILES IDX 11 13 6 14 7 15 5 16 1 17 2 18 3 19 77 20 4 21 76 22 78 23
REMARK SMILES IDX 79 24 80 25 81 26 82 27 86 28 83 29 85 30 84 31 21 32 22 33
REMARK SMILES IDX 23 34 24 35 25 36 26 37 27 38 28 39 29 40 75 41 30 42 74 43
REMARK SMILES IDX 31 44 32 45 33 46 68 47 34 48 73 49 67 50 69 51 35 52 72 53
REMARK SMILES IDX 66 54 65 55 36 57 58 58 43 59 57 60 44 61 47 62 56 63 70 64
REMARK SMILES IDX 45 65 46 66 55 68 71 69 48 70 37 71 38 72 42 73 39 74 41 75
REMARK SMILES IDX 40 76 59 77 60 78 64 79 61 80 63 81 62 82 49 83 50 84 54 85
REMARK SMILES IDX 51 86 53 87 52 88
REMARK H PARENT 69 56 47 67
REMARK Flexibility Score: inf
ROOT
ATOM      1  C   UNL A   1      47.778  36.489  29.124  1.00  0.00     0.188 C 
ENDROOT
BRANCH   1   2
ATOM      2  O   UNL A   1      47.160  37.774  28.857  1.00  0.00    -0.376 OA
BRANCH   2   3
ATOM      3  C   UNL A   1      47.528  38.839  27.893  1.00  0.00     0.202 C 
BRANCH   3   4
ATOM      4  C   UNL A   1      47.088  39.481  26.226  1.00  0.00     0.261 C 
BRANCH   4   5
ATOM      5  O   UNL A   1      45.675  40.531  25.585  1.00  0.00    -0.462 OA
BRANCH   5   6
ATOM      6  C   UNL A   1      44.964  41.937  25.869  1.00  0.00     0.328 C 
ATOM      7  O   UNL A   1      45.367  42.821  26.642  1.00  0.00    -0.250 OA
BRANCH   6   8
ATOM      8  C   UNL A   1      43.708  42.467  25.227  1.00  0.00     0.195 C 
ATOM      9  N   UNL A   1      42.568  41.481  25.035  1.00  0.00    -0.325 N 
ATOM     10  C   UNL A   1      41.586  41.808  24.013  1.00  0.00     0.121 C 
ATOM     11  C   UNL A   1      42.081  42.683  22.882  1.00  0.00     0.022 C 
ATOM     12  C   UNL A   1      44.029  43.485  24.163  1.00  0.00     0.037 C 
ATOM     13  C   UNL A   1      42.780  43.913  23.430  1.00  0.00     0.005 C 
BRANCH   9  14
ATOM     14  C   UNL A   1      41.926  40.641  26.029  1.00  0.00     0.254 C 
ATOM     15  O   UNL A   1      40.798  40.174  25.806  1.00  0.00    -0.269 OA
BRANCH  14  16
ATOM     16  C   UNL A   1      42.556  40.069  27.251  1.00  0.00     0.041 A 
ATOM     17  C   UNL A   1      44.348  36.560  30.805  1.00  0.00     0.046 C 
ATOM     18  C   UNL A   1      43.690  38.239  29.480  1.00  0.00    -0.031 A 
ATOM     19  C   UNL A   1      43.745  38.141  27.925  1.00  0.00     0.005 A 
ATOM     20  C   UNL A   1      43.107  39.677  29.748  1.00  0.00     0.086 A 
ATOM     21  C   UNL A   1      43.084  38.856  26.951  1.00  0.00     0.014 A 
ATOM     22  C   UNL A   1      42.571  40.499  28.614  1.00  0.00     0.035 A 
BRANCH  20  23
ATOM     23  S   UNL A   1      42.969  40.809  31.446  1.00  0.00     0.243 S 
ATOM     24  O   UNL A   1      41.612  41.312  31.454  1.00  0.00    -0.207 OA
ATOM     25  O   UNL A   1      43.379  39.867  32.473  1.00  0.00    -0.207 OA
BRANCH  23  26
ATOM     26  N   UNL A   1      44.027  42.239  31.666  1.00  0.00    -0.198 NA
ATOM     27  C   UNL A   1      43.496  43.527  31.138  1.00  0.00     0.102 C 
ATOM     28  C   UNL A   1      45.186  42.231  32.626  1.00  0.00     0.102 C 
ATOM     29  C   UNL A   1      43.985  44.829  31.796  1.00  0.00     0.017 C 
ATOM     30  C   UNL A   1      45.587  43.593  33.273  1.00  0.00     0.017 C 
ATOM     31  C   UNL A   1      44.610  44.761  33.178  1.00  0.00     0.003 C 
ENDBRANCH  23  26
ENDBRANCH  20  23
ENDBRANCH  14  16
ENDBRANCH   9  14
ENDBRANCH   6   8
ENDBRANCH   5   6
ENDBRANCH   4   5
ENDBRANCH   3   4
ENDBRANCH   2   3
ENDBRANCH   1   2
BRANCH   1  32
ATOM     32  C   UNL A   1      48.585  36.382  30.356  1.00  0.00     0.188 C 
BRANCH  32  33
ATOM     33  O   UNL A   1      47.789  35.587  31.182  1.00  0.00    -0.376 OA
BRANCH  33  34
ATOM     34  C   UNL A   1      48.359  34.609  31.981  1.00  0.00     0.202 C 
BRANCH  34  35
ATOM     35  C   UNL A   1      48.116  34.955  33.435  1.00  0.00     0.261 C 
BRANCH  35  36
ATOM     36  O   UNL A   1      46.673  35.029  33.742  1.00  0.00    -0.460 OA
BRANCH  36  37
ATOM     37  C   UNL A   1      46.137  35.933  34.646  1.00  0.00     0.338 C 
ATOM     38  O   UNL A   1      46.628  37.020  34.898  1.00  0.00    -0.246 OA
BRANCH  37  39
ATOM     39  C   UNL A   1      44.886  35.427  35.328  1.00  0.00     0.060 A 
ATOM     40  C   UNL A   1      44.732  34.171  35.954  1.00  0.00     0.016 A 
ATOM     41  C   UNL A   1      43.745  35.960  34.878  1.00  0.00     0.016 A 
ATOM     42  C   UNL A   1      43.609  33.267  35.646  1.00  0.00     0.010 A 
ATOM     43  C   UNL A   1      42.831  35.001  34.438  1.00  0.00     0.010 A 
ATOM     44  C   UNL A   1      42.687  33.501  34.623  1.00  0.00    -0.014 A 
BRANCH  44  45
ATOM     45  C   UNL A   1      41.277  32.391  34.014  1.00  0.00     0.031 A 
ATOM     46  C   UNL A   1      41.053  31.700  32.271  1.00  0.00     0.074 A 
ATOM     47  C   UNL A   1      40.294  31.944  34.843  1.00  0.00     0.049 A 
ATOM     48  N   UNL A   1      40.147  30.847  31.835  1.00  0.00    -0.248 NA
ATOM     49  C   UNL A   1      41.992  31.886  30.992  1.00  0.00     0.031 C 
ATOM     50  C   UNL A   1      39.379  30.792  34.727  1.00  0.00     0.029 A 
ATOM     51  N   UNL A   1      40.003  32.366  36.134  1.00  0.00    -0.354 N 
ATOM     52  C   UNL A   1      40.423  30.469  30.485  1.00  0.00     0.074 A 
ATOM     53  C   UNL A   1      41.603  31.073  30.046  1.00  0.00     0.031 C 
ATOM     54  C   UNL A   1      38.466  30.857  35.726  1.00  0.00     0.029 A 
ATOM     55  C   UNL A   1      38.659  32.136  36.368  1.00  0.00     0.049 A 
ATOM     56  H   UNL A   1      40.641  32.761  36.771  1.00  0.00     0.167 HD
ATOM     57  C   UNL A   1      39.636  29.728  29.674  1.00  0.00     0.031 A 
ATOM     58  C   UNL A   1      37.865  33.228  36.319  1.00  0.00     0.031 A 
ATOM     59  C   UNL A   1      38.336  29.652  30.241  1.00  0.00     0.049 A 
ATOM     60  C   UNL A   1      36.942  33.079  35.102  1.00  0.00     0.074 A 
ATOM     61  C   UNL A   1      37.866  28.876  31.271  1.00  0.00     0.029 A 
ATOM     62  N   UNL A   1      37.471  30.705  30.045  1.00  0.00    -0.354 N 
ATOM     63  N   UNL A   1      36.944  31.900  33.899  1.00  0.00    -0.248 NA
ATOM     64  C   UNL A   1      35.441  34.346  34.615  1.00  0.00     0.031 C 
ATOM     65  C   UNL A   1      36.750  29.550  31.802  1.00  0.00     0.029 A 
ATOM     66  C   UNL A   1      36.523  30.692  31.049  1.00  0.00     0.049 A 
ATOM     67  H   UNL A   1      37.521  31.359  29.311  1.00  0.00     0.167 HD
ATOM     68  C   UNL A   1      35.727  32.345  32.525  1.00  0.00     0.074 A 
ATOM     69  C   UNL A   1      34.848  33.957  33.123  1.00  0.00     0.031 C 
ATOM     70  C   UNL A   1      35.705  31.861  31.244  1.00  0.00     0.031 A 
BRANCH  57  71
ATOM     71  C   UNL A   1      40.085  28.896  28.483  1.00  0.00    -0.014 A 
ATOM     72  C   UNL A   1      40.851  27.765  28.818  1.00  0.00     0.009 A 
ATOM     73  C   UNL A   1      40.010  29.189  27.103  1.00  0.00     0.009 A 
ATOM     74  C   UNL A   1      41.598  27.056  27.876  1.00  0.00     0.001 A 
ATOM     75  C   UNL A   1      40.745  28.465  26.145  1.00  0.00     0.001 A 
ATOM     76  C   UNL A   1      41.565  27.420  26.540  1.00  0.00     0.000 A 
ENDBRANCH  57  71
BRANCH  58  77
ATOM     77  C   UNL A   1      38.640  34.464  36.823  1.00  0.00    -0.014 A 
ATOM     78  C   UNL A   1      39.089  34.527  38.169  1.00  0.00     0.009 A 
ATOM     79  C   UNL A   1      39.294  35.343  35.953  1.00  0.00     0.009 A 
ATOM     80  C   UNL A   1      40.197  35.318  38.563  1.00  0.00     0.001 A 
ATOM     81  C   UNL A   1      40.269  36.268  36.387  1.00  0.00     0.001 A 
ATOM     82  C   UNL A   1      40.800  36.182  37.663  1.00  0.00     0.000 A 
ENDBRANCH  58  77
BRANCH  70  83
ATOM     83  C   UNL A   1      34.980  32.578  30.118  1.00  0.00    -0.014 A 
ATOM     84  C   UNL A   1      34.568  33.920  30.151  1.00  0.00     0.009 A 
ATOM     85  C   UNL A   1      34.697  31.904  28.920  1.00  0.00     0.009 A 
ATOM     86  C   UNL A   1      33.664  34.457  29.229  1.00  0.00     0.001 A 
ATOM     87  C   UNL A   1      33.894  32.475  27.922  1.00  0.00     0.001 A 
ATOM     88  C   UNL A   1      33.305  33.717  28.119  1.00  0.00     0.000 A 
ENDBRANCH  70  83
ENDBRANCH  44  45
ENDBRANCH  37  39
ENDBRANCH  36  37
ENDBRANCH  35  36
ENDBRANCH  34  35
ENDBRANCH  33  34
ENDBRANCH  32  33
ENDBRANCH   1  32
TORSDOF 21
ENDMDL
