MODEL 1
REMARK VINA RESULT:      -9.6      0.000      0.000
REMARK SMILES Cc1cc(=O)cc(C)n1-c1ccc(Cl)cc1C(=O)OCCOCCOCCOC(=O)c1ccc(-c2c3nc(c(-c4ccccc4)c4ccc([nH]4)c(-c4ccccc4)c4nc(c(-c5ccccc5)c5ccc2[nH]5)C=C4)C=C3)cc1
REMARK SMILES IDX 24 1 23 2 22 3 21 4 20 5 19 6 17 7 18 8 16 9 10 10 11 11
REMARK SMILES IDX 12 12 15 13 13 14 14 15 9 16 1 17 2 18 3 19 4 20 7 21 5 22
REMARK SMILES IDX 6 23 8 24 25 25 26 26 27 27 28 28 29 29 30 30 31 31 32 32
REMARK SMILES IDX 78 33 33 34 77 35 34 36 35 37 36 38 71 39 37 40 76 41 70 42
REMARK SMILES IDX 72 43 38 44 75 45 69 46 68 47 39 49 61 50 46 51 60 52 47 53
REMARK SMILES IDX 50 54 59 55 73 56 48 57 49 58 58 60 74 61 51 62 40 63 41 64
REMARK SMILES IDX 45 65 42 66 44 67 43 68 62 69 63 70 67 71 64 72 66 73 65 74
REMARK SMILES IDX 52 75 53 76 57 77 54 78 56 79 55 80
REMARK H PARENT 72 48 50 59
REMARK Flexibility Score: inf
ROOT
ATOM      1  C   UNL A   1      34.411  20.703  25.646  1.00  0.00     0.188 C 
ENDROOT
BRANCH   1   2
ATOM      2  C   UNL A   1      32.976  20.601  25.084  1.00  0.00     0.188 C 
BRANCH   2   3
ATOM      3  O   UNL A   1      32.086  21.682  25.252  1.00  0.00    -0.376 OA
BRANCH   3   4
ATOM      4  C   UNL A   1      32.118  22.468  26.432  1.00  0.00     0.202 C 
BRANCH   4   5
ATOM      5  C   UNL A   1      31.186  23.658  26.696  1.00  0.00     0.261 C 
BRANCH   5   6
ATOM      6  O   UNL A   1      31.828  24.887  27.046  1.00  0.00    -0.460 OA
BRANCH   6   7
ATOM      7  C   UNL A   1      31.303  26.000  26.485  1.00  0.00     0.340 C 
ATOM      8  O   UNL A   1      30.115  26.275  26.410  1.00  0.00    -0.246 OA
BRANCH   7   9
ATOM      9  C   UNL A   1      32.343  26.973  26.073  1.00  0.00     0.085 A 
ATOM     10  C   UNL A   1      33.078  26.933  24.867  1.00  0.00     0.060 A 
ATOM     11  C   UNL A   1      33.929  28.031  24.599  1.00  0.00     0.029 A 
ATOM     12  C   UNL A   1      34.147  29.046  25.536  1.00  0.00     0.023 A 
ATOM     13  C   UNL A   1      32.564  28.002  27.014  1.00  0.00     0.038 A 
ATOM     14  C   UNL A   1      33.485  29.008  26.755  1.00  0.00     0.042 A 
ATOM     15  Cl  UNL A   1      33.811  30.199  27.950  1.00  0.00    -0.084 Cl
BRANCH  10  16
ATOM     16  N   UNL A   1      33.064  25.831  23.939  1.00  0.00    -0.317 N 
ATOM     17  C   UNL A   1      34.881  24.567  25.240  1.00  0.00     0.065 C 
ATOM     18  C   UNL A   1      33.986  24.757  24.036  1.00  0.00     0.024 A 
ATOM     19  C   UNL A   1      34.104  23.821  23.075  1.00  0.00     0.073 A 
ATOM     20  C   UNL A   1      33.238  23.867  21.887  1.00  0.00     0.182 A 
ATOM     21  C   UNL A   1      32.170  25.851  22.821  1.00  0.00     0.024 A 
ATOM     22  O   UNL A   1      33.340  23.041  20.989  1.00  0.00    -0.290 OA
ATOM     23  C   UNL A   1      32.229  24.932  21.838  1.00  0.00     0.073 A 
ATOM     24  C   UNL A   1      31.124  26.933  22.635  1.00  0.00     0.065 C 
ENDBRANCH  10  16
ENDBRANCH   7   9
ENDBRANCH   6   7
ENDBRANCH   5   6
ENDBRANCH   4   5
ENDBRANCH   3   4
ENDBRANCH   2   3
ENDBRANCH   1   2
BRANCH   1  25
ATOM     25  O   UNL A   1      35.529  20.357  24.862  1.00  0.00    -0.376 OA
BRANCH  25  26
ATOM     26  C   UNL A   1      36.500  21.338  24.544  1.00  0.00     0.202 C 
BRANCH  26  27
ATOM     27  C   UNL A   1      37.896  21.395  25.194  1.00  0.00     0.261 C 
BRANCH  27  28
ATOM     28  O   UNL A   1      38.158  22.496  26.072  1.00  0.00    -0.460 OA
BRANCH  28  29
ATOM     29  C   UNL A   1      39.470  22.733  26.332  1.00  0.00     0.338 C 
ATOM     30  O   UNL A   1      40.423  22.046  26.019  1.00  0.00    -0.246 OA
BRANCH  29  31
ATOM     31  C   UNL A   1      39.612  24.093  26.889  1.00  0.00     0.060 A 
ATOM     32  C   UNL A   1      40.292  25.061  26.133  1.00  0.00     0.016 A 
ATOM     33  C   UNL A   1      39.112  24.404  28.154  1.00  0.00     0.016 A 
ATOM     34  C   UNL A   1      40.486  26.342  26.646  1.00  0.00     0.010 A 
ATOM     35  C   UNL A   1      39.343  25.677  28.683  1.00  0.00     0.010 A 
ATOM     36  C   UNL A   1      40.055  26.641  27.944  1.00  0.00    -0.014 A 
BRANCH  36  37
ATOM     37  C   UNL A   1      40.534  27.876  28.606  1.00  0.00     0.031 A 
ATOM     38  C   UNL A   1      39.561  29.010  28.780  1.00  0.00     0.074 A 
ATOM     39  C   UNL A   1      41.792  27.987  29.066  1.00  0.00     0.049 A 
ATOM     40  N   UNL A   1      39.763  30.208  29.265  1.00  0.00    -0.248 NA
ATOM     41  C   UNL A   1      38.174  28.756  28.354  1.00  0.00     0.031 C 
ATOM     42  C   UNL A   1      42.808  26.938  29.026  1.00  0.00     0.029 A 
ATOM     43  N   UNL A   1      42.427  29.051  29.660  1.00  0.00    -0.354 N 
ATOM     44  C   UNL A   1      38.533  30.851  29.195  1.00  0.00     0.074 A 
ATOM     45  C   UNL A   1      37.598  29.923  28.601  1.00  0.00     0.031 C 
ATOM     46  C   UNL A   1      43.946  27.415  29.563  1.00  0.00     0.029 A 
ATOM     47  C   UNL A   1      43.749  28.812  29.949  1.00  0.00     0.049 A 
ATOM     48  H   UNL A   1      41.978  29.904  29.859  1.00  0.00     0.167 HD
ATOM     49  C   UNL A   1      38.211  32.102  29.596  1.00  0.00     0.031 A 
ATOM     50  C   UNL A   1      44.695  29.635  30.442  1.00  0.00     0.031 A 
ATOM     51  C   UNL A   1      39.144  33.031  30.174  1.00  0.00     0.049 A 
ATOM     52  C   UNL A   1      44.334  31.059  30.782  1.00  0.00     0.074 A 
ATOM     53  C   UNL A   1      38.908  34.324  30.609  1.00  0.00     0.029 A 
ATOM     54  N   UNL A   1      40.484  32.769  30.396  1.00  0.00    -0.354 N 
ATOM     55  N   UNL A   1      43.169  31.657  30.715  1.00  0.00    -0.248 NA
ATOM     56  C   UNL A   1      45.422  31.922  31.273  1.00  0.00     0.031 C 
ATOM     57  C   UNL A   1      40.123  34.866  31.036  1.00  0.00     0.029 A 
ATOM     58  C   UNL A   1      41.098  33.887  30.936  1.00  0.00     0.049 A 
ATOM     59  H   UNL A   1      40.935  31.916  30.200  1.00  0.00     0.167 HD
ATOM     60  C   UNL A   1      43.377  32.951  31.180  1.00  0.00     0.074 A 
ATOM     61  C   UNL A   1      44.775  33.047  31.544  1.00  0.00     0.031 C 
ATOM     62  C   UNL A   1      42.489  33.969  31.296  1.00  0.00     0.031 A 
BRANCH  49  63
ATOM     63  C   UNL A   1      36.793  32.557  29.403  1.00  0.00    -0.014 A 
ATOM     64  C   UNL A   1      35.851  32.463  30.439  1.00  0.00     0.009 A 
ATOM     65  C   UNL A   1      36.416  33.161  28.192  1.00  0.00     0.009 A 
ATOM     66  C   UNL A   1      34.557  32.957  30.263  1.00  0.00     0.001 A 
ATOM     67  C   UNL A   1      35.130  33.679  28.030  1.00  0.00     0.001 A 
ATOM     68  C   UNL A   1      34.201  33.573  29.063  1.00  0.00     0.000 A 
ENDBRANCH  49  63
BRANCH  50  69
ATOM     69  C   UNL A   1      46.088  29.147  30.628  1.00  0.00    -0.014 A 
ATOM     70  C   UNL A   1      46.506  28.626  31.862  1.00  0.00     0.009 A 
ATOM     71  C   UNL A   1      47.018  29.221  29.578  1.00  0.00     0.009 A 
ATOM     72  C   UNL A   1      47.828  28.212  32.047  1.00  0.00     0.001 A 
ATOM     73  C   UNL A   1      48.329  28.777  29.755  1.00  0.00     0.001 A 
ATOM     74  C   UNL A   1      48.736  28.282  30.992  1.00  0.00     0.000 A 
ENDBRANCH  50  69
BRANCH  62  75
ATOM     75  C   UNL A   1      42.982  35.270  31.870  1.00  0.00    -0.014 A 
ATOM     76  C   UNL A   1      43.601  36.236  31.062  1.00  0.00     0.009 A 
ATOM     77  C   UNL A   1      42.757  35.561  33.225  1.00  0.00     0.009 A 
ATOM     78  C   UNL A   1      44.009  37.455  31.608  1.00  0.00     0.001 A 
ATOM     79  C   UNL A   1      43.135  36.793  33.760  1.00  0.00     0.001 A 
ATOM     80  C   UNL A   1      43.769  37.736  32.952  1.00  0.00     0.000 A 
ENDBRANCH  62  75
ENDBRANCH  36  37
ENDBRANCH  29  31
ENDBRANCH  28  29
ENDBRANCH  27  28
ENDBRANCH  26  27
ENDBRANCH  25  26
ENDBRANCH   1  25
TORSDOF 18
ENDMDL
MODEL 2
REMARK VINA RESULT:      -9.6      3.194      7.285
REMARK SMILES Cc1cc(=O)cc(C)n1-c1ccc(Cl)cc1C(=O)OCCOCCOCCOC(=O)c1ccc(-c2c3nc(c(-c4ccccc4)c4ccc([nH]4)c(-c4ccccc4)c4nc(c(-c5ccccc5)c5ccc2[nH]5)C=C4)C=C3)cc1
REMARK SMILES IDX 24 1 23 2 22 3 21 4 20 5 19 6 17 7 18 8 16 9 10 10 11 11
REMARK SMILES IDX 12 12 15 13 13 14 14 15 9 16 1 17 2 18 3 19 4 20 7 21 5 22
REMARK SMILES IDX 6 23 8 24 25 25 26 26 27 27 28 28 29 29 30 30 31 31 32 32
REMARK SMILES IDX 78 33 33 34 77 35 34 36 35 37 36 38 71 39 37 40 76 41 70 42
REMARK SMILES IDX 72 43 38 44 75 45 69 46 68 47 39 49 61 50 46 51 60 52 47 53
REMARK SMILES IDX 50 54 59 55 73 56 48 57 49 58 58 60 74 61 51 62 40 63 41 64
REMARK SMILES IDX 45 65 42 66 44 67 43 68 62 69 63 70 67 71 64 72 66 73 65 74
REMARK SMILES IDX 52 75 53 76 57 77 54 78 56 79 55 80
REMARK H PARENT 72 48 50 59
REMARK Flexibility Score: inf
ROOT
ATOM      1  C   UNL A   1      41.875  20.019  25.961  1.00  0.00     0.188 C 
ENDROOT
BRANCH   1   2
ATOM      2  C   UNL A   1      41.176  21.174  26.712  1.00  0.00     0.188 C 
BRANCH   2   3
ATOM      3  O   UNL A   1      39.785  21.112  26.939  1.00  0.00    -0.376 OA
BRANCH   3   4
ATOM      4  C   UNL A   1      38.868  21.459  25.914  1.00  0.00     0.202 C 
BRANCH   4   5
ATOM      5  C   UNL A   1      38.139  22.807  25.835  1.00  0.00     0.261 C 
BRANCH   5   6
ATOM      6  O   UNL A   1      36.711  22.747  25.885  1.00  0.00    -0.460 OA
BRANCH   6   7
ATOM      7  C   UNL A   1      36.068  23.280  24.822  1.00  0.00     0.340 C 
ATOM      8  O   UNL A   1      36.399  23.169  23.651  1.00  0.00    -0.246 OA
BRANCH   7   9
ATOM      9  C   UNL A   1      34.787  23.925  25.198  1.00  0.00     0.085 A 
ATOM     10  C   UNL A   1      33.538  23.271  25.314  1.00  0.00     0.060 A 
ATOM     11  C   UNL A   1      32.460  24.036  25.817  1.00  0.00     0.029 A 
ATOM     12  C   UNL A   1      32.574  25.409  26.061  1.00  0.00     0.023 A 
ATOM     13  C   UNL A   1      34.897  25.309  25.449  1.00  0.00     0.038 A 
ATOM     14  C   UNL A   1      33.788  26.045  25.845  1.00  0.00     0.042 A 
ATOM     15  Cl  UNL A   1      33.919  27.745  26.055  1.00  0.00    -0.084 Cl
BRANCH  10  16
ATOM     16  N   UNL A   1      33.285  21.916  24.897  1.00  0.00    -0.317 N 
ATOM     17  C   UNL A   1      32.841  22.627  22.471  1.00  0.00     0.065 C 
ATOM     18  C   UNL A   1      32.845  21.604  23.584  1.00  0.00     0.024 A 
ATOM     19  C   UNL A   1      32.430  20.371  23.239  1.00  0.00     0.073 A 
ATOM     20  C   UNL A   1      32.454  19.279  24.224  1.00  0.00     0.182 A 
ATOM     21  C   UNL A   1      33.376  20.849  25.847  1.00  0.00     0.024 A 
ATOM     22  O   UNL A   1      32.062  18.154  23.942  1.00  0.00    -0.290 OA
ATOM     23  C   UNL A   1      32.992  19.592  25.553  1.00  0.00     0.073 A 
ATOM     24  C   UNL A   1      33.864  21.063  27.267  1.00  0.00     0.065 C 
ENDBRANCH  10  16
ENDBRANCH   7   9
ENDBRANCH   6   7
ENDBRANCH   5   6
ENDBRANCH   4   5
ENDBRANCH   3   4
ENDBRANCH   2   3
ENDBRANCH   1   2
BRANCH   1  25
ATOM     25  O   UNL A   1      42.916  20.268  25.045  1.00  0.00    -0.376 OA
BRANCH  25  26
ATOM     26  C   UNL A   1      44.255  20.342  25.500  1.00  0.00     0.202 C 
BRANCH  26  27
ATOM     27  C   UNL A   1      45.034  21.664  25.640  1.00  0.00     0.261 C 
BRANCH  27  28
ATOM     28  O   UNL A   1      44.368  22.742  26.308  1.00  0.00    -0.460 OA
BRANCH  28  29
ATOM     29  C   UNL A   1      43.790  23.663  25.493  1.00  0.00     0.338 C 
ATOM     30  O   UNL A   1      43.672  23.611  24.284  1.00  0.00    -0.246 OA
BRANCH  29  31
ATOM     31  C   UNL A   1      43.115  24.682  26.321  1.00  0.00     0.060 A 
ATOM     32  C   UNL A   1      43.639  25.984  26.344  1.00  0.00     0.016 A 
ATOM     33  C   UNL A   1      41.999  24.353  27.091  1.00  0.00     0.016 A 
ATOM     34  C   UNL A   1      43.057  26.960  27.150  1.00  0.00     0.010 A 
ATOM     35  C   UNL A   1      41.441  25.324  27.929  1.00  0.00     0.010 A 
ATOM     36  C   UNL A   1      41.985  26.621  27.984  1.00  0.00    -0.014 A 
BRANCH  36  37
ATOM     37  C   UNL A   1      41.574  27.550  29.061  1.00  0.00     0.031 A 
ATOM     38  C   UNL A   1      42.356  27.536  30.346  1.00  0.00     0.074 A 
ATOM     39  C   UNL A   1      40.550  28.406  28.902  1.00  0.00     0.049 A 
ATOM     40  N   UNL A   1      42.147  28.204  31.451  1.00  0.00    -0.248 NA
ATOM     41  C   UNL A   1      43.534  26.652  30.388  1.00  0.00     0.031 C 
ATOM     42  C   UNL A   1      39.761  28.571  27.683  1.00  0.00     0.029 A 
ATOM     43  N   UNL A   1      39.998  29.301  29.786  1.00  0.00    -0.354 N 
ATOM     44  C   UNL A   1      43.160  27.817  32.319  1.00  0.00     0.074 A 
ATOM     45  C   UNL A   1      43.968  26.840  31.626  1.00  0.00     0.031 C 
ATOM     46  C   UNL A   1      38.817  29.504  27.900  1.00  0.00     0.029 A 
ATOM     47  C   UNL A   1      38.912  29.974  29.282  1.00  0.00     0.049 A 
ATOM     48  H   UNL A   1      40.348  29.447  30.694  1.00  0.00     0.167 HD
ATOM     49  C   UNL A   1      43.400  28.243  33.581  1.00  0.00     0.031 A 
ATOM     50  C   UNL A   1      38.075  30.848  29.878  1.00  0.00     0.031 A 
ATOM     51  C   UNL A   1      42.588  29.204  34.277  1.00  0.00     0.049 A 
ATOM     52  C   UNL A   1      38.302  31.225  31.319  1.00  0.00     0.074 A 
ATOM     53  C   UNL A   1      42.752  29.694  35.561  1.00  0.00     0.029 A 
ATOM     54  N   UNL A   1      41.464  29.817  33.751  1.00  0.00    -0.354 N 
ATOM     55  N   UNL A   1      39.263  30.855  32.131  1.00  0.00    -0.248 NA
ATOM     56  C   UNL A   1      37.328  32.146  31.927  1.00  0.00     0.031 C 
ATOM     57  C   UNL A   1      41.688  30.558  35.834  1.00  0.00     0.029 A 
ATOM     58  C   UNL A   1      40.905  30.661  34.696  1.00  0.00     0.049 A 
ATOM     59  H   UNL A   1      41.115  29.675  32.842  1.00  0.00     0.167 HD
ATOM     60  C   UNL A   1      39.027  31.519  33.330  1.00  0.00     0.074 A 
ATOM     61  C   UNL A   1      37.842  32.328  33.135  1.00  0.00     0.031 C 
ATOM     62  C   UNL A   1      39.728  31.464  34.488  1.00  0.00     0.031 A 
BRANCH  49  63
ATOM     63  C   UNL A   1      44.574  27.654  34.309  1.00  0.00    -0.014 A 
ATOM     64  C   UNL A   1      44.467  26.433  34.993  1.00  0.00     0.009 A 
ATOM     65  C   UNL A   1      45.823  28.292  34.243  1.00  0.00     0.009 A 
ATOM     66  C   UNL A   1      45.589  25.868  35.603  1.00  0.00     0.001 A 
ATOM     67  C   UNL A   1      46.947  27.710  34.830  1.00  0.00     0.001 A 
ATOM     68  C   UNL A   1      46.828  26.500  35.513  1.00  0.00     0.000 A 
ENDBRANCH  49  63
BRANCH  50  69
ATOM     69  C   UNL A   1      36.926  31.416  29.122  1.00  0.00    -0.014 A 
ATOM     70  C   UNL A   1      36.945  32.751  28.687  1.00  0.00     0.009 A 
ATOM     71  C   UNL A   1      35.792  30.635  28.852  1.00  0.00     0.009 A 
ATOM     72  C   UNL A   1      35.845  33.295  28.020  1.00  0.00     0.001 A 
ATOM     73  C   UNL A   1      34.707  31.171  28.156  1.00  0.00     0.001 A 
ATOM     74  C   UNL A   1      34.730  32.503  27.749  1.00  0.00     0.000 A 
ENDBRANCH  50  69
BRANCH  62  75
ATOM     75  C   UNL A   1      39.264  32.323  35.633  1.00  0.00    -0.014 A 
ATOM     76  C   UNL A   1      39.702  33.649  35.776  1.00  0.00     0.009 A 
ATOM     77  C   UNL A   1      38.317  31.821  36.540  1.00  0.00     0.009 A 
ATOM     78  C   UNL A   1      39.222  34.442  36.820  1.00  0.00     0.001 A 
ATOM     79  C   UNL A   1      37.813  32.627  37.561  1.00  0.00     0.001 A 
ATOM     80  C   UNL A   1      38.272  33.935  37.706  1.00  0.00     0.000 A 
ENDBRANCH  62  75
ENDBRANCH  36  37
ENDBRANCH  29  31
ENDBRANCH  28  29
ENDBRANCH  27  28
ENDBRANCH  26  27
ENDBRANCH  25  26
ENDBRANCH   1  25
TORSDOF 18
ENDMDL
MODEL 3
REMARK VINA RESULT:      -9.5      3.386      8.262
REMARK SMILES Cc1cc(=O)cc(C)n1-c1ccc(Cl)cc1C(=O)OCCOCCOCCOC(=O)c1ccc(-c2c3nc(c(-c4ccccc4)c4ccc([nH]4)c(-c4ccccc4)c4nc(c(-c5ccccc5)c5ccc2[nH]5)C=C4)C=C3)cc1
REMARK SMILES IDX 24 1 23 2 22 3 21 4 20 5 19 6 17 7 18 8 16 9 10 10 11 11
REMARK SMILES IDX 12 12 15 13 13 14 14 15 9 16 1 17 2 18 3 19 4 20 7 21 5 22
REMARK SMILES IDX 6 23 8 24 25 25 26 26 27 27 28 28 29 29 30 30 31 31 32 32
REMARK SMILES IDX 78 33 33 34 77 35 34 36 35 37 36 38 71 39 37 40 76 41 70 42
REMARK SMILES IDX 72 43 38 44 75 45 69 46 68 47 39 49 61 50 46 51 60 52 47 53
REMARK SMILES IDX 50 54 59 55 73 56 48 57 49 58 58 60 74 61 51 62 40 63 41 64
REMARK SMILES IDX 45 65 42 66 44 67 43 68 62 69 63 70 67 71 64 72 66 73 65 74
REMARK SMILES IDX 52 75 53 76 57 77 54 78 56 79 55 80
REMARK H PARENT 72 48 50 59
REMARK Flexibility Score: inf
ROOT
ATOM      1  C   UNL A   1      35.035  32.979  27.793  1.00  0.00     0.188 C 
ENDROOT
BRANCH   1   2
ATOM      2  C   UNL A   1      34.093  31.796  28.111  1.00  0.00     0.188 C 
BRANCH   2   3
ATOM      3  O   UNL A   1      33.411  31.150  27.059  1.00  0.00    -0.376 OA
BRANCH   3   4
ATOM      4  C   UNL A   1      32.340  30.260  27.329  1.00  0.00     0.202 C 
BRANCH   4   5
ATOM      5  C   UNL A   1      31.897  29.138  26.381  1.00  0.00     0.261 C 
BRANCH   5   6
ATOM      6  O   UNL A   1      32.431  27.841  26.659  1.00  0.00    -0.460 OA
BRANCH   6   7
ATOM      7  C   UNL A   1      33.653  27.591  26.137  1.00  0.00     0.340 C 
ATOM      8  O   UNL A   1      34.689  28.175  26.419  1.00  0.00    -0.246 OA
BRANCH   7   9
ATOM      9  C   UNL A   1      33.662  26.398  25.257  1.00  0.00     0.085 A 
ATOM     10  C   UNL A   1      32.919  26.249  24.063  1.00  0.00     0.060 A 
ATOM     11  C   UNL A   1      33.169  25.088  23.295  1.00  0.00     0.029 A 
ATOM     12  C   UNL A   1      34.005  24.063  23.750  1.00  0.00     0.023 A 
ATOM     13  C   UNL A   1      34.506  25.361  25.710  1.00  0.00     0.038 A 
ATOM     14  C   UNL A   1      34.645  24.192  24.973  1.00  0.00     0.042 A 
ATOM     15  Cl  UNL A   1      35.602  22.904  25.586  1.00  0.00    -0.084 Cl
BRANCH  10  16
ATOM     16  N   UNL A   1      31.895  27.160  23.621  1.00  0.00    -0.317 N 
ATOM     17  C   UNL A   1      30.044  25.821  24.792  1.00  0.00     0.065 C 
ATOM     18  C   UNL A   1      30.518  26.914  23.861  1.00  0.00     0.024 A 
ATOM     19  C   UNL A   1      29.546  27.655  23.297  1.00  0.00     0.073 A 
ATOM     20  C   UNL A   1      29.891  28.788  22.424  1.00  0.00     0.182 A 
ATOM     21  C   UNL A   1      32.246  28.298  22.827  1.00  0.00     0.024 A 
ATOM     22  O   UNL A   1      29.026  29.464  21.882  1.00  0.00    -0.290 OA
ATOM     23  C   UNL A   1      31.318  29.087  22.253  1.00  0.00     0.073 A 
ATOM     24  C   UNL A   1      33.686  28.673  22.535  1.00  0.00     0.065 C 
ENDBRANCH  10  16
ENDBRANCH   7   9
ENDBRANCH   6   7
ENDBRANCH   5   6
ENDBRANCH   4   5
ENDBRANCH   3   4
ENDBRANCH   2   3
ENDBRANCH   1   2
BRANCH   1  25
ATOM     25  O   UNL A   1      35.066  34.127  28.609  1.00  0.00    -0.376 OA
BRANCH  25  26
ATOM     26  C   UNL A   1      34.125  34.276  29.657  1.00  0.00     0.202 C 
BRANCH  26  27
ATOM     27  C   UNL A   1      34.455  34.018  31.139  1.00  0.00     0.261 C 
BRANCH  27  28
ATOM     28  O   UNL A   1      34.524  32.650  31.560  1.00  0.00    -0.460 OA
BRANCH  28  29
ATOM     29  C   UNL A   1      35.445  32.384  32.522  1.00  0.00     0.338 C 
ATOM     30  O   UNL A   1      35.351  32.593  33.716  1.00  0.00    -0.246 OA
BRANCH  29  31
ATOM     31  C   UNL A   1      36.540  31.587  31.933  1.00  0.00     0.060 A 
ATOM     32  C   UNL A   1      37.757  31.502  32.627  1.00  0.00     0.016 A 
ATOM     33  C   UNL A   1      36.383  30.959  30.697  1.00  0.00     0.016 A 
ATOM     34  C   UNL A   1      38.828  30.797  32.080  1.00  0.00     0.010 A 
ATOM     35  C   UNL A   1      37.471  30.287  30.132  1.00  0.00     0.010 A 
ATOM     36  C   UNL A   1      38.705  30.228  30.807  1.00  0.00    -0.014 A 
BRANCH  36  37
ATOM     37  C   UNL A   1      39.916  29.765  30.093  1.00  0.00     0.031 A 
ATOM     38  C   UNL A   1      41.042  30.743  29.897  1.00  0.00     0.074 A 
ATOM     39  C   UNL A   1      40.033  28.502  29.648  1.00  0.00     0.049 A 
ATOM     40  N   UNL A   1      42.168  30.593  29.249  1.00  0.00    -0.248 NA
ATOM     41  C   UNL A   1      40.877  32.068  30.521  1.00  0.00     0.031 C 
ATOM     42  C   UNL A   1      39.049  27.439  29.838  1.00  0.00     0.029 A 
ATOM     43  N   UNL A   1      41.045  27.903  28.936  1.00  0.00    -0.354 N 
ATOM     44  C   UNL A   1      42.840  31.802  29.381  1.00  0.00     0.074 A 
ATOM     45  C   UNL A   1      41.989  32.684  30.148  1.00  0.00     0.031 C 
ATOM     46  C   UNL A   1      39.500  26.319  29.246  1.00  0.00     0.029 A 
ATOM     47  C   UNL A   1      40.785  26.596  28.605  1.00  0.00     0.049 A 
ATOM     48  H   UNL A   1      41.876  28.367  28.688  1.00  0.00     0.167 HD
ATOM     49  C   UNL A   1      44.060  32.146  28.909  1.00  0.00     0.031 A 
ATOM     50  C   UNL A   1      41.492  25.733  27.849  1.00  0.00     0.031 A 
ATOM     51  C   UNL A   1      44.901  31.275  28.134  1.00  0.00     0.049 A 
ATOM     52  C   UNL A   1      42.801  26.176  27.246  1.00  0.00     0.074 A 
ATOM     53  C   UNL A   1      46.155  31.538  27.609  1.00  0.00     0.029 A 
ATOM     54  N   UNL A   1      44.577  29.979  27.772  1.00  0.00    -0.354 N 
ATOM     55  N   UNL A   1      43.429  27.320  27.377  1.00  0.00    -0.248 NA
ATOM     56  C   UNL A   1      43.503  25.204  26.392  1.00  0.00     0.031 C 
ATOM     57  C   UNL A   1      46.561  30.420  26.875  1.00  0.00     0.029 A 
ATOM     58  C   UNL A   1      45.594  29.437  27.004  1.00  0.00     0.049 A 
ATOM     59  H   UNL A   1      43.747  29.512  28.022  1.00  0.00     0.167 HD
ATOM     60  C   UNL A   1      44.607  27.194  26.650  1.00  0.00     0.074 A 
ATOM     61  C   UNL A   1      44.617  25.858  26.094  1.00  0.00     0.031 C 
ATOM     62  C   UNL A   1      45.593  28.104  26.460  1.00  0.00     0.031 A 
BRANCH  49  63
ATOM     63  C   UNL A   1      44.557  33.534  29.193  1.00  0.00    -0.014 A 
ATOM     64  C   UNL A   1      44.237  34.607  28.347  1.00  0.00     0.009 A 
ATOM     65  C   UNL A   1      45.288  33.784  30.366  1.00  0.00     0.009 A 
ATOM     66  C   UNL A   1      44.649  35.903  28.667  1.00  0.00     0.001 A 
ATOM     67  C   UNL A   1      45.673  35.085  30.696  1.00  0.00     0.001 A 
ATOM     68  C   UNL A   1      45.356  36.142  29.844  1.00  0.00     0.000 A 
ENDBRANCH  49  63
BRANCH  50  69
ATOM     69  C   UNL A   1      40.973  24.362  27.595  1.00  0.00    -0.014 A 
ATOM     70  C   UNL A   1      41.559  23.247  28.215  1.00  0.00     0.009 A 
ATOM     71  C   UNL A   1      39.901  24.156  26.711  1.00  0.00     0.009 A 
ATOM     72  C   UNL A   1      41.099  21.957  27.937  1.00  0.00     0.001 A 
ATOM     73  C   UNL A   1      39.421  22.869  26.461  1.00  0.00     0.001 A 
ATOM     74  C   UNL A   1      40.027  21.770  27.066  1.00  0.00     0.000 A 
ENDBRANCH  50  69
BRANCH  62  75
ATOM     75  C   UNL A   1      46.788  27.687  25.646  1.00  0.00    -0.014 A 
ATOM     76  C   UNL A   1      47.882  27.034  26.237  1.00  0.00     0.009 A 
ATOM     77  C   UNL A   1      46.786  27.884  24.256  1.00  0.00     0.009 A 
ATOM     78  C   UNL A   1      48.959  26.615  25.454  1.00  0.00     0.001 A 
ATOM     79  C   UNL A   1      47.849  27.433  23.472  1.00  0.00     0.001 A 
ATOM     80  C   UNL A   1      48.939  26.806  24.073  1.00  0.00     0.000 A 
ENDBRANCH  62  75
ENDBRANCH  36  37
ENDBRANCH  29  31
ENDBRANCH  28  29
ENDBRANCH  27  28
ENDBRANCH  26  27
ENDBRANCH  25  26
ENDBRANCH   1  25
TORSDOF 18
ENDMDL
