MODEL 1
REMARK VINA RESULT:      -9.9      0.000      0.000
REMARK SMILES O=C(C[C@@H]1CSCC[NH2+]1)NC[C@@H](C(=O)OCCOCCOCCOC(=O)c1ccc(-c2c3nc(c(-c4ccccc4)c4ccc([nH]4)c(-c4ccccc4)c4nc(c(-c5ccccc5)c5ccc2[nH]5)C=C4)C=C3)cc1)c1ccccc1
REMARK SMILES IDX 19 1 18 2 17 3 16 4 15 5 13 6 14 7 12 8 11 9 10 10 1 11 2 12
REMARK SMILES IDX 3 14 4 15 5 16 9 17 6 18 8 19 7 22 75 23 76 24 80 25 77 26
REMARK SMILES IDX 79 27 78 28 20 29 21 30 22 31 23 32 24 33 25 34 26 35 27 36
REMARK SMILES IDX 28 37 74 38 29 39 73 40 30 41 31 42 32 43 67 44 33 45 72 46
REMARK SMILES IDX 66 47 68 48 34 49 71 50 65 51 64 52 35 54 57 55 42 56 56 57
REMARK SMILES IDX 43 58 46 59 55 60 69 61 44 62 45 63 54 65 70 66 47 67 36 68
REMARK SMILES IDX 37 69 41 70 38 71 40 72 39 73 58 74 59 75 63 76 60 77 62 78
REMARK SMILES IDX 61 79 48 80 49 81 53 82 50 83 52 84 51 85
REMARK H PARENT 10 13 9 20 9 21 68 53 46 64
REMARK Flexibility Score: inf
ROOT
ATOM      1  C   UNL A   1      39.807  21.876  26.522  1.00  0.00     0.188 C 
ENDROOT
BRANCH   1   2
ATOM      2  O   UNL A   1      38.464  22.110  26.125  1.00  0.00    -0.376 OA
BRANCH   2   3
ATOM      3  C   UNL A   1      38.072  21.529  24.888  1.00  0.00     0.202 C 
BRANCH   3   4
ATOM      4  C   UNL A   1      36.564  21.370  24.626  1.00  0.00     0.261 C 
BRANCH   4   5
ATOM      5  O   UNL A   1      35.806  20.872  25.750  1.00  0.00    -0.463 OA
BRANCH   5   6
ATOM      6  C   UNL A   1      34.453  21.037  25.682  1.00  0.00     0.315 C 
ATOM      7  O   UNL A   1      33.801  21.656  26.519  1.00  0.00    -0.251 OA
BRANCH   6   8
ATOM      8  C   UNL A   1      33.809  20.444  24.422  1.00  0.00     0.148 C 
BRANCH   8   9
ATOM      9  C   UNL A   1      32.613  21.266  23.903  1.00  0.00     0.136 C 
BRANCH   9  10
ATOM     10  N   UNL A   1      32.876  22.633  23.478  1.00  0.00    -0.355 N 
ATOM     11  O   UNL A   1      30.679  23.295  23.481  1.00  0.00    -0.275 OA
ATOM     12  C   UNL A   1      31.874  23.578  23.416  1.00  0.00     0.226 C 
ATOM     13  H   UNL A   1      33.793  22.889  23.227  1.00  0.00     0.163 HD
BRANCH  12  14
ATOM     14  C   UNL A   1      32.327  25.022  23.292  1.00  0.00     0.165 C 
BRANCH  14  15
ATOM     15  C   UNL A   1      33.187  25.623  24.434  1.00  0.00     0.201 C 
ATOM     16  C   UNL A   1      32.564  25.463  25.829  1.00  0.00     0.135 C 
ATOM     17  N   UNL A   1      33.758  26.967  24.244  1.00  0.00    -0.342 N 
ATOM     18  S   UNL A   1      31.107  26.497  26.046  1.00  0.00    -0.150 SA
ATOM     19  C   UNL A   1      32.804  28.076  24.359  1.00  0.00     0.271 C 
ATOM     20  H   UNL A   1      34.175  27.004  23.314  1.00  0.00     0.346 HD
ATOM     21  H   UNL A   1      34.432  27.096  24.999  1.00  0.00     0.346 HD
ATOM     22  C   UNL A   1      31.862  28.096  25.571  1.00  0.00     0.131 C 
ENDBRANCH  14  15
ENDBRANCH  12  14
ENDBRANCH   9  10
ENDBRANCH   8   9
BRANCH   8  23
ATOM     23  C   UNL A   1      33.501  18.930  24.544  1.00  0.00    -0.032 A 
ATOM     24  C   UNL A   1      33.990  17.984  23.621  1.00  0.00     0.004 A 
ATOM     25  C   UNL A   1      32.782  18.426  25.646  1.00  0.00     0.004 A 
ATOM     26  C   UNL A   1      33.761  16.613  23.782  1.00  0.00     0.000 A 
ATOM     27  C   UNL A   1      32.535  17.055  25.794  1.00  0.00     0.000 A 
ATOM     28  C   UNL A   1      33.029  16.148  24.864  1.00  0.00     0.000 A 
ENDBRANCH   8  23
ENDBRANCH   6   8
ENDBRANCH   5   6
ENDBRANCH   4   5
ENDBRANCH   3   4
ENDBRANCH   2   3
ENDBRANCH   1   2
BRANCH   1  29
ATOM     29  C   UNL A   1      40.373  20.485  26.245  1.00  0.00     0.188 C 
BRANCH  29  30
ATOM     30  O   UNL A   1      41.722  20.363  25.818  1.00  0.00    -0.376 OA
BRANCH  30  31
ATOM     31  C   UNL A   1      42.660  21.342  26.277  1.00  0.00     0.202 C 
BRANCH  31  32
ATOM     32  C   UNL A   1      43.556  22.144  25.314  1.00  0.00     0.261 C 
BRANCH  32  33
ATOM     33  O   UNL A   1      43.050  23.400  24.879  1.00  0.00    -0.460 OA
BRANCH  33  34
ATOM     34  C   UNL A   1      43.838  24.470  25.126  1.00  0.00     0.338 C 
ATOM     35  O   UNL A   1      44.888  24.756  24.571  1.00  0.00    -0.246 OA
BRANCH  34  36
ATOM     36  C   UNL A   1      43.086  25.364  26.040  1.00  0.00     0.060 A 
ATOM     37  C   UNL A   1      43.513  26.693  26.164  1.00  0.00     0.016 A 
ATOM     38  C   UNL A   1      41.918  24.937  26.685  1.00  0.00     0.016 A 
ATOM     39  C   UNL A   1      42.809  27.577  26.979  1.00  0.00     0.010 A 
ATOM     40  C   UNL A   1      41.214  25.821  27.501  1.00  0.00     0.010 A 
ATOM     41  C   UNL A   1      41.690  27.128  27.690  1.00  0.00    -0.014 A 
BRANCH  41  42
ATOM     42  C   UNL A   1      41.208  27.921  28.843  1.00  0.00     0.031 A 
ATOM     43  C   UNL A   1      41.978  27.798  30.130  1.00  0.00     0.074 A 
ATOM     44  C   UNL A   1      40.163  28.760  28.749  1.00  0.00     0.049 A 
ATOM     45  N   UNL A   1      41.771  28.378  31.284  1.00  0.00    -0.248 NA
ATOM     46  C   UNL A   1      43.138  26.890  30.113  1.00  0.00     0.031 C 
ATOM     47  C   UNL A   1      39.374  29.007  27.545  1.00  0.00     0.029 A 
ATOM     48  N   UNL A   1      39.596  29.571  29.700  1.00  0.00    -0.354 N 
ATOM     49  C   UNL A   1      42.761  27.890  32.127  1.00  0.00     0.074 A 
ATOM     50  C   UNL A   1      43.546  26.945  31.369  1.00  0.00     0.031 C 
ATOM     51  C   UNL A   1      38.428  29.923  27.827  1.00  0.00     0.029 A 
ATOM     52  C   UNL A   1      38.526  30.295  29.238  1.00  0.00     0.049 A 
ATOM     53  H   UNL A   1      39.926  29.627  30.625  1.00  0.00     0.167 HD
ATOM     54  C   UNL A   1      43.003  28.204  33.420  1.00  0.00     0.031 A 
ATOM     55  C   UNL A   1      37.714  31.151  29.890  1.00  0.00     0.031 A 
ATOM     56  C   UNL A   1      42.216  29.136  34.179  1.00  0.00     0.049 A 
ATOM     57  C   UNL A   1      37.956  31.424  31.355  1.00  0.00     0.074 A 
ATOM     58  C   UNL A   1      42.381  29.532  35.493  1.00  0.00     0.029 A 
ATOM     59  N   UNL A   1      41.108  29.810  33.690  1.00  0.00    -0.354 N 
ATOM     60  N   UNL A   1      38.907  30.975  32.140  1.00  0.00    -0.248 NA
ATOM     61  C   UNL A   1      37.011  32.335  32.019  1.00  0.00     0.031 C 
ATOM     62  C   UNL A   1      41.331  30.395  35.820  1.00  0.00     0.029 A 
ATOM     63  C   UNL A   1      40.560  30.598  34.686  1.00  0.00     0.049 A 
ATOM     64  H   UNL A   1      40.762  29.738  32.771  1.00  0.00     0.167 HD
ATOM     65  C   UNL A   1      38.700  31.582  33.375  1.00  0.00     0.074 A 
ATOM     66  C   UNL A   1      37.541  32.436  33.230  1.00  0.00     0.031 C 
ATOM     67  C   UNL A   1      39.410  31.450  34.523  1.00  0.00     0.031 A 
BRANCH  54  68
ATOM     68  C   UNL A   1      44.132  27.483  34.101  1.00  0.00    -0.014 A 
ATOM     69  C   UNL A   1      43.935  26.259  34.763  1.00  0.00     0.009 A 
ATOM     70  C   UNL A   1      45.417  28.044  34.082  1.00  0.00     0.009 A 
ATOM     71  C   UNL A   1      44.995  25.637  35.427  1.00  0.00     0.001 A 
ATOM     72  C   UNL A   1      46.482  27.403  34.715  1.00  0.00     0.001 A 
ATOM     73  C   UNL A   1      46.267  26.206  35.398  1.00  0.00     0.000 A 
ENDBRANCH  54  68
BRANCH  55  74
ATOM     74  C   UNL A   1      36.589  31.815  29.179  1.00  0.00    -0.014 A 
ATOM     75  C   UNL A   1      36.705  33.143  28.738  1.00  0.00     0.009 A 
ATOM     76  C   UNL A   1      35.375  31.141  28.975  1.00  0.00     0.009 A 
ATOM     77  C   UNL A   1      35.621  33.791  28.140  1.00  0.00     0.001 A 
ATOM     78  C   UNL A   1      34.304  31.779  28.345  1.00  0.00     0.001 A 
ATOM     79  C   UNL A   1      34.424  33.107  27.941  1.00  0.00     0.000 A 
ENDBRANCH  55  74
BRANCH  67  80
ATOM     80  C   UNL A   1      38.999  32.300  35.695  1.00  0.00    -0.014 A 
ATOM     81  C   UNL A   1      38.133  31.823  36.690  1.00  0.00     0.009 A 
ATOM     82  C   UNL A   1      39.528  33.595  35.823  1.00  0.00     0.009 A 
ATOM     83  C   UNL A   1      37.770  32.642  37.762  1.00  0.00     0.001 A 
ATOM     84  C   UNL A   1      39.193  34.398  36.913  1.00  0.00     0.001 A 
ATOM     85  C   UNL A   1      38.303  33.925  37.876  1.00  0.00     0.000 A 
ENDBRANCH  67  80
ENDBRANCH  41  42
ENDBRANCH  34  36
ENDBRANCH  33  34
ENDBRANCH  32  33
ENDBRANCH  31  32
ENDBRANCH  30  31
ENDBRANCH  29  30
ENDBRANCH   1  29
TORSDOF 22
ENDMDL
MODEL 2
REMARK VINA RESULT:      -9.8      1.817      4.198
REMARK SMILES O=C(C[C@@H]1CSCC[NH2+]1)NC[C@@H](C(=O)OCCOCCOCCOC(=O)c1ccc(-c2c3nc(c(-c4ccccc4)c4ccc([nH]4)c(-c4ccccc4)c4nc(c(-c5ccccc5)c5ccc2[nH]5)C=C4)C=C3)cc1)c1ccccc1
REMARK SMILES IDX 19 1 18 2 17 3 16 4 15 5 13 6 14 7 12 8 11 9 10 10 1 11 2 12
REMARK SMILES IDX 3 14 4 15 5 16 9 17 6 18 8 19 7 22 75 23 76 24 80 25 77 26
REMARK SMILES IDX 79 27 78 28 20 29 21 30 22 31 23 32 24 33 25 34 26 35 27 36
REMARK SMILES IDX 28 37 74 38 29 39 73 40 30 41 31 42 32 43 67 44 33 45 72 46
REMARK SMILES IDX 66 47 68 48 34 49 71 50 65 51 64 52 35 54 57 55 42 56 56 57
REMARK SMILES IDX 43 58 46 59 55 60 69 61 44 62 45 63 54 65 70 66 47 67 36 68
REMARK SMILES IDX 37 69 41 70 38 71 40 72 39 73 58 74 59 75 63 76 60 77 62 78
REMARK SMILES IDX 61 79 48 80 49 81 53 82 50 83 52 84 51 85
REMARK H PARENT 10 13 9 20 9 21 68 53 46 64
REMARK Flexibility Score: inf
ROOT
ATOM      1  C   UNL A   1      39.722  21.124  25.995  1.00  0.00     0.188 C 
ENDROOT
BRANCH   1   2
ATOM      2  O   UNL A   1      38.565  20.669  25.310  1.00  0.00    -0.376 OA
BRANCH   2   3
ATOM      3  C   UNL A   1      37.413  21.496  25.418  1.00  0.00     0.202 C 
BRANCH   3   4
ATOM      4  C   UNL A   1      37.421  22.825  24.643  1.00  0.00     0.261 C 
BRANCH   4   5
ATOM      5  O   UNL A   1      36.507  23.823  25.148  1.00  0.00    -0.463 OA
BRANCH   5   6
ATOM      6  C   UNL A   1      35.371  24.022  24.418  1.00  0.00     0.315 C 
ATOM      7  O   UNL A   1      35.262  23.711  23.234  1.00  0.00    -0.251 OA
BRANCH   6   8
ATOM      8  C   UNL A   1      34.200  24.603  25.219  1.00  0.00     0.148 C 
BRANCH   8   9
ATOM      9  C   UNL A   1      32.934  23.724  25.175  1.00  0.00     0.136 C 
BRANCH   9  10
ATOM     10  N   UNL A   1      33.094  22.307  25.468  1.00  0.00    -0.355 N 
ATOM     11  O   UNL A   1      32.432  21.574  23.397  1.00  0.00    -0.275 OA
ATOM     12  C   UNL A   1      32.936  21.343  24.495  1.00  0.00     0.226 C 
ATOM     13  H   UNL A   1      33.319  22.029  26.386  1.00  0.00     0.163 HD
BRANCH  12  14
ATOM     14  C   UNL A   1      33.456  19.959  24.838  1.00  0.00     0.165 C 
BRANCH  14  15
ATOM     15  C   UNL A   1      32.486  18.755  24.703  1.00  0.00     0.201 C 
ATOM     16  C   UNL A   1      32.814  17.587  25.645  1.00  0.00     0.135 C 
ATOM     17  N   UNL A   1      32.142  18.285  23.351  1.00  0.00    -0.342 N 
ATOM     18  S   UNL A   1      34.329  16.737  25.173  1.00  0.00    -0.150 SA
ATOM     19  C   UNL A   1      33.195  17.532  22.662  1.00  0.00     0.271 C 
ATOM     20  H   UNL A   1      31.913  19.100  22.783  1.00  0.00     0.346 HD
ATOM     21  H   UNL A   1      31.363  17.636  23.469  1.00  0.00     0.346 HD
ATOM     22  C   UNL A   1      33.892  16.397  23.427  1.00  0.00     0.131 C 
ENDBRANCH  14  15
ENDBRANCH  12  14
ENDBRANCH   9  10
ENDBRANCH   8   9
BRANCH   8  23
ATOM     23  C   UNL A   1      33.918  26.093  24.903  1.00  0.00    -0.032 A 
ATOM     24  C   UNL A   1      33.616  26.543  23.601  1.00  0.00     0.004 A 
ATOM     25  C   UNL A   1      33.868  27.053  25.932  1.00  0.00     0.004 A 
ATOM     26  C   UNL A   1      33.296  27.881  23.341  1.00  0.00     0.000 A 
ATOM     27  C   UNL A   1      33.570  28.397  25.667  1.00  0.00     0.000 A 
ATOM     28  C   UNL A   1      33.279  28.809  24.372  1.00  0.00     0.000 A 
ENDBRANCH   8  23
ENDBRANCH   6   8
ENDBRANCH   5   6
ENDBRANCH   4   5
ENDBRANCH   3   4
ENDBRANCH   2   3
ENDBRANCH   1   2
BRANCH   1  29
ATOM     29  C   UNL A   1      40.731  20.061  26.421  1.00  0.00     0.188 C 
BRANCH  29  30
ATOM     30  O   UNL A   1      41.635  19.542  25.456  1.00  0.00    -0.376 OA
BRANCH  30  31
ATOM     31  C   UNL A   1      43.031  19.548  25.776  1.00  0.00     0.202 C 
BRANCH  31  32
ATOM     32  C   UNL A   1      43.948  20.742  25.450  1.00  0.00     0.261 C 
BRANCH  32  33
ATOM     33  O   UNL A   1      43.659  21.962  26.122  1.00  0.00    -0.460 OA
BRANCH  33  34
ATOM     34  C   UNL A   1      43.360  23.015  25.327  1.00  0.00     0.338 C 
ATOM     35  O   UNL A   1      43.369  23.044  24.106  1.00  0.00    -0.246 OA
BRANCH  34  36
ATOM     36  C   UNL A   1      42.796  24.073  26.201  1.00  0.00     0.060 A 
ATOM     37  C   UNL A   1      43.223  25.393  26.000  1.00  0.00     0.016 A 
ATOM     38  C   UNL A   1      41.788  23.793  27.132  1.00  0.00     0.016 A 
ATOM     39  C   UNL A   1      42.686  26.422  26.770  1.00  0.00     0.010 A 
ATOM     40  C   UNL A   1      41.252  24.823  27.904  1.00  0.00     0.010 A 
ATOM     41  C   UNL A   1      41.739  26.131  27.759  1.00  0.00    -0.014 A 
BRANCH  41  42
ATOM     42  C   UNL A   1      41.490  27.127  28.826  1.00  0.00     0.031 A 
ATOM     43  C   UNL A   1      42.445  27.139  29.990  1.00  0.00     0.074 A 
ATOM     44  C   UNL A   1      40.491  28.021  28.752  1.00  0.00     0.049 A 
ATOM     45  N   UNL A   1      42.455  27.902  31.052  1.00  0.00    -0.248 NA
ATOM     46  C   UNL A   1      43.536  26.149  29.950  1.00  0.00     0.031 C 
ATOM     47  C   UNL A   1      39.537  28.145  27.654  1.00  0.00     0.029 A 
ATOM     48  N   UNL A   1      40.126  29.010  29.632  1.00  0.00    -0.354 N 
ATOM     49  C   UNL A   1      43.536  27.470  31.808  1.00  0.00     0.074 A 
ATOM     50  C   UNL A   1      44.139  26.361  31.106  1.00  0.00     0.031 C 
ATOM     51  C   UNL A   1      38.700  29.166  27.919  1.00  0.00     0.029 A 
ATOM     52  C   UNL A   1      39.038  29.738  29.222  1.00  0.00     0.049 A 
ATOM     53  H   UNL A   1      40.601  29.179  30.477  1.00  0.00     0.167 HD
ATOM     54  C   UNL A   1      43.996  27.956  32.984  1.00  0.00     0.031 A 
ATOM     55  C   UNL A   1      38.389  30.745  29.839  1.00  0.00     0.031 A 
ATOM     56  C   UNL A   1      43.391  29.052  33.688  1.00  0.00     0.049 A 
ATOM     57  C   UNL A   1      38.872  31.217  31.188  1.00  0.00     0.074 A 
ATOM     58  C   UNL A   1      43.782  29.629  34.882  1.00  0.00     0.029 A 
ATOM     59  N   UNL A   1      42.259  29.730  33.265  1.00  0.00    -0.354 N 
ATOM     60  N   UNL A   1      39.909  30.818  31.887  1.00  0.00    -0.248 NA
ATOM     61  C   UNL A   1      38.096  32.290  31.827  1.00  0.00     0.031 C 
ATOM     62  C   UNL A   1      42.846  30.612  35.216  1.00  0.00     0.029 A 
ATOM     63  C   UNL A   1      41.919  30.701  34.190  1.00  0.00     0.049 A 
ATOM     64  H   UNL A   1      41.769  29.547  32.431  1.00  0.00     0.167 HD
ATOM     65  C   UNL A   1      39.933  31.620  33.024  1.00  0.00     0.074 A 
ATOM     66  C   UNL A   1      38.815  32.532  32.915  1.00  0.00     0.031 C 
ATOM     67  C   UNL A   1      40.807  31.607  34.061  1.00  0.00     0.031 A 
BRANCH  54  68
ATOM     68  C   UNL A   1      45.176  27.260  33.600  1.00  0.00    -0.014 A 
ATOM     69  C   UNL A   1      45.018  26.188  34.494  1.00  0.00     0.009 A 
ATOM     70  C   UNL A   1      46.473  27.689  33.279  1.00  0.00     0.009 A 
ATOM     71  C   UNL A   1      46.134  25.591  35.086  1.00  0.00     0.001 A 
ATOM     72  C   UNL A   1      47.587  27.068  33.844  1.00  0.00     0.001 A 
ATOM     73  C   UNL A   1      47.416  26.028  34.757  1.00  0.00     0.000 A 
ENDBRANCH  54  68
BRANCH  55  74
ATOM     74  C   UNL A   1      37.203  31.381  29.202  1.00  0.00    -0.014 A 
ATOM     75  C   UNL A   1      35.999  30.673  29.063  1.00  0.00     0.009 A 
ATOM     76  C   UNL A   1      37.282  32.685  28.689  1.00  0.00     0.009 A 
ATOM     77  C   UNL A   1      34.912  31.243  28.395  1.00  0.00     0.001 A 
ATOM     78  C   UNL A   1      36.182  33.266  28.052  1.00  0.00     0.001 A 
ATOM     79  C   UNL A   1      35.004  32.540  27.895  1.00  0.00     0.000 A 
ENDBRANCH  55  74
BRANCH  67  80
ATOM     80  C   UNL A   1      40.633  32.655  35.128  1.00  0.00    -0.014 A 
ATOM     81  C   UNL A   1      39.864  32.423  36.278  1.00  0.00     0.009 A 
ATOM     82  C   UNL A   1      41.291  33.889  34.992  1.00  0.00     0.009 A 
ATOM     83  C   UNL A   1      39.722  33.421  37.246  1.00  0.00     0.001 A 
ATOM     84  C   UNL A   1      41.178  34.870  35.977  1.00  0.00     0.001 A 
ATOM     85  C   UNL A   1      40.382  34.640  37.097  1.00  0.00     0.000 A 
ENDBRANCH  67  80
ENDBRANCH  41  42
ENDBRANCH  34  36
ENDBRANCH  33  34
ENDBRANCH  32  33
ENDBRANCH  31  32
ENDBRANCH  30  31
ENDBRANCH  29  30
ENDBRANCH   1  29
TORSDOF 22
ENDMDL
MODEL 3
REMARK VINA RESULT:      -9.7      4.600     10.150
REMARK SMILES O=C(C[C@@H]1CSCC[NH2+]1)NC[C@@H](C(=O)OCCOCCOCCOC(=O)c1ccc(-c2c3nc(c(-c4ccccc4)c4ccc([nH]4)c(-c4ccccc4)c4nc(c(-c5ccccc5)c5ccc2[nH]5)C=C4)C=C3)cc1)c1ccccc1
REMARK SMILES IDX 19 1 18 2 17 3 16 4 15 5 13 6 14 7 12 8 11 9 10 10 1 11 2 12
REMARK SMILES IDX 3 14 4 15 5 16 9 17 6 18 8 19 7 22 75 23 76 24 80 25 77 26
REMARK SMILES IDX 79 27 78 28 20 29 21 30 22 31 23 32 24 33 25 34 26 35 27 36
REMARK SMILES IDX 28 37 74 38 29 39 73 40 30 41 31 42 32 43 67 44 33 45 72 46
REMARK SMILES IDX 66 47 68 48 34 49 71 50 65 51 64 52 35 54 57 55 42 56 56 57
REMARK SMILES IDX 43 58 46 59 55 60 69 61 44 62 45 63 54 65 70 66 47 67 36 68
REMARK SMILES IDX 37 69 41 70 38 71 40 72 39 73 58 74 59 75 63 76 60 77 62 78
REMARK SMILES IDX 61 79 48 80 49 81 53 82 50 83 52 84 51 85
REMARK H PARENT 10 13 9 20 9 21 68 53 46 64
REMARK Flexibility Score: inf
ROOT
ATOM      1  C   UNL A   1      33.615  33.559  28.204  1.00  0.00     0.188 C 
ENDROOT
BRANCH   1   2
ATOM      2  O   UNL A   1      34.856  32.884  28.343  1.00  0.00    -0.376 OA
BRANCH   2   3
ATOM      3  C   UNL A   1      34.968  31.643  27.659  1.00  0.00     0.202 C 
BRANCH   3   4
ATOM      4  C   UNL A   1      33.664  30.934  27.258  1.00  0.00     0.261 C 
BRANCH   4   5
ATOM      5  O   UNL A   1      33.659  29.507  27.484  1.00  0.00    -0.463 OA
BRANCH   5   6
ATOM      6  C   UNL A   1      33.296  28.732  26.420  1.00  0.00     0.315 C 
ATOM      7  O   UNL A   1      34.102  28.220  25.647  1.00  0.00    -0.251 OA
BRANCH   6   8
ATOM      8  C   UNL A   1      31.787  28.485  26.305  1.00  0.00     0.148 C 
BRANCH   8   9
ATOM      9  C   UNL A   1      31.319  27.217  27.045  1.00  0.00     0.136 C 
BRANCH   9  10
ATOM     10  N   UNL A   1      32.117  26.011  26.878  1.00  0.00    -0.355 N 
ATOM     11  O   UNL A   1      30.356  24.650  26.321  1.00  0.00    -0.275 OA
ATOM     12  C   UNL A   1      31.568  24.837  26.407  1.00  0.00     0.226 C 
ATOM     13  H   UNL A   1      33.075  26.035  27.107  1.00  0.00     0.163 HD
BRANCH  12  14
ATOM     14  C   UNL A   1      32.555  23.773  25.960  1.00  0.00     0.165 C 
BRANCH  14  15
ATOM     15  C   UNL A   1      34.044  23.934  26.364  1.00  0.00     0.201 C 
ATOM     16  C   UNL A   1      34.954  24.386  25.212  1.00  0.00     0.135 C 
ATOM     17  N   UNL A   1      34.668  22.869  27.166  1.00  0.00    -0.342 N 
ATOM     18  S   UNL A   1      35.172  23.098  23.974  1.00  0.00    -0.150 SA
ATOM     19  C   UNL A   1      34.985  21.637  26.434  1.00  0.00     0.271 C 
ATOM     20  H   UNL A   1      34.030  22.630  27.924  1.00  0.00     0.346 HD
ATOM     21  H   UNL A   1      35.561  23.244  27.486  1.00  0.00     0.346 HD
ATOM     22  C   UNL A   1      35.729  21.762  25.096  1.00  0.00     0.131 C 
ENDBRANCH  14  15
ENDBRANCH  12  14
ENDBRANCH   9  10
ENDBRANCH   8   9
BRANCH   8  23
ATOM     23  C   UNL A   1      31.259  28.573  24.852  1.00  0.00    -0.032 A 
ATOM     24  C   UNL A   1      31.317  27.481  23.961  1.00  0.00     0.004 A 
ATOM     25  C   UNL A   1      30.614  29.735  24.387  1.00  0.00     0.004 A 
ATOM     26  C   UNL A   1      30.774  27.553  22.673  1.00  0.00     0.000 A 
ATOM     27  C   UNL A   1      30.090  29.813  23.089  1.00  0.00     0.000 A 
ATOM     28  C   UNL A   1      30.166  28.720  22.234  1.00  0.00     0.000 A 
ENDBRANCH   8  23
ENDBRANCH   6   8
ENDBRANCH   5   6
ENDBRANCH   4   5
ENDBRANCH   3   4
ENDBRANCH   2   3
ENDBRANCH   1   2
BRANCH   1  29
ATOM     29  C   UNL A   1      33.300  34.639  29.235  1.00  0.00     0.188 C 
BRANCH  29  30
ATOM     30  O   UNL A   1      34.296  34.999  30.182  1.00  0.00    -0.376 OA
BRANCH  30  31
ATOM     31  C   UNL A   1      33.910  35.091  31.558  1.00  0.00     0.202 C 
BRANCH  31  32
ATOM     32  C   UNL A   1      34.278  34.011  32.593  1.00  0.00     0.261 C 
BRANCH  32  33
ATOM     33  O   UNL A   1      35.110  32.953  32.135  1.00  0.00    -0.460 OA
BRANCH  33  34
ATOM     34  C   UNL A   1      36.110  32.587  32.968  1.00  0.00     0.338 C 
ATOM     35  O   UNL A   1      36.148  32.729  34.181  1.00  0.00    -0.246 OA
BRANCH  34  36
ATOM     36  C   UNL A   1      37.063  31.773  32.174  1.00  0.00     0.060 A 
ATOM     37  C   UNL A   1      38.121  31.151  32.849  1.00  0.00     0.016 A 
ATOM     38  C   UNL A   1      36.863  31.539  30.808  1.00  0.00     0.016 A 
ATOM     39  C   UNL A   1      39.014  30.343  32.148  1.00  0.00     0.010 A 
ATOM     40  C   UNL A   1      37.757  30.731  30.106  1.00  0.00     0.010 A 
ATOM     41  C   UNL A   1      38.864  30.175  30.766  1.00  0.00    -0.014 A 
BRANCH  41  42
ATOM     42  C   UNL A   1      40.014  29.681  29.976  1.00  0.00     0.031 A 
ATOM     43  C   UNL A   1      41.161  30.631  29.764  1.00  0.00     0.074 A 
ATOM     44  C   UNL A   1      40.072  28.424  29.505  1.00  0.00     0.049 A 
ATOM     45  N   UNL A   1      42.282  30.454  29.114  1.00  0.00    -0.248 NA
ATOM     46  C   UNL A   1      41.020  31.970  30.366  1.00  0.00     0.031 C 
ATOM     47  C   UNL A   1      39.052  27.396  29.691  1.00  0.00     0.029 A 
ATOM     48  N   UNL A   1      41.053  27.802  28.774  1.00  0.00    -0.354 N 
ATOM     49  C   UNL A   1      42.964  31.660  29.215  1.00  0.00     0.074 A 
ATOM     50  C   UNL A   1      42.123  32.571  29.956  1.00  0.00     0.031 C 
ATOM     51  C   UNL A   1      39.468  26.260  29.099  1.00  0.00     0.029 A 
ATOM     52  C   UNL A   1      40.763  26.497  28.462  1.00  0.00     0.049 A 
ATOM     53  H   UNL A   1      41.884  28.250  28.498  1.00  0.00     0.167 HD
ATOM     54  C   UNL A   1      44.188  31.984  28.738  1.00  0.00     0.031 A 
ATOM     55  C   UNL A   1      41.464  25.604  27.736  1.00  0.00     0.031 A 
ATOM     56  C   UNL A   1      45.020  31.082  27.992  1.00  0.00     0.049 A 
ATOM     57  C   UNL A   1      42.792  26.015  27.146  1.00  0.00     0.074 A 
ATOM     58  C   UNL A   1      46.281  31.306  27.470  1.00  0.00     0.029 A 
ATOM     59  N   UNL A   1      44.668  29.785  27.653  1.00  0.00    -0.354 N 
ATOM     60  N   UNL A   1      43.440  27.150  27.264  1.00  0.00    -0.248 NA
ATOM     61  C   UNL A   1      43.489  25.009  26.330  1.00  0.00     0.031 C 
ATOM     62  C   UNL A   1      46.664  30.167  26.757  1.00  0.00     0.029 A 
ATOM     63  C   UNL A   1      45.676  29.206  26.903  1.00  0.00     0.049 A 
ATOM     64  H   UNL A   1      43.827  29.342  27.907  1.00  0.00     0.167 HD
ATOM     65  C   UNL A   1      44.636  26.979  26.575  1.00  0.00     0.074 A 
ATOM     66  C   UNL A   1      44.627  25.629  26.052  1.00  0.00     0.031 C 
ATOM     67  C   UNL A   1      45.655  27.857  26.397  1.00  0.00     0.031 A 
BRANCH  54  68
ATOM     68  C   UNL A   1      44.662  33.391  28.966  1.00  0.00    -0.014 A 
ATOM     69  C   UNL A   1      45.418  33.743  30.097  1.00  0.00     0.009 A 
ATOM     70  C   UNL A   1      44.342  34.384  28.028  1.00  0.00     0.009 A 
ATOM     71  C   UNL A   1      45.804  35.069  30.303  1.00  0.00     0.001 A 
ATOM     72  C   UNL A   1      44.760  35.702  28.219  1.00  0.00     0.001 A 
ATOM     73  C   UNL A   1      45.480  36.046  29.363  1.00  0.00     0.000 A 
ENDBRANCH  54  68
BRANCH  55  74
ATOM     74  C   UNL A   1      40.936  24.232  27.511  1.00  0.00    -0.014 A 
ATOM     75  C   UNL A   1      41.492  23.131  28.183  1.00  0.00     0.009 A 
ATOM     76  C   UNL A   1      39.901  24.007  26.591  1.00  0.00     0.009 A 
ATOM     77  C   UNL A   1      41.047  21.834  27.912  1.00  0.00     0.001 A 
ATOM     78  C   UNL A   1      39.434  22.713  26.348  1.00  0.00     0.001 A 
ATOM     79  C   UNL A   1      40.016  21.628  26.999  1.00  0.00     0.000 A 
ENDBRANCH  55  74
BRANCH  67  80
ATOM     80  C   UNL A   1      46.875  27.366  25.666  1.00  0.00    -0.014 A 
ATOM     81  C   UNL A   1      47.035  27.547  24.284  1.00  0.00     0.009 A 
ATOM     82  C   UNL A   1      47.906  26.744  26.391  1.00  0.00     0.009 A 
ATOM     83  C   UNL A   1      48.180  27.074  23.638  1.00  0.00     0.001 A 
ATOM     84  C   UNL A   1      49.064  26.306  25.750  1.00  0.00     0.001 A 
ATOM     85  C   UNL A   1      49.195  26.459  24.371  1.00  0.00     0.000 A 
ENDBRANCH  67  80
ENDBRANCH  41  42
ENDBRANCH  34  36
ENDBRANCH  33  34
ENDBRANCH  32  33
ENDBRANCH  31  32
ENDBRANCH  30  31
ENDBRANCH  29  30
ENDBRANCH   1  29
TORSDOF 22
ENDMDL
