MODEL 1
REMARK VINA RESULT:      -8.4      0.000      0.000
REMARK SMILES C/C(=N/OCc1ccccc1Nc1c(Cl)cccc1Cl)C(=O)OCCOCCOCCOC(=O)c1ccc(-c2c3nc(c(-c4ccccc4)c4ccc([nH]4)c(-c4ccccc4)c4nc(c(-c5ccccc5)c5ccc2[nH]5)C=C4)C=C3)cc1
REMARK SMILES IDX 26 1 25 2 24 3 23 4 21 5 22 6 2 7 1 8 3 9 4 10 5 11 6 12
REMARK SMILES IDX 7 13 11 14 8 15 10 16 9 17 12 18 13 20 14 21 19 22 15 23
REMARK SMILES IDX 16 24 18 25 20 26 17 27 27 28 28 29 29 30 30 31 31 32 32 33
REMARK SMILES IDX 33 34 34 35 35 36 36 37 82 38 37 39 81 40 38 41 39 42 40 43
REMARK SMILES IDX 75 44 41 45 80 46 74 47 76 48 42 49 79 50 73 51 72 52 43 54
REMARK SMILES IDX 65 55 50 56 64 57 51 58 54 59 63 60 77 61 52 62 53 63 62 65
REMARK SMILES IDX 78 66 55 67 44 68 45 69 49 70 46 71 48 72 47 73 66 74 67 75
REMARK SMILES IDX 71 76 68 77 70 78 69 79 56 80 57 81 61 82 58 83 60 84 59 85
REMARK H PARENT 12 19 76 53 54 64
REMARK Flexibility Score: inf
ROOT
ATOM      1  O   UNL A   1      42.664  33.291  34.343  1.00  0.00    -0.376 OA
ENDROOT
BRANCH   1   2
ATOM      2  C   UNL A   1      42.512  31.883  34.519  1.00  0.00     0.202 C 
BRANCH   2   3
ATOM      3  C   UNL A   1      41.101  31.321  34.353  1.00  0.00     0.261 C 
BRANCH   3   4
ATOM      4  O   UNL A   1      40.227  31.984  35.276  1.00  0.00    -0.459 OA
BRANCH   4   5
ATOM      5  C   UNL A   1      39.242  31.235  35.805  1.00  0.00     0.355 C 
ATOM      6  O   UNL A   1      39.300  30.076  36.177  1.00  0.00    -0.245 OA
BRANCH   5   7
ATOM      7  C   UNL A   1      38.108  32.156  36.209  1.00  0.00     0.161 C 
ATOM      8  C   UNL A   1      38.258  32.812  37.554  1.00  0.00     0.079 C 
ATOM      9  N   UNL A   1      37.071  32.451  35.479  1.00  0.00    -0.084 NA
BRANCH   9  10
ATOM     10  O   UNL A   1      37.017  31.677  34.308  1.00  0.00    -0.390 OA
BRANCH  10  11
ATOM     11  C   UNL A   1      36.181  32.333  33.337  1.00  0.00     0.302 C 
BRANCH  11  12
ATOM     12  C   UNL A   1      36.894  32.535  32.010  1.00  0.00     0.016 A 
ATOM     13  C   UNL A   1      38.289  32.349  31.972  1.00  0.00     0.009 A 
ATOM     14  C   UNL A   1      36.221  32.927  30.827  1.00  0.00     0.045 A 
ATOM     15  C   UNL A   1      39.004  32.517  30.787  1.00  0.00     0.001 A 
ATOM     16  C   UNL A   1      36.956  33.071  29.641  1.00  0.00     0.026 A 
ATOM     17  C   UNL A   1      38.336  32.865  29.620  1.00  0.00     0.002 A 
BRANCH  14  18
ATOM     18  N   UNL A   1      34.845  33.216  30.844  1.00  0.00    -0.353 N 
ATOM     19  H   UNL A   1      34.280  32.424  30.998  1.00  0.00     0.167 HD
BRANCH  18  20
ATOM     20  C   UNL A   1      34.109  34.413  30.684  1.00  0.00     0.076 A 
ATOM     21  C   UNL A   1      33.595  34.722  29.403  1.00  0.00     0.066 A 
ATOM     22  C   UNL A   1      34.023  35.417  31.670  1.00  0.00     0.066 A 
ATOM     23  Cl  UNL A   1      33.747  33.602  28.087  1.00  0.00    -0.082 Cl
ATOM     24  C   UNL A   1      32.995  35.955  29.127  1.00  0.00     0.023 A 
ATOM     25  C   UNL A   1      33.419  36.652  31.388  1.00  0.00     0.023 A 
ATOM     26  Cl  UNL A   1      34.760  35.266  33.229  1.00  0.00    -0.082 Cl
ATOM     27  C   UNL A   1      32.904  36.921  30.122  1.00  0.00     0.003 A 
ENDBRANCH  18  20
ENDBRANCH  14  18
ENDBRANCH  11  12
ENDBRANCH  10  11
ENDBRANCH   9  10
ENDBRANCH   5   7
ENDBRANCH   4   5
ENDBRANCH   3   4
ENDBRANCH   2   3
ENDBRANCH   1   2
BRANCH   1  28
ATOM     28  C   UNL A   1      42.350  33.856  33.081  1.00  0.00     0.188 C 
BRANCH  28  29
ATOM     29  C   UNL A   1      42.742  35.317  32.764  1.00  0.00     0.188 C 
BRANCH  29  30
ATOM     30  O   UNL A   1      43.546  35.636  31.645  1.00  0.00    -0.376 OA
BRANCH  30  31
ATOM     31  C   UNL A   1      44.134  36.923  31.553  1.00  0.00     0.202 C 
BRANCH  31  32
ATOM     32  C   UNL A   1      45.659  37.045  31.579  1.00  0.00     0.261 C 
BRANCH  32  33
ATOM     33  O   UNL A   1      46.293  36.693  30.340  1.00  0.00    -0.460 OA
BRANCH  33  34
ATOM     34  C   UNL A   1      47.144  35.640  30.409  1.00  0.00     0.338 C 
ATOM     35  O   UNL A   1      48.290  35.636  30.822  1.00  0.00    -0.246 OA
BRANCH  34  36
ATOM     36  C   UNL A   1      46.429  34.402  30.049  1.00  0.00     0.060 A 
ATOM     37  C   UNL A   1      46.379  33.366  30.992  1.00  0.00     0.016 A 
ATOM     38  C   UNL A   1      45.884  34.233  28.776  1.00  0.00     0.016 A 
ATOM     39  C   UNL A   1      45.812  32.139  30.650  1.00  0.00     0.010 A 
ATOM     40  C   UNL A   1      45.335  32.996  28.428  1.00  0.00     0.010 A 
ATOM     41  C   UNL A   1      45.326  31.935  29.352  1.00  0.00    -0.014 A 
BRANCH  41  42
ATOM     42  C   UNL A   1      44.966  30.571  28.897  1.00  0.00     0.031 A 
ATOM     43  C   UNL A   1      43.533  30.130  29.002  1.00  0.00     0.074 A 
ATOM     44  C   UNL A   1      45.895  29.732  28.409  1.00  0.00     0.049 A 
ATOM     45  N   UNL A   1      43.005  28.961  28.744  1.00  0.00    -0.248 NA
ATOM     46  C   UNL A   1      42.568  31.143  29.461  1.00  0.00     0.031 C 
ATOM     47  C   UNL A   1      47.308  30.050  28.210  1.00  0.00     0.029 A 
ATOM     48  N   UNL A   1      45.782  28.424  28.006  1.00  0.00    -0.354 N 
ATOM     49  C   UNL A   1      41.649  29.094  29.017  1.00  0.00     0.074 A 
ATOM     50  C   UNL A   1      41.439  30.450  29.478  1.00  0.00     0.031 C 
ATOM     51  C   UNL A   1      47.935  28.957  27.739  1.00  0.00     0.029 A 
ATOM     52  C   UNL A   1      46.977  27.859  27.636  1.00  0.00     0.049 A 
ATOM     53  H   UNL A   1      44.926  27.939  27.985  1.00  0.00     0.167 HD
ATOM     54  C   UNL A   1      40.665  28.173  28.896  1.00  0.00     0.031 A 
ATOM     55  C   UNL A   1      47.267  26.591  27.285  1.00  0.00     0.031 A 
ATOM     56  C   UNL A   1      40.870  26.818  28.463  1.00  0.00     0.049 A 
ATOM     57  C   UNL A   1      46.171  25.558  27.249  1.00  0.00     0.074 A 
ATOM     58  C   UNL A   1      39.932  25.813  28.301  1.00  0.00     0.029 A 
ATOM     59  N   UNL A   1      42.100  26.275  28.132  1.00  0.00    -0.354 N 
ATOM     60  N   UNL A   1      44.889  25.701  27.487  1.00  0.00    -0.248 NA
ATOM     61  C   UNL A   1      46.566  24.185  26.894  1.00  0.00     0.031 C 
ATOM     62  C   UNL A   1      40.603  24.647  27.922  1.00  0.00     0.029 A 
ATOM     63  C   UNL A   1      41.951  24.941  27.795  1.00  0.00     0.049 A 
ATOM     64  H   UNL A   1      42.954  26.765  28.137  1.00  0.00     0.167 HD
ATOM     65  C   UNL A   1      44.323  24.448  27.283  1.00  0.00     0.074 A 
ATOM     66  C   UNL A   1      45.397  23.559  26.893  1.00  0.00     0.031 C 
ATOM     67  C   UNL A   1      43.027  24.068  27.404  1.00  0.00     0.031 A 
BRANCH  54  68
ATOM     68  C   UNL A   1      39.277  28.596  29.279  1.00  0.00    -0.014 A 
ATOM     69  C   UNL A   1      38.362  29.047  28.315  1.00  0.00     0.009 A 
ATOM     70  C   UNL A   1      38.871  28.520  30.621  1.00  0.00     0.009 A 
ATOM     71  C   UNL A   1      37.077  29.443  28.693  1.00  0.00     0.001 A 
ATOM     72  C   UNL A   1      37.579  28.892  30.991  1.00  0.00     0.001 A 
ATOM     73  C   UNL A   1      36.686  29.361  30.029  1.00  0.00     0.000 A 
ENDBRANCH  54  68
BRANCH  55  74
ATOM     74  C   UNL A   1      48.666  26.207  26.966  1.00  0.00    -0.014 A 
ATOM     75  C   UNL A   1      49.173  26.370  25.669  1.00  0.00     0.009 A 
ATOM     76  C   UNL A   1      49.491  25.643  27.953  1.00  0.00     0.009 A 
ATOM     77  C   UNL A   1      50.469  25.953  25.359  1.00  0.00     0.001 A 
ATOM     78  C   UNL A   1      50.795  25.251  27.646  1.00  0.00     0.001 A 
ATOM     79  C   UNL A   1      51.280  25.397  26.348  1.00  0.00     0.000 A 
ENDBRANCH  55  74
BRANCH  67  80
ATOM     80  C   UNL A   1      42.689  22.642  27.074  1.00  0.00    -0.014 A 
ATOM     81  C   UNL A   1      42.043  21.812  28.002  1.00  0.00     0.009 A 
ATOM     82  C   UNL A   1      42.975  22.141  25.794  1.00  0.00     0.009 A 
ATOM     83  C   UNL A   1      41.715  20.498  27.662  1.00  0.00     0.001 A 
ATOM     84  C   UNL A   1      42.623  20.836  25.448  1.00  0.00     0.001 A 
ATOM     85  C   UNL A   1      42.000  20.012  26.385  1.00  0.00     0.000 A 
ENDBRANCH  67  80
ENDBRANCH  41  42
ENDBRANCH  34  36
ENDBRANCH  33  34
ENDBRANCH  32  33
ENDBRANCH  31  32
ENDBRANCH  30  31
ENDBRANCH  29  30
ENDBRANCH  28  29
ENDBRANCH   1  28
TORSDOF 22
ENDMDL
MODEL 2
REMARK VINA RESULT:      -8.1      4.268      8.695
REMARK SMILES C/C(=N/OCc1ccccc1Nc1c(Cl)cccc1Cl)C(=O)OCCOCCOCCOC(=O)c1ccc(-c2c3nc(c(-c4ccccc4)c4ccc([nH]4)c(-c4ccccc4)c4nc(c(-c5ccccc5)c5ccc2[nH]5)C=C4)C=C3)cc1
REMARK SMILES IDX 26 1 25 2 24 3 23 4 21 5 22 6 2 7 1 8 3 9 4 10 5 11 6 12
REMARK SMILES IDX 7 13 11 14 8 15 10 16 9 17 12 18 13 20 14 21 19 22 15 23
REMARK SMILES IDX 16 24 18 25 20 26 17 27 27 28 28 29 29 30 30 31 31 32 32 33
REMARK SMILES IDX 33 34 34 35 35 36 36 37 82 38 37 39 81 40 38 41 39 42 40 43
REMARK SMILES IDX 75 44 41 45 80 46 74 47 76 48 42 49 79 50 73 51 72 52 43 54
REMARK SMILES IDX 65 55 50 56 64 57 51 58 54 59 63 60 77 61 52 62 53 63 62 65
REMARK SMILES IDX 78 66 55 67 44 68 45 69 49 70 46 71 48 72 47 73 66 74 67 75
REMARK SMILES IDX 71 76 68 77 70 78 69 79 56 80 57 81 61 82 58 83 60 84 59 85
REMARK H PARENT 12 19 76 53 54 64
REMARK Flexibility Score: inf
ROOT
ATOM      1  O   UNL A   1      34.064  35.360  29.327  1.00  0.00    -0.376 OA
ENDROOT
BRANCH   1   2
ATOM      2  C   UNL A   1      33.879  34.390  28.296  1.00  0.00     0.202 C 
BRANCH   2   3
ATOM      3  C   UNL A   1      35.102  33.557  27.915  1.00  0.00     0.261 C 
BRANCH   3   4
ATOM      4  O   UNL A   1      34.658  32.334  27.312  1.00  0.00    -0.459 OA
BRANCH   4   5
ATOM      5  C   UNL A   1      34.725  31.232  28.081  1.00  0.00     0.355 C 
ATOM      6  O   UNL A   1      34.190  31.037  29.158  1.00  0.00    -0.245 OA
BRANCH   5   7
ATOM      7  C   UNL A   1      35.293  30.101  27.246  1.00  0.00     0.161 C 
ATOM      8  C   UNL A   1      36.737  29.771  27.504  1.00  0.00     0.079 C 
ATOM      9  N   UNL A   1      34.629  29.385  26.385  1.00  0.00    -0.084 NA
BRANCH   9  10
ATOM     10  O   UNL A   1      33.333  29.886  26.173  1.00  0.00    -0.390 OA
BRANCH  10  11
ATOM     11  C   UNL A   1      32.397  28.793  26.127  1.00  0.00     0.302 C 
BRANCH  11  12
ATOM     12  C   UNL A   1      31.332  28.997  25.063  1.00  0.00     0.016 A 
ATOM     13  C   UNL A   1      30.867  30.306  24.832  1.00  0.00     0.009 A 
ATOM     14  C   UNL A   1      30.770  27.928  24.322  1.00  0.00     0.045 A 
ATOM     15  C   UNL A   1      29.892  30.562  23.869  1.00  0.00     0.001 A 
ATOM     16  C   UNL A   1      29.804  28.210  23.345  1.00  0.00     0.026 A 
ATOM     17  C   UNL A   1      29.370  29.516  23.118  1.00  0.00     0.002 A 
BRANCH  14  18
ATOM     18  N   UNL A   1      31.136  26.597  24.590  1.00  0.00    -0.353 N 
ATOM     19  H   UNL A   1      30.522  26.138  25.208  1.00  0.00     0.167 HD
BRANCH  18  20
ATOM     20  C   UNL A   1      32.207  25.785  24.150  1.00  0.00     0.076 A 
ATOM     21  C   UNL A   1      33.142  25.327  25.108  1.00  0.00     0.066 A 
ATOM     22  C   UNL A   1      32.519  25.567  22.792  1.00  0.00     0.066 A 
ATOM     23  Cl  UNL A   1      32.913  25.640  26.798  1.00  0.00    -0.082 Cl
ATOM     24  C   UNL A   1      34.311  24.655  24.734  1.00  0.00     0.023 A 
ATOM     25  C   UNL A   1      33.692  24.890  22.423  1.00  0.00     0.023 A 
ATOM     26  Cl  UNL A   1      31.573  26.218  21.498  1.00  0.00    -0.082 Cl
ATOM     27  C   UNL A   1      34.585  24.434  23.389  1.00  0.00     0.003 A 
ENDBRANCH  18  20
ENDBRANCH  14  18
ENDBRANCH  11  12
ENDBRANCH  10  11
ENDBRANCH   9  10
ENDBRANCH   5   7
ENDBRANCH   4   5
ENDBRANCH   3   4
ENDBRANCH   2   3
ENDBRANCH   1   2
BRANCH   1  28
ATOM     28  C   UNL A   1      32.952  35.722  30.128  1.00  0.00     0.188 C 
BRANCH  28  29
ATOM     29  C   UNL A   1      33.157  36.137  31.602  1.00  0.00     0.188 C 
BRANCH  29  30
ATOM     30  O   UNL A   1      34.012  35.409  32.460  1.00  0.00    -0.376 OA
BRANCH  30  31
ATOM     31  C   UNL A   1      33.831  34.010  32.603  1.00  0.00     0.202 C 
BRANCH  31  32
ATOM     32  C   UNL A   1      34.651  33.259  33.654  1.00  0.00     0.261 C 
BRANCH  32  33
ATOM     33  O   UNL A   1      35.426  32.174  33.122  1.00  0.00    -0.460 OA
BRANCH  33  34
ATOM     34  C   UNL A   1      36.700  32.100  33.578  1.00  0.00     0.338 C 
ATOM     35  O   UNL A   1      37.111  32.392  34.688  1.00  0.00    -0.246 OA
BRANCH  34  36
ATOM     36  C   UNL A   1      37.551  31.446  32.567  1.00  0.00     0.060 A 
ATOM     37  C   UNL A   1      38.539  30.554  33.007  1.00  0.00     0.016 A 
ATOM     38  C   UNL A   1      37.430  31.763  31.214  1.00  0.00     0.016 A 
ATOM     39  C   UNL A   1      39.437  30.003  32.094  1.00  0.00     0.010 A 
ATOM     40  C   UNL A   1      38.343  31.226  30.303  1.00  0.00     0.010 A 
ATOM     41  C   UNL A   1      39.370  30.370  30.743  1.00  0.00    -0.014 A 
BRANCH  41  42
ATOM     42  C   UNL A   1      40.466  30.005  29.817  1.00  0.00     0.031 A 
ATOM     43  C   UNL A   1      40.410  28.672  29.123  1.00  0.00     0.074 A 
ATOM     44  C   UNL A   1      41.501  30.834  29.600  1.00  0.00     0.049 A 
ATOM     45  N   UNL A   1      41.293  28.109  28.338  1.00  0.00    -0.248 NA
ATOM     46  C   UNL A   1      39.198  27.868  29.346  1.00  0.00     0.031 C 
ATOM     47  C   UNL A   1      41.653  32.171  30.171  1.00  0.00     0.029 A 
ATOM     48  N   UNL A   1      42.634  30.656  28.846  1.00  0.00    -0.354 N 
ATOM     49  C   UNL A   1      40.748  26.882  27.981  1.00  0.00     0.074 A 
ATOM     50  C   UNL A   1      39.468  26.774  28.649  1.00  0.00     0.031 C 
ATOM     51  C   UNL A   1      42.826  32.686  29.760  1.00  0.00     0.029 A 
ATOM     52  C   UNL A   1      43.518  31.704  28.928  1.00  0.00     0.049 A 
ATOM     53  H   UNL A   1      42.798  29.854  28.299  1.00  0.00     0.167 HD
ATOM     54  C   UNL A   1      41.264  25.929  27.170  1.00  0.00     0.031 A 
ATOM     55  C   UNL A   1      44.755  31.840  28.414  1.00  0.00     0.031 A 
ATOM     56  C   UNL A   1      42.544  26.018  26.524  1.00  0.00     0.049 A 
ATOM     57  C   UNL A   1      45.348  30.725  27.593  1.00  0.00     0.074 A 
ATOM     58  C   UNL A   1      43.148  25.105  25.677  1.00  0.00     0.029 A 
ATOM     59  N   UNL A   1      43.423  27.079  26.661  1.00  0.00    -0.354 N 
ATOM     60  N   UNL A   1      44.814  29.580  27.242  1.00  0.00    -0.248 NA
ATOM     61  C   UNL A   1      46.719  30.925  27.095  1.00  0.00     0.031 C 
ATOM     62  C   UNL A   1      44.416  25.591  25.343  1.00  0.00     0.029 A 
ATOM     63  C   UNL A   1      44.577  26.832  25.939  1.00  0.00     0.049 A 
ATOM     64  H   UNL A   1      43.253  27.889  27.194  1.00  0.00     0.167 HD
ATOM     65  C   UNL A   1      45.769  28.938  26.463  1.00  0.00     0.074 A 
ATOM     66  C   UNL A   1      46.912  29.824  26.382  1.00  0.00     0.031 C 
ATOM     67  C   UNL A   1      45.705  27.724  25.863  1.00  0.00     0.031 A 
BRANCH  54  68
ATOM     68  C   UNL A   1      40.450  24.683  26.971  1.00  0.00    -0.014 A 
ATOM     69  C   UNL A   1      40.876  23.447  27.482  1.00  0.00     0.009 A 
ATOM     70  C   UNL A   1      39.229  24.752  26.283  1.00  0.00     0.009 A 
ATOM     71  C   UNL A   1      40.107  22.299  27.280  1.00  0.00     0.001 A 
ATOM     72  C   UNL A   1      38.452  23.607  26.105  1.00  0.00     0.001 A 
ATOM     73  C   UNL A   1      38.895  22.380  26.596  1.00  0.00     0.000 A 
ENDBRANCH  54  68
BRANCH  55  74
ATOM     74  C   UNL A   1      45.544  33.070  28.683  1.00  0.00    -0.014 A 
ATOM     75  C   UNL A   1      45.383  34.210  27.882  1.00  0.00     0.009 A 
ATOM     76  C   UNL A   1      46.487  33.096  29.724  1.00  0.00     0.009 A 
ATOM     77  C   UNL A   1      46.169  35.344  28.102  1.00  0.00     0.001 A 
ATOM     78  C   UNL A   1      47.251  34.241  29.957  1.00  0.00     0.001 A 
ATOM     79  C   UNL A   1      47.099  35.360  29.140  1.00  0.00     0.000 A 
ENDBRANCH  55  74
BRANCH  67  80
ATOM     80  C   UNL A   1      46.882  27.297  25.033  1.00  0.00    -0.014 A 
ATOM     81  C   UNL A   1      47.729  26.258  25.448  1.00  0.00     0.009 A 
ATOM     82  C   UNL A   1      47.114  27.910  23.792  1.00  0.00     0.009 A 
ATOM     83  C   UNL A   1      48.801  25.861  24.647  1.00  0.00     0.001 A 
ATOM     84  C   UNL A   1      48.171  27.494  22.981  1.00  0.00     0.001 A 
ATOM     85  C   UNL A   1      49.019  26.475  23.413  1.00  0.00     0.000 A 
ENDBRANCH  67  80
ENDBRANCH  41  42
ENDBRANCH  34  36
ENDBRANCH  33  34
ENDBRANCH  32  33
ENDBRANCH  31  32
ENDBRANCH  30  31
ENDBRANCH  29  30
ENDBRANCH  28  29
ENDBRANCH   1  28
TORSDOF 22
ENDMDL
MODEL 3
REMARK VINA RESULT:      -7.9      6.153     11.536
REMARK SMILES C/C(=N/OCc1ccccc1Nc1c(Cl)cccc1Cl)C(=O)OCCOCCOCCOC(=O)c1ccc(-c2c3nc(c(-c4ccccc4)c4ccc([nH]4)c(-c4ccccc4)c4nc(c(-c5ccccc5)c5ccc2[nH]5)C=C4)C=C3)cc1
REMARK SMILES IDX 26 1 25 2 24 3 23 4 21 5 22 6 2 7 1 8 3 9 4 10 5 11 6 12
REMARK SMILES IDX 7 13 11 14 8 15 10 16 9 17 12 18 13 20 14 21 19 22 15 23
REMARK SMILES IDX 16 24 18 25 20 26 17 27 27 28 28 29 29 30 30 31 31 32 32 33
REMARK SMILES IDX 33 34 34 35 35 36 36 37 82 38 37 39 81 40 38 41 39 42 40 43
REMARK SMILES IDX 75 44 41 45 80 46 74 47 76 48 42 49 79 50 73 51 72 52 43 54
REMARK SMILES IDX 65 55 50 56 64 57 51 58 54 59 63 60 77 61 52 62 53 63 62 65
REMARK SMILES IDX 78 66 55 67 44 68 45 69 49 70 46 71 48 72 47 73 66 74 67 75
REMARK SMILES IDX 71 76 68 77 70 78 69 79 56 80 57 81 61 82 58 83 60 84 59 85
REMARK H PARENT 12 19 76 53 54 64
REMARK Flexibility Score: inf
ROOT
ATOM      1  O   UNL A   1      32.431  29.088  23.994  1.00  0.00    -0.376 OA
ENDROOT
BRANCH   1   2
ATOM      2  C   UNL A   1      31.183  28.433  23.769  1.00  0.00     0.202 C 
BRANCH   2   3
ATOM      3  C   UNL A   1      30.986  27.788  22.398  1.00  0.00     0.261 C 
BRANCH   3   4
ATOM      4  O   UNL A   1      31.629  26.507  22.393  1.00  0.00    -0.459 OA
BRANCH   4   5
ATOM      5  C   UNL A   1      32.793  26.428  21.721  1.00  0.00     0.355 C 
ATOM      6  O   UNL A   1      33.827  27.034  21.941  1.00  0.00    -0.245 OA
BRANCH   5   7
ATOM      7  C   UNL A   1      32.752  25.194  20.841  1.00  0.00     0.161 C 
ATOM      8  C   UNL A   1      32.397  25.441  19.401  1.00  0.00     0.079 C 
ATOM      9  N   UNL A   1      33.042  23.982  21.218  1.00  0.00    -0.084 NA
BRANCH   9  10
ATOM     10  O   UNL A   1      33.241  23.897  22.606  1.00  0.00    -0.390 OA
BRANCH  10  11
ATOM     11  C   UNL A   1      32.141  23.190  23.207  1.00  0.00     0.302 C 
BRANCH  11  12
ATOM     12  C   UNL A   1      32.329  23.004  24.704  1.00  0.00     0.016 A 
ATOM     13  C   UNL A   1      31.239  23.286  25.549  1.00  0.00     0.009 A 
ATOM     14  C   UNL A   1      33.556  22.592  25.280  1.00  0.00     0.045 A 
ATOM     15  C   UNL A   1      31.345  23.135  26.931  1.00  0.00     0.001 A 
ATOM     16  C   UNL A   1      33.635  22.427  26.670  1.00  0.00     0.026 A 
ATOM     17  C   UNL A   1      32.538  22.694  27.489  1.00  0.00     0.002 A 
BRANCH  14  18
ATOM     18  N   UNL A   1      34.696  22.394  24.479  1.00  0.00    -0.353 N 
ATOM     19  H   UNL A   1      34.692  22.928  23.652  1.00  0.00     0.167 HD
BRANCH  18  20
ATOM     20  C   UNL A   1      35.845  21.582  24.623  1.00  0.00     0.076 A 
ATOM     21  C   UNL A   1      35.677  20.179  24.668  1.00  0.00     0.066 A 
ATOM     22  C   UNL A   1      37.127  22.086  24.926  1.00  0.00     0.066 A 
ATOM     23  Cl  UNL A   1      34.119  19.458  24.421  1.00  0.00    -0.082 Cl
ATOM     24  C   UNL A   1      36.740  19.318  24.964  1.00  0.00     0.023 A 
ATOM     25  C   UNL A   1      38.190  21.218  25.221  1.00  0.00     0.023 A 
ATOM     26  Cl  UNL A   1      37.454  23.777  25.089  1.00  0.00    -0.082 Cl
ATOM     27  C   UNL A   1      37.999  19.839  25.239  1.00  0.00     0.003 A 
ENDBRANCH  18  20
ENDBRANCH  14  18
ENDBRANCH  11  12
ENDBRANCH  10  11
ENDBRANCH   9  10
ENDBRANCH   5   7
ENDBRANCH   4   5
ENDBRANCH   3   4
ENDBRANCH   2   3
ENDBRANCH   1   2
BRANCH   1  28
ATOM     28  C   UNL A   1      32.898  29.223  25.325  1.00  0.00     0.188 C 
BRANCH  28  29
ATOM     29  C   UNL A   1      32.475  30.440  26.178  1.00  0.00     0.188 C 
BRANCH  29  30
ATOM     30  O   UNL A   1      33.187  30.806  27.344  1.00  0.00    -0.376 OA
BRANCH  30  31
ATOM     31  C   UNL A   1      33.422  32.176  27.618  1.00  0.00     0.202 C 
BRANCH  31  32
ATOM     32  C   UNL A   1      34.156  32.561  28.904  1.00  0.00     0.261 C 
BRANCH  32  33
ATOM     33  O   UNL A   1      34.082  33.959  29.221  1.00  0.00    -0.460 OA
BRANCH  33  34
ATOM     34  C   UNL A   1      34.238  34.260  30.534  1.00  0.00     0.338 C 
ATOM     35  O   UNL A   1      33.462  34.859  31.257  1.00  0.00    -0.246 OA
BRANCH  34  36
ATOM     36  C   UNL A   1      35.457  33.608  31.049  1.00  0.00     0.060 A 
ATOM     37  C   UNL A   1      36.693  33.992  30.511  1.00  0.00     0.016 A 
ATOM     38  C   UNL A   1      35.378  32.580  31.989  1.00  0.00     0.016 A 
ATOM     39  C   UNL A   1      37.856  33.321  30.887  1.00  0.00     0.010 A 
ATOM     40  C   UNL A   1      36.541  31.895  32.349  1.00  0.00     0.010 A 
ATOM     41  C   UNL A   1      37.779  32.240  31.776  1.00  0.00    -0.014 A 
BRANCH  41  42
ATOM     42  C   UNL A   1      38.952  31.359  31.981  1.00  0.00     0.031 A 
ATOM     43  C   UNL A   1      39.858  31.623  33.151  1.00  0.00     0.074 A 
ATOM     44  C   UNL A   1      39.218  30.347  31.138  1.00  0.00     0.049 A 
ATOM     45  N   UNL A   1      40.981  31.037  33.478  1.00  0.00    -0.248 NA
ATOM     46  C   UNL A   1      39.441  32.692  34.074  1.00  0.00     0.031 C 
ATOM     47  C   UNL A   1      38.396  29.955  29.994  1.00  0.00     0.029 A 
ATOM     48  N   UNL A   1      40.276  29.472  31.111  1.00  0.00    -0.354 N 
ATOM     49  C   UNL A   1      41.410  31.670  34.637  1.00  0.00     0.074 A 
ATOM     50  C   UNL A   1      40.437  32.697  34.947  1.00  0.00     0.031 C 
ATOM     51  C   UNL A   1      38.993  28.926  29.365  1.00  0.00     0.029 A 
ATOM     52  C   UNL A   1      40.251  28.613  30.041  1.00  0.00     0.049 A 
ATOM     53  H   UNL A   1      40.985  29.463  31.794  1.00  0.00     0.167 HD
ATOM     54  C   UNL A   1      42.514  31.422  35.381  1.00  0.00     0.031 A 
ATOM     55  C   UNL A   1      41.155  27.699  29.638  1.00  0.00     0.031 A 
ATOM     56  C   UNL A   1      43.496  30.421  35.066  1.00  0.00     0.049 A 
ATOM     57  C   UNL A   1      42.422  27.507  30.429  1.00  0.00     0.074 A 
ATOM     58  C   UNL A   1      44.645  30.091  35.765  1.00  0.00     0.029 A 
ATOM     59  N   UNL A   1      43.452  29.596  33.956  1.00  0.00    -0.354 N 
ATOM     60  N   UNL A   1      42.806  28.094  31.536  1.00  0.00    -0.248 NA
ATOM     61  C   UNL A   1      43.383  26.519  29.910  1.00  0.00     0.031 C 
ATOM     62  C   UNL A   1      45.322  29.101  35.047  1.00  0.00     0.029 A 
ATOM     63  C   UNL A   1      44.567  28.777  33.932  1.00  0.00     0.049 A 
ATOM     64  H   UNL A   1      42.734  29.594  33.281  1.00  0.00     0.167 HD
ATOM     65  C   UNL A   1      44.034  27.530  31.860  1.00  0.00     0.074 A 
ATOM     66  C   UNL A   1      44.328  26.546  30.839  1.00  0.00     0.031 C 
ATOM     67  C   UNL A   1      44.845  27.799  32.912  1.00  0.00     0.031 A 
BRANCH  54  68
ATOM     68  C   UNL A   1      42.734  32.282  36.592  1.00  0.00    -0.014 A 
ATOM     69  C   UNL A   1      42.215  31.920  37.844  1.00  0.00     0.009 A 
ATOM     70  C   UNL A   1      43.492  33.458  36.481  1.00  0.00     0.009 A 
ATOM     71  C   UNL A   1      42.426  32.737  38.957  1.00  0.00     0.001 A 
ATOM     72  C   UNL A   1      43.721  34.259  37.600  1.00  0.00     0.001 A 
ATOM     73  C   UNL A   1      43.182  33.903  38.835  1.00  0.00     0.000 A 
ENDBRANCH  54  68
BRANCH  55  74
ATOM     74  C   UNL A   1      40.917  26.909  28.402  1.00  0.00    -0.014 A 
ATOM     75  C   UNL A   1      41.411  27.351  27.167  1.00  0.00     0.009 A 
ATOM     76  C   UNL A   1      40.164  25.725  28.451  1.00  0.00     0.009 A 
ATOM     77  C   UNL A   1      41.135  26.635  25.999  1.00  0.00     0.001 A 
ATOM     78  C   UNL A   1      39.912  24.998  27.286  1.00  0.00     0.001 A 
ATOM     79  C   UNL A   1      40.389  25.459  26.059  1.00  0.00     0.000 A 
ENDBRANCH  55  74
BRANCH  67  80
ATOM     80  C   UNL A   1      46.107  26.994  33.039  1.00  0.00    -0.014 A 
ATOM     81  C   UNL A   1      46.122  25.762  33.711  1.00  0.00     0.009 A 
ATOM     82  C   UNL A   1      47.286  27.452  32.431  1.00  0.00     0.009 A 
ATOM     83  C   UNL A   1      47.302  25.019  33.793  1.00  0.00     0.001 A 
ATOM     84  C   UNL A   1      48.457  26.696  32.492  1.00  0.00     0.001 A 
ATOM     85  C   UNL A   1      48.466  25.483  33.181  1.00  0.00     0.000 A 
ENDBRANCH  67  80
ENDBRANCH  41  42
ENDBRANCH  34  36
ENDBRANCH  33  34
ENDBRANCH  32  33
ENDBRANCH  31  32
ENDBRANCH  30  31
ENDBRANCH  29  30
ENDBRANCH  28  29
ENDBRANCH   1  28
TORSDOF 22
ENDMDL
