MODEL 1
REMARK VINA RESULT:     -11.9      0.000      0.000
REMARK SMILES O=C(OCCOCCOCCOC(=O)c1ccc(-c2c3nc(c(-c4ccccc4)c4ccc([nH]4)c(-c4ccccc4)c4nc(c(-c5ccccc5)c5ccc2[nH]5)C=C4)C=C3)cc1)c1ccc(NC(=O)[C@@H]2CC=CC[C@H]2C(=O)Nc2cccc([N+](=O)[O-])c2)cc1
REMARK SMILES IDX 6 1 5 2 4 3 3 4 2 5 1 6 63 7 64 8 89 9 65 10 88 11 66 12
REMARK SMILES IDX 67 13 68 14 69 16 70 17 71 18 75 19 72 20 74 21 73 22 76 23
REMARK SMILES IDX 77 24 78 25 79 27 80 28 87 29 81 30 83 31 82 32 84 33 85 34
REMARK SMILES IDX 86 35 7 36 8 37 9 38 10 39 11 40 12 41 13 42 14 43 15 44
REMARK SMILES IDX 16 45 62 46 17 47 61 48 18 49 19 50 20 51 55 52 21 53 60 54
REMARK SMILES IDX 54 55 56 56 22 57 59 58 53 59 52 60 23 62 45 63 30 64 44 65
REMARK SMILES IDX 31 66 34 67 43 68 57 69 32 70 33 71 42 73 58 74 35 75 24 76
REMARK SMILES IDX 25 77 29 78 26 79 28 80 27 81 46 82 47 83 51 84 48 85 50 86
REMARK SMILES IDX 49 87 36 88 37 89 41 90 38 91 40 92 39 93
REMARK H PARENT 67 15 78 26 56 61 34 72
REMARK Flexibility Score: inf
ROOT
ATOM      1  O   UNL A   1      38.368  22.603  25.953  1.00  0.00    -0.376 OA
ENDROOT
BRANCH   1   2
ATOM      2  C   UNL A   1      36.988  22.474  25.605  1.00  0.00     0.202 C 
BRANCH   2   3
ATOM      3  C   UNL A   1      36.623  21.342  24.607  1.00  0.00     0.261 C 
BRANCH   3   4
ATOM      4  O   UNL A   1      35.662  20.370  25.128  1.00  0.00    -0.460 OA
BRANCH   4   5
ATOM      5  C   UNL A   1      34.372  20.150  24.703  1.00  0.00     0.338 C 
ATOM      6  O   UNL A   1      34.007  19.030  24.365  1.00  0.00    -0.246 OA
BRANCH   5   7
ATOM      7  C   UNL A   1      33.419  21.289  24.569  1.00  0.00     0.060 A 
ATOM      8  C   UNL A   1      33.167  22.032  25.676  1.00  0.00     0.018 A 
ATOM      9  C   UNL A   1      32.729  21.669  23.411  1.00  0.00     0.018 A 
ATOM     10  C   UNL A   1      32.055  22.832  25.737  1.00  0.00     0.027 A 
ATOM     11  C   UNL A   1      31.786  22.751  23.441  1.00  0.00     0.027 A 
ATOM     12  C   UNL A   1      31.423  23.379  24.647  1.00  0.00     0.041 A 
BRANCH  12  13
ATOM     13  N   UNL A   1      30.528  24.501  24.648  1.00  0.00    -0.326 N 
ATOM     14  C   UNL A   1      30.480  25.880  24.799  1.00  0.00     0.228 C 
ATOM     15  H   UNL A   1      29.615  24.172  24.480  1.00  0.00     0.169 HD
ATOM     16  O   UNL A   1      29.380  26.374  24.483  1.00  0.00    -0.274 OA
BRANCH  14  17
ATOM     17  C   UNL A   1      31.569  26.927  25.293  1.00  0.00     0.095 C 
ATOM     18  C   UNL A   1      31.733  26.904  26.825  1.00  0.00     0.041 C 
ATOM     19  C   UNL A   1      31.339  28.305  24.732  1.00  0.00     0.095 C 
ATOM     20  C   UNL A   1      32.049  28.210  27.505  1.00  0.00    -0.030 C 
ATOM     21  C   UNL A   1      31.332  29.587  25.587  1.00  0.00     0.041 C 
ATOM     22  C   UNL A   1      31.872  29.414  26.953  1.00  0.00    -0.030 C 
BRANCH  19  23
ATOM     23  C   UNL A   1      31.549  28.280  23.178  1.00  0.00     0.228 C 
ATOM     24  O   UNL A   1      32.659  28.067  22.684  1.00  0.00    -0.274 OA
ATOM     25  N   UNL A   1      30.508  28.321  22.303  1.00  0.00    -0.326 N 
ATOM     26  H   UNL A   1      30.564  27.723  21.524  1.00  0.00     0.169 HD
BRANCH  25  27
ATOM     27  C   UNL A   1      29.372  29.118  22.393  1.00  0.00     0.048 A 
ATOM     28  C   UNL A   1      28.225  28.586  22.977  1.00  0.00     0.026 A 
ATOM     29  C   UNL A   1      29.418  30.447  21.972  1.00  0.00     0.111 A 
ATOM     30  C   UNL A   1      27.165  29.438  23.289  1.00  0.00     0.009 A 
ATOM     31  C   UNL A   1      28.375  31.300  22.324  1.00  0.00     0.271 A 
ATOM     32  C   UNL A   1      27.249  30.803  22.995  1.00  0.00     0.086 A 
BRANCH  31  33
ATOM     33  N   UNL A   1      28.537  32.738  22.099  1.00  0.00     0.062 N 
ATOM     34  O   UNL A   1      28.077  33.210  21.051  1.00  0.00    -0.258 OA
ATOM     35  O   UNL A   1      29.098  33.400  22.985  1.00  0.00    -0.258 OA
ENDBRANCH  31  33
ENDBRANCH  25  27
ENDBRANCH  19  23
ENDBRANCH  14  17
ENDBRANCH  12  13
ENDBRANCH   5   7
ENDBRANCH   4   5
ENDBRANCH   3   4
ENDBRANCH   2   3
ENDBRANCH   1   2
BRANCH   1  36
ATOM     36  C   UNL A   1      39.107  21.382  25.815  1.00  0.00     0.188 C 
BRANCH  36  37
ATOM     37  C   UNL A   1      40.377  21.414  26.671  1.00  0.00     0.188 C 
BRANCH  37  38
ATOM     38  O   UNL A   1      41.336  20.437  26.270  1.00  0.00    -0.376 OA
BRANCH  38  39
ATOM     39  C   UNL A   1      42.661  20.933  26.063  1.00  0.00     0.202 C 
BRANCH  39  40
ATOM     40  C   UNL A   1      42.696  22.351  25.480  1.00  0.00     0.261 C 
BRANCH  40  41
ATOM     41  O   UNL A   1      44.048  22.825  25.306  1.00  0.00    -0.460 OA
BRANCH  41  42
ATOM     42  C   UNL A   1      44.651  23.296  26.422  1.00  0.00     0.338 C 
ATOM     43  O   UNL A   1      45.741  22.988  26.866  1.00  0.00    -0.246 OA
BRANCH  42  44
ATOM     44  C   UNL A   1      43.824  24.355  27.028  1.00  0.00     0.060 A 
ATOM     45  C   UNL A   1      44.101  25.692  26.716  1.00  0.00     0.016 A 
ATOM     46  C   UNL A   1      42.892  24.037  28.014  1.00  0.00     0.016 A 
ATOM     47  C   UNL A   1      43.490  26.721  27.437  1.00  0.00     0.010 A 
ATOM     48  C   UNL A   1      42.279  25.068  28.731  1.00  0.00     0.010 A 
ATOM     49  C   UNL A   1      42.608  26.414  28.480  1.00  0.00    -0.014 A 
BRANCH  49  50
ATOM     50  C   UNL A   1      42.158  27.445  29.451  1.00  0.00     0.031 A 
ATOM     51  C   UNL A   1      42.849  27.526  30.782  1.00  0.00     0.074 A 
ATOM     52  C   UNL A   1      41.123  28.264  29.200  1.00  0.00     0.049 A 
ATOM     53  N   UNL A   1      42.513  28.195  31.854  1.00  0.00    -0.248 NA
ATOM     54  C   UNL A   1      44.087  26.742  30.918  1.00  0.00     0.031 C 
ATOM     55  C   UNL A   1      40.418  28.359  27.930  1.00  0.00     0.029 A 
ATOM     56  N   UNL A   1      40.457  29.142  30.021  1.00  0.00    -0.354 N 
ATOM     57  C   UNL A   1      43.485  27.898  32.798  1.00  0.00     0.074 A 
ATOM     58  C   UNL A   1      44.404  26.963  32.184  1.00  0.00     0.031 C 
ATOM     59  C   UNL A   1      39.368  29.185  28.071  1.00  0.00     0.029 A 
ATOM     60  C   UNL A   1      39.319  29.657  29.452  1.00  0.00     0.049 A 
ATOM     61  H   UNL A   1      40.765  29.376  30.926  1.00  0.00     0.167 HD
ATOM     62  C   UNL A   1      43.608  28.367  34.061  1.00  0.00     0.031 A 
ATOM     63  C   UNL A   1      38.323  30.391  29.987  1.00  0.00     0.031 A 
ATOM     64  C   UNL A   1      42.691  29.290  34.673  1.00  0.00     0.049 A 
ATOM     65  C   UNL A   1      38.412  30.816  31.426  1.00  0.00     0.074 A 
ATOM     66  C   UNL A   1      42.747  29.847  35.939  1.00  0.00     0.029 A 
ATOM     67  N   UNL A   1      41.546  29.782  34.068  1.00  0.00    -0.354 N 
ATOM     68  N   UNL A   1      39.347  30.553  32.306  1.00  0.00    -0.248 NA
ATOM     69  C   UNL A   1      37.324  31.660  31.939  1.00  0.00     0.031 C 
ATOM     70  C   UNL A   1      41.603  30.632  36.120  1.00  0.00     0.029 A 
ATOM     71  C   UNL A   1      40.870  30.615  34.944  1.00  0.00     0.049 A 
ATOM     72  H   UNL A   1      41.256  29.571  33.151  1.00  0.00     0.167 HD
ATOM     73  C   UNL A   1      38.985  31.237  33.460  1.00  0.00     0.074 A 
ATOM     74  C   UNL A   1      37.742  31.920  33.171  1.00  0.00     0.031 C 
ATOM     75  C   UNL A   1      39.638  31.301  34.645  1.00  0.00     0.031 A 
BRANCH  62  76
ATOM     76  C   UNL A   1      44.760  27.847  34.873  1.00  0.00    -0.014 A 
ATOM     77  C   UNL A   1      45.908  28.624  35.099  1.00  0.00     0.009 A 
ATOM     78  C   UNL A   1      44.696  26.554  35.414  1.00  0.00     0.009 A 
ATOM     79  C   UNL A   1      46.986  28.098  35.813  1.00  0.00     0.001 A 
ATOM     80  C   UNL A   1      45.763  26.043  36.154  1.00  0.00     0.001 A 
ATOM     81  C   UNL A   1      46.912  26.811  36.341  1.00  0.00     0.000 A 
ENDBRANCH  62  76
BRANCH  63  82
ATOM     82  C   UNL A   1      37.151  30.762  29.153  1.00  0.00    -0.014 A 
ATOM     83  C   UNL A   1      36.880  32.107  28.860  1.00  0.00     0.009 A 
ATOM     84  C   UNL A   1      36.303  29.771  28.635  1.00  0.00     0.009 A 
ATOM     85  C   UNL A   1      35.773  32.453  28.082  1.00  0.00     0.001 A 
ATOM     86  C   UNL A   1      35.209  30.119  27.838  1.00  0.00     0.001 A 
ATOM     87  C   UNL A   1      34.941  31.459  27.569  1.00  0.00     0.000 A 
ENDBRANCH  63  82
BRANCH  75  88
ATOM     88  C   UNL A   1      39.063  32.192  35.709  1.00  0.00    -0.014 A 
ATOM     89  C   UNL A   1      38.190  31.699  36.690  1.00  0.00     0.009 A 
ATOM     90  C   UNL A   1      39.460  33.539  35.766  1.00  0.00     0.009 A 
ATOM     91  C   UNL A   1      37.709  32.544  37.694  1.00  0.00     0.001 A 
ATOM     92  C   UNL A   1      39.000  34.372  36.786  1.00  0.00     0.001 A 
ATOM     93  C   UNL A   1      38.120  33.876  37.746  1.00  0.00     0.000 A 
ENDBRANCH  75  88
ENDBRANCH  49  50
ENDBRANCH  42  44
ENDBRANCH  41  42
ENDBRANCH  40  41
ENDBRANCH  39  40
ENDBRANCH  38  39
ENDBRANCH  37  38
ENDBRANCH  36  37
ENDBRANCH   1  36
TORSDOF 22
ENDMDL
MODEL 2
REMARK VINA RESULT:     -11.2      6.424      9.677
REMARK SMILES O=C(OCCOCCOCCOC(=O)c1ccc(-c2c3nc(c(-c4ccccc4)c4ccc([nH]4)c(-c4ccccc4)c4nc(c(-c5ccccc5)c5ccc2[nH]5)C=C4)C=C3)cc1)c1ccc(NC(=O)[C@@H]2CC=CC[C@H]2C(=O)Nc2cccc([N+](=O)[O-])c2)cc1
REMARK SMILES IDX 6 1 5 2 4 3 3 4 2 5 1 6 63 7 64 8 89 9 65 10 88 11 66 12
REMARK SMILES IDX 67 13 68 14 69 16 70 17 71 18 75 19 72 20 74 21 73 22 76 23
REMARK SMILES IDX 77 24 78 25 79 27 80 28 87 29 81 30 83 31 82 32 84 33 85 34
REMARK SMILES IDX 86 35 7 36 8 37 9 38 10 39 11 40 12 41 13 42 14 43 15 44
REMARK SMILES IDX 16 45 62 46 17 47 61 48 18 49 19 50 20 51 55 52 21 53 60 54
REMARK SMILES IDX 54 55 56 56 22 57 59 58 53 59 52 60 23 62 45 63 30 64 44 65
REMARK SMILES IDX 31 66 34 67 43 68 57 69 32 70 33 71 42 73 58 74 35 75 24 76
REMARK SMILES IDX 25 77 29 78 26 79 28 80 27 81 46 82 47 83 51 84 48 85 50 86
REMARK SMILES IDX 49 87 36 88 37 89 41 90 38 91 40 92 39 93
REMARK H PARENT 67 15 78 26 56 61 34 72
REMARK Flexibility Score: inf
ROOT
ATOM      1  O   UNL A   1      37.941  22.357  25.675  1.00  0.00    -0.376 OA
ENDROOT
BRANCH   1   2
ATOM      2  C   UNL A   1      36.581  21.925  25.751  1.00  0.00     0.202 C 
BRANCH   2   3
ATOM      3  C   UNL A   1      35.991  21.253  24.481  1.00  0.00     0.261 C 
BRANCH   3   4
ATOM      4  O   UNL A   1      35.169  20.074  24.755  1.00  0.00    -0.460 OA
BRANCH   4   5
ATOM      5  C   UNL A   1      33.800  19.964  24.675  1.00  0.00     0.338 C 
ATOM      6  O   UNL A   1      33.260  18.865  24.656  1.00  0.00    -0.246 OA
BRANCH   5   7
ATOM      7  C   UNL A   1      32.954  21.184  24.525  1.00  0.00     0.060 A 
ATOM      8  C   UNL A   1      32.497  21.775  25.657  1.00  0.00     0.018 A 
ATOM      9  C   UNL A   1      32.558  21.783  23.322  1.00  0.00     0.018 A 
ATOM     10  C   UNL A   1      31.438  22.645  25.606  1.00  0.00     0.027 A 
ATOM     11  C   UNL A   1      31.683  22.921  23.324  1.00  0.00     0.027 A 
ATOM     12  C   UNL A   1      31.091  23.393  24.509  1.00  0.00     0.041 A 
BRANCH  12  13
ATOM     13  N   UNL A   1      30.271  24.572  24.499  1.00  0.00    -0.326 N 
ATOM     14  C   UNL A   1      30.313  25.952  24.641  1.00  0.00     0.228 C 
ATOM     15  H   UNL A   1      29.339  24.303  24.328  1.00  0.00     0.169 HD
ATOM     16  O   UNL A   1      29.249  26.515  24.317  1.00  0.00    -0.274 OA
BRANCH  14  17
ATOM     17  C   UNL A   1      31.466  26.929  25.135  1.00  0.00     0.095 C 
ATOM     18  C   UNL A   1      31.686  26.831  26.657  1.00  0.00     0.041 C 
ATOM     19  C   UNL A   1      31.277  28.338  24.642  1.00  0.00     0.095 C 
ATOM     20  C   UNL A   1      32.086  28.092  27.379  1.00  0.00    -0.030 C 
ATOM     21  C   UNL A   1      31.360  29.581  25.550  1.00  0.00     0.041 C 
ATOM     22  C   UNL A   1      31.943  29.325  26.886  1.00  0.00    -0.030 C 
BRANCH  19  23
ATOM     23  C   UNL A   1      31.427  28.372  23.082  1.00  0.00     0.228 C 
ATOM     24  O   UNL A   1      32.503  28.116  22.535  1.00  0.00    -0.274 OA
ATOM     25  N   UNL A   1      30.358  28.516  22.252  1.00  0.00    -0.326 N 
ATOM     26  H   UNL A   1      30.348  27.951  21.445  1.00  0.00     0.169 HD
BRANCH  25  27
ATOM     27  C   UNL A   1      29.278  29.374  22.421  1.00  0.00     0.048 A 
ATOM     28  C   UNL A   1      28.072  28.851  22.883  1.00  0.00     0.026 A 
ATOM     29  C   UNL A   1      29.434  30.742  22.203  1.00  0.00     0.111 A 
ATOM     30  C   UNL A   1      27.061  29.725  23.283  1.00  0.00     0.009 A 
ATOM     31  C   UNL A   1      28.438  31.611  22.644  1.00  0.00     0.271 A 
ATOM     32  C   UNL A   1      27.253  31.109  23.197  1.00  0.00     0.086 A 
BRANCH  31  33
ATOM     33  N   UNL A   1      28.710  33.051  22.640  1.00  0.00     0.062 N 
ATOM     34  O   UNL A   1      29.634  33.462  23.355  1.00  0.00    -0.258 OA
ATOM     35  O   UNL A   1      28.022  33.765  21.897  1.00  0.00    -0.258 OA
ENDBRANCH  31  33
ENDBRANCH  25  27
ENDBRANCH  19  23
ENDBRANCH  14  17
ENDBRANCH  12  13
ENDBRANCH   5   7
ENDBRANCH   4   5
ENDBRANCH   3   4
ENDBRANCH   2   3
ENDBRANCH   1   2
BRANCH   1  36
ATOM     36  C   UNL A   1      38.884  21.338  26.037  1.00  0.00     0.188 C 
BRANCH  36  37
ATOM     37  C   UNL A   1      40.319  21.861  25.933  1.00  0.00     0.188 C 
BRANCH  37  38
ATOM     38  O   UNL A   1      41.260  21.025  26.605  1.00  0.00    -0.376 OA
BRANCH  38  39
ATOM     39  C   UNL A   1      41.573  21.414  27.944  1.00  0.00     0.202 C 
BRANCH  39  40
ATOM     40  C   UNL A   1      42.909  22.159  28.065  1.00  0.00     0.261 C 
BRANCH  40  41
ATOM     41  O   UNL A   1      42.902  23.396  27.322  1.00  0.00    -0.460 OA
BRANCH  41  42
ATOM     42  C   UNL A   1      43.910  23.550  26.433  1.00  0.00     0.338 C 
ATOM     43  O   UNL A   1      44.314  22.740  25.618  1.00  0.00    -0.246 OA
BRANCH  42  44
ATOM     44  C   UNL A   1      44.439  24.924  26.508  1.00  0.00     0.060 A 
ATOM     45  C   UNL A   1      44.598  25.653  25.323  1.00  0.00     0.016 A 
ATOM     46  C   UNL A   1      44.920  25.423  27.717  1.00  0.00     0.016 A 
ATOM     47  C   UNL A   1      45.298  26.863  25.333  1.00  0.00     0.010 A 
ATOM     48  C   UNL A   1      45.617  26.634  27.725  1.00  0.00     0.010 A 
ATOM     49  C   UNL A   1      45.851  27.338  26.529  1.00  0.00    -0.014 A 
BRANCH  49  50
ATOM     50  C   UNL A   1      46.834  28.453  26.545  1.00  0.00     0.031 A 
ATOM     51  C   UNL A   1      46.318  29.862  26.612  1.00  0.00     0.074 A 
ATOM     52  C   UNL A   1      48.157  28.244  26.446  1.00  0.00     0.049 A 
ATOM     53  N   UNL A   1      46.956  30.990  26.439  1.00  0.00    -0.248 NA
ATOM     54  C   UNL A   1      44.885  30.015  26.913  1.00  0.00     0.031 C 
ATOM     55  C   UNL A   1      48.803  26.940  26.461  1.00  0.00     0.029 A 
ATOM     56  N   UNL A   1      49.191  29.130  26.267  1.00  0.00    -0.354 N 
ATOM     57  C   UNL A   1      46.002  31.985  26.590  1.00  0.00     0.074 A 
ATOM     58  C   UNL A   1      44.736  31.327  26.834  1.00  0.00     0.031 C 
ATOM     59  C   UNL A   1      50.115  27.097  26.221  1.00  0.00     0.029 A 
ATOM     60  C   UNL A   1      50.392  28.515  26.012  1.00  0.00     0.049 A 
ATOM     61  H   UNL A   1      49.082  30.107  26.316  1.00  0.00     0.167 HD
ATOM     62  C   UNL A   1      46.165  33.327  26.538  1.00  0.00     0.031 A 
ATOM     63  C   UNL A   1      51.574  29.025  25.614  1.00  0.00     0.031 A 
ATOM     64  C   UNL A   1      47.421  33.980  26.289  1.00  0.00     0.049 A 
ATOM     65  C   UNL A   1      51.718  30.512  25.450  1.00  0.00     0.074 A 
ATOM     66  C   UNL A   1      47.693  35.337  26.246  1.00  0.00     0.029 A 
ATOM     67  N   UNL A   1      48.613  33.323  26.027  1.00  0.00    -0.354 N 
ATOM     68  N   UNL A   1      50.818  31.451  25.620  1.00  0.00    -0.248 NA
ATOM     69  C   UNL A   1      53.045  31.016  25.067  1.00  0.00     0.031 C 
ATOM     70  C   UNL A   1      49.039  35.500  25.902  1.00  0.00     0.029 A 
ATOM     71  C   UNL A   1      49.618  34.246  25.794  1.00  0.00     0.049 A 
ATOM     72  H   UNL A   1      48.727  32.346  26.009  1.00  0.00     0.167 HD
ATOM     73  C   UNL A   1      51.479  32.653  25.410  1.00  0.00     0.074 A 
ATOM     74  C   UNL A   1      52.854  32.328  25.095  1.00  0.00     0.031 C 
ATOM     75  C   UNL A   1      50.988  33.914  25.491  1.00  0.00     0.031 A 
BRANCH  62  76
ATOM     76  C   UNL A   1      44.935  34.170  26.716  1.00  0.00    -0.014 A 
ATOM     77  C   UNL A   1      44.567  34.677  27.974  1.00  0.00     0.009 A 
ATOM     78  C   UNL A   1      44.127  34.457  25.605  1.00  0.00     0.009 A 
ATOM     79  C   UNL A   1      43.391  35.414  28.121  1.00  0.00     0.001 A 
ATOM     80  C   UNL A   1      42.969  35.222  25.750  1.00  0.00     0.001 A 
ATOM     81  C   UNL A   1      42.595  35.688  27.010  1.00  0.00     0.000 A 
ENDBRANCH  62  76
BRANCH  63  82
ATOM     82  C   UNL A   1      52.714  28.115  25.336  1.00  0.00    -0.014 A 
ATOM     83  C   UNL A   1      53.617  27.767  26.352  1.00  0.00     0.009 A 
ATOM     84  C   UNL A   1      52.899  27.577  24.052  1.00  0.00     0.009 A 
ATOM     85  C   UNL A   1      54.691  26.916  26.085  1.00  0.00     0.001 A 
ATOM     86  C   UNL A   1      53.962  26.708  23.793  1.00  0.00     0.001 A 
ATOM     87  C   UNL A   1      54.861  26.384  24.807  1.00  0.00     0.000 A 
ENDBRANCH  63  82
BRANCH  75  88
ATOM     88  C   UNL A   1      51.952  35.050  25.299  1.00  0.00    -0.014 A 
ATOM     89  C   UNL A   1      52.727  35.546  26.359  1.00  0.00     0.009 A 
ATOM     90  C   UNL A   1      52.134  35.587  24.014  1.00  0.00     0.009 A 
ATOM     91  C   UNL A   1      53.649  36.572  26.138  1.00  0.00     0.001 A 
ATOM     92  C   UNL A   1      53.075  36.593  23.791  1.00  0.00     0.001 A 
ATOM     93  C   UNL A   1      53.827  37.089  24.854  1.00  0.00     0.000 A 
ENDBRANCH  75  88
ENDBRANCH  49  50
ENDBRANCH  42  44
ENDBRANCH  41  42
ENDBRANCH  40  41
ENDBRANCH  39  40
ENDBRANCH  38  39
ENDBRANCH  37  38
ENDBRANCH  36  37
ENDBRANCH   1  36
TORSDOF 22
ENDMDL
MODEL 3
REMARK VINA RESULT:     -10.2      2.306      6.867
REMARK SMILES O=C(OCCOCCOCCOC(=O)c1ccc(-c2c3nc(c(-c4ccccc4)c4ccc([nH]4)c(-c4ccccc4)c4nc(c(-c5ccccc5)c5ccc2[nH]5)C=C4)C=C3)cc1)c1ccc(NC(=O)[C@@H]2CC=CC[C@H]2C(=O)Nc2cccc([N+](=O)[O-])c2)cc1
REMARK SMILES IDX 6 1 5 2 4 3 3 4 2 5 1 6 63 7 64 8 89 9 65 10 88 11 66 12
REMARK SMILES IDX 67 13 68 14 69 16 70 17 71 18 75 19 72 20 74 21 73 22 76 23
REMARK SMILES IDX 77 24 78 25 79 27 80 28 87 29 81 30 83 31 82 32 84 33 85 34
REMARK SMILES IDX 86 35 7 36 8 37 9 38 10 39 11 40 12 41 13 42 14 43 15 44
REMARK SMILES IDX 16 45 62 46 17 47 61 48 18 49 19 50 20 51 55 52 21 53 60 54
REMARK SMILES IDX 54 55 56 56 22 57 59 58 53 59 52 60 23 62 45 63 30 64 44 65
REMARK SMILES IDX 31 66 34 67 43 68 57 69 32 70 33 71 42 73 58 74 35 75 24 76
REMARK SMILES IDX 25 77 29 78 26 79 28 80 27 81 46 82 47 83 51 84 48 85 50 86
REMARK SMILES IDX 49 87 36 88 37 89 41 90 38 91 40 92 39 93
REMARK H PARENT 67 15 78 26 56 61 34 72
REMARK Flexibility Score: inf
ROOT
ATOM      1  O   UNL A   1      42.985  20.424  25.061  1.00  0.00    -0.376 OA
ENDROOT
BRANCH   1   2
ATOM      2  C   UNL A   1      42.846  19.361  26.006  1.00  0.00     0.202 C 
BRANCH   2   3
ATOM      3  C   UNL A   1      42.109  19.698  27.331  1.00  0.00     0.261 C 
BRANCH   3   4
ATOM      4  O   UNL A   1      40.740  20.180  27.149  1.00  0.00    -0.460 OA
BRANCH   4   5
ATOM      5  C   UNL A   1      40.298  21.483  27.155  1.00  0.00     0.338 C 
ATOM      6  O   UNL A   1      40.720  22.283  27.982  1.00  0.00    -0.246 OA
BRANCH   5   7
ATOM      7  C   UNL A   1      39.234  21.922  26.206  1.00  0.00     0.060 A 
ATOM      8  C   UNL A   1      38.933  23.244  26.166  1.00  0.00     0.018 A 
ATOM      9  C   UNL A   1      38.485  21.100  25.353  1.00  0.00     0.018 A 
ATOM     10  C   UNL A   1      37.749  23.670  25.621  1.00  0.00     0.027 A 
ATOM     11  C   UNL A   1      37.441  21.651  24.537  1.00  0.00     0.027 A 
ATOM     12  C   UNL A   1      37.043  22.995  24.656  1.00  0.00     0.041 A 
BRANCH  12  13
ATOM     13  N   UNL A   1      36.041  23.543  23.785  1.00  0.00    -0.326 N 
ATOM     14  C   UNL A   1      34.719  23.965  23.746  1.00  0.00     0.228 C 
ATOM     15  H   UNL A   1      36.436  23.662  22.891  1.00  0.00     0.169 HD
ATOM     16  O   UNL A   1      34.426  24.570  22.696  1.00  0.00    -0.274 OA
BRANCH  14  17
ATOM     17  C   UNL A   1      33.532  23.819  24.792  1.00  0.00     0.095 C 
ATOM     18  C   UNL A   1      34.019  24.005  26.242  1.00  0.00     0.041 C 
ATOM     19  C   UNL A   1      32.731  22.561  24.581  1.00  0.00     0.095 C 
ATOM     20  C   UNL A   1      33.334  23.191  27.309  1.00  0.00    -0.030 C 
ATOM     21  C   UNL A   1      32.368  21.578  25.711  1.00  0.00     0.041 C 
ATOM     22  C   UNL A   1      32.593  22.104  27.076  1.00  0.00    -0.030 C 
BRANCH  19  23
ATOM     23  C   UNL A   1      31.985  22.640  23.204  1.00  0.00     0.228 C 
ATOM     24  O   UNL A   1      32.258  21.868  22.281  1.00  0.00    -0.274 OA
ATOM     25  N   UNL A   1      30.899  23.437  23.011  1.00  0.00    -0.326 N 
ATOM     26  H   UNL A   1      30.158  23.051  22.491  1.00  0.00     0.169 HD
BRANCH  25  27
ATOM     27  C   UNL A   1      30.725  24.738  23.468  1.00  0.00     0.048 A 
ATOM     28  C   UNL A   1      30.126  24.937  24.710  1.00  0.00     0.026 A 
ATOM     29  C   UNL A   1      31.215  25.811  22.724  1.00  0.00     0.111 A 
ATOM     30  C   UNL A   1      30.161  26.208  25.285  1.00  0.00     0.009 A 
ATOM     31  C   UNL A   1      31.285  27.067  23.321  1.00  0.00     0.271 A 
ATOM     32  C   UNL A   1      30.770  27.270  24.608  1.00  0.00     0.086 A 
BRANCH  31  33
ATOM     33  N   UNL A   1      32.022  28.131  22.634  1.00  0.00     0.062 N 
ATOM     34  O   UNL A   1      33.170  27.876  22.248  1.00  0.00    -0.258 OA
ATOM     35  O   UNL A   1      31.440  29.210  22.452  1.00  0.00    -0.258 OA
ENDBRANCH  31  33
ENDBRANCH  25  27
ENDBRANCH  19  23
ENDBRANCH  14  17
ENDBRANCH  12  13
ENDBRANCH   5   7
ENDBRANCH   4   5
ENDBRANCH   3   4
ENDBRANCH   2   3
ENDBRANCH   1   2
BRANCH   1  36
ATOM     36  C   UNL A   1      44.130  21.254  25.300  1.00  0.00     0.188 C 
BRANCH  36  37
ATOM     37  C   UNL A   1      43.915  22.657  24.724  1.00  0.00     0.188 C 
BRANCH  37  38
ATOM     38  O   UNL A   1      45.047  23.506  24.908  1.00  0.00    -0.376 OA
BRANCH  38  39
ATOM     39  C   UNL A   1      44.746  24.844  25.311  1.00  0.00     0.202 C 
BRANCH  39  40
ATOM     40  C   UNL A   1      44.123  24.933  26.710  1.00  0.00     0.261 C 
BRANCH  40  41
ATOM     41  O   UNL A   1      44.774  24.046  27.644  1.00  0.00    -0.460 OA
BRANCH  41  42
ATOM     42  C   UNL A   1      45.910  24.521  28.206  1.00  0.00     0.338 C 
ATOM     43  O   UNL A   1      47.041  24.465  27.761  1.00  0.00    -0.246 OA
BRANCH  42  44
ATOM     44  C   UNL A   1      45.588  25.236  29.455  1.00  0.00     0.060 A 
ATOM     45  C   UNL A   1      44.840  24.577  30.438  1.00  0.00     0.016 A 
ATOM     46  C   UNL A   1      45.885  26.591  29.581  1.00  0.00     0.016 A 
ATOM     47  C   UNL A   1      44.331  25.289  31.527  1.00  0.00     0.010 A 
ATOM     48  C   UNL A   1      45.378  27.301  30.672  1.00  0.00     0.010 A 
ATOM     49  C   UNL A   1      44.560  26.667  31.626  1.00  0.00    -0.014 A 
BRANCH  49  50
ATOM     50  C   UNL A   1      43.814  27.515  32.593  1.00  0.00     0.031 A 
ATOM     51  C   UNL A   1      42.541  28.170  32.138  1.00  0.00     0.074 A 
ATOM     52  C   UNL A   1      44.267  27.756  33.834  1.00  0.00     0.049 A 
ATOM     53  N   UNL A   1      41.829  29.098  32.722  1.00  0.00    -0.248 NA
ATOM     54  C   UNL A   1      42.002  27.713  30.847  1.00  0.00     0.031 C 
ATOM     55  C   UNL A   1      45.432  27.126  34.439  1.00  0.00     0.029 A 
ATOM     56  N   UNL A   1      43.824  28.634  34.793  1.00  0.00    -0.354 N 
ATOM     57  C   UNL A   1      40.770  29.352  31.863  1.00  0.00     0.074 A 
ATOM     58  C   UNL A   1      40.952  28.505  30.703  1.00  0.00     0.031 C 
ATOM     59  C   UNL A   1      45.664  27.688  35.636  1.00  0.00     0.029 A 
ATOM     60  C   UNL A   1      44.674  28.736  35.867  1.00  0.00     0.049 A 
ATOM     61  H   UNL A   1      42.983  29.140  34.718  1.00  0.00     0.167 HD
ATOM     62  C   UNL A   1      39.735  30.207  32.026  1.00  0.00     0.031 A 
ATOM     63  C   UNL A   1      44.683  29.600  36.902  1.00  0.00     0.031 A 
ATOM     64  C   UNL A   1      39.560  31.054  33.175  1.00  0.00     0.049 A 
ATOM     65  C   UNL A   1      43.589  30.623  37.018  1.00  0.00     0.074 A 
ATOM     66  C   UNL A   1      38.527  31.934  33.446  1.00  0.00     0.029 A 
ATOM     67  N   UNL A   1      40.446  31.134  34.238  1.00  0.00    -0.354 N 
ATOM     68  N   UNL A   1      42.576  30.841  36.215  1.00  0.00    -0.248 NA
ATOM     69  C   UNL A   1      43.622  31.503  38.195  1.00  0.00     0.031 C 
ATOM     70  C   UNL A   1      38.817  32.589  34.647  1.00  0.00     0.029 A 
ATOM     71  C   UNL A   1      39.998  32.070  35.154  1.00  0.00     0.049 A 
ATOM     72  H   UNL A   1      41.270  30.605  34.327  1.00  0.00     0.167 HD
ATOM     73  C   UNL A   1      41.828  31.847  36.812  1.00  0.00     0.074 A 
ATOM     74  C   UNL A   1      42.505  32.202  38.041  1.00  0.00     0.031 C 
ATOM     75  C   UNL A   1      40.672  32.410  36.382  1.00  0.00     0.031 A 
BRANCH  62  76
ATOM     76  C   UNL A   1      38.738  30.293  30.906  1.00  0.00    -0.014 A 
ATOM     77  C   UNL A   1      38.861  31.250  29.886  1.00  0.00     0.009 A 
ATOM     78  C   UNL A   1      37.654  29.402  30.877  1.00  0.00     0.009 A 
ATOM     79  C   UNL A   1      37.892  31.342  28.884  1.00  0.00     0.001 A 
ATOM     80  C   UNL A   1      36.705  29.476  29.857  1.00  0.00     0.001 A 
ATOM     81  C   UNL A   1      36.818  30.454  28.869  1.00  0.00     0.000 A 
ENDBRANCH  62  76
BRANCH  63  82
ATOM     82  C   UNL A   1      45.776  29.535  37.906  1.00  0.00    -0.014 A 
ATOM     83  C   UNL A   1      45.680  28.679  39.013  1.00  0.00     0.009 A 
ATOM     84  C   UNL A   1      46.929  30.322  37.756  1.00  0.00     0.009 A 
ATOM     85  C   UNL A   1      46.706  28.625  39.959  1.00  0.00     0.001 A 
ATOM     86  C   UNL A   1      47.964  30.251  38.692  1.00  0.00     0.001 A 
ATOM     87  C   UNL A   1      47.849  29.408  39.795  1.00  0.00     0.000 A 
ENDBRANCH  63  82
BRANCH  75  88
ATOM     88  C   UNL A   1      40.021  33.429  37.274  1.00  0.00    -0.014 A 
ATOM     89  C   UNL A   1      39.157  33.053  38.313  1.00  0.00     0.009 A 
ATOM     90  C   UNL A   1      40.336  34.788  37.109  1.00  0.00     0.009 A 
ATOM     91  C   UNL A   1      38.603  34.021  39.155  1.00  0.00     0.001 A 
ATOM     92  C   UNL A   1      39.804  35.750  37.968  1.00  0.00     0.001 A 
ATOM     93  C   UNL A   1      38.933  35.366  38.987  1.00  0.00     0.000 A 
ENDBRANCH  75  88
ENDBRANCH  49  50
ENDBRANCH  42  44
ENDBRANCH  41  42
ENDBRANCH  40  41
ENDBRANCH  39  40
ENDBRANCH  38  39
ENDBRANCH  37  38
ENDBRANCH  36  37
ENDBRANCH   1  36
TORSDOF 22
ENDMDL
