MODEL 1
REMARK VINA RESULT:     -12.3      0.000      0.000
REMARK SMILES Cc1cc(C(=O)OCCOCCOCCOC(=O)c2ccc(-c3c4nc(c(-c5ccccc5)c5ccc([nH]5)c(-c5ccccc5)c5nc(c(-c6ccccc6)c6ccc3[nH]6)C=C5)C=C4)cc2)ccc1NS(=O)(=O)c1c(F)cccc1F
REMARK SMILES IDX 11 1 10 2 9 3 8 4 7 5 5 6 6 7 4 8 1 9 2 10 3 11 69 12 68 13
REMARK SMILES IDX 67 14 70 15 71 17 72 18 73 19 74 20 75 21 80 22 76 23 77 24
REMARK SMILES IDX 79 25 81 26 78 27 12 28 13 29 14 30 15 31 16 32 17 33 18 34
REMARK SMILES IDX 19 35 20 36 66 37 21 38 65 39 22 40 23 41 24 42 59 43 25 44
REMARK SMILES IDX 64 45 58 46 60 47 26 48 63 49 57 50 56 51 27 53 49 54 34 55
REMARK SMILES IDX 48 56 35 57 38 58 47 59 61 60 36 61 37 62 46 64 62 65 39 66
REMARK SMILES IDX 28 67 29 68 33 69 30 70 32 71 31 72 50 73 51 74 55 75 52 76
REMARK SMILES IDX 54 77 53 78 40 79 41 80 45 81 42 82 44 83 43 84
REMARK H PARENT 70 16 60 52 38 63
REMARK Flexibility Score: inf
ROOT
ATOM      1  C   UNL A   1      40.543  20.741  26.679  1.00  0.00     0.188 C 
ENDROOT
BRANCH   1   2
ATOM      2  O   UNL A   1      39.752  21.435  25.728  1.00  0.00    -0.376 OA
BRANCH   2   3
ATOM      3  C   UNL A   1      38.389  21.829  25.809  1.00  0.00     0.202 C 
BRANCH   3   4
ATOM      4  C   UNL A   1      37.020  21.248  24.986  1.00  0.00     0.261 C 
BRANCH   4   5
ATOM      5  O   UNL A   1      35.523  20.515  25.313  1.00  0.00    -0.460 OA
BRANCH   5   6
ATOM      6  C   UNL A   1      34.228  20.325  24.794  1.00  0.00     0.338 C 
ATOM      7  O   UNL A   1      33.507  19.338  24.758  1.00  0.00    -0.246 OA
BRANCH   6   8
ATOM      8  C   UNL A   1      33.277  21.401  24.479  1.00  0.00     0.060 A 
ATOM      9  C   UNL A   1      30.366  22.895  26.495  1.00  0.00     0.046 C 
ATOM     10  C   UNL A   1      31.310  22.639  25.348  1.00  0.00    -0.026 A 
ATOM     11  C   UNL A   1      32.462  21.876  25.552  1.00  0.00     0.021 A 
ATOM     12  C   UNL A   1      31.029  22.980  24.031  1.00  0.00     0.052 A 
ATOM     13  C   UNL A   1      31.564  22.210  22.993  1.00  0.00     0.028 A 
ATOM     14  C   UNL A   1      32.707  21.431  23.213  1.00  0.00     0.018 A 
BRANCH  12  15
ATOM     15  N   UNL A   1      30.307  24.185  23.778  1.00  0.00    -0.279 N 
ATOM     16  H   UNL A   1      29.354  24.153  23.532  1.00  0.00     0.180 HD
BRANCH  15  17
ATOM     17  S   UNL A   1      31.119  25.687  23.905  1.00  0.00     0.267 S 
ATOM     18  O   UNL A   1      31.015  26.270  22.583  1.00  0.00    -0.201 OA
ATOM     19  O   UNL A   1      30.537  26.355  25.050  1.00  0.00    -0.201 OA
BRANCH  17  20
ATOM     20  C   UNL A   1      32.819  25.406  24.276  1.00  0.00     0.158 A 
ATOM     21  C   UNL A   1      33.669  24.945  23.275  1.00  0.00     0.146 A 
ATOM     22  C   UNL A   1      33.289  25.459  25.585  1.00  0.00     0.146 A 
ATOM     23  F   UNL A   1      33.300  24.925  21.990  1.00  0.00    -0.205 F 
ATOM     24  C   UNL A   1      34.932  24.439  23.585  1.00  0.00     0.041 A 
ATOM     25  C   UNL A   1      34.551  24.943  25.907  1.00  0.00     0.041 A 
ATOM     26  F   UNL A   1      32.511  25.888  26.587  1.00  0.00    -0.205 F 
ATOM     27  C   UNL A   1      35.365  24.407  24.908  1.00  0.00     0.006 A 
ENDBRANCH  17  20
ENDBRANCH  15  17
ENDBRANCH  12  15
ENDBRANCH   6   8
ENDBRANCH   5   6
ENDBRANCH   4   5
ENDBRANCH   3   4
ENDBRANCH   2   3
ENDBRANCH   1   2
BRANCH   1  28
ATOM     28  C   UNL A   1      41.988  20.380  26.425  1.00  0.00     0.188 C 
BRANCH  28  29
ATOM     29  O   UNL A   1      42.509  21.187  25.385  1.00  0.00    -0.376 OA
BRANCH  29  30
ATOM     30  C   UNL A   1      43.674  21.909  25.759  1.00  0.00     0.202 C 
BRANCH  30  31
ATOM     31  C   UNL A   1      43.525  23.420  25.530  1.00  0.00     0.261 C 
BRANCH  31  32
ATOM     32  O   UNL A   1      42.183  23.825  25.869  1.00  0.00    -0.460 OA
BRANCH  32  33
ATOM     33  C   UNL A   1      41.973  24.159  27.178  1.00  0.00     0.338 C 
ATOM     34  O   UNL A   1      42.371  23.521  28.144  1.00  0.00    -0.246 OA
BRANCH  33  35
ATOM     35  C   UNL A   1      40.937  25.225  27.246  1.00  0.00     0.060 A 
ATOM     36  C   UNL A   1      41.135  26.528  26.817  1.00  0.00     0.016 A 
ATOM     37  C   UNL A   1      39.819  25.022  27.986  1.00  0.00     0.016 A 
ATOM     38  C   UNL A   1      40.414  27.628  27.417  1.00  0.00     0.010 A 
ATOM     39  C   UNL A   1      39.194  26.143  28.570  1.00  0.00     0.010 A 
ATOM     40  C   UNL A   1      39.551  27.513  28.521  1.00  0.00    -0.014 A 
BRANCH  40  41
ATOM     41  C   UNL A   1      39.249  28.822  29.581  1.00  0.00     0.031 A 
ATOM     42  C   UNL A   1      38.122  30.025  29.670  1.00  0.00     0.074 A 
ATOM     43  C   UNL A   1      40.127  29.042  30.590  1.00  0.00     0.049 A 
ATOM     44  N   UNL A   1      38.391  31.307  29.467  1.00  0.00    -0.248 NA
ATOM     45  C   UNL A   1      36.661  29.921  29.922  1.00  0.00     0.031 C 
ATOM     46  C   UNL A   1      40.104  30.106  31.596  1.00  0.00     0.029 A 
ATOM     47  N   UNL A   1      41.347  28.412  30.817  1.00  0.00    -0.354 N 
ATOM     48  C   UNL A   1      37.189  32.023  29.425  1.00  0.00     0.074 A 
ATOM     49  C   UNL A   1      36.135  31.081  29.545  1.00  0.00     0.031 C 
ATOM     50  C   UNL A   1      41.359  30.282  32.043  1.00  0.00     0.029 A 
ATOM     51  C   UNL A   1      42.221  29.391  31.283  1.00  0.00     0.049 A 
ATOM     52  H   UNL A   1      41.553  27.460  30.674  1.00  0.00     0.167 HD
ATOM     53  C   UNL A   1      37.037  33.368  29.565  1.00  0.00     0.031 A 
ATOM     54  C   UNL A   1      43.313  29.738  30.547  1.00  0.00     0.031 A 
ATOM     55  C   UNL A   1      38.221  33.914  30.160  1.00  0.00     0.049 A 
ATOM     56  C   UNL A   1      43.335  31.203  30.192  1.00  0.00     0.074 A 
ATOM     57  C   UNL A   1      38.592  33.952  31.493  1.00  0.00     0.029 A 
ATOM     58  N   UNL A   1      39.362  34.055  29.404  1.00  0.00    -0.354 N 
ATOM     59  N   UNL A   1      42.295  31.991  30.227  1.00  0.00    -0.248 NA
ATOM     60  C   UNL A   1      44.544  31.889  29.746  1.00  0.00     0.031 C 
ATOM     61  C   UNL A   1      40.005  33.995  31.535  1.00  0.00     0.029 A 
ATOM     62  C   UNL A   1      40.464  34.080  30.234  1.00  0.00     0.049 A 
ATOM     63  H   UNL A   1      39.388  34.128  28.423  1.00  0.00     0.167 HD
ATOM     64  C   UNL A   1      42.661  33.237  29.791  1.00  0.00     0.074 A 
ATOM     65  C   UNL A   1      44.083  33.132  29.532  1.00  0.00     0.031 C 
ATOM     66  C   UNL A   1      41.775  34.261  29.651  1.00  0.00     0.031 A 
BRANCH  53  67
ATOM     67  C   UNL A   1      35.661  33.999  29.603  1.00  0.00    -0.014 A 
ATOM     68  C   UNL A   1      35.045  34.464  28.430  1.00  0.00     0.009 A 
ATOM     69  C   UNL A   1      34.965  34.218  30.814  1.00  0.00     0.009 A 
ATOM     70  C   UNL A   1      33.859  35.214  28.470  1.00  0.00     0.001 A 
ATOM     71  C   UNL A   1      33.790  34.989  30.859  1.00  0.00     0.001 A 
ATOM     72  C   UNL A   1      33.249  35.504  29.686  1.00  0.00     0.000 A 
ENDBRANCH  53  67
BRANCH  54  73
ATOM     73  C   UNL A   1      43.920  28.633  29.731  1.00  0.00    -0.014 A 
ATOM     74  C   UNL A   1      44.230  27.414  30.381  1.00  0.00     0.009 A 
ATOM     75  C   UNL A   1      43.948  28.645  28.327  1.00  0.00     0.009 A 
ATOM     76  C   UNL A   1      44.471  26.237  29.663  1.00  0.00     0.001 A 
ATOM     77  C   UNL A   1      44.213  27.464  27.607  1.00  0.00     0.001 A 
ATOM     78  C   UNL A   1      44.456  26.261  28.273  1.00  0.00     0.000 A 
ENDBRANCH  54  73
BRANCH  66  79
ATOM     79  C   UNL A   1      42.040  35.567  28.957  1.00  0.00    -0.014 A 
ATOM     80  C   UNL A   1      42.835  36.580  29.501  1.00  0.00     0.009 A 
ATOM     81  C   UNL A   1      41.635  35.717  27.609  1.00  0.00     0.009 A 
ATOM     82  C   UNL A   1      43.178  37.708  28.749  1.00  0.00     0.001 A 
ATOM     83  C   UNL A   1      42.020  36.814  26.840  1.00  0.00     0.001 A 
ATOM     84  C   UNL A   1      42.785  37.818  27.417  1.00  0.00     0.000 A 
ENDBRANCH  66  79
ENDBRANCH  40  41
ENDBRANCH  33  35
ENDBRANCH  32  33
ENDBRANCH  31  32
ENDBRANCH  30  31
ENDBRANCH  29  30
ENDBRANCH  28  29
ENDBRANCH   1  28
TORSDOF 20
ENDMDL
MODEL 2
REMARK VINA RESULT:     -12.0      1.506      2.029
REMARK SMILES Cc1cc(C(=O)OCCOCCOCCOC(=O)c2ccc(-c3c4nc(c(-c5ccccc5)c5ccc([nH]5)c(-c5ccccc5)c5nc(c(-c6ccccc6)c6ccc3[nH]6)C=C5)C=C4)cc2)ccc1NS(=O)(=O)c1c(F)cccc1F
REMARK SMILES IDX 11 1 10 2 9 3 8 4 7 5 5 6 6 7 4 8 1 9 2 10 3 11 69 12 68 13
REMARK SMILES IDX 67 14 70 15 71 17 72 18 73 19 74 20 75 21 80 22 76 23 77 24
REMARK SMILES IDX 79 25 81 26 78 27 12 28 13 29 14 30 15 31 16 32 17 33 18 34
REMARK SMILES IDX 19 35 20 36 66 37 21 38 65 39 22 40 23 41 24 42 59 43 25 44
REMARK SMILES IDX 64 45 58 46 60 47 26 48 63 49 57 50 56 51 27 53 49 54 34 55
REMARK SMILES IDX 48 56 35 57 38 58 47 59 61 60 36 61 37 62 46 64 62 65 39 66
REMARK SMILES IDX 28 67 29 68 33 69 30 70 32 71 31 72 50 73 51 74 55 75 52 76
REMARK SMILES IDX 54 77 53 78 40 79 41 80 45 81 42 82 44 83 43 84
REMARK H PARENT 70 16 60 52 38 63
REMARK Flexibility Score: inf
ROOT
ATOM      1  C   UNL A   1      40.518  21.346  26.748  1.00  0.00     0.188 C 
ENDROOT
BRANCH   1   2
ATOM      2  O   UNL A   1      39.366  21.120  25.952  1.00  0.00    -0.376 OA
BRANCH   2   3
ATOM      3  C   UNL A   1      38.228  21.949  25.761  1.00  0.00     0.202 C 
BRANCH   3   4
ATOM      4  C   UNL A   1      36.771  21.655  24.936  1.00  0.00     0.261 C 
BRANCH   4   5
ATOM      5  O   UNL A   1      35.493  20.536  24.919  1.00  0.00    -0.460 OA
BRANCH   5   6
ATOM      6  C   UNL A   1      34.090  20.436  24.849  1.00  0.00     0.338 C 
ATOM      7  O   UNL A   1      33.323  19.558  25.218  1.00  0.00    -0.246 OA
BRANCH   6   8
ATOM      8  C   UNL A   1      33.171  21.561  24.623  1.00  0.00     0.060 A 
ATOM      9  C   UNL A   1      30.197  22.870  26.676  1.00  0.00     0.046 C 
ATOM     10  C   UNL A   1      31.187  22.730  25.548  1.00  0.00    -0.026 A 
ATOM     11  C   UNL A   1      32.317  21.924  25.709  1.00  0.00     0.021 A 
ATOM     12  C   UNL A   1      30.972  23.230  24.270  1.00  0.00     0.052 A 
ATOM     13  C   UNL A   1      31.540  22.575  23.171  1.00  0.00     0.028 A 
ATOM     14  C   UNL A   1      32.659  21.752  23.346  1.00  0.00     0.018 A 
BRANCH  12  15
ATOM     15  N   UNL A   1      30.281  24.471  24.130  1.00  0.00    -0.279 N 
ATOM     16  H   UNL A   1      29.327  24.486  23.889  1.00  0.00     0.180 HD
BRANCH  15  17
ATOM     17  S   UNL A   1      31.133  25.933  24.385  1.00  0.00     0.267 S 
ATOM     18  O   UNL A   1      30.943  26.226  25.791  1.00  0.00    -0.201 OA
ATOM     19  O   UNL A   1      32.462  25.714  23.855  1.00  0.00    -0.201 OA
BRANCH  17  20
ATOM     20  C   UNL A   1      30.397  27.217  23.427  1.00  0.00     0.158 A 
ATOM     21  C   UNL A   1      31.214  28.136  22.776  1.00  0.00     0.146 A 
ATOM     22  C   UNL A   1      29.024  27.441  23.455  1.00  0.00     0.146 A 
ATOM     23  F   UNL A   1      32.534  27.950  22.660  1.00  0.00    -0.205 F 
ATOM     24  C   UNL A   1      30.688  29.319  22.255  1.00  0.00     0.041 A 
ATOM     25  C   UNL A   1      28.488  28.631  22.946  1.00  0.00     0.041 A 
ATOM     26  F   UNL A   1      28.194  26.592  24.074  1.00  0.00    -0.205 F 
ATOM     27  C   UNL A   1      29.326  29.585  22.367  1.00  0.00     0.006 A 
ENDBRANCH  17  20
ENDBRANCH  15  17
ENDBRANCH  12  15
ENDBRANCH   6   8
ENDBRANCH   5   6
ENDBRANCH   4   5
ENDBRANCH   3   4
ENDBRANCH   2   3
ENDBRANCH   1   2
BRANCH   1  28
ATOM     28  C   UNL A   1      41.881  20.813  26.374  1.00  0.00     0.188 C 
BRANCH  28  29
ATOM     29  O   UNL A   1      42.335  21.443  25.190  1.00  0.00    -0.376 OA
BRANCH  29  30
ATOM     30  C   UNL A   1      43.618  22.038  25.323  1.00  0.00     0.202 C 
BRANCH  30  31
ATOM     31  C   UNL A   1      43.590  23.552  25.067  1.00  0.00     0.261 C 
BRANCH  31  32
ATOM     32  O   UNL A   1      42.355  24.100  25.573  1.00  0.00    -0.460 OA
BRANCH  32  33
ATOM     33  C   UNL A   1      42.381  24.530  26.870  1.00  0.00     0.338 C 
ATOM     34  O   UNL A   1      43.097  24.076  27.753  1.00  0.00    -0.246 OA
BRANCH  33  35
ATOM     35  C   UNL A   1      41.203  25.405  27.114  1.00  0.00     0.060 A 
ATOM     36  C   UNL A   1      41.060  26.680  26.588  1.00  0.00     0.016 A 
ATOM     37  C   UNL A   1      40.322  25.080  28.093  1.00  0.00     0.016 A 
ATOM     38  C   UNL A   1      40.290  27.689  27.279  1.00  0.00     0.010 A 
ATOM     39  C   UNL A   1      39.635  26.125  28.745  1.00  0.00     0.010 A 
ATOM     40  C   UNL A   1      39.714  27.526  28.551  1.00  0.00    -0.014 A 
BRANCH  40  41
ATOM     41  C   UNL A   1      39.402  28.852  29.587  1.00  0.00     0.031 A 
ATOM     42  C   UNL A   1      38.274  30.056  29.645  1.00  0.00     0.074 A 
ATOM     43  C   UNL A   1      40.271  29.090  30.599  1.00  0.00     0.049 A 
ATOM     44  N   UNL A   1      38.544  31.335  29.423  1.00  0.00    -0.248 NA
ATOM     45  C   UNL A   1      36.810  29.955  29.887  1.00  0.00     0.031 C 
ATOM     46  C   UNL A   1      40.239  30.171  31.586  1.00  0.00     0.029 A 
ATOM     47  N   UNL A   1      41.489  28.465  30.846  1.00  0.00    -0.354 N 
ATOM     48  C   UNL A   1      37.341  32.049  29.359  1.00  0.00     0.074 A 
ATOM     49  C   UNL A   1      36.287  31.108  29.487  1.00  0.00     0.031 C 
ATOM     50  C   UNL A   1      41.490  30.355  32.041  1.00  0.00     0.029 A 
ATOM     51  C   UNL A   1      42.359  29.453  31.302  1.00  0.00     0.049 A 
ATOM     52  H   UNL A   1      41.697  27.511  30.721  1.00  0.00     0.167 HD
ATOM     53  C   UNL A   1      37.188  33.396  29.475  1.00  0.00     0.031 A 
ATOM     54  C   UNL A   1      43.457  29.787  30.570  1.00  0.00     0.031 A 
ATOM     55  C   UNL A   1      38.366  33.953  30.071  1.00  0.00     0.049 A 
ATOM     56  C   UNL A   1      43.481  31.247  30.190  1.00  0.00     0.074 A 
ATOM     57  C   UNL A   1      38.726  34.014  31.407  1.00  0.00     0.029 A 
ATOM     58  N   UNL A   1      39.513  34.082  29.322  1.00  0.00    -0.354 N 
ATOM     59  N   UNL A   1      42.440  32.034  30.204  1.00  0.00    -0.248 NA
ATOM     60  C   UNL A   1      44.693  31.926  29.743  1.00  0.00     0.031 C 
ATOM     61  C   UNL A   1      40.138  34.058  31.460  1.00  0.00     0.029 A 
ATOM     62  C   UNL A   1      40.608  34.122  30.160  1.00  0.00     0.049 A 
ATOM     63  H   UNL A   1      39.547  34.138  28.340  1.00  0.00     0.167 HD
ATOM     64  C   UNL A   1      42.809  33.273  29.750  1.00  0.00     0.074 A 
ATOM     65  C   UNL A   1      44.233  33.165  29.504  1.00  0.00     0.031 C 
ATOM     66  C   UNL A   1      41.924  34.294  29.586  1.00  0.00     0.031 A 
BRANCH  53  67
ATOM     67  C   UNL A   1      35.810  34.027  29.492  1.00  0.00    -0.014 A 
ATOM     68  C   UNL A   1      35.231  34.530  28.316  1.00  0.00     0.009 A 
ATOM     69  C   UNL A   1      35.077  34.206  30.687  1.00  0.00     0.009 A 
ATOM     70  C   UNL A   1      34.044  35.280  28.344  1.00  0.00     0.001 A 
ATOM     71  C   UNL A   1      33.901  34.976  30.721  1.00  0.00     0.001 A 
ATOM     72  C   UNL A   1      33.397  35.530  29.549  1.00  0.00     0.000 A 
ENDBRANCH  53  67
BRANCH  54  73
ATOM     73  C   UNL A   1      44.072  28.670  29.778  1.00  0.00    -0.014 A 
ATOM     74  C   UNL A   1      43.717  28.543  28.413  1.00  0.00     0.009 A 
ATOM     75  C   UNL A   1      45.167  27.919  30.236  1.00  0.00     0.009 A 
ATOM     76  C   UNL A   1      44.474  27.771  27.524  1.00  0.00     0.001 A 
ATOM     77  C   UNL A   1      45.913  27.125  29.343  1.00  0.00     0.001 A 
ATOM     78  C   UNL A   1      45.578  27.066  27.989  1.00  0.00     0.000 A 
ENDBRANCH  54  73
BRANCH  66  79
ATOM     79  C   UNL A   1      42.194  35.588  28.871  1.00  0.00    -0.014 A 
ATOM     80  C   UNL A   1      41.668  35.897  27.614  1.00  0.00     0.009 A 
ATOM     81  C   UNL A   1      42.849  36.629  29.571  1.00  0.00     0.009 A 
ATOM     82  C   UNL A   1      41.821  37.174  27.064  1.00  0.00     0.001 A 
ATOM     83  C   UNL A   1      42.957  37.917  29.049  1.00  0.00     0.001 A 
ATOM     84  C   UNL A   1      42.451  38.186  27.786  1.00  0.00     0.000 A 
ENDBRANCH  66  79
ENDBRANCH  40  41
ENDBRANCH  33  35
ENDBRANCH  32  33
ENDBRANCH  31  32
ENDBRANCH  30  31
ENDBRANCH  29  30
ENDBRANCH  28  29
ENDBRANCH   1  28
TORSDOF 20
ENDMDL
MODEL 3
REMARK VINA RESULT:     -11.6      2.157      3.122
REMARK SMILES Cc1cc(C(=O)OCCOCCOCCOC(=O)c2ccc(-c3c4nc(c(-c5ccccc5)c5ccc([nH]5)c(-c5ccccc5)c5nc(c(-c6ccccc6)c6ccc3[nH]6)C=C5)C=C4)cc2)ccc1NS(=O)(=O)c1c(F)cccc1F
REMARK SMILES IDX 11 1 10 2 9 3 8 4 7 5 5 6 6 7 4 8 1 9 2 10 3 11 69 12 68 13
REMARK SMILES IDX 67 14 70 15 71 17 72 18 73 19 74 20 75 21 80 22 76 23 77 24
REMARK SMILES IDX 79 25 81 26 78 27 12 28 13 29 14 30 15 31 16 32 17 33 18 34
REMARK SMILES IDX 19 35 20 36 66 37 21 38 65 39 22 40 23 41 24 42 59 43 25 44
REMARK SMILES IDX 64 45 58 46 60 47 26 48 63 49 57 50 56 51 27 53 49 54 34 55
REMARK SMILES IDX 48 56 35 57 38 58 47 59 61 60 36 61 37 62 46 64 62 65 39 66
REMARK SMILES IDX 28 67 29 68 33 69 30 70 32 71 31 72 50 73 51 74 55 75 52 76
REMARK SMILES IDX 54 77 53 78 40 79 41 80 45 81 42 82 44 83 43 84
REMARK H PARENT 70 16 60 52 38 63
REMARK Flexibility Score: inf
ROOT
ATOM      1  C   UNL A   1      43.768  19.324  25.196  1.00  0.00     0.188 C 
ENDROOT
BRANCH   1   2
ATOM      2  O   UNL A   1      42.357  19.415  25.088  1.00  0.00    -0.376 OA
BRANCH   2   3
ATOM      3  C   UNL A   1      41.375  19.403  26.115  1.00  0.00     0.202 C 
BRANCH   3   4
ATOM      4  C   UNL A   1      40.187  20.549  26.521  1.00  0.00     0.261 C 
BRANCH   4   5
ATOM      5  O   UNL A   1      39.453  21.941  25.881  1.00  0.00    -0.460 OA
BRANCH   5   6
ATOM      6  C   UNL A   1      38.417  22.867  26.103  1.00  0.00     0.338 C 
ATOM      7  O   UNL A   1      38.420  23.979  26.613  1.00  0.00    -0.246 OA
BRANCH   6   8
ATOM      8  C   UNL A   1      37.109  22.852  25.430  1.00  0.00     0.060 A 
ATOM      9  C   UNL A   1      34.542  20.037  24.919  1.00  0.00     0.046 C 
ATOM     10  C   UNL A   1      35.203  21.389  24.813  1.00  0.00    -0.026 A 
ATOM     11  C   UNL A   1      36.295  21.695  25.628  1.00  0.00     0.021 A 
ATOM     12  C   UNL A   1      34.897  22.318  23.828  1.00  0.00     0.052 A 
ATOM     13  C   UNL A   1      35.888  23.201  23.384  1.00  0.00     0.028 A 
ATOM     14  C   UNL A   1      36.991  23.485  24.200  1.00  0.00     0.018 A 
BRANCH  12  15
ATOM     15  N   UNL A   1      33.543  22.428  23.389  1.00  0.00    -0.279 N 
ATOM     16  H   UNL A   1      33.190  21.816  22.704  1.00  0.00     0.180 HD
BRANCH  15  17
ATOM     17  S   UNL A   1      32.541  23.638  24.069  1.00  0.00     0.267 S 
ATOM     18  O   UNL A   1      31.286  23.512  23.359  1.00  0.00    -0.201 OA
ATOM     19  O   UNL A   1      32.598  23.439  25.502  1.00  0.00    -0.201 OA
BRANCH  17  20
ATOM     20  C   UNL A   1      33.231  25.226  23.737  1.00  0.00     0.158 A 
ATOM     21  C   UNL A   1      33.553  26.065  24.800  1.00  0.00     0.146 A 
ATOM     22  C   UNL A   1      33.292  25.729  22.442  1.00  0.00     0.146 A 
ATOM     23  F   UNL A   1      33.573  25.627  26.064  1.00  0.00    -0.205 F 
ATOM     24  C   UNL A   1      33.825  27.417  24.588  1.00  0.00     0.041 A 
ATOM     25  C   UNL A   1      33.551  27.089  22.220  1.00  0.00     0.041 A 
ATOM     26  F   UNL A   1      32.986  24.967  21.384  1.00  0.00    -0.205 F 
ATOM     27  C   UNL A   1      33.793  27.941  23.299  1.00  0.00     0.006 A 
ENDBRANCH  17  20
ENDBRANCH  15  17
ENDBRANCH  12  15
ENDBRANCH   6   8
ENDBRANCH   5   6
ENDBRANCH   4   5
ENDBRANCH   3   4
ENDBRANCH   2   3
ENDBRANCH   1   2
BRANCH   1  28
ATOM     28  C   UNL A   1      44.673  20.524  25.043  1.00  0.00     0.188 C 
BRANCH  28  29
ATOM     29  O   UNL A   1      44.056  21.666  25.606  1.00  0.00    -0.376 OA
BRANCH  29  30
ATOM     30  C   UNL A   1      43.875  22.726  24.678  1.00  0.00     0.202 C 
BRANCH  30  31
ATOM     31  C   UNL A   1      44.213  24.097  25.283  1.00  0.00     0.261 C 
BRANCH  31  32
ATOM     32  O   UNL A   1      43.146  25.024  24.993  1.00  0.00    -0.460 OA
BRANCH  32  33
ATOM     33  C   UNL A   1      43.403  26.336  25.277  1.00  0.00     0.338 C 
ATOM     34  O   UNL A   1      44.507  26.806  25.519  1.00  0.00    -0.246 OA
BRANCH  33  35
ATOM     35  C   UNL A   1      42.117  27.032  25.553  1.00  0.00     0.060 A 
ATOM     36  C   UNL A   1      41.986  28.407  25.666  1.00  0.00     0.016 A 
ATOM     37  C   UNL A   1      41.046  26.312  25.972  1.00  0.00     0.016 A 
ATOM     38  C   UNL A   1      40.958  28.992  26.496  1.00  0.00     0.010 A 
ATOM     39  C   UNL A   1      40.104  26.944  26.810  1.00  0.00     0.010 A 
ATOM     40  C   UNL A   1      40.083  28.265  27.322  1.00  0.00    -0.014 A 
BRANCH  40  41
ATOM     41  C   UNL A   1      39.369  28.948  28.718  1.00  0.00     0.031 A 
ATOM     42  C   UNL A   1      38.276  30.151  29.009  1.00  0.00     0.074 A 
ATOM     43  C   UNL A   1      39.780  28.500  29.930  1.00  0.00     0.049 A 
ATOM     44  N   UNL A   1      38.581  31.303  29.591  1.00  0.00    -0.248 NA
ATOM     45  C   UNL A   1      36.834  30.211  28.652  1.00  0.00     0.031 C 
ATOM     46  C   UNL A   1      39.347  28.948  31.256  1.00  0.00     0.029 A 
ATOM     47  N   UNL A   1      40.825  27.626  30.210  1.00  0.00    -0.354 N 
ATOM     48  C   UNL A   1      37.478  32.161  29.505  1.00  0.00     0.074 A 
ATOM     49  C   UNL A   1      36.477  31.485  28.761  1.00  0.00     0.031 C 
ATOM     50  C   UNL A   1      40.325  28.658  32.131  1.00  0.00     0.029 A 
ATOM     51  C   UNL A   1      41.431  28.090  31.376  1.00  0.00     0.049 A 
ATOM     52  H   UNL A   1      41.087  26.835  29.687  1.00  0.00     0.167 HD
ATOM     53  C   UNL A   1      37.260  33.283  30.245  1.00  0.00     0.031 A 
ATOM     54  C   UNL A   1      42.717  28.536  31.346  1.00  0.00     0.031 A 
ATOM     55  C   UNL A   1      38.108  33.255  31.400  1.00  0.00     0.049 A 
ATOM     56  C   UNL A   1      42.851  29.963  31.815  1.00  0.00     0.074 A 
ATOM     57  C   UNL A   1      37.929  32.590  32.601  1.00  0.00     0.029 A 
ATOM     58  N   UNL A   1      39.451  33.524  31.266  1.00  0.00    -0.354 N 
ATOM     59  N   UNL A   1      41.866  30.816  31.883  1.00  0.00    -0.248 NA
ATOM     60  C   UNL A   1      44.126  30.542  32.225  1.00  0.00     0.031 C 
ATOM     61  C   UNL A   1      39.212  32.347  33.143  1.00  0.00     0.029 A 
ATOM     62  C   UNL A   1      40.142  32.951  32.315  1.00  0.00     0.049 A 
ATOM     63  H   UNL A   1      39.856  34.045  30.536  1.00  0.00     0.167 HD
ATOM     64  C   UNL A   1      42.351  32.029  32.295  1.00  0.00     0.074 A 
ATOM     65  C   UNL A   1      43.763  31.800  32.527  1.00  0.00     0.031 C 
ATOM     66  C   UNL A   1      41.572  33.141  32.398  1.00  0.00     0.031 A 
BRANCH  53  67
ATOM     67  C   UNL A   1      35.967  34.061  30.120  1.00  0.00    -0.014 A 
ATOM     68  C   UNL A   1      35.184  34.349  31.250  1.00  0.00     0.009 A 
ATOM     69  C   UNL A   1      35.449  34.468  28.870  1.00  0.00     0.009 A 
ATOM     70  C   UNL A   1      33.900  34.904  31.132  1.00  0.00     0.001 A 
ATOM     71  C   UNL A   1      34.154  35.001  28.747  1.00  0.00     0.001 A 
ATOM     72  C   UNL A   1      33.371  35.199  29.880  1.00  0.00     0.000 A 
ENDBRANCH  53  67
BRANCH  54  73
ATOM     73  C   UNL A   1      43.614  27.857  30.351  1.00  0.00    -0.014 A 
ATOM     74  C   UNL A   1      43.874  28.516  29.125  1.00  0.00     0.009 A 
ATOM     75  C   UNL A   1      44.412  26.747  30.672  1.00  0.00     0.009 A 
ATOM     76  C   UNL A   1      44.940  28.141  28.299  1.00  0.00     0.001 A 
ATOM     77  C   UNL A   1      45.469  26.357  29.827  1.00  0.00     0.001 A 
ATOM     78  C   UNL A   1      45.743  27.064  28.654  1.00  0.00     0.000 A 
ENDBRANCH  54  73
BRANCH  66  79
ATOM     79  C   UNL A   1      42.065  34.546  32.601  1.00  0.00    -0.014 A 
ATOM     80  C   UNL A   1      41.926  35.243  33.805  1.00  0.00     0.009 A 
ATOM     81  C   UNL A   1      42.878  35.135  31.604  1.00  0.00     0.009 A 
ATOM     82  C   UNL A   1      42.539  36.486  33.992  1.00  0.00     0.001 A 
ATOM     83  C   UNL A   1      43.534  36.348  31.807  1.00  0.00     0.001 A 
ATOM     84  C   UNL A   1      43.354  37.030  33.001  1.00  0.00     0.000 A 
ENDBRANCH  66  79
ENDBRANCH  40  41
ENDBRANCH  33  35
ENDBRANCH  32  33
ENDBRANCH  31  32
ENDBRANCH  30  31
ENDBRANCH  29  30
ENDBRANCH  28  29
ENDBRANCH   1  28
TORSDOF 20
ENDMDL
