MODEL 1
REMARK VINA RESULT:     -10.1      0.000      0.000
REMARK SMILES O=C(OCCOCCOCCOC(=O)[C@@H]1[C@@H](C(=O)NCc2ccccc2Br)[C@H]2C=C[C@@H]1O2)c1ccc(-c2c3nc(c(-c4ccccc4)c4ccc([nH]4)c(-c4ccccc4)c4nc(c(-c5ccccc5)c5ccc2[nH]5)C=C4)C=C3)cc1
REMARK SMILES IDX 8 1 7 2 6 3 5 4 4 5 3 6 2 7 1 8 33 9 34 10 80 11 35 12 79 13
REMARK SMILES IDX 36 14 37 15 38 16 73 17 39 18 78 19 72 20 74 21 40 22 77 23
REMARK SMILES IDX 71 24 70 25 41 27 63 28 48 29 62 30 49 31 52 32 61 33 75 34
REMARK SMILES IDX 50 35 51 36 60 38 76 39 53 40 42 41 43 42 47 43 44 44 46 45
REMARK SMILES IDX 45 46 64 47 65 48 69 49 66 50 68 51 67 52 54 53 55 54 59 55
REMARK SMILES IDX 56 56 58 57 57 58 9 59 10 60 11 61 12 62 13 63 14 64 15 65
REMARK SMILES IDX 16 66 31 67 28 68 30 69 32 70 29 71 17 72 18 73 19 74 20 76
REMARK SMILES IDX 21 77 22 78 26 79 23 80 25 81 27 82 24 83
REMARK H PARENT 74 26 52 37 19 75
REMARK Flexibility Score: inf
ROOT
ATOM      1  C   UNL A   1      31.099  28.953  22.722  1.00  0.00     0.188 C 
ENDROOT
BRANCH   1   2
ATOM      2  C   UNL A   1      30.242  29.466  23.878  1.00  0.00     0.188 C 
BRANCH   2   3
ATOM      3  O   UNL A   1      31.002  30.166  24.872  1.00  0.00    -0.376 OA
BRANCH   3   4
ATOM      4  C   UNL A   1      31.832  29.295  25.651  1.00  0.00     0.202 C 
BRANCH   4   5
ATOM      5  C   UNL A   1      33.239  29.828  25.974  1.00  0.00     0.261 C 
BRANCH   5   6
ATOM      6  O   UNL A   1      33.391  30.281  27.331  1.00  0.00    -0.460 OA
BRANCH   6   7
ATOM      7  C   UNL A   1      34.423  30.947  27.905  1.00  0.00     0.338 C 
ATOM      8  O   UNL A   1      34.268  32.143  28.154  1.00  0.00    -0.246 OA
BRANCH   7   9
ATOM      9  C   UNL A   1      35.746  30.334  28.250  1.00  0.00     0.060 A 
ATOM     10  C   UNL A   1      36.062  29.727  29.463  1.00  0.00     0.016 A 
ATOM     11  C   UNL A   1      36.743  30.342  27.252  1.00  0.00     0.016 A 
ATOM     12  C   UNL A   1      37.335  29.243  29.726  1.00  0.00     0.010 A 
ATOM     13  C   UNL A   1      38.016  29.803  27.487  1.00  0.00     0.010 A 
ATOM     14  C   UNL A   1      38.322  29.280  28.746  1.00  0.00    -0.014 A 
BRANCH  14  15
ATOM     15  C   UNL A   1      39.678  28.848  29.142  1.00  0.00     0.031 A 
ATOM     16  C   UNL A   1      40.446  29.691  30.102  1.00  0.00     0.074 A 
ATOM     17  C   UNL A   1      40.107  27.612  28.829  1.00  0.00     0.049 A 
ATOM     18  N   UNL A   1      41.571  29.419  30.704  1.00  0.00    -0.248 NA
ATOM     19  C   UNL A   1      39.836  30.972  30.492  1.00  0.00     0.031 C 
ATOM     20  C   UNL A   1      39.326  26.648  28.071  1.00  0.00     0.029 A 
ATOM     21  N   UNL A   1      41.255  26.932  29.136  1.00  0.00    -0.354 N 
ATOM     22  C   UNL A   1      41.780  30.469  31.581  1.00  0.00     0.074 A 
ATOM     23  C   UNL A   1      40.697  31.410  31.397  1.00  0.00     0.031 C 
ATOM     24  C   UNL A   1      40.018  25.509  27.936  1.00  0.00     0.029 A 
ATOM     25  C   UNL A   1      41.306  25.675  28.580  1.00  0.00     0.049 A 
ATOM     26  H   UNL A   1      41.972  27.306  29.697  1.00  0.00     0.167 HD
ATOM     27  C   UNL A   1      42.779  30.614  32.478  1.00  0.00     0.031 A 
ATOM     28  C   UNL A   1      42.285  24.756  28.575  1.00  0.00     0.031 A 
ATOM     29  C   UNL A   1      43.877  29.696  32.600  1.00  0.00     0.049 A 
ATOM     30  C   UNL A   1      43.496  25.050  29.401  1.00  0.00     0.074 A 
ATOM     31  C   UNL A   1      45.008  29.799  33.387  1.00  0.00     0.029 A 
ATOM     32  N   UNL A   1      43.984  28.503  31.894  1.00  0.00    -0.354 N 
ATOM     33  N   UNL A   1      43.715  26.076  30.188  1.00  0.00    -0.248 NA
ATOM     34  C   UNL A   1      44.576  24.059  29.374  1.00  0.00     0.031 C 
ATOM     35  C   UNL A   1      45.825  28.694  33.117  1.00  0.00     0.029 A 
ATOM     36  C   UNL A   1      45.177  27.874  32.205  1.00  0.00     0.049 A 
ATOM     37  H   UNL A   1      43.310  28.156  31.267  1.00  0.00     0.167 HD
ATOM     38  C   UNL A   1      44.944  25.845  30.776  1.00  0.00     0.074 A 
ATOM     39  C   UNL A   1      45.414  24.569  30.266  1.00  0.00     0.031 C 
ATOM     40  C   UNL A   1      45.622  26.614  31.663  1.00  0.00     0.031 A 
BRANCH  27  41
ATOM     41  C   UNL A   1      42.731  31.847  33.328  1.00  0.00    -0.014 A 
ATOM     42  C   UNL A   1      43.271  33.062  32.877  1.00  0.00     0.009 A 
ATOM     43  C   UNL A   1      42.197  31.776  34.623  1.00  0.00     0.009 A 
ATOM     44  C   UNL A   1      43.306  34.175  33.720  1.00  0.00     0.001 A 
ATOM     45  C   UNL A   1      42.215  32.896  35.456  1.00  0.00     0.001 A 
ATOM     46  C   UNL A   1      42.778  34.090  35.007  1.00  0.00     0.000 A 
ENDBRANCH  27  41
BRANCH  28  47
ATOM     47  C   UNL A   1      42.170  23.530  27.737  1.00  0.00    -0.014 A 
ATOM     48  C   UNL A   1      41.623  22.340  28.237  1.00  0.00     0.009 A 
ATOM     49  C   UNL A   1      42.631  23.550  26.408  1.00  0.00     0.009 A 
ATOM     50  C   UNL A   1      41.574  21.191  27.437  1.00  0.00     0.001 A 
ATOM     51  C   UNL A   1      42.554  22.412  25.602  1.00  0.00     0.001 A 
ATOM     52  C   UNL A   1      42.038  21.229  26.122  1.00  0.00     0.000 A 
ENDBRANCH  28  47
BRANCH  40  53
ATOM     53  C   UNL A   1      46.931  26.065  32.139  1.00  0.00    -0.014 A 
ATOM     54  C   UNL A   1      48.115  26.287  31.419  1.00  0.00     0.009 A 
ATOM     55  C   UNL A   1      46.975  25.309  33.320  1.00  0.00     0.009 A 
ATOM     56  C   UNL A   1      49.314  25.723  31.852  1.00  0.00     0.001 A 
ATOM     57  C   UNL A   1      48.181  24.773  33.766  1.00  0.00     0.001 A 
ATOM     58  C   UNL A   1      49.346  24.970  33.025  1.00  0.00     0.000 A 
ENDBRANCH  40  53
ENDBRANCH  14  15
ENDBRANCH   7   9
ENDBRANCH   6   7
ENDBRANCH   5   6
ENDBRANCH   4   5
ENDBRANCH   3   4
ENDBRANCH   2   3
ENDBRANCH   1   2
BRANCH   1  59
ATOM     59  O   UNL A   1      30.604  27.842  21.977  1.00  0.00    -0.376 OA
BRANCH  59  60
ATOM     60  C   UNL A   1      31.280  26.597  22.114  1.00  0.00     0.202 C 
BRANCH  60  61
ATOM     61  C   UNL A   1      31.609  26.125  23.535  1.00  0.00     0.261 C 
BRANCH  61  62
ATOM     62  O   UNL A   1      32.942  25.621  23.681  1.00  0.00    -0.463 OA
BRANCH  62  63
ATOM     63  C   UNL A   1      33.274  25.167  24.914  1.00  0.00     0.312 C 
ATOM     64  O   UNL A   1      33.099  25.802  25.957  1.00  0.00    -0.252 OA
BRANCH  63  65
ATOM     65  C   UNL A   1      33.804  23.748  24.915  1.00  0.00     0.147 C 
ATOM     66  C   UNL A   1      34.313  23.408  26.344  1.00  0.00     0.128 C 
ATOM     67  C   UNL A   1      35.071  23.608  24.076  1.00  0.00     0.157 C 
ATOM     68  C   UNL A   1      35.809  23.151  26.065  1.00  0.00     0.155 C 
ATOM     69  C   UNL A   1      35.508  22.171  24.035  1.00  0.00     0.004 C 
ATOM     70  O   UNL A   1      36.037  24.137  25.022  1.00  0.00    -0.365 OA
ATOM     71  C   UNL A   1      36.002  21.903  25.249  1.00  0.00     0.004 C 
BRANCH  66  72
ATOM     72  C   UNL A   1      33.740  22.221  27.087  1.00  0.00     0.227 C 
ATOM     73  O   UNL A   1      34.019  22.042  28.279  1.00  0.00    -0.275 OA
ATOM     74  N   UNL A   1      32.836  21.368  26.563  1.00  0.00    -0.352 N 
ATOM     75  H   UNL A   1      32.560  20.670  27.199  1.00  0.00     0.163 HD
BRANCH  74  76
ATOM     76  C   UNL A   1      32.177  21.241  25.280  1.00  0.00     0.152 C 
BRANCH  76  77
ATOM     77  C   UNL A   1      32.410  19.897  24.622  1.00  0.00    -0.015 A 
ATOM     78  C   UNL A   1      32.844  18.827  25.431  1.00  0.00     0.007 A 
ATOM     79  C   UNL A   1      32.294  19.661  23.238  1.00  0.00     0.022 A 
ATOM     80  C   UNL A   1      33.100  17.563  24.892  1.00  0.00     0.000 A 
ATOM     81  C   UNL A   1      32.541  18.390  22.704  1.00  0.00     0.016 A 
ATOM     82  Br  UNL A   1      31.860  21.024  21.984  1.00  0.00    -0.050 Br
ATOM     83  C   UNL A   1      32.939  17.342  23.530  1.00  0.00     0.001 A 
ENDBRANCH  76  77
ENDBRANCH  74  76
ENDBRANCH  66  72
ENDBRANCH  63  65
ENDBRANCH  62  63
ENDBRANCH  61  62
ENDBRANCH  60  61
ENDBRANCH  59  60
ENDBRANCH   1  59
TORSDOF 20
ENDMDL
MODEL 2
REMARK VINA RESULT:      -9.9      3.590      8.522
REMARK SMILES O=C(OCCOCCOCCOC(=O)[C@@H]1[C@@H](C(=O)NCc2ccccc2Br)[C@H]2C=C[C@@H]1O2)c1ccc(-c2c3nc(c(-c4ccccc4)c4ccc([nH]4)c(-c4ccccc4)c4nc(c(-c5ccccc5)c5ccc2[nH]5)C=C4)C=C3)cc1
REMARK SMILES IDX 8 1 7 2 6 3 5 4 4 5 3 6 2 7 1 8 33 9 34 10 80 11 35 12 79 13
REMARK SMILES IDX 36 14 37 15 38 16 73 17 39 18 78 19 72 20 74 21 40 22 77 23
REMARK SMILES IDX 71 24 70 25 41 27 63 28 48 29 62 30 49 31 52 32 61 33 75 34
REMARK SMILES IDX 50 35 51 36 60 38 76 39 53 40 42 41 43 42 47 43 44 44 46 45
REMARK SMILES IDX 45 46 64 47 65 48 69 49 66 50 68 51 67 52 54 53 55 54 59 55
REMARK SMILES IDX 56 56 58 57 57 58 9 59 10 60 11 61 12 62 13 63 14 64 15 65
REMARK SMILES IDX 16 66 31 67 28 68 30 69 32 70 29 71 17 72 18 73 19 74 20 76
REMARK SMILES IDX 21 77 22 78 26 79 23 80 25 81 27 82 24 83
REMARK H PARENT 74 26 52 37 19 75
REMARK Flexibility Score: inf
ROOT
ATOM      1  C   UNL A   1      33.431  22.968  23.037  1.00  0.00     0.188 C 
ENDROOT
BRANCH   1   2
ATOM      2  C   UNL A   1      34.928  23.118  23.306  1.00  0.00     0.188 C 
BRANCH   2   3
ATOM      3  O   UNL A   1      35.466  22.047  24.094  1.00  0.00    -0.376 OA
BRANCH   3   4
ATOM      4  C   UNL A   1      36.897  22.071  24.159  1.00  0.00     0.202 C 
BRANCH   4   5
ATOM      5  C   UNL A   1      37.561  20.789  24.691  1.00  0.00     0.261 C 
BRANCH   5   6
ATOM      6  O   UNL A   1      38.181  20.947  25.979  1.00  0.00    -0.460 OA
BRANCH   6   7
ATOM      7  C   UNL A   1      39.468  21.243  26.285  1.00  0.00     0.338 C 
ATOM      8  O   UNL A   1      40.310  20.353  26.160  1.00  0.00    -0.246 OA
BRANCH   7   9
ATOM      9  C   UNL A   1      39.939  22.578  26.780  1.00  0.00     0.060 A 
ATOM     10  C   UNL A   1      39.455  23.812  26.354  1.00  0.00     0.016 A 
ATOM     11  C   UNL A   1      40.931  22.584  27.783  1.00  0.00     0.016 A 
ATOM     12  C   UNL A   1      39.994  25.004  26.814  1.00  0.00     0.010 A 
ATOM     13  C   UNL A   1      41.442  23.784  28.297  1.00  0.00     0.010 A 
ATOM     14  C   UNL A   1      40.992  25.002  27.783  1.00  0.00    -0.014 A 
BRANCH  14  15
ATOM     15  C   UNL A   1      41.588  26.306  28.137  1.00  0.00     0.031 A 
ATOM     16  C   UNL A   1      42.926  26.655  27.579  1.00  0.00     0.074 A 
ATOM     17  C   UNL A   1      40.841  27.242  28.747  1.00  0.00     0.049 A 
ATOM     18  N   UNL A   1      43.553  27.798  27.626  1.00  0.00    -0.248 NA
ATOM     19  C   UNL A   1      43.616  25.608  26.810  1.00  0.00     0.031 C 
ATOM     20  C   UNL A   1      39.453  27.050  29.136  1.00  0.00     0.029 A 
ATOM     21  N   UNL A   1      41.102  28.538  29.106  1.00  0.00    -0.354 N 
ATOM     22  C   UNL A   1      44.686  27.626  26.850  1.00  0.00     0.074 A 
ATOM     23  C   UNL A   1      44.691  26.255  26.389  1.00  0.00     0.031 C 
ATOM     24  C   UNL A   1      38.983  28.165  29.708  1.00  0.00     0.029 A 
ATOM     25  C   UNL A   1      40.049  29.146  29.748  1.00  0.00     0.049 A 
ATOM     26  H   UNL A   1      41.958  28.988  28.922  1.00  0.00     0.167 HD
ATOM     27  C   UNL A   1      45.624  28.546  26.534  1.00  0.00     0.031 A 
ATOM     28  C   UNL A   1      39.951  30.357  30.322  1.00  0.00     0.031 A 
ATOM     29  C   UNL A   1      45.629  29.885  27.054  1.00  0.00     0.049 A 
ATOM     30  C   UNL A   1      41.112  31.284  30.153  1.00  0.00     0.074 A 
ATOM     31  C   UNL A   1      46.588  30.869  26.902  1.00  0.00     0.029 A 
ATOM     32  N   UNL A   1      44.622  30.423  27.848  1.00  0.00    -0.354 N 
ATOM     33  N   UNL A   1      42.211  31.094  29.464  1.00  0.00    -0.248 NA
ATOM     34  C   UNL A   1      41.016  32.594  30.802  1.00  0.00     0.031 C 
ATOM     35  C   UNL A   1      46.186  31.983  27.648  1.00  0.00     0.029 A 
ATOM     36  C   UNL A   1      44.950  31.715  28.218  1.00  0.00     0.049 A 
ATOM     37  H   UNL A   1      43.797  29.953  28.107  1.00  0.00     0.167 HD
ATOM     38  C   UNL A   1      42.929  32.270  29.568  1.00  0.00     0.074 A 
ATOM     39  C   UNL A   1      42.129  33.174  30.374  1.00  0.00     0.031 C 
ATOM     40  C   UNL A   1      44.139  32.579  29.039  1.00  0.00     0.031 A 
BRANCH  27  41
ATOM     41  C   UNL A   1      46.731  28.081  25.639  1.00  0.00    -0.014 A 
ATOM     42  C   UNL A   1      46.619  28.164  24.242  1.00  0.00     0.009 A 
ATOM     43  C   UNL A   1      47.874  27.493  26.198  1.00  0.00     0.009 A 
ATOM     44  C   UNL A   1      47.617  27.634  23.421  1.00  0.00     0.001 A 
ATOM     45  C   UNL A   1      48.880  26.984  25.376  1.00  0.00     0.001 A 
ATOM     46  C   UNL A   1      48.747  27.046  23.989  1.00  0.00     0.000 A 
ENDBRANCH  27  41
BRANCH  28  47
ATOM     47  C   UNL A   1      38.752  30.719  31.127  1.00  0.00    -0.014 A 
ATOM     48  C   UNL A   1      37.652  31.379  30.562  1.00  0.00     0.009 A 
ATOM     49  C   UNL A   1      38.715  30.406  32.499  1.00  0.00     0.009 A 
ATOM     50  C   UNL A   1      36.561  31.748  31.358  1.00  0.00     0.001 A 
ATOM     51  C   UNL A   1      37.613  30.749  33.285  1.00  0.00     0.001 A 
ATOM     52  C   UNL A   1      36.543  31.432  32.717  1.00  0.00     0.000 A 
ENDBRANCH  28  47
BRANCH  40  53
ATOM     53  C   UNL A   1      44.638  33.965  29.312  1.00  0.00    -0.014 A 
ATOM     54  C   UNL A   1      44.453  34.999  28.382  1.00  0.00     0.009 A 
ATOM     55  C   UNL A   1      45.311  34.233  30.514  1.00  0.00     0.009 A 
ATOM     56  C   UNL A   1      44.973  36.268  28.632  1.00  0.00     0.001 A 
ATOM     57  C   UNL A   1      45.801  35.511  30.775  1.00  0.00     0.001 A 
ATOM     58  C   UNL A   1      45.643  36.523  29.828  1.00  0.00     0.000 A 
ENDBRANCH  40  53
ENDBRANCH  14  15
ENDBRANCH   7   9
ENDBRANCH   6   7
ENDBRANCH   5   6
ENDBRANCH   4   5
ENDBRANCH   3   4
ENDBRANCH   2   3
ENDBRANCH   1   2
BRANCH   1  59
ATOM     59  O   UNL A   1      32.678  22.159  23.939  1.00  0.00    -0.376 OA
BRANCH  59  60
ATOM     60  C   UNL A   1      32.109  22.791  25.081  1.00  0.00     0.202 C 
BRANCH  60  61
ATOM     61  C   UNL A   1      31.280  24.059  24.847  1.00  0.00     0.261 C 
BRANCH  61  62
ATOM     62  O   UNL A   1      31.925  25.259  25.290  1.00  0.00    -0.463 OA
BRANCH  62  63
ATOM     63  C   UNL A   1      31.128  26.171  25.901  1.00  0.00     0.312 C 
ATOM     64  O   UNL A   1      30.224  25.883  26.689  1.00  0.00    -0.252 OA
BRANCH  63  65
ATOM     65  C   UNL A   1      31.506  27.606  25.599  1.00  0.00     0.147 C 
ATOM     66  C   UNL A   1      32.914  27.622  24.941  1.00  0.00     0.128 C 
ATOM     67  C   UNL A   1      31.731  28.419  26.872  1.00  0.00     0.157 C 
ATOM     68  C   UNL A   1      33.711  28.437  25.983  1.00  0.00     0.155 C 
ATOM     69  C   UNL A   1      32.016  29.853  26.524  1.00  0.00     0.004 C 
ATOM     70  O   UNL A   1      33.071  27.970  27.201  1.00  0.00    -0.365 OA
ATOM     71  C   UNL A   1      33.253  29.869  26.016  1.00  0.00     0.004 C 
BRANCH  66  72
ATOM     72  C   UNL A   1      33.103  28.248  23.577  1.00  0.00     0.227 C 
ATOM     73  O   UNL A   1      34.172  28.802  23.292  1.00  0.00    -0.275 OA
ATOM     74  N   UNL A   1      32.203  28.160  22.576  1.00  0.00    -0.352 N 
ATOM     75  H   UNL A   1      32.506  28.609  21.754  1.00  0.00     0.163 HD
BRANCH  74  76
ATOM     76  C   UNL A   1      30.895  27.558  22.430  1.00  0.00     0.152 C 
BRANCH  76  77
ATOM     77  C   UNL A   1      29.769  28.570  22.447  1.00  0.00    -0.015 A 
ATOM     78  C   UNL A   1      30.018  29.851  21.912  1.00  0.00     0.007 A 
ATOM     79  C   UNL A   1      28.507  28.343  23.030  1.00  0.00     0.022 A 
ATOM     80  C   UNL A   1      29.035  30.844  21.911  1.00  0.00     0.000 A 
ATOM     81  C   UNL A   1      27.521  29.338  23.017  1.00  0.00     0.016 A 
ATOM     82  Br  UNL A   1      28.050  26.726  23.921  1.00  0.00    -0.050 Br
ATOM     83  C   UNL A   1      27.783  30.585  22.455  1.00  0.00     0.001 A 
ENDBRANCH  76  77
ENDBRANCH  74  76
ENDBRANCH  66  72
ENDBRANCH  63  65
ENDBRANCH  62  63
ENDBRANCH  61  62
ENDBRANCH  60  61
ENDBRANCH  59  60
ENDBRANCH   1  59
TORSDOF 20
ENDMDL
MODEL 3
REMARK VINA RESULT:      -9.7      3.652      7.519
REMARK SMILES O=C(OCCOCCOCCOC(=O)[C@@H]1[C@@H](C(=O)NCc2ccccc2Br)[C@H]2C=C[C@@H]1O2)c1ccc(-c2c3nc(c(-c4ccccc4)c4ccc([nH]4)c(-c4ccccc4)c4nc(c(-c5ccccc5)c5ccc2[nH]5)C=C4)C=C3)cc1
REMARK SMILES IDX 8 1 7 2 6 3 5 4 4 5 3 6 2 7 1 8 33 9 34 10 80 11 35 12 79 13
REMARK SMILES IDX 36 14 37 15 38 16 73 17 39 18 78 19 72 20 74 21 40 22 77 23
REMARK SMILES IDX 71 24 70 25 41 27 63 28 48 29 62 30 49 31 52 32 61 33 75 34
REMARK SMILES IDX 50 35 51 36 60 38 76 39 53 40 42 41 43 42 47 43 44 44 46 45
REMARK SMILES IDX 45 46 64 47 65 48 69 49 66 50 68 51 67 52 54 53 55 54 59 55
REMARK SMILES IDX 56 56 58 57 57 58 9 59 10 60 11 61 12 62 13 63 14 64 15 65
REMARK SMILES IDX 16 66 31 67 28 68 30 69 32 70 29 71 17 72 18 73 19 74 20 76
REMARK SMILES IDX 21 77 22 78 26 79 23 80 25 81 27 82 24 83
REMARK H PARENT 74 26 52 37 19 75
REMARK Flexibility Score: inf
ROOT
ATOM      1  C   UNL A   1      34.389  34.739  28.991  1.00  0.00     0.188 C 
ENDROOT
BRANCH   1   2
ATOM      2  C   UNL A   1      33.211  35.082  29.902  1.00  0.00     0.188 C 
BRANCH   2   3
ATOM      3  O   UNL A   1      33.478  34.820  31.286  1.00  0.00    -0.376 OA
BRANCH   3   4
ATOM      4  C   UNL A   1      34.719  34.132  31.491  1.00  0.00     0.202 C 
BRANCH   4   5
ATOM      5  C   UNL A   1      34.607  32.615  31.730  1.00  0.00     0.261 C 
BRANCH   5   6
ATOM      6  O   UNL A   1      35.143  32.185  32.993  1.00  0.00    -0.460 OA
BRANCH   6   7
ATOM      7  C   UNL A   1      36.435  32.087  33.392  1.00  0.00     0.338 C 
ATOM      8  O   UNL A   1      36.736  32.561  34.488  1.00  0.00    -0.246 OA
BRANCH   7   9
ATOM      9  C   UNL A   1      37.529  31.453  32.588  1.00  0.00     0.060 A 
ATOM     10  C   UNL A   1      38.580  30.701  33.108  1.00  0.00     0.016 A 
ATOM     11  C   UNL A   1      37.472  31.601  31.186  1.00  0.00     0.016 A 
ATOM     12  C   UNL A   1      39.591  30.204  32.299  1.00  0.00     0.010 A 
ATOM     13  C   UNL A   1      38.459  31.053  30.353  1.00  0.00     0.010 A 
ATOM     14  C   UNL A   1      39.543  30.379  30.920  1.00  0.00    -0.014 A 
BRANCH  14  15
ATOM     15  C   UNL A   1      40.712  29.917  30.143  1.00  0.00     0.031 A 
ATOM     16  C   UNL A   1      40.670  28.561  29.525  1.00  0.00     0.074 A 
ATOM     17  C   UNL A   1      41.681  30.787  29.808  1.00  0.00     0.049 A 
ATOM     18  N   UNL A   1      41.506  28.028  28.678  1.00  0.00    -0.248 NA
ATOM     19  C   UNL A   1      39.502  27.725  29.845  1.00  0.00     0.031 C 
ATOM     20  C   UNL A   1      41.687  32.188  30.197  1.00  0.00     0.029 A 
ATOM     21  N   UNL A   1      42.807  30.658  29.040  1.00  0.00    -0.354 N 
ATOM     22  C   UNL A   1      40.942  26.816  28.321  1.00  0.00     0.074 A 
ATOM     23  C   UNL A   1      39.721  26.664  29.083  1.00  0.00     0.031 C 
ATOM     24  C   UNL A   1      42.774  32.793  29.701  1.00  0.00     0.029 A 
ATOM     25  C   UNL A   1      43.555  31.810  28.976  1.00  0.00     0.049 A 
ATOM     26  H   UNL A   1      43.056  29.824  28.580  1.00  0.00     0.167 HD
ATOM     27  C   UNL A   1      41.397  25.922  27.415  1.00  0.00     0.031 A 
ATOM     28  C   UNL A   1      44.749  32.053  28.409  1.00  0.00     0.031 A 
ATOM     29  C   UNL A   1      42.643  26.066  26.716  1.00  0.00     0.049 A 
ATOM     30  C   UNL A   1      45.348  30.953  27.593  1.00  0.00     0.074 A 
ATOM     31  C   UNL A   1      43.266  25.172  25.866  1.00  0.00     0.029 A 
ATOM     32  N   UNL A   1      43.468  27.182  26.803  1.00  0.00    -0.354 N 
ATOM     33  N   UNL A   1      44.835  29.781  27.305  1.00  0.00    -0.248 NA
ATOM     34  C   UNL A   1      46.663  31.207  26.997  1.00  0.00     0.031 C 
ATOM     35  C   UNL A   1      44.494  25.726  25.481  1.00  0.00     0.029 A 
ATOM     36  C   UNL A   1      44.610  26.988  26.045  1.00  0.00     0.049 A 
ATOM     37  H   UNL A   1      43.268  27.992  27.326  1.00  0.00     0.167 HD
ATOM     38  C   UNL A   1      45.747  29.165  26.469  1.00  0.00     0.074 A 
ATOM     39  C   UNL A   1      46.838  30.104  26.283  1.00  0.00     0.031 C 
ATOM     40  C   UNL A   1      45.686  27.937  25.900  1.00  0.00     0.031 A 
BRANCH  27  41
ATOM     41  C   UNL A   1      40.553  24.702  27.208  1.00  0.00    -0.014 A 
ATOM     42  C   UNL A   1      40.966  23.445  27.678  1.00  0.00     0.009 A 
ATOM     43  C   UNL A   1      39.361  24.800  26.476  1.00  0.00     0.009 A 
ATOM     44  C   UNL A   1      40.216  22.303  27.389  1.00  0.00     0.001 A 
ATOM     45  C   UNL A   1      38.603  23.660  26.207  1.00  0.00     0.001 A 
ATOM     46  C   UNL A   1      39.035  22.412  26.655  1.00  0.00     0.000 A 
ENDBRANCH  27  41
BRANCH  28  47
ATOM     47  C   UNL A   1      45.448  33.348  28.638  1.00  0.00    -0.014 A 
ATOM     48  C   UNL A   1      46.295  33.547  29.737  1.00  0.00     0.009 A 
ATOM     49  C   UNL A   1      45.250  34.413  27.741  1.00  0.00     0.009 A 
ATOM     50  C   UNL A   1      46.899  34.793  29.950  1.00  0.00     0.001 A 
ATOM     51  C   UNL A   1      45.876  35.646  27.939  1.00  0.00     0.001 A 
ATOM     52  C   UNL A   1      46.689  35.839  29.051  1.00  0.00     0.000 A 
ENDBRANCH  28  47
BRANCH  40  53
ATOM     53  C   UNL A   1      46.833  27.569  25.009  1.00  0.00    -0.014 A 
ATOM     54  C   UNL A   1      47.884  26.766  25.476  1.00  0.00     0.009 A 
ATOM     55  C   UNL A   1      46.862  28.043  23.689  1.00  0.00     0.009 A 
ATOM     56  C   UNL A   1      48.968  26.480  24.648  1.00  0.00     0.001 A 
ATOM     57  C   UNL A   1      47.932  27.728  22.854  1.00  0.00     0.001 A 
ATOM     58  C   UNL A   1      48.990  26.958  23.339  1.00  0.00     0.000 A 
ENDBRANCH  40  53
ENDBRANCH  14  15
ENDBRANCH   7   9
ENDBRANCH   6   7
ENDBRANCH   5   6
ENDBRANCH   4   5
ENDBRANCH   3   4
ENDBRANCH   2   3
ENDBRANCH   1   2
BRANCH   1  59
ATOM     59  O   UNL A   1      34.165  33.780  27.959  1.00  0.00    -0.376 OA
BRANCH  59  60
ATOM     60  C   UNL A   1      34.204  32.402  28.313  1.00  0.00     0.202 C 
BRANCH  60  61
ATOM     61  C   UNL A   1      33.791  31.385  27.242  1.00  0.00     0.261 C 
BRANCH  61  62
ATOM     62  O   UNL A   1      33.284  30.158  27.778  1.00  0.00    -0.463 OA
BRANCH  62  63
ATOM     63  C   UNL A   1      33.560  29.039  27.063  1.00  0.00     0.312 C 
ATOM     64  O   UNL A   1      34.647  28.456  27.081  1.00  0.00    -0.252 OA
BRANCH  63  65
ATOM     65  C   UNL A   1      32.371  28.499  26.297  1.00  0.00     0.147 C 
ATOM     66  C   UNL A   1      32.683  27.042  25.855  1.00  0.00     0.128 C 
ATOM     67  C   UNL A   1      32.179  29.211  24.960  1.00  0.00     0.157 C 
ATOM     68  C   UNL A   1      32.634  27.188  24.319  1.00  0.00     0.155 C 
ATOM     69  C   UNL A   1      30.939  28.704  24.279  1.00  0.00     0.004 C 
ATOM     70  O   UNL A   1      33.192  28.523  24.182  1.00  0.00    -0.365 OA
ATOM     71  C   UNL A   1      31.235  27.473  23.846  1.00  0.00     0.004 C 
BRANCH  66  72
ATOM     72  C   UNL A   1      31.765  25.914  26.271  1.00  0.00     0.227 C 
ATOM     73  O   UNL A   1      30.609  26.158  26.637  1.00  0.00    -0.275 OA
ATOM     74  N   UNL A   1      32.085  24.606  26.177  1.00  0.00    -0.352 N 
ATOM     75  H   UNL A   1      31.356  24.016  26.473  1.00  0.00     0.163 HD
BRANCH  74  76
ATOM     76  C   UNL A   1      33.254  23.871  25.740  1.00  0.00     0.152 C 
BRANCH  76  77
ATOM     77  C   UNL A   1      32.912  22.584  25.020  1.00  0.00    -0.015 A 
ATOM     78  C   UNL A   1      32.941  21.382  25.758  1.00  0.00     0.007 A 
ATOM     79  C   UNL A   1      32.639  22.495  23.642  1.00  0.00     0.022 A 
ATOM     80  C   UNL A   1      32.658  20.152  25.158  1.00  0.00     0.000 A 
ATOM     81  C   UNL A   1      32.346  21.261  23.046  1.00  0.00     0.016 A 
ATOM     82  Br  UNL A   1      32.700  23.993  22.471  1.00  0.00    -0.050 Br
ATOM     83  C   UNL A   1      32.351  20.092  23.804  1.00  0.00     0.001 A 
ENDBRANCH  76  77
ENDBRANCH  74  76
ENDBRANCH  66  72
ENDBRANCH  63  65
ENDBRANCH  62  63
ENDBRANCH  61  62
ENDBRANCH  60  61
ENDBRANCH  59  60
ENDBRANCH   1  59
TORSDOF 20
ENDMDL
