MODEL 1
REMARK VINA RESULT:     -11.5      0.000      0.000
REMARK SMILES O=C(OCCOCCOCCOC(=O)c1ccc(-c2c3nc(c(-c4ccccc4)c4ccc([nH]4)c(-c4ccccc4)c4nc(c(-c5ccccc5)c5ccc2[nH]5)C=C4)C=C3)cc1)C1=Cc2c(Cl)cc(Cl)cc2O[C@@H]1C(F)(F)F
REMARK SMILES IDX 8 1 7 2 6 3 5 4 4 5 3 6 2 7 1 8 63 9 64 10 74 11 65 12 73 13
REMARK SMILES IDX 66 14 72 15 67 16 68 17 71 18 69 19 70 20 75 21 76 22 77 23
REMARK SMILES IDX 78 24 9 25 10 26 11 27 12 28 13 29 14 30 15 31 16 32 62 33
REMARK SMILES IDX 17 34 61 35 18 36 19 37 20 38 55 39 21 40 60 41 54 42 56 43
REMARK SMILES IDX 22 44 59 45 53 46 52 47 23 49 45 50 30 51 44 52 31 53 34 54
REMARK SMILES IDX 43 55 57 56 32 57 33 58 42 60 58 61 35 62 24 63 25 64 29 65
REMARK SMILES IDX 26 66 28 67 27 68 46 69 47 70 51 71 48 72 50 73 49 74 36 75
REMARK SMILES IDX 37 76 41 77 38 78 40 79 39 80
REMARK H PARENT 56 48 34 59
REMARK Flexibility Score: inf
ROOT
ATOM      1  C   UNL A   1      33.248  31.693  27.690  1.00  0.00     0.188 C 
ENDROOT
BRANCH   1   2
ATOM      2  C   UNL A   1      33.949  30.421  27.183  1.00  0.00     0.188 C 
BRANCH   2   3
ATOM      3  O   UNL A   1      33.510  29.073  27.598  1.00  0.00    -0.376 OA
BRANCH   3   4
ATOM      4  C   UNL A   1      31.980  28.365  27.448  1.00  0.00     0.202 C 
BRANCH   4   5
ATOM      5  C   UNL A   1      31.071  27.659  25.594  1.00  0.00     0.261 C 
BRANCH   5   6
ATOM      6  O   UNL A   1      30.654  26.213  25.296  1.00  0.00    -0.460 OA
BRANCH   6   7
ATOM      7  C   UNL A   1      31.317  25.688  24.255  1.00  0.00     0.338 C 
ATOM      8  O   UNL A   1      30.930  24.901  23.427  1.00  0.00    -0.246 OA
BRANCH   7   9
ATOM      9  C   UNL A   1      32.641  25.944  24.781  1.00  0.00     0.087 C 
ATOM     10  C   UNL A   1      33.110  24.970  25.773  1.00  0.00     0.029 C 
ATOM     11  C   UNL A   1      33.427  26.233  23.046  1.00  0.00     0.316 C 
ATOM     12  C   UNL A   1      34.345  23.688  25.425  1.00  0.00     0.036 A 
ATOM     13  O   UNL A   1      34.636  24.784  22.587  1.00  0.00    -0.475 OA
ATOM     14  C   UNL A   1      34.701  22.758  26.367  1.00  0.00     0.053 A 
ATOM     15  C   UNL A   1      35.080  23.544  23.860  1.00  0.00     0.130 A 
ATOM     16  Cl  UNL A   1      34.027  22.704  27.941  1.00  0.00    -0.083 Cl
ATOM     17  C   UNL A   1      35.673  21.820  25.969  1.00  0.00     0.042 A 
ATOM     18  C   UNL A   1      36.021  22.606  23.548  1.00  0.00     0.067 A 
ATOM     19  C   UNL A   1      36.298  21.762  24.651  1.00  0.00     0.046 A 
ATOM     20  Cl  UNL A   1      37.511  20.536  24.452  1.00  0.00    -0.084 Cl
BRANCH  11  21
ATOM     21  C   UNL A   1      33.694  27.848  23.243  1.00  0.00     0.430 C 
ATOM     22  F   UNL A   1      32.721  28.734  23.026  1.00  0.00    -0.167 F 
ATOM     23  F   UNL A   1      34.171  28.083  24.489  1.00  0.00    -0.167 F 
ATOM     24  F   UNL A   1      34.688  28.270  22.399  1.00  0.00    -0.167 F 
ENDBRANCH  11  21
ENDBRANCH   7   9
ENDBRANCH   6   7
ENDBRANCH   5   6
ENDBRANCH   4   5
ENDBRANCH   3   4
ENDBRANCH   2   3
ENDBRANCH   1   2
BRANCH   1  25
ATOM     25  O   UNL A   1      33.955  32.909  27.683  1.00  0.00    -0.376 OA
BRANCH  25  26
ATOM     26  C   UNL A   1      33.370  33.975  28.421  1.00  0.00     0.202 C 
BRANCH  26  27
ATOM     27  C   UNL A   1      34.057  34.420  29.721  1.00  0.00     0.261 C 
BRANCH  27  28
ATOM     28  O   UNL A   1      35.297  33.726  29.982  1.00  0.00    -0.460 OA
BRANCH  28  29
ATOM     29  C   UNL A   1      35.270  32.702  30.871  1.00  0.00     0.338 C 
ATOM     30  O   UNL A   1      34.416  32.464  31.705  1.00  0.00    -0.246 OA
BRANCH  29  31
ATOM     31  C   UNL A   1      36.408  31.799  30.597  1.00  0.00     0.060 A 
ATOM     32  C   UNL A   1      37.124  31.230  31.664  1.00  0.00     0.016 A 
ATOM     33  C   UNL A   1      36.781  31.542  29.280  1.00  0.00     0.016 A 
ATOM     34  C   UNL A   1      38.197  30.371  31.411  1.00  0.00     0.010 A 
ATOM     35  C   UNL A   1      37.885  30.729  29.028  1.00  0.00     0.010 A 
ATOM     36  C   UNL A   1      38.605  30.154  30.091  1.00  0.00    -0.014 A 
BRANCH  36  37
ATOM     37  C   UNL A   1      39.934  29.572  29.793  1.00  0.00     0.031 A 
ATOM     38  C   UNL A   1      41.100  30.516  29.746  1.00  0.00     0.074 A 
ATOM     39  C   UNL A   1      40.088  28.278  29.466  1.00  0.00     0.049 A 
ATOM     40  N   UNL A   1      42.320  30.314  29.325  1.00  0.00    -0.248 NA
ATOM     41  C   UNL A   1      40.835  31.887  30.215  1.00  0.00     0.031 C 
ATOM     42  C   UNL A   1      39.042  27.261  29.509  1.00  0.00     0.029 A 
ATOM     43  N   UNL A   1      41.193  27.614  28.992  1.00  0.00    -0.354 N 
ATOM     44  C   UNL A   1      42.961  31.540  29.454  1.00  0.00     0.074 A 
ATOM     45  C   UNL A   1      41.991  32.479  29.970  1.00  0.00     0.031 C 
ATOM     46  C   UNL A   1      39.547  26.104  29.044  1.00  0.00     0.029 A 
ATOM     47  C   UNL A   1      40.934  26.316  28.629  1.00  0.00     0.049 A 
ATOM     48  H   UNL A   1      42.083  28.029  28.920  1.00  0.00     0.167 HD
ATOM     49  C   UNL A   1      44.241  31.860  29.154  1.00  0.00     0.031 A 
ATOM     50  C   UNL A   1      41.715  25.418  27.995  1.00  0.00     0.031 A 
ATOM     51  C   UNL A   1      45.182  30.934  28.585  1.00  0.00     0.049 A 
ATOM     52  C   UNL A   1      43.116  25.808  27.597  1.00  0.00     0.074 A 
ATOM     53  C   UNL A   1      46.507  31.144  28.256  1.00  0.00     0.029 A 
ATOM     54  N   UNL A   1      44.880  29.625  28.235  1.00  0.00    -0.354 N 
ATOM     55  N   UNL A   1      43.733  26.956  27.756  1.00  0.00    -0.248 NA
ATOM     56  C   UNL A   1      43.932  24.779  26.933  1.00  0.00     0.031 C 
ATOM     57  C   UNL A   1      46.986  29.989  27.631  1.00  0.00     0.029 A 
ATOM     58  C   UNL A   1      45.986  29.026  27.658  1.00  0.00     0.049 A 
ATOM     59  H   UNL A   1      44.010  29.188  28.377  1.00  0.00     0.167 HD
ATOM     60  C   UNL A   1      45.015  26.778  27.248  1.00  0.00     0.074 A 
ATOM     61  C   UNL A   1      45.088  25.411  26.776  1.00  0.00     0.031 C 
ATOM     62  C   UNL A   1      46.042  27.663  27.191  1.00  0.00     0.031 A 
BRANCH  49  63
ATOM     63  C   UNL A   1      44.651  33.292  29.363  1.00  0.00    -0.014 A 
ATOM     64  C   UNL A   1      45.182  33.738  30.585  1.00  0.00     0.009 A 
ATOM     65  C   UNL A   1      44.465  34.222  28.328  1.00  0.00     0.009 A 
ATOM     66  C   UNL A   1      45.452  35.094  30.787  1.00  0.00     0.001 A 
ATOM     67  C   UNL A   1      44.776  35.569  28.517  1.00  0.00     0.001 A 
ATOM     68  C   UNL A   1      45.251  36.007  29.753  1.00  0.00     0.000 A 
ENDBRANCH  49  63
BRANCH  50  69
ATOM     69  C   UNL A   1      41.174  24.070  27.675  1.00  0.00    -0.014 A 
ATOM     70  C   UNL A   1      40.195  23.905  26.684  1.00  0.00     0.009 A 
ATOM     71  C   UNL A   1      41.654  22.933  28.345  1.00  0.00     0.009 A 
ATOM     72  C   UNL A   1      39.704  22.632  26.376  1.00  0.00     0.001 A 
ATOM     73  C   UNL A   1      41.185  21.659  28.015  1.00  0.00     0.001 A 
ATOM     74  C   UNL A   1      40.207  21.511  27.034  1.00  0.00     0.000 A 
ENDBRANCH  50  69
BRANCH  62  75
ATOM     75  C   UNL A   1      47.361  27.177  26.650  1.00  0.00    -0.014 A 
ATOM     76  C   UNL A   1      48.367  26.677  27.488  1.00  0.00     0.009 A 
ATOM     77  C   UNL A   1      47.556  27.137  25.259  1.00  0.00     0.009 A 
ATOM     78  C   UNL A   1      49.551  26.169  26.945  1.00  0.00     0.001 A 
ATOM     79  C   UNL A   1      48.722  26.597  24.718  1.00  0.00     0.001 A 
ATOM     80  C   UNL A   1      49.722  26.120  25.562  1.00  0.00     0.000 A 
ENDBRANCH  62  75
ENDBRANCH  36  37
ENDBRANCH  29  31
ENDBRANCH  28  29
ENDBRANCH  27  28
ENDBRANCH  26  27
ENDBRANCH  25  26
ENDBRANCH   1  25
TORSDOF 18
ENDMDL
MODEL 2
REMARK VINA RESULT:     -11.4      4.466      9.485
REMARK SMILES O=C(OCCOCCOCCOC(=O)c1ccc(-c2c3nc(c(-c4ccccc4)c4ccc([nH]4)c(-c4ccccc4)c4nc(c(-c5ccccc5)c5ccc2[nH]5)C=C4)C=C3)cc1)C1=Cc2c(Cl)cc(Cl)cc2O[C@@H]1C(F)(F)F
REMARK SMILES IDX 8 1 7 2 6 3 5 4 4 5 3 6 2 7 1 8 63 9 64 10 74 11 65 12 73 13
REMARK SMILES IDX 66 14 72 15 67 16 68 17 71 18 69 19 70 20 75 21 76 22 77 23
REMARK SMILES IDX 78 24 9 25 10 26 11 27 12 28 13 29 14 30 15 31 16 32 62 33
REMARK SMILES IDX 17 34 61 35 18 36 19 37 20 38 55 39 21 40 60 41 54 42 56 43
REMARK SMILES IDX 22 44 59 45 53 46 52 47 23 49 45 50 30 51 44 52 31 53 34 54
REMARK SMILES IDX 43 55 57 56 32 57 33 58 42 60 58 61 35 62 24 63 25 64 29 65
REMARK SMILES IDX 26 66 28 67 27 68 46 69 47 70 51 71 48 72 50 73 49 74 36 75
REMARK SMILES IDX 37 76 41 77 38 78 40 79 39 80
REMARK H PARENT 56 48 34 59
REMARK Flexibility Score: inf
ROOT
ATOM      1  C   UNL A   1      40.370  19.984  26.434  1.00  0.00     0.188 C 
ENDROOT
BRANCH   1   2
ATOM      2  C   UNL A   1      39.416  20.819  25.563  1.00  0.00     0.188 C 
BRANCH   2   3
ATOM      3  O   UNL A   1      38.527  21.843  26.144  1.00  0.00    -0.376 OA
BRANCH   3   4
ATOM      4  C   UNL A   1      37.619  23.032  25.351  1.00  0.00     0.202 C 
BRANCH   4   5
ATOM      5  C   UNL A   1      36.380  22.730  23.581  1.00  0.00     0.261 C 
BRANCH   5   6
ATOM      6  O   UNL A   1      35.459  23.778  22.944  1.00  0.00    -0.460 OA
BRANCH   6   7
ATOM      7  C   UNL A   1      34.161  23.459  23.052  1.00  0.00     0.338 C 
ATOM      8  O   UNL A   1      33.450  22.893  22.258  1.00  0.00    -0.246 OA
BRANCH   7   9
ATOM      9  C   UNL A   1      33.856  24.430  24.081  1.00  0.00     0.087 C 
ATOM     10  C   UNL A   1      33.781  25.819  23.616  1.00  0.00     0.029 C 
ATOM     11  C   UNL A   1      32.384  23.414  24.798  1.00  0.00     0.316 C 
ATOM     12  C   UNL A   1      32.227  26.727  23.391  1.00  0.00     0.036 A 
ATOM     13  O   UNL A   1      30.693  24.296  24.427  1.00  0.00    -0.475 OA
ATOM     14  C   UNL A   1      32.206  28.004  22.890  1.00  0.00     0.053 A 
ATOM     15  C   UNL A   1      30.695  25.994  23.740  1.00  0.00     0.130 A 
ATOM     16  Cl  UNL A   1      33.617  28.858  22.426  1.00  0.00    -0.083 Cl
ATOM     17  C   UNL A   1      30.935  28.596  22.768  1.00  0.00     0.042 A 
ATOM     18  C   UNL A   1      29.497  26.635  23.598  1.00  0.00     0.067 A 
ATOM     19  C   UNL A   1      29.670  27.954  23.115  1.00  0.00     0.046 A 
ATOM     20  Cl  UNL A   1      28.254  28.940  22.921  1.00  0.00    -0.084 Cl
BRANCH  11  21
ATOM     21  C   UNL A   1      33.117  23.029  26.225  1.00  0.00     0.430 C 
ATOM     22  F   UNL A   1      34.437  23.147  26.368  1.00  0.00    -0.167 F 
ATOM     23  F   UNL A   1      32.546  23.730  27.234  1.00  0.00    -0.167 F 
ATOM     24  F   UNL A   1      32.890  21.714  26.534  1.00  0.00    -0.167 F 
ENDBRANCH  11  21
ENDBRANCH   7   9
ENDBRANCH   6   7
ENDBRANCH   5   6
ENDBRANCH   4   5
ENDBRANCH   3   4
ENDBRANCH   2   3
ENDBRANCH   1   2
BRANCH   1  25
ATOM     25  O   UNL A   1      41.582  19.535  25.880  1.00  0.00    -0.376 OA
BRANCH  25  26
ATOM     26  C   UNL A   1      42.760  20.179  26.354  1.00  0.00     0.202 C 
BRANCH  26  27
ATOM     27  C   UNL A   1      43.596  20.989  25.351  1.00  0.00     0.261 C 
BRANCH  27  28
ATOM     28  O   UNL A   1      42.951  22.207  24.917  1.00  0.00    -0.460 OA
BRANCH  28  29
ATOM     29  C   UNL A   1      43.713  23.325  24.826  1.00  0.00     0.338 C 
ATOM     30  O   UNL A   1      44.659  23.522  24.085  1.00  0.00    -0.246 OA
BRANCH  29  31
ATOM     31  C   UNL A   1      43.139  24.370  25.700  1.00  0.00     0.060 A 
ATOM     32  C   UNL A   1      43.571  25.701  25.579  1.00  0.00     0.016 A 
ATOM     33  C   UNL A   1      42.194  24.019  26.662  1.00  0.00     0.016 A 
ATOM     34  C   UNL A   1      43.029  26.693  26.400  1.00  0.00     0.010 A 
ATOM     35  C   UNL A   1      41.693  24.999  27.517  1.00  0.00     0.010 A 
ATOM     36  C   UNL A   1      42.118  26.335  27.399  1.00  0.00    -0.014 A 
BRANCH  36  37
ATOM     37  C   UNL A   1      41.808  27.261  28.512  1.00  0.00     0.031 A 
ATOM     38  C   UNL A   1      42.597  27.099  29.778  1.00  0.00     0.074 A 
ATOM     39  C   UNL A   1      40.793  28.139  28.447  1.00  0.00     0.049 A 
ATOM     40  N   UNL A   1      42.406  27.634  30.954  1.00  0.00    -0.248 NA
ATOM     41  C   UNL A   1      43.744  26.178  29.706  1.00  0.00     0.031 C 
ATOM     42  C   UNL A   1      39.981  28.411  27.265  1.00  0.00     0.029 A 
ATOM     43  N   UNL A   1      40.253  28.936  29.426  1.00  0.00    -0.354 N 
ATOM     44  C   UNL A   1      43.394  27.094  31.769  1.00  0.00     0.074 A 
ATOM     45  C   UNL A   1      44.164  26.178  30.959  1.00  0.00     0.031 C 
ATOM     46  C   UNL A   1      39.018  29.290  27.597  1.00  0.00     0.029 A 
ATOM     47  C   UNL A   1      39.122  29.602  29.023  1.00  0.00     0.049 A 
ATOM     48  H   UNL A   1      40.639  29.021  30.327  1.00  0.00     0.167 HD
ATOM     49  C   UNL A   1      43.629  27.329  33.081  1.00  0.00     0.031 A 
ATOM     50  C   UNL A   1      38.248  30.341  29.737  1.00  0.00     0.031 A 
ATOM     51  C   UNL A   1      42.821  28.197  33.893  1.00  0.00     0.049 A 
ATOM     52  C   UNL A   1      38.477  30.535  31.214  1.00  0.00     0.074 A 
ATOM     53  C   UNL A   1      42.976  28.520  35.227  1.00  0.00     0.029 A 
ATOM     54  N   UNL A   1      41.685  28.856  33.445  1.00  0.00    -0.354 N 
ATOM     55  N   UNL A   1      39.435  30.056  31.974  1.00  0.00    -0.248 NA
ATOM     56  C   UNL A   1      37.508  31.375  31.935  1.00  0.00     0.031 C 
ATOM     57  C   UNL A   1      41.888  29.310  35.609  1.00  0.00     0.029 A 
ATOM     58  C   UNL A   1      41.106  29.557  34.489  1.00  0.00     0.049 A 
ATOM     59  H   UNL A   1      41.341  28.830  32.524  1.00  0.00     0.167 HD
ATOM     60  C   UNL A   1      39.205  30.563  33.248  1.00  0.00     0.074 A 
ATOM     61  C   UNL A   1      38.018  31.387  33.160  1.00  0.00     0.031 C 
ATOM     62  C   UNL A   1      39.921  30.372  34.385  1.00  0.00     0.031 A 
BRANCH  49  63
ATOM     63  C   UNL A   1      44.757  26.563  33.717  1.00  0.00    -0.014 A 
ATOM     64  C   UNL A   1      44.582  25.254  34.198  1.00  0.00     0.009 A 
ATOM     65  C   UNL A   1      46.009  27.177  33.872  1.00  0.00     0.009 A 
ATOM     66  C   UNL A   1      45.615  24.607  34.881  1.00  0.00     0.001 A 
ATOM     67  C   UNL A   1      47.053  26.513  34.517  1.00  0.00     0.001 A 
ATOM     68  C   UNL A   1      46.849  25.236  35.038  1.00  0.00     0.000 A 
ENDBRANCH  49  63
BRANCH  50  69
ATOM     69  C   UNL A   1      37.060  30.929  29.060  1.00  0.00    -0.014 A 
ATOM     70  C   UNL A   1      37.043  32.282  28.686  1.00  0.00     0.009 A 
ATOM     71  C   UNL A   1      35.944  30.131  28.761  1.00  0.00     0.009 A 
ATOM     72  C   UNL A   1      35.931  32.822  28.034  1.00  0.00     0.001 A 
ATOM     73  C   UNL A   1      34.847  30.667  28.082  1.00  0.00     0.001 A 
ATOM     74  C   UNL A   1      34.839  32.013  27.724  1.00  0.00     0.000 A 
ENDBRANCH  50  69
BRANCH  62  75
ATOM     75  C   UNL A   1      39.484  31.109  35.624  1.00  0.00    -0.014 A 
ATOM     76  C   UNL A   1      40.211  32.191  36.138  1.00  0.00     0.009 A 
ATOM     77  C   UNL A   1      38.265  30.760  36.231  1.00  0.00     0.009 A 
ATOM     78  C   UNL A   1      39.737  32.896  37.249  1.00  0.00     0.001 A 
ATOM     79  C   UNL A   1      37.777  31.487  37.317  1.00  0.00     0.001 A 
ATOM     80  C   UNL A   1      38.518  32.550  37.829  1.00  0.00     0.000 A 
ENDBRANCH  62  75
ENDBRANCH  36  37
ENDBRANCH  29  31
ENDBRANCH  28  29
ENDBRANCH  27  28
ENDBRANCH  26  27
ENDBRANCH  25  26
ENDBRANCH   1  25
TORSDOF 18
ENDMDL
MODEL 3
REMARK VINA RESULT:     -11.2      3.758      8.921
REMARK SMILES O=C(OCCOCCOCCOC(=O)c1ccc(-c2c3nc(c(-c4ccccc4)c4ccc([nH]4)c(-c4ccccc4)c4nc(c(-c5ccccc5)c5ccc2[nH]5)C=C4)C=C3)cc1)C1=Cc2c(Cl)cc(Cl)cc2O[C@@H]1C(F)(F)F
REMARK SMILES IDX 8 1 7 2 6 3 5 4 4 5 3 6 2 7 1 8 63 9 64 10 74 11 65 12 73 13
REMARK SMILES IDX 66 14 72 15 67 16 68 17 71 18 69 19 70 20 75 21 76 22 77 23
REMARK SMILES IDX 78 24 9 25 10 26 11 27 12 28 13 29 14 30 15 31 16 32 62 33
REMARK SMILES IDX 17 34 61 35 18 36 19 37 20 38 55 39 21 40 60 41 54 42 56 43
REMARK SMILES IDX 22 44 59 45 53 46 52 47 23 49 45 50 30 51 44 52 31 53 34 54
REMARK SMILES IDX 43 55 57 56 32 57 33 58 42 60 58 61 35 62 24 63 25 64 29 65
REMARK SMILES IDX 26 66 28 67 27 68 46 69 47 70 51 71 48 72 50 73 49 74 36 75
REMARK SMILES IDX 37 76 41 77 38 78 40 79 39 80
REMARK H PARENT 56 48 34 59
REMARK Flexibility Score: inf
ROOT
ATOM      1  C   UNL A   1      40.565  21.264  27.028  1.00  0.00     0.188 C 
ENDROOT
BRANCH   1   2
ATOM      2  C   UNL A   1      39.351  21.517  26.117  1.00  0.00     0.188 C 
BRANCH   2   3
ATOM      3  O   UNL A   1      38.707  22.843  26.029  1.00  0.00    -0.376 OA
BRANCH   3   4
ATOM      4  C   UNL A   1      37.066  23.212  25.844  1.00  0.00     0.202 C 
BRANCH   4   5
ATOM      5  C   UNL A   1      35.975  23.291  23.955  1.00  0.00     0.261 C 
BRANCH   5   6
ATOM      6  O   UNL A   1      34.624  22.620  23.674  1.00  0.00    -0.460 OA
BRANCH   6   7
ATOM      7  C   UNL A   1      33.793  23.406  22.974  1.00  0.00     0.338 C 
ATOM      8  O   UNL A   1      33.680  23.516  21.778  1.00  0.00    -0.246 OA
BRANCH   7   9
ATOM      9  C   UNL A   1      33.544  24.346  24.046  1.00  0.00     0.087 C 
ATOM     10  C   UNL A   1      33.684  25.758  23.674  1.00  0.00     0.029 C 
ATOM     11  C   UNL A   1      31.903  23.498  24.596  1.00  0.00     0.316 C 
ATOM     12  C   UNL A   1      32.283  26.879  23.412  1.00  0.00     0.036 A 
ATOM     13  O   UNL A   1      30.374  24.620  24.178  1.00  0.00    -0.475 OA
ATOM     14  C   UNL A   1      32.465  28.174  23.000  1.00  0.00     0.053 A 
ATOM     15  C   UNL A   1      30.646  26.340  23.611  1.00  0.00     0.130 A 
ATOM     16  Cl  UNL A   1      34.005  28.857  22.687  1.00  0.00    -0.083 Cl
ATOM     17  C   UNL A   1      31.294  28.939  22.838  1.00  0.00     0.042 A 
ATOM     18  C   UNL A   1      29.556  27.143  23.437  1.00  0.00     0.067 A 
ATOM     19  C   UNL A   1      29.935  28.454  23.057  1.00  0.00     0.046 A 
ATOM     20  Cl  UNL A   1      28.677  29.631  22.841  1.00  0.00    -0.084 Cl
BRANCH  11  21
ATOM     21  C   UNL A   1      32.474  22.933  26.036  1.00  0.00     0.430 C 
ATOM     22  F   UNL A   1      33.578  23.445  26.582  1.00  0.00    -0.167 F 
ATOM     23  F   UNL A   1      31.499  23.008  26.974  1.00  0.00    -0.167 F 
ATOM     24  F   UNL A   1      32.769  21.599  25.939  1.00  0.00    -0.167 F 
ENDBRANCH  11  21
ENDBRANCH   7   9
ENDBRANCH   6   7
ENDBRANCH   5   6
ENDBRANCH   4   5
ENDBRANCH   3   4
ENDBRANCH   2   3
ENDBRANCH   1   2
BRANCH   1  25
ATOM     25  O   UNL A   1      40.874  19.944  27.399  1.00  0.00    -0.376 OA
BRANCH  25  26
ATOM     26  C   UNL A   1      42.238  19.561  27.264  1.00  0.00     0.202 C 
BRANCH  26  27
ATOM     27  C   UNL A   1      42.633  18.698  26.055  1.00  0.00     0.261 C 
BRANCH  27  28
ATOM     28  O   UNL A   1      43.000  19.472  24.893  1.00  0.00    -0.460 OA
BRANCH  28  29
ATOM     29  C   UNL A   1      44.323  19.631  24.635  1.00  0.00     0.338 C 
ATOM     30  O   UNL A   1      45.093  18.812  24.168  1.00  0.00    -0.246 OA
BRANCH  29  31
ATOM     31  C   UNL A   1      44.697  21.038  24.892  1.00  0.00     0.060 A 
ATOM     32  C   UNL A   1      45.233  21.405  26.137  1.00  0.00     0.016 A 
ATOM     33  C   UNL A   1      44.484  21.997  23.904  1.00  0.00     0.016 A 
ATOM     34  C   UNL A   1      45.592  22.733  26.385  1.00  0.00     0.010 A 
ATOM     35  C   UNL A   1      44.792  23.331  24.170  1.00  0.00     0.010 A 
ATOM     36  C   UNL A   1      45.332  23.706  25.414  1.00  0.00    -0.014 A 
BRANCH  36  37
ATOM     37  C   UNL A   1      45.343  25.145  25.760  1.00  0.00     0.031 A 
ATOM     38  C   UNL A   1      46.669  25.847  25.729  1.00  0.00     0.074 A 
ATOM     39  C   UNL A   1      44.243  25.782  26.193  1.00  0.00     0.049 A 
ATOM     40  N   UNL A   1      46.995  27.034  26.165  1.00  0.00    -0.248 NA
ATOM     41  C   UNL A   1      47.786  25.083  25.148  1.00  0.00     0.031 C 
ATOM     42  C   UNL A   1      42.897  25.219  26.234  1.00  0.00     0.029 A 
ATOM     43  N   UNL A   1      44.104  27.042  26.721  1.00  0.00    -0.354 N 
ATOM     44  C   UNL A   1      48.361  27.149  25.935  1.00  0.00     0.074 A 
ATOM     45  C   UNL A   1      48.802  25.906  25.343  1.00  0.00     0.031 C 
ATOM     46  C   UNL A   1      42.070  26.120  26.794  1.00  0.00     0.029 A 
ATOM     47  C   UNL A   1      42.840  27.300  27.190  1.00  0.00     0.049 A 
ATOM     48  H   UNL A   1      44.838  27.696  26.759  1.00  0.00     0.167 HD
ATOM     49  C   UNL A   1      49.179  28.191  26.208  1.00  0.00     0.031 A 
ATOM     50  C   UNL A   1      42.372  28.349  27.898  1.00  0.00     0.031 A 
ATOM     51  C   UNL A   1      48.743  29.400  26.852  1.00  0.00     0.049 A 
ATOM     52  C   UNL A   1      43.310  29.471  28.263  1.00  0.00     0.074 A 
ATOM     53  C   UNL A   1      49.481  30.525  27.163  1.00  0.00     0.029 A 
ATOM     54  N   UNL A   1      47.452  29.623  27.309  1.00  0.00    -0.354 N 
ATOM     55  N   UNL A   1      44.592  29.595  28.009  1.00  0.00    -0.248 NA
ATOM     56  C   UNL A   1      42.737  30.602  29.009  1.00  0.00     0.031 C 
ATOM     57  C   UNL A   1      48.657  31.397  27.882  1.00  0.00     0.029 A 
ATOM     58  C   UNL A   1      47.381  30.855  27.935  1.00  0.00     0.049 A 
ATOM     59  H   UNL A   1      46.698  28.998  27.205  1.00  0.00     0.167 HD
ATOM     60  C   UNL A   1      44.970  30.828  28.530  1.00  0.00     0.074 A 
ATOM     61  C   UNL A   1      43.782  31.414  29.114  1.00  0.00     0.031 C 
ATOM     62  C   UNL A   1      46.188  31.424  28.514  1.00  0.00     0.031 A 
BRANCH  49  63
ATOM     63  C   UNL A   1      50.637  28.014  25.881  1.00  0.00    -0.014 A 
ATOM     64  C   UNL A   1      51.144  28.281  24.597  1.00  0.00     0.009 A 
ATOM     65  C   UNL A   1      51.513  27.535  26.867  1.00  0.00     0.009 A 
ATOM     66  C   UNL A   1      52.479  28.005  24.293  1.00  0.00     0.001 A 
ATOM     67  C   UNL A   1      52.857  27.301  26.573  1.00  0.00     0.001 A 
ATOM     68  C   UNL A   1      53.334  27.517  25.280  1.00  0.00     0.000 A 
ENDBRANCH  49  63
BRANCH  50  69
ATOM     69  C   UNL A   1      40.948  28.367  28.328  1.00  0.00    -0.014 A 
ATOM     70  C   UNL A   1      40.551  27.754  29.525  1.00  0.00     0.009 A 
ATOM     71  C   UNL A   1      39.979  29.025  27.552  1.00  0.00     0.009 A 
ATOM     72  C   UNL A   1      39.214  27.792  29.933  1.00  0.00     0.001 A 
ATOM     73  C   UNL A   1      38.649  29.088  27.976  1.00  0.00     0.001 A 
ATOM     74  C   UNL A   1      38.267  28.467  29.164  1.00  0.00     0.000 A 
ENDBRANCH  50  69
BRANCH  62  75
ATOM     75  C   UNL A   1      46.302  32.809  29.094  1.00  0.00    -0.014 A 
ATOM     76  C   UNL A   1      46.678  33.028  30.426  1.00  0.00     0.009 A 
ATOM     77  C   UNL A   1      46.116  33.919  28.251  1.00  0.00     0.009 A 
ATOM     78  C   UNL A   1      46.842  34.329  30.909  1.00  0.00     0.001 A 
ATOM     79  C   UNL A   1      46.315  35.216  28.726  1.00  0.00     0.001 A 
ATOM     80  C   UNL A   1      46.671  35.420  30.057  1.00  0.00     0.000 A 
ENDBRANCH  62  75
ENDBRANCH  36  37
ENDBRANCH  29  31
ENDBRANCH  28  29
ENDBRANCH  27  28
ENDBRANCH  26  27
ENDBRANCH  25  26
ENDBRANCH   1  25
TORSDOF 18
ENDMDL
