MODEL 1
REMARK VINA RESULT:     -10.0      0.000      0.000
REMARK SMILES CCCc1cc(S(F)(F)(F)(F)F)cc2c1O[C@@H](C(F)(F)F)C(C(=O)OCCOCCOCCOC(=O)c1ccc(-c3c4nc(c(-c5ccccc5)c5ccc([nH]5)c(-c5ccccc5)c5nc(c(-c6ccccc6)c6ccc3[nH]6)C=C5)C=C4)cc1)=C2
REMARK SMILES IDX 29 1 28 2 27 3 26 4 25 5 23 6 24 7 22 8 4 9 5 10 15 11 6 12
REMARK SMILES IDX 14 13 16 14 13 15 85 16 17 17 3 18 2 19 1 20 7 21 8 22 9 23
REMARK SMILES IDX 10 24 11 25 12 26 18 27 19 28 20 29 21 30 30 31 31 32 32 33
REMARK SMILES IDX 33 34 34 35 35 36 36 37 37 38 38 39 84 40 39 41 83 42 40 43
REMARK SMILES IDX 41 44 42 45 77 46 43 47 82 48 76 49 78 50 44 51 81 52 75 53
REMARK SMILES IDX 74 54 45 56 67 57 52 58 66 59 53 60 56 61 65 62 79 63 54 64
REMARK SMILES IDX 55 65 64 67 80 68 57 69 46 70 47 71 51 72 48 73 50 74 49 75
REMARK SMILES IDX 68 76 69 77 73 78 70 79 72 80 71 81 58 82 59 83 63 84 60 85
REMARK SMILES IDX 62 86 61 87
REMARK H PARENT 78 55 56 66
REMARK Flexibility Score: inf
ROOT
ATOM      1  C   UNL A   1      33.585  36.021  30.118  1.00  0.00     0.188 C 
ENDROOT
BRANCH   1   2
ATOM      2  O   UNL A   1      33.482  34.973  29.166  1.00  0.00    -0.376 OA
BRANCH   2   3
ATOM      3  C   UNL A   1      34.471  35.146  28.162  1.00  0.00     0.202 C 
BRANCH   3   4
ATOM      4  C   UNL A   1      35.599  34.153  28.385  1.00  0.00     0.261 C 
BRANCH   4   5
ATOM      5  O   UNL A   1      35.316  32.949  27.686  1.00  0.00    -0.460 OA
BRANCH   5   6
ATOM      6  C   UNL A   1      34.529  31.940  28.300  1.00  0.00     0.338 C 
ATOM      7  O   UNL A   1      34.207  32.042  29.526  1.00  0.00    -0.246 OA
BRANCH   6   8
ATOM      8  C   UNL A   1      34.069  30.738  27.492  1.00  0.00     0.087 C 
ATOM      9  C   UNL A   1      33.193  27.538  24.954  1.00  0.00    -0.004 A 
ATOM     10  C   UNL A   1      32.030  27.549  24.206  1.00  0.00     0.032 A 
ATOM     11  C   UNL A   1      33.483  28.627  25.740  1.00  0.00     0.131 A 
ATOM     12  C   UNL A   1      31.181  28.623  24.239  1.00  0.00     0.108 A 
ATOM     13  C   UNL A   1      32.640  29.721  25.813  1.00  0.00     0.019 A 
ATOM     14  O   UNL A   1      34.693  28.650  26.388  1.00  0.00    -0.475 OA
ATOM     15  C   UNL A   1      31.482  29.702  25.045  1.00  0.00     0.036 A 
ATOM     16  C   UNL A   1      33.054  30.840  26.643  1.00  0.00     0.027 C 
ATOM     17  C   UNL A   1      34.762  29.390  27.640  1.00  0.00     0.316 C 
BRANCH   9  18
ATOM     18  C   UNL A   1      34.133  26.345  24.907  1.00  0.00     0.039 C 
BRANCH  18  19
ATOM     19  C   UNL A   1      33.746  25.350  25.990  1.00  0.00     0.001 C 
ATOM     20  C   UNL A   1      32.970  24.201  25.369  1.00  0.00     0.004 C 
ENDBRANCH  18  19
ENDBRANCH   9  18
BRANCH  12  21
ATOM     21  S   UNL A   1      29.675  28.628  23.235  1.00  0.00     0.310 S 
ATOM     22  F   UNL A   1      30.219  27.465  22.303  1.00  0.00    -0.094 F 
ATOM     23  F   UNL A   1      30.368  29.646  22.252  1.00  0.00    -0.094 F 
ATOM     24  F   UNL A   1      28.382  28.631  22.372  1.00  0.00    -0.094 F 
ATOM     25  F   UNL A   1      29.052  27.502  24.151  1.00  0.00    -0.094 F 
ATOM     26  F   UNL A   1      31.023  28.529  24.056  1.00  0.00    -0.094 F 
ENDBRANCH  12  21
BRANCH  17  27
ATOM     27  C   UNL A   1      36.220  29.618  28.001  1.00  0.00     0.430 C 
ATOM     28  F   UNL A   1      36.890  28.475  27.884  1.00  0.00    -0.167 F 
ATOM     29  F   UNL A   1      36.744  30.525  27.181  1.00  0.00    -0.167 F 
ATOM     30  F   UNL A   1      36.304  30.054  29.254  1.00  0.00    -0.167 F 
ENDBRANCH  17  27
ENDBRANCH   6   8
ENDBRANCH   5   6
ENDBRANCH   4   5
ENDBRANCH   3   4
ENDBRANCH   2   3
ENDBRANCH   1   2
BRANCH   1  31
ATOM     31  C   UNL A   1      33.490  35.443  31.521  1.00  0.00     0.188 C 
BRANCH  31  32
ATOM     32  O   UNL A   1      34.460  34.416  31.675  1.00  0.00    -0.376 OA
BRANCH  32  33
ATOM     33  C   UNL A   1      34.086  33.571  32.754  1.00  0.00     0.202 C 
BRANCH  33  34
ATOM     34  C   UNL A   1      35.171  32.533  32.984  1.00  0.00     0.261 C 
BRANCH  34  35
ATOM     35  O   UNL A   1      36.090  33.016  33.952  1.00  0.00    -0.460 OA
BRANCH  35  36
ATOM     36  C   UNL A   1      37.197  33.807  33.548  1.00  0.00     0.338 C 
ATOM     37  O   UNL A   1      37.263  35.030  33.888  1.00  0.00    -0.246 OA
BRANCH  36  38
ATOM     38  C   UNL A   1      38.305  33.191  32.708  1.00  0.00     0.060 A 
ATOM     39  C   UNL A   1      38.341  33.534  31.366  1.00  0.00     0.016 A 
ATOM     40  C   UNL A   1      39.210  32.376  33.236  1.00  0.00     0.016 A 
ATOM     41  C   UNL A   1      39.211  32.729  30.593  1.00  0.00     0.010 A 
ATOM     42  C   UNL A   1      40.118  31.727  32.435  1.00  0.00     0.010 A 
ATOM     43  C   UNL A   1      40.172  31.973  31.091  1.00  0.00    -0.014 A 
BRANCH  43  44
ATOM     44  C   UNL A   1      41.279  31.405  30.217  1.00  0.00     0.031 A 
ATOM     45  C   UNL A   1      42.398  32.182  29.914  1.00  0.00     0.074 A 
ATOM     46  C   UNL A   1      41.071  30.126  29.733  1.00  0.00     0.049 A 
ATOM     47  N   UNL A   1      43.446  31.840  29.162  1.00  0.00    -0.248 NA
ATOM     48  C   UNL A   1      42.605  33.555  30.398  1.00  0.00     0.031 C 
ATOM     49  C   UNL A   1      39.949  29.332  30.041  1.00  0.00     0.029 A 
ATOM     50  N   UNL A   1      41.881  29.398  28.889  1.00  0.00    -0.354 N 
ATOM     51  C   UNL A   1      44.328  32.842  29.118  1.00  0.00     0.074 A 
ATOM     52  C   UNL A   1      43.796  33.962  29.907  1.00  0.00     0.031 C 
ATOM     53  C   UNL A   1      40.075  28.149  29.384  1.00  0.00     0.029 A 
ATOM     54  C   UNL A   1      41.278  28.183  28.654  1.00  0.00     0.049 A 
ATOM     55  H   UNL A   1      42.742  29.697  28.517  1.00  0.00     0.167 HD
ATOM     56  C   UNL A   1      45.554  32.865  28.452  1.00  0.00     0.031 A 
ATOM     57  C   UNL A   1      41.735  27.151  27.851  1.00  0.00     0.031 A 
ATOM     58  C   UNL A   1      46.031  31.815  27.683  1.00  0.00     0.049 A 
ATOM     59  C   UNL A   1      42.934  27.196  27.137  1.00  0.00     0.074 A 
ATOM     60  C   UNL A   1      47.268  31.819  27.011  1.00  0.00     0.029 A 
ATOM     61  N   UNL A   1      45.416  30.608  27.429  1.00  0.00    -0.354 N 
ATOM     62  N   UNL A   1      43.834  28.180  27.125  1.00  0.00    -0.248 NA
ATOM     63  C   UNL A   1      43.412  26.121  26.257  1.00  0.00     0.031 C 
ATOM     64  C   UNL A   1      47.394  30.635  26.353  1.00  0.00     0.029 A 
ATOM     65  C   UNL A   1      46.237  29.873  26.603  1.00  0.00     0.049 A 
ATOM     66  H   UNL A   1      44.541  30.322  27.777  1.00  0.00     0.167 HD
ATOM     67  C   UNL A   1      44.862  27.855  26.339  1.00  0.00     0.074 A 
ATOM     68  C   UNL A   1      44.602  26.528  25.765  1.00  0.00     0.031 C 
ATOM     69  C   UNL A   1      46.009  28.609  26.083  1.00  0.00     0.031 A 
BRANCH  56  70
ATOM     70  C   UNL A   1      46.415  34.111  28.576  1.00  0.00    -0.014 A 
ATOM     71  C   UNL A   1      47.354  34.200  29.592  1.00  0.00     0.009 A 
ATOM     72  C   UNL A   1      46.286  35.073  27.671  1.00  0.00     0.009 A 
ATOM     73  C   UNL A   1      47.919  35.489  29.738  1.00  0.00     0.001 A 
ATOM     74  C   UNL A   1      46.974  36.256  27.804  1.00  0.00     0.001 A 
ATOM     75  C   UNL A   1      47.874  36.436  28.818  1.00  0.00     0.000 A 
ENDBRANCH  56  70
BRANCH  57  76
ATOM     76  C   UNL A   1      40.880  25.897  27.739  1.00  0.00    -0.014 A 
ATOM     77  C   UNL A   1      41.258  24.753  28.422  1.00  0.00     0.009 A 
ATOM     78  C   UNL A   1      39.817  25.906  26.946  1.00  0.00     0.009 A 
ATOM     79  C   UNL A   1      40.610  23.578  27.974  1.00  0.00     0.001 A 
ATOM     80  C   UNL A   1      39.149  24.740  26.658  1.00  0.00     0.001 A 
ATOM     81  C   UNL A   1      39.505  23.561  27.252  1.00  0.00     0.000 A 
ENDBRANCH  57  76
BRANCH  69  82
ATOM     82  C   UNL A   1      47.072  28.006  25.179  1.00  0.00    -0.014 A 
ATOM     83  C   UNL A   1      46.981  28.231  23.814  1.00  0.00     0.009 A 
ATOM     84  C   UNL A   1      48.061  27.286  25.694  1.00  0.00     0.009 A 
ATOM     85  C   UNL A   1      47.830  27.406  23.040  1.00  0.00     0.001 A 
ATOM     86  C   UNL A   1      48.936  26.614  24.876  1.00  0.00     0.001 A 
ATOM     87  C   UNL A   1      48.868  26.743  23.516  1.00  0.00     0.000 A 
ENDBRANCH  69  82
ENDBRANCH  43  44
ENDBRANCH  36  38
ENDBRANCH  35  36
ENDBRANCH  34  35
ENDBRANCH  33  34
ENDBRANCH  32  33
ENDBRANCH  31  32
ENDBRANCH   1  31
TORSDOF 21
ENDMDL
MODEL 2
REMARK VINA RESULT:      -9.8      5.049     10.405
REMARK SMILES CCCc1cc(S(F)(F)(F)(F)F)cc2c1O[C@@H](C(F)(F)F)C(C(=O)OCCOCCOCCOC(=O)c1ccc(-c3c4nc(c(-c5ccccc5)c5ccc([nH]5)c(-c5ccccc5)c5nc(c(-c6ccccc6)c6ccc3[nH]6)C=C5)C=C4)cc1)=C2
REMARK SMILES IDX 29 1 28 2 27 3 26 4 25 5 23 6 24 7 22 8 4 9 5 10 15 11 6 12
REMARK SMILES IDX 14 13 16 14 13 15 85 16 17 17 3 18 2 19 1 20 7 21 8 22 9 23
REMARK SMILES IDX 10 24 11 25 12 26 18 27 19 28 20 29 21 30 30 31 31 32 32 33
REMARK SMILES IDX 33 34 34 35 35 36 36 37 37 38 38 39 84 40 39 41 83 42 40 43
REMARK SMILES IDX 41 44 42 45 77 46 43 47 82 48 76 49 78 50 44 51 81 52 75 53
REMARK SMILES IDX 74 54 45 56 67 57 52 58 66 59 53 60 56 61 65 62 79 63 54 64
REMARK SMILES IDX 55 65 64 67 80 68 57 69 46 70 47 71 51 72 48 73 50 74 49 75
REMARK SMILES IDX 68 76 69 77 73 78 70 79 72 80 71 81 58 82 59 83 63 84 60 85
REMARK SMILES IDX 62 86 61 87
REMARK H PARENT 78 55 56 66
REMARK Flexibility Score: inf
ROOT
ATOM      1  C   UNL A   1      39.879  21.127  26.717  1.00  0.00     0.188 C 
ENDROOT
BRANCH   1   2
ATOM      2  O   UNL A   1      38.962  21.530  25.711  1.00  0.00    -0.376 OA
BRANCH   2   3
ATOM      3  C   UNL A   1      38.379  20.382  25.114  1.00  0.00     0.202 C 
BRANCH   3   4
ATOM      4  C   UNL A   1      36.870  20.552  25.054  1.00  0.00     0.261 C 
BRANCH   4   5
ATOM      5  O   UNL A   1      36.533  21.900  25.351  1.00  0.00    -0.460 OA
BRANCH   5   6
ATOM      6  C   UNL A   1      35.861  22.694  24.385  1.00  0.00     0.338 C 
ATOM      7  O   UNL A   1      36.206  22.633  23.162  1.00  0.00    -0.246 OA
BRANCH   6   8
ATOM      8  C   UNL A   1      34.730  23.616  24.811  1.00  0.00     0.087 C 
ATOM      9  C   UNL A   1      31.494  26.168  25.486  1.00  0.00    -0.004 A 
ATOM     10  C   UNL A   1      31.715  27.464  25.913  1.00  0.00     0.032 A 
ATOM     11  C   UNL A   1      32.577  25.366  25.220  1.00  0.00     0.131 A 
ATOM     12  C   UNL A   1      32.987  27.949  26.065  1.00  0.00     0.108 A 
ATOM     13  C   UNL A   1      33.876  25.815  25.381  1.00  0.00     0.019 A 
ATOM     14  O   UNL A   1      32.343  24.121  24.691  1.00  0.00    -0.475 OA
ATOM     15  C   UNL A   1      34.063  27.124  25.807  1.00  0.00     0.036 A 
ATOM     16  C   UNL A   1      34.954  24.904  25.036  1.00  0.00     0.027 C 
ATOM     17  C   UNL A   1      33.316  23.080  24.988  1.00  0.00     0.316 C 
BRANCH   9  18
ATOM     18  C   UNL A   1      30.079  25.640  25.313  1.00  0.00     0.039 C 
BRANCH  18  19
ATOM     19  C   UNL A   1      29.663  25.772  23.857  1.00  0.00     0.001 C 
ATOM     20  C   UNL A   1      29.162  27.184  23.599  1.00  0.00     0.004 C 
ENDBRANCH  18  19
ENDBRANCH   9  18
BRANCH  12  21
ATOM     21  S   UNL A   1      33.255  29.656  26.603  1.00  0.00     0.310 S 
ATOM     22  F   UNL A   1      31.890  29.683  27.410  1.00  0.00    -0.094 F 
ATOM     23  F   UNL A   1      32.443  30.150  25.346  1.00  0.00    -0.094 F 
ATOM     24  F   UNL A   1      33.486  31.122  27.066  1.00  0.00    -0.094 F 
ATOM     25  F   UNL A   1      33.943  29.138  27.927  1.00  0.00    -0.094 F 
ATOM     26  F   UNL A   1      32.931  28.161  26.204  1.00  0.00    -0.094 F 
ENDBRANCH  12  21
BRANCH  17  27
ATOM     27  C   UNL A   1      33.103  21.915  24.035  1.00  0.00     0.430 C 
ATOM     28  F   UNL A   1      33.868  20.893  24.407  1.00  0.00    -0.167 F 
ATOM     29  F   UNL A   1      31.825  21.547  24.064  1.00  0.00    -0.167 F 
ATOM     30  F   UNL A   1      33.429  22.287  22.801  1.00  0.00    -0.167 F 
ENDBRANCH  17  27
ENDBRANCH   6   8
ENDBRANCH   5   6
ENDBRANCH   4   5
ENDBRANCH   3   4
ENDBRANCH   2   3
ENDBRANCH   1   2
BRANCH   1  31
ATOM     31  C   UNL A   1      41.205  20.753  26.072  1.00  0.00     0.188 C 
BRANCH  31  32
ATOM     32  O   UNL A   1      41.880  21.933  25.660  1.00  0.00    -0.376 OA
BRANCH  32  33
ATOM     33  C   UNL A   1      43.279  21.691  25.632  1.00  0.00     0.202 C 
BRANCH  33  34
ATOM     34  C   UNL A   1      43.997  22.927  25.118  1.00  0.00     0.261 C 
BRANCH  34  35
ATOM     35  O   UNL A   1      43.885  23.971  26.074  1.00  0.00    -0.460 OA
BRANCH  35  36
ATOM     36  C   UNL A   1      43.059  25.094  25.806  1.00  0.00     0.338 C 
ATOM     37  O   UNL A   1      42.670  25.328  24.618  1.00  0.00    -0.246 OA
BRANCH  36  38
ATOM     38  C   UNL A   1      42.638  26.016  26.938  1.00  0.00     0.060 A 
ATOM     39  C   UNL A   1      41.726  25.514  27.853  1.00  0.00     0.016 A 
ATOM     40  C   UNL A   1      43.133  27.242  27.061  1.00  0.00     0.016 A 
ATOM     41  C   UNL A   1      41.174  26.496  28.710  1.00  0.00     0.010 A 
ATOM     42  C   UNL A   1      42.639  28.104  28.011  1.00  0.00     0.010 A 
ATOM     43  C   UNL A   1      41.694  27.692  28.910  1.00  0.00    -0.014 A 
BRANCH  43  44
ATOM     44  C   UNL A   1      41.265  28.567  30.077  1.00  0.00     0.031 A 
ATOM     45  C   UNL A   1      40.198  29.455  29.930  1.00  0.00     0.074 A 
ATOM     46  C   UNL A   1      42.017  28.446  31.232  1.00  0.00     0.049 A 
ATOM     47  N   UNL A   1      39.703  30.291  30.844  1.00  0.00    -0.248 NA
ATOM     48  C   UNL A   1      39.420  29.611  28.692  1.00  0.00     0.031 C 
ATOM     49  C   UNL A   1      43.089  27.547  31.392  1.00  0.00     0.029 A 
ATOM     50  N   UNL A   1      41.878  29.147  32.410  1.00  0.00    -0.354 N 
ATOM     51  C   UNL A   1      38.669  30.968  30.339  1.00  0.00     0.074 A 
ATOM     52  C   UNL A   1      38.476  30.544  28.945  1.00  0.00     0.031 C 
ATOM     53  C   UNL A   1      43.596  27.711  32.642  1.00  0.00     0.029 A 
ATOM     54  C   UNL A   1      42.849  28.716  33.285  1.00  0.00     0.049 A 
ATOM     55  H   UNL A   1      41.201  29.839  32.592  1.00  0.00     0.167 HD
ATOM     56  C   UNL A   1      37.879  31.918  30.987  1.00  0.00     0.031 A 
ATOM     57  C   UNL A   1      43.087  29.163  34.575  1.00  0.00     0.031 A 
ATOM     58  C   UNL A   1      38.091  32.334  32.291  1.00  0.00     0.049 A 
ATOM     59  C   UNL A   1      42.334  30.157  35.203  1.00  0.00     0.074 A 
ATOM     60  C   UNL A   1      37.299  33.287  32.961  1.00  0.00     0.029 A 
ATOM     61  N   UNL A   1      39.078  31.920  33.159  1.00  0.00    -0.354 N 
ATOM     62  N   UNL A   1      41.276  30.804  34.712  1.00  0.00    -0.248 NA
ATOM     63  C   UNL A   1      42.598  30.661  36.558  1.00  0.00     0.031 C 
ATOM     64  C   UNL A   1      37.806  33.452  34.212  1.00  0.00     0.029 A 
ATOM     65  C   UNL A   1      38.924  32.606  34.343  1.00  0.00     0.049 A 
ATOM     66  H   UNL A   1      39.772  31.250  32.965  1.00  0.00     0.167 HD
ATOM     67  C   UNL A   1      40.807  31.670  35.613  1.00  0.00     0.074 A 
ATOM     68  C   UNL A   1      41.655  31.595  36.810  1.00  0.00     0.031 C 
ATOM     69  C   UNL A   1      39.704  32.516  35.486  1.00  0.00     0.031 A 
BRANCH  56  70
ATOM     70  C   UNL A   1      36.721  32.534  30.217  1.00  0.00    -0.014 A 
ATOM     71  C   UNL A   1      36.947  33.620  29.388  1.00  0.00     0.009 A 
ATOM     72  C   UNL A   1      35.519  31.980  30.315  1.00  0.00     0.009 A 
ATOM     73  C   UNL A   1      35.764  34.237  28.916  1.00  0.00     0.001 A 
ATOM     74  C   UNL A   1      34.429  32.564  29.715  1.00  0.00     0.001 A 
ATOM     75  C   UNL A   1      34.570  33.675  28.929  1.00  0.00     0.000 A 
ENDBRANCH  56  70
BRANCH  57  76
ATOM     76  C   UNL A   1      44.236  28.536  35.350  1.00  0.00    -0.014 A 
ATOM     77  C   UNL A   1      44.043  27.322  35.989  1.00  0.00     0.009 A 
ATOM     78  C   UNL A   1      45.387  29.190  35.446  1.00  0.00     0.009 A 
ATOM     79  C   UNL A   1      45.036  27.017  36.950  1.00  0.00     0.001 A 
ATOM     80  C   UNL A   1      46.367  28.757  36.306  1.00  0.00     0.001 A 
ATOM     81  C   UNL A   1      46.220  27.597  37.014  1.00  0.00     0.000 A 
ENDBRANCH  57  76
BRANCH  69  82
ATOM     82  C   UNL A   1      39.335  33.391  36.672  1.00  0.00    -0.014 A 
ATOM     83  C   UNL A   1      39.816  34.691  36.707  1.00  0.00     0.009 A 
ATOM     84  C   UNL A   1      38.569  32.913  37.645  1.00  0.00     0.009 A 
ATOM     85  C   UNL A   1      39.667  35.323  37.964  1.00  0.00     0.001 A 
ATOM     86  C   UNL A   1      38.356  33.643  38.790  1.00  0.00     0.001 A 
ATOM     87  C   UNL A   1      38.851  34.912  38.918  1.00  0.00     0.000 A 
ENDBRANCH  69  82
ENDBRANCH  43  44
ENDBRANCH  36  38
ENDBRANCH  35  36
ENDBRANCH  34  35
ENDBRANCH  33  34
ENDBRANCH  32  33
ENDBRANCH  31  32
ENDBRANCH   1  31
TORSDOF 21
ENDMDL
MODEL 3
REMARK VINA RESULT:      -9.8      4.321      9.882
REMARK SMILES CCCc1cc(S(F)(F)(F)(F)F)cc2c1O[C@@H](C(F)(F)F)C(C(=O)OCCOCCOCCOC(=O)c1ccc(-c3c4nc(c(-c5ccccc5)c5ccc([nH]5)c(-c5ccccc5)c5nc(c(-c6ccccc6)c6ccc3[nH]6)C=C5)C=C4)cc1)=C2
REMARK SMILES IDX 29 1 28 2 27 3 26 4 25 5 23 6 24 7 22 8 4 9 5 10 15 11 6 12
REMARK SMILES IDX 14 13 16 14 13 15 85 16 17 17 3 18 2 19 1 20 7 21 8 22 9 23
REMARK SMILES IDX 10 24 11 25 12 26 18 27 19 28 20 29 21 30 30 31 31 32 32 33
REMARK SMILES IDX 33 34 34 35 35 36 36 37 37 38 38 39 84 40 39 41 83 42 40 43
REMARK SMILES IDX 41 44 42 45 77 46 43 47 82 48 76 49 78 50 44 51 81 52 75 53
REMARK SMILES IDX 74 54 45 56 67 57 52 58 66 59 53 60 56 61 65 62 79 63 54 64
REMARK SMILES IDX 55 65 64 67 80 68 57 69 46 70 47 71 51 72 48 73 50 74 49 75
REMARK SMILES IDX 68 76 69 77 73 78 70 79 72 80 71 81 58 82 59 83 63 84 60 85
REMARK SMILES IDX 62 86 61 87
REMARK H PARENT 78 55 56 66
REMARK Flexibility Score: inf
ROOT
ATOM      1  C   UNL A   1      40.016  21.653  26.825  1.00  0.00     0.188 C 
ENDROOT
BRANCH   1   2
ATOM      2  O   UNL A   1      39.113  22.095  25.823  1.00  0.00    -0.376 OA
BRANCH   2   3
ATOM      3  C   UNL A   1      38.504  23.309  26.236  1.00  0.00     0.202 C 
BRANCH   3   4
ATOM      4  C   UNL A   1      37.296  23.595  25.358  1.00  0.00     0.261 C 
BRANCH   4   5
ATOM      5  O   UNL A   1      36.455  22.451  25.322  1.00  0.00    -0.460 OA
BRANCH   5   6
ATOM      6  C   UNL A   1      35.109  22.545  25.765  1.00  0.00     0.338 C 
ATOM      7  O   UNL A   1      34.613  21.626  26.489  1.00  0.00    -0.246 OA
BRANCH   6   8
ATOM      8  C   UNL A   1      34.262  23.745  25.374  1.00  0.00     0.087 C 
ATOM      9  C   UNL A   1      32.260  27.106  23.909  1.00  0.00    -0.004 A 
ATOM     10  C   UNL A   1      32.255  28.279  24.640  1.00  0.00     0.032 A 
ATOM     11  C   UNL A   1      32.971  26.032  24.387  1.00  0.00     0.131 A 
ATOM     12  C   UNL A   1      32.947  28.378  25.817  1.00  0.00     0.108 A 
ATOM     13  C   UNL A   1      33.665  26.089  25.582  1.00  0.00     0.019 A 
ATOM     14  O   UNL A   1      33.058  24.912  23.597  1.00  0.00    -0.475 OA
ATOM     15  C   UNL A   1      33.644  27.285  26.290  1.00  0.00     0.036 A 
ATOM     16  C   UNL A   1      34.419  24.913  25.984  1.00  0.00     0.027 C 
ATOM     17  C   UNL A   1      33.216  23.633  24.274  1.00  0.00     0.316 C 
BRANCH   9  18
ATOM     18  C   UNL A   1      31.494  27.005  22.600  1.00  0.00     0.039 C 
BRANCH  18  19
ATOM     19  C   UNL A   1      30.135  27.669  22.754  1.00  0.00     0.001 C 
ATOM     20  C   UNL A   1      29.257  26.822  23.661  1.00  0.00     0.004 C 
ENDBRANCH  18  19
ENDBRANCH   9  18
BRANCH  12  21
ATOM     21  S   UNL A   1      32.948  29.931  26.748  1.00  0.00     0.310 S 
ATOM     22  F   UNL A   1      33.556  29.231  28.035  1.00  0.00    -0.094 F 
ATOM     23  F   UNL A   1      31.521  29.564  27.307  1.00  0.00    -0.094 F 
ATOM     24  F   UNL A   1      32.950  31.264  27.548  1.00  0.00    -0.094 F 
ATOM     25  F   UNL A   1      34.433  30.213  26.290  1.00  0.00    -0.094 F 
ATOM     26  F   UNL A   1      33.006  28.528  26.021  1.00  0.00    -0.094 F 
ENDBRANCH  12  21
BRANCH  17  27
ATOM     27  C   UNL A   1      33.667  22.591  23.263  1.00  0.00     0.430 C 
ATOM     28  F   UNL A   1      33.655  21.389  23.832  1.00  0.00    -0.167 F 
ATOM     29  F   UNL A   1      32.841  22.597  22.220  1.00  0.00    -0.167 F 
ATOM     30  F   UNL A   1      34.900  22.875  22.854  1.00  0.00    -0.167 F 
ENDBRANCH  17  27
ENDBRANCH   6   8
ENDBRANCH   5   6
ENDBRANCH   4   5
ENDBRANCH   3   4
ENDBRANCH   2   3
ENDBRANCH   1   2
BRANCH   1  31
ATOM     31  C   UNL A   1      40.588  20.301  26.431  1.00  0.00     0.188 C 
BRANCH  31  32
ATOM     32  O   UNL A   1      41.793  20.491  25.702  1.00  0.00    -0.376 OA
BRANCH  32  33
ATOM     33  C   UNL A   1      42.714  19.463  26.037  1.00  0.00     0.202 C 
BRANCH  33  34
ATOM     34  C   UNL A   1      43.891  19.505  25.077  1.00  0.00     0.261 C 
BRANCH  34  35
ATOM     35  O   UNL A   1      44.112  20.843  24.657  1.00  0.00    -0.460 OA
BRANCH  35  36
ATOM     36  C   UNL A   1      45.229  21.567  25.149  1.00  0.00     0.338 C 
ATOM     37  O   UNL A   1      46.392  21.057  25.091  1.00  0.00    -0.246 OA
BRANCH  36  38
ATOM     38  C   UNL A   1      45.036  22.952  25.745  1.00  0.00     0.060 A 
ATOM     39  C   UNL A   1      45.217  23.079  27.113  1.00  0.00     0.016 A 
ATOM     40  C   UNL A   1      44.725  23.999  24.990  1.00  0.00     0.016 A 
ATOM     41  C   UNL A   1      44.762  24.312  27.638  1.00  0.00     0.010 A 
ATOM     42  C   UNL A   1      44.422  25.210  25.565  1.00  0.00     0.010 A 
ATOM     43  C   UNL A   1      44.524  25.391  26.917  1.00  0.00    -0.014 A 
BRANCH  43  44
ATOM     44  C   UNL A   1      44.369  26.763  27.554  1.00  0.00     0.031 A 
ATOM     45  C   UNL A   1      43.098  27.256  27.852  1.00  0.00     0.074 A 
ATOM     46  C   UNL A   1      45.541  27.468  27.764  1.00  0.00     0.049 A 
ATOM     47  N   UNL A   1      42.790  28.433  28.401  1.00  0.00    -0.248 NA
ATOM     48  C   UNL A   1      41.849  26.524  27.597  1.00  0.00     0.031 C 
ATOM     49  C   UNL A   1      46.828  26.974  27.475  1.00  0.00     0.029 A 
ATOM     50  N   UNL A   1      45.685  28.739  28.276  1.00  0.00    -0.354 N 
ATOM     51  C   UNL A   1      41.467  28.540  28.549  1.00  0.00     0.074 A 
ATOM     52  C   UNL A   1      40.842  27.317  28.028  1.00  0.00     0.031 C 
ATOM     53  C   UNL A   1      47.733  27.936  27.796  1.00  0.00     0.029 A 
ATOM     54  C   UNL A   1      47.026  29.048  28.292  1.00  0.00     0.049 A 
ATOM     55  H   UNL A   1      44.953  29.325  28.576  1.00  0.00     0.167 HD
ATOM     56  C   UNL A   1      40.759  29.609  29.099  1.00  0.00     0.031 A 
ATOM     57  C   UNL A   1      47.619  30.228  28.710  1.00  0.00     0.031 A 
ATOM     58  C   UNL A   1      41.356  30.773  29.557  1.00  0.00     0.049 A 
ATOM     59  C   UNL A   1      46.906  31.322  29.206  1.00  0.00     0.074 A 
ATOM     60  C   UNL A   1      40.657  31.857  30.121  1.00  0.00     0.029 A 
ATOM     61  N   UNL A   1      42.697  31.092  29.551  1.00  0.00    -0.354 N 
ATOM     62  N   UNL A   1      45.589  31.413  29.391  1.00  0.00    -0.248 NA
ATOM     63  C   UNL A   1      47.522  32.589  29.622  1.00  0.00     0.031 C 
ATOM     64  C   UNL A   1      41.562  32.821  30.442  1.00  0.00     0.029 A 
ATOM     65  C   UNL A   1      42.841  32.354  30.083  1.00  0.00     0.049 A 
ATOM     66  H   UNL A   1      43.425  30.517  29.223  1.00  0.00     0.167 HD
ATOM     67  C   UNL A   1      45.278  32.606  29.902  1.00  0.00     0.074 A 
ATOM     68  C   UNL A   1      46.516  33.382  30.051  1.00  0.00     0.031 C 
ATOM     69  C   UNL A   1      44.011  33.077  30.253  1.00  0.00     0.031 A 
BRANCH  56  70
ATOM     70  C   UNL A   1      39.247  29.492  29.201  1.00  0.00    -0.014 A 
ATOM     71  C   UNL A   1      38.457  29.813  28.109  1.00  0.00     0.009 A 
ATOM     72  C   UNL A   1      38.713  29.030  30.325  1.00  0.00     0.009 A 
ATOM     73  C   UNL A   1      37.075  29.885  28.403  1.00  0.00     0.001 A 
ATOM     74  C   UNL A   1      37.349  29.002  30.492  1.00  0.00     0.001 A 
ATOM     75  C   UNL A   1      36.508  29.362  29.475  1.00  0.00     0.000 A 
ENDBRANCH  56  70
BRANCH  57  76
ATOM     76  C   UNL A   1      49.134  30.340  28.623  1.00  0.00    -0.014 A 
ATOM     77  C   UNL A   1      49.715  30.803  27.454  1.00  0.00     0.009 A 
ATOM     78  C   UNL A   1      49.874  29.941  29.650  1.00  0.00     0.009 A 
ATOM     79  C   UNL A   1      51.101  30.534  27.358  1.00  0.00     0.001 A 
ATOM     80  C   UNL A   1      51.238  29.830  29.527  1.00  0.00     0.001 A 
ATOM     81  C   UNL A   1      51.874  30.214  28.379  1.00  0.00     0.000 A 
ENDBRANCH  57  76
BRANCH  69  82
ATOM     82  C   UNL A   1      43.909  34.467  30.860  1.00  0.00    -0.014 A 
ATOM     83  C   UNL A   1      43.681  35.541  30.014  1.00  0.00     0.009 A 
ATOM     84  C   UNL A   1      44.034  34.637  32.171  1.00  0.00     0.009 A 
ATOM     85  C   UNL A   1      43.889  36.802  30.620  1.00  0.00     0.001 A 
ATOM     86  C   UNL A   1      44.095  35.900  32.709  1.00  0.00     0.001 A 
ATOM     87  C   UNL A   1      43.937  37.008  31.923  1.00  0.00     0.000 A 
ENDBRANCH  69  82
ENDBRANCH  43  44
ENDBRANCH  36  38
ENDBRANCH  35  36
ENDBRANCH  34  35
ENDBRANCH  33  34
ENDBRANCH  32  33
ENDBRANCH  31  32
ENDBRANCH   1  31
TORSDOF 21
ENDMDL
