MODEL 1
REMARK VINA RESULT:      -9.0      0.000      0.000
REMARK SMILES Cc1c(C(=O)OCCOCCOCCOC(=O)c2ccc(-c3c4nc(c(-c5ccccc5)c5ccc([nH]5)c(-c5ccccc5)c5nc(c(-c6ccccc6)c6ccc3[nH]6)C=C5)C=C4)cc2)cccc1-n1c(C)cc(/C=C2/C(=O)NC(=S)N=C2O)c1C
REMARK SMILES IDX 10 1 9 2 8 3 7 4 6 5 4 6 5 7 3 8 1 9 2 10 69 11 66 12 68 13
REMARK SMILES IDX 67 14 70 15 71 16 85 17 72 18 73 19 74 20 86 21 75 22 76 23
REMARK SMILES IDX 77 24 83 25 78 26 79 27 82 28 80 29 81 31 84 32 11 34 12 35
REMARK SMILES IDX 13 36 14 37 15 38 16 39 17 40 18 41 19 42 65 43 20 44 64 45
REMARK SMILES IDX 21 46 22 47 23 48 58 49 24 50 63 51 57 52 59 53 25 54 62 55
REMARK SMILES IDX 56 56 55 57 26 59 48 60 33 61 47 62 34 63 37 64 46 65 60 66
REMARK SMILES IDX 35 67 36 68 45 70 61 71 38 72 27 73 28 74 32 75 29 76 31 77
REMARK SMILES IDX 30 78 49 79 50 80 54 81 51 82 53 83 52 84 39 85 40 86 44 87
REMARK SMILES IDX 41 88 43 89 42 90
REMARK H PARENT 79 30 84 33 59 58 37 69
REMARK Flexibility Score: inf
ROOT
ATOM      1  C   UNL A   1      49.118  25.105  33.317  1.00  0.00     0.188 C 
ENDROOT
BRANCH   1   2
ATOM      2  O   UNL A   1      48.577  25.211  31.982  1.00  0.00    -0.376 OA
BRANCH   2   3
ATOM      3  C   UNL A   1      48.279  26.449  31.334  1.00  0.00     0.202 C 
BRANCH   3   4
ATOM      4  C   UNL A   1      47.446  26.587  29.916  1.00  0.00     0.261 C 
BRANCH   4   5
ATOM      5  O   UNL A   1      47.098  27.936  28.928  1.00  0.00    -0.460 OA
BRANCH   5   6
ATOM      6  C   UNL A   1      46.110  28.937  28.720  1.00  0.00     0.338 C 
ATOM      7  O   UNL A   1      46.185  30.068  28.244  1.00  0.00    -0.246 OA
BRANCH   6   8
ATOM      8  C   UNL A   1      44.702  28.842  29.111  1.00  0.00     0.065 A 
ATOM      9  C   UNL A   1      44.511  27.450  27.067  1.00  0.00     0.047 C 
ATOM     10  C   UNL A   1      44.021  27.854  28.433  1.00  0.00    -0.012 A 
ATOM     11  C   UNL A   1      43.003  27.197  29.145  1.00  0.00     0.049 A 
ATOM     12  C   UNL A   1      44.352  29.126  30.475  1.00  0.00     0.016 A 
ATOM     13  C   UNL A   1      42.612  27.497  30.457  1.00  0.00     0.027 A 
ATOM     14  C   UNL A   1      43.301  28.480  31.135  1.00  0.00     0.003 A 
BRANCH  11  15
ATOM     15  N   UNL A   1      42.236  26.272  28.447  1.00  0.00    -0.318 N 
ATOM     16  C   UNL A   1      40.956  26.490  27.979  1.00  0.00     0.020 A 
ATOM     17  C   UNL A   1      42.503  24.920  28.535  1.00  0.00     0.027 A 
ATOM     18  C   UNL A   1      40.303  27.834  27.992  1.00  0.00     0.065 C 
ATOM     19  C   UNL A   1      40.464  25.255  27.605  1.00  0.00     0.031 A 
ATOM     20  C   UNL A   1      41.448  24.277  27.921  1.00  0.00    -0.003 A 
ATOM     21  C   UNL A   1      43.731  24.437  29.255  1.00  0.00     0.065 C 
BRANCH  20  22
ATOM     22  C   UNL A   1      41.268  22.872  27.816  1.00  0.00     0.029 C 
ATOM     23  C   UNL A   1      41.779  22.012  26.916  1.00  0.00     0.102 C 
ATOM     24  C   UNL A   1      41.638  20.577  27.243  1.00  0.00     0.262 C 
ATOM     25  C   UNL A   1      42.594  22.278  25.728  1.00  0.00     0.226 C 
ATOM     26  O   UNL A   1      40.848  20.129  28.063  1.00  0.00    -0.269 OA
ATOM     27  N   UNL A   1      42.536  19.779  26.587  1.00  0.00    -0.297 N 
ATOM     28  N   UNL A   1      43.375  21.450  25.138  1.00  0.00    -0.184 NA
ATOM     29  C   UNL A   1      43.438  20.173  25.628  1.00  0.00     0.203 C 
ATOM     30  H   UNL A   1      42.535  18.824  26.827  1.00  0.00     0.172 HD
ATOM     31  S   UNL A   1      44.534  19.031  25.078  1.00  0.00    -0.038 S 
BRANCH  25  32
ATOM     32  O   UNL A   1      42.474  23.488  25.174  1.00  0.00    -0.493 OA
ATOM     33  H   UNL A   1      41.631  23.803  24.916  1.00  0.00     0.295 HD
ENDBRANCH  25  32
ENDBRANCH  20  22
ENDBRANCH  11  15
ENDBRANCH   6   8
ENDBRANCH   5   6
ENDBRANCH   4   5
ENDBRANCH   3   4
ENDBRANCH   2   3
ENDBRANCH   1   2
BRANCH   1  34
ATOM     34  C   UNL A   1      48.265  24.708  34.525  1.00  0.00     0.188 C 
BRANCH  34  35
ATOM     35  O   UNL A   1      47.509  23.552  34.224  1.00  0.00    -0.376 OA
BRANCH  35  36
ATOM     36  C   UNL A   1      46.805  22.963  35.301  1.00  0.00     0.202 C 
BRANCH  36  37
ATOM     37  C   UNL A   1      45.820  21.888  34.815  1.00  0.00     0.261 C 
BRANCH  37  38
ATOM     38  O   UNL A   1      44.458  22.254  35.157  1.00  0.00    -0.460 OA
BRANCH  38  39
ATOM     39  C   UNL A   1      43.746  22.984  34.238  1.00  0.00     0.338 C 
ATOM     40  O   UNL A   1      43.631  22.692  33.057  1.00  0.00    -0.246 OA
BRANCH  39  41
ATOM     41  C   UNL A   1      43.355  24.316  34.822  1.00  0.00     0.060 A 
ATOM     42  C   UNL A   1      42.144  24.610  35.465  1.00  0.00     0.016 A 
ATOM     43  C   UNL A   1      44.006  25.384  34.319  1.00  0.00     0.016 A 
ATOM     44  C   UNL A   1      41.530  25.941  35.402  1.00  0.00     0.010 A 
ATOM     45  C   UNL A   1      43.184  26.464  33.996  1.00  0.00     0.010 A 
ATOM     46  C   UNL A   1      41.987  26.964  34.556  1.00  0.00    -0.014 A 
BRANCH  46  47
ATOM     47  C   UNL A   1      41.149  28.364  34.117  1.00  0.00     0.031 A 
ATOM     48  C   UNL A   1      39.978  28.772  32.933  1.00  0.00     0.074 A 
ATOM     49  C   UNL A   1      41.607  29.503  34.691  1.00  0.00     0.049 A 
ATOM     50  N   UNL A   1      40.102  29.812  32.119  1.00  0.00    -0.248 NA
ATOM     51  C   UNL A   1      38.730  28.047  32.469  1.00  0.00     0.031 C 
ATOM     52  C   UNL A   1      41.115  30.867  34.516  1.00  0.00     0.029 A 
ATOM     53  N   UNL A   1      42.787  29.668  35.418  1.00  0.00    -0.354 N 
ATOM     54  C   UNL A   1      39.049  29.813  31.192  1.00  0.00     0.074 A 
ATOM     55  C   UNL A   1      38.265  28.669  31.408  1.00  0.00     0.031 C 
ATOM     56  C   UNL A   1      42.124  31.714  34.773  1.00  0.00     0.029 A 
ATOM     57  C   UNL A   1      43.303  30.920  35.065  1.00  0.00     0.049 A 
ATOM     58  H   UNL A   1      43.179  29.028  36.055  1.00  0.00     0.167 HD
ATOM     59  C   UNL A   1      38.750  30.769  30.281  1.00  0.00     0.031 A 
ATOM     60  C   UNL A   1      44.540  31.045  34.510  1.00  0.00     0.031 A 
ATOM     61  C   UNL A   1      39.553  31.925  30.477  1.00  0.00     0.049 A 
ATOM     62  C   UNL A   1      44.550  31.770  33.180  1.00  0.00     0.074 A 
ATOM     63  C   UNL A   1      39.390  33.059  31.246  1.00  0.00     0.029 A 
ATOM     64  N   UNL A   1      40.892  31.814  30.190  1.00  0.00    -0.354 N 
ATOM     65  N   UNL A   1      43.489  32.149  32.523  1.00  0.00    -0.248 NA
ATOM     66  C   UNL A   1      45.784  32.025  32.435  1.00  0.00     0.031 C 
ATOM     67  C   UNL A   1      40.670  33.651  31.403  1.00  0.00     0.029 A 
ATOM     68  C   UNL A   1      41.574  32.903  30.675  1.00  0.00     0.049 A 
ATOM     69  H   UNL A   1      41.303  31.062  29.707  1.00  0.00     0.167 HD
ATOM     70  C   UNL A   1      43.866  32.619  31.289  1.00  0.00     0.074 A 
ATOM     71  C   UNL A   1      45.311  32.518  31.279  1.00  0.00     0.031 C 
ATOM     72  C   UNL A   1      42.972  33.012  30.339  1.00  0.00     0.031 A 
BRANCH  59  73
ATOM     73  C   UNL A   1      37.480  30.648  29.476  1.00  0.00    -0.014 A 
ATOM     74  C   UNL A   1      37.513  30.007  28.232  1.00  0.00     0.009 A 
ATOM     75  C   UNL A   1      36.291  31.336  29.819  1.00  0.00     0.009 A 
ATOM     76  C   UNL A   1      36.455  30.134  27.321  1.00  0.00     0.001 A 
ATOM     77  C   UNL A   1      35.246  31.493  28.893  1.00  0.00     0.001 A 
ATOM     78  C   UNL A   1      35.338  30.905  27.636  1.00  0.00     0.000 A 
ENDBRANCH  59  73
BRANCH  60  79
ATOM     79  C   UNL A   1      45.539  30.012  34.933  1.00  0.00    -0.014 A 
ATOM     80  C   UNL A   1      45.782  28.913  34.076  1.00  0.00     0.009 A 
ATOM     81  C   UNL A   1      46.414  30.204  36.012  1.00  0.00     0.009 A 
ATOM     82  C   UNL A   1      46.907  28.097  34.236  1.00  0.00     0.001 A 
ATOM     83  C   UNL A   1      47.529  29.368  36.186  1.00  0.00     0.001 A 
ATOM     84  C   UNL A   1      47.784  28.330  35.289  1.00  0.00     0.000 A 
ENDBRANCH  60  79
BRANCH  72  85
ATOM     85  C   UNL A   1      43.315  33.499  28.957  1.00  0.00    -0.014 A 
ATOM     86  C   UNL A   1      42.958  34.766  28.489  1.00  0.00     0.009 A 
ATOM     87  C   UNL A   1      43.899  32.613  28.021  1.00  0.00     0.009 A 
ATOM     88  C   UNL A   1      43.229  35.148  27.169  1.00  0.00     0.001 A 
ATOM     89  C   UNL A   1      44.147  32.980  26.698  1.00  0.00     0.001 A 
ATOM     90  C   UNL A   1      43.821  34.258  26.276  1.00  0.00     0.000 A 
ENDBRANCH  72  85
ENDBRANCH  46  47
ENDBRANCH  39  41
ENDBRANCH  38  39
ENDBRANCH  37  38
ENDBRANCH  36  37
ENDBRANCH  35  36
ENDBRANCH  34  35
ENDBRANCH   1  34
TORSDOF 20
ENDMDL
MODEL 2
REMARK VINA RESULT:      -8.8      5.551     10.636
REMARK SMILES Cc1c(C(=O)OCCOCCOCCOC(=O)c2ccc(-c3c4nc(c(-c5ccccc5)c5ccc([nH]5)c(-c5ccccc5)c5nc(c(-c6ccccc6)c6ccc3[nH]6)C=C5)C=C4)cc2)cccc1-n1c(C)cc(/C=C2/C(=O)NC(=S)N=C2O)c1C
REMARK SMILES IDX 10 1 9 2 8 3 7 4 6 5 4 6 5 7 3 8 1 9 2 10 69 11 66 12 68 13
REMARK SMILES IDX 67 14 70 15 71 16 85 17 72 18 73 19 74 20 86 21 75 22 76 23
REMARK SMILES IDX 77 24 83 25 78 26 79 27 82 28 80 29 81 31 84 32 11 34 12 35
REMARK SMILES IDX 13 36 14 37 15 38 16 39 17 40 18 41 19 42 65 43 20 44 64 45
REMARK SMILES IDX 21 46 22 47 23 48 58 49 24 50 63 51 57 52 59 53 25 54 62 55
REMARK SMILES IDX 56 56 55 57 26 59 48 60 33 61 47 62 34 63 37 64 46 65 60 66
REMARK SMILES IDX 35 67 36 68 45 70 61 71 38 72 27 73 28 74 32 75 29 76 31 77
REMARK SMILES IDX 30 78 49 79 50 80 54 81 51 82 53 83 52 84 39 85 40 86 44 87
REMARK SMILES IDX 41 88 43 89 42 90
REMARK H PARENT 79 30 84 33 59 58 37 69
REMARK Flexibility Score: inf
ROOT
ATOM      1  C   UNL A   1      34.001  35.449  28.804  1.00  0.00     0.188 C 
ENDROOT
BRANCH   1   2
ATOM      2  O   UNL A   1      33.961  34.233  28.027  1.00  0.00    -0.376 OA
BRANCH   2   3
ATOM      3  C   UNL A   1      35.004  33.257  28.009  1.00  0.00     0.202 C 
BRANCH   3   4
ATOM      4  C   UNL A   1      34.792  31.666  27.625  1.00  0.00     0.261 C 
BRANCH   4   5
ATOM      5  O   UNL A   1      33.384  30.747  27.322  1.00  0.00    -0.460 OA
BRANCH   5   6
ATOM      6  C   UNL A   1      32.229  30.723  26.494  1.00  0.00     0.338 C 
ATOM      7  O   UNL A   1      31.135  31.272  26.608  1.00  0.00    -0.246 OA
BRANCH   6   8
ATOM      8  C   UNL A   1      32.072  29.935  25.270  1.00  0.00     0.065 A 
ATOM      9  C   UNL A   1      33.980  28.641  26.183  1.00  0.00     0.047 C 
ATOM     10  C   UNL A   1      32.760  28.741  25.307  1.00  0.00    -0.012 A 
ATOM     11  C   UNL A   1      32.170  27.661  24.628  1.00  0.00     0.049 A 
ATOM     12  C   UNL A   1      30.819  30.002  24.571  1.00  0.00     0.016 A 
ATOM     13  C   UNL A   1      30.976  27.721  23.896  1.00  0.00     0.027 A 
ATOM     14  C   UNL A   1      30.286  28.915  23.869  1.00  0.00     0.003 A 
BRANCH  11  15
ATOM     15  N   UNL A   1      32.898  26.479  24.564  1.00  0.00    -0.318 N 
ATOM     16  C   UNL A   1      33.631  26.052  23.475  1.00  0.00     0.020 A 
ATOM     17  C   UNL A   1      32.607  25.422  25.404  1.00  0.00     0.027 A 
ATOM     18  C   UNL A   1      33.900  26.916  22.287  1.00  0.00     0.065 C 
ATOM     19  C   UNL A   1      33.953  24.732  23.718  1.00  0.00     0.031 A 
ATOM     20  C   UNL A   1      33.341  24.348  24.944  1.00  0.00    -0.003 A 
ATOM     21  C   UNL A   1      31.608  25.592  26.515  1.00  0.00     0.065 C 
BRANCH  20  22
ATOM     22  C   UNL A   1      33.320  23.030  25.471  1.00  0.00     0.029 C 
ATOM     23  C   UNL A   1      32.836  21.900  24.923  1.00  0.00     0.102 C 
ATOM     24  C   UNL A   1      33.221  20.641  25.598  1.00  0.00     0.262 C 
ATOM     25  C   UNL A   1      32.109  21.708  23.667  1.00  0.00     0.226 C 
ATOM     26  O   UNL A   1      33.651  20.572  26.742  1.00  0.00    -0.269 OA
ATOM     27  N   UNL A   1      33.119  19.539  24.792  1.00  0.00    -0.297 N 
ATOM     28  N   UNL A   1      32.018  20.619  22.997  1.00  0.00    -0.184 NA
ATOM     29  C   UNL A   1      32.620  19.501  23.512  1.00  0.00     0.203 C 
ATOM     30  H   UNL A   1      33.435  18.687  25.168  1.00  0.00     0.172 HD
ATOM     31  S   UNL A   1      32.737  18.054  22.677  1.00  0.00    -0.038 S 
BRANCH  25  32
ATOM     32  O   UNL A   1      31.432  22.759  23.197  1.00  0.00    -0.493 OA
ATOM     33  H   UNL A   1      30.975  23.324  23.788  1.00  0.00     0.295 HD
ENDBRANCH  25  32
ENDBRANCH  20  22
ENDBRANCH  11  15
ENDBRANCH   6   8
ENDBRANCH   5   6
ENDBRANCH   4   5
ENDBRANCH   3   4
ENDBRANCH   2   3
ENDBRANCH   1   2
BRANCH   1  34
ATOM     34  C   UNL A   1      32.956  35.781  29.873  1.00  0.00     0.188 C 
BRANCH  34  35
ATOM     35  O   UNL A   1      32.969  34.792  30.884  1.00  0.00    -0.376 OA
BRANCH  35  36
ATOM     36  C   UNL A   1      34.234  34.470  31.432  1.00  0.00     0.202 C 
BRANCH  36  37
ATOM     37  C   UNL A   1      34.405  32.953  31.612  1.00  0.00     0.261 C 
BRANCH  37  38
ATOM     38  O   UNL A   1      35.574  32.666  32.421  1.00  0.00    -0.460 OA
BRANCH  38  39
ATOM     39  C   UNL A   1      36.808  32.855  31.847  1.00  0.00     0.338 C 
ATOM     40  O   UNL A   1      37.443  33.899  31.893  1.00  0.00    -0.246 OA
BRANCH  39  41
ATOM     41  C   UNL A   1      37.142  31.700  30.941  1.00  0.00     0.060 A 
ATOM     42  C   UNL A   1      37.287  30.362  31.332  1.00  0.00     0.016 A 
ATOM     43  C   UNL A   1      37.760  32.027  29.788  1.00  0.00     0.016 A 
ATOM     44  C   UNL A   1      38.217  29.449  30.659  1.00  0.00     0.010 A 
ATOM     45  C   UNL A   1      38.862  31.229  29.476  1.00  0.00     0.010 A 
ATOM     46  C   UNL A   1      39.162  29.869  29.710  1.00  0.00    -0.014 A 
BRANCH  46  47
ATOM     47  C   UNL A   1      40.511  29.004  29.174  1.00  0.00     0.031 A 
ATOM     48  C   UNL A   1      40.785  27.447  28.508  1.00  0.00     0.074 A 
ATOM     49  C   UNL A   1      41.705  29.562  29.489  1.00  0.00     0.049 A 
ATOM     50  N   UNL A   1      41.702  26.610  28.976  1.00  0.00    -0.248 NA
ATOM     51  C   UNL A   1      40.037  26.669  27.443  1.00  0.00     0.031 C 
ATOM     52  C   UNL A   1      43.045  29.067  29.186  1.00  0.00     0.029 A 
ATOM     53  N   UNL A   1      41.936  30.628  30.360  1.00  0.00    -0.354 N 
ATOM     54  C   UNL A   1      41.605  25.382  28.303  1.00  0.00     0.074 A 
ATOM     55  C   UNL A   1      40.522  25.447  27.413  1.00  0.00     0.031 C 
ATOM     56  C   UNL A   1      43.892  29.556  30.105  1.00  0.00     0.029 A 
ATOM     57  C   UNL A   1      43.115  30.330  31.054  1.00  0.00     0.049 A 
ATOM     58  H   UNL A   1      41.379  31.432  30.466  1.00  0.00     0.167 HD
ATOM     59  C   UNL A   1      42.435  24.318  28.402  1.00  0.00     0.031 A 
ATOM     60  C   UNL A   1      43.130  30.228  32.411  1.00  0.00     0.031 A 
ATOM     61  C   UNL A   1      43.586  24.641  29.171  1.00  0.00     0.049 A 
ATOM     62  C   UNL A   1      43.668  28.908  32.925  1.00  0.00     0.074 A 
ATOM     63  C   UNL A   1      44.817  25.167  28.838  1.00  0.00     0.029 A 
ATOM     64  N   UNL A   1      43.402  24.852  30.516  1.00  0.00    -0.354 N 
ATOM     65  N   UNL A   1      43.982  27.883  32.181  1.00  0.00    -0.248 NA
ATOM     66  C   UNL A   1      43.787  28.612  34.354  1.00  0.00     0.031 C 
ATOM     67  C   UNL A   1      45.391  25.687  30.027  1.00  0.00     0.029 A 
ATOM     68  C   UNL A   1      44.528  25.411  31.069  1.00  0.00     0.049 A 
ATOM     69  H   UNL A   1      42.581  24.635  31.012  1.00  0.00     0.167 HD
ATOM     70  C   UNL A   1      44.270  26.811  32.988  1.00  0.00     0.074 A 
ATOM     71  C   UNL A   1      44.130  27.315  34.339  1.00  0.00     0.031 C 
ATOM     72  C   UNL A   1      44.553  25.570  32.501  1.00  0.00     0.031 A 
BRANCH  59  73
ATOM     73  C   UNL A   1      42.240  23.143  27.477  1.00  0.00    -0.014 A 
ATOM     74  C   UNL A   1      41.775  21.929  27.996  1.00  0.00     0.009 A 
ATOM     75  C   UNL A   1      42.702  23.140  26.138  1.00  0.00     0.009 A 
ATOM     76  C   UNL A   1      41.867  20.740  27.258  1.00  0.00     0.001 A 
ATOM     77  C   UNL A   1      42.827  21.944  25.412  1.00  0.00     0.001 A 
ATOM     78  C   UNL A   1      42.424  20.741  25.981  1.00  0.00     0.000 A 
ENDBRANCH  59  73
BRANCH  60  79
ATOM     79  C   UNL A   1      42.138  31.090  33.130  1.00  0.00    -0.014 A 
ATOM     80  C   UNL A   1      42.469  32.442  33.378  1.00  0.00     0.009 A 
ATOM     81  C   UNL A   1      40.812  30.692  33.352  1.00  0.00     0.009 A 
ATOM     82  C   UNL A   1      41.495  33.378  33.741  1.00  0.00     0.001 A 
ATOM     83  C   UNL A   1      39.840  31.628  33.741  1.00  0.00     0.001 A 
ATOM     84  C   UNL A   1      40.178  32.970  33.917  1.00  0.00     0.000 A 
ENDBRANCH  60  79
BRANCH  72  85
ATOM     85  C   UNL A   1      44.840  24.345  33.328  1.00  0.00    -0.014 A 
ATOM     86  C   UNL A   1      43.854  23.423  33.684  1.00  0.00     0.009 A 
ATOM     87  C   UNL A   1      46.121  24.164  33.900  1.00  0.00     0.009 A 
ATOM     88  C   UNL A   1      44.150  22.339  34.521  1.00  0.00     0.001 A 
ATOM     89  C   UNL A   1      46.415  23.101  34.755  1.00  0.00     0.001 A 
ATOM     90  C   UNL A   1      45.427  22.179  35.055  1.00  0.00     0.000 A 
ENDBRANCH  72  85
ENDBRANCH  46  47
ENDBRANCH  39  41
ENDBRANCH  38  39
ENDBRANCH  37  38
ENDBRANCH  36  37
ENDBRANCH  35  36
ENDBRANCH  34  35
ENDBRANCH   1  34
TORSDOF 20
ENDMDL
MODEL 3
REMARK VINA RESULT:      -8.2      4.243      8.800
REMARK SMILES Cc1c(C(=O)OCCOCCOCCOC(=O)c2ccc(-c3c4nc(c(-c5ccccc5)c5ccc([nH]5)c(-c5ccccc5)c5nc(c(-c6ccccc6)c6ccc3[nH]6)C=C5)C=C4)cc2)cccc1-n1c(C)cc(/C=C2/C(=O)NC(=S)N=C2O)c1C
REMARK SMILES IDX 10 1 9 2 8 3 7 4 6 5 4 6 5 7 3 8 1 9 2 10 69 11 66 12 68 13
REMARK SMILES IDX 67 14 70 15 71 16 85 17 72 18 73 19 74 20 86 21 75 22 76 23
REMARK SMILES IDX 77 24 83 25 78 26 79 27 82 28 80 29 81 31 84 32 11 34 12 35
REMARK SMILES IDX 13 36 14 37 15 38 16 39 17 40 18 41 19 42 65 43 20 44 64 45
REMARK SMILES IDX 21 46 22 47 23 48 58 49 24 50 63 51 57 52 59 53 25 54 62 55
REMARK SMILES IDX 56 56 55 57 26 59 48 60 33 61 47 62 34 63 37 64 46 65 60 66
REMARK SMILES IDX 35 67 36 68 45 70 61 71 38 72 27 73 28 74 32 75 29 76 31 77
REMARK SMILES IDX 30 78 49 79 50 80 54 81 51 82 53 83 52 84 39 85 40 86 44 87
REMARK SMILES IDX 41 88 43 89 42 90
REMARK H PARENT 79 30 84 33 59 58 37 69
REMARK Flexibility Score: inf
ROOT
ATOM      1  C   UNL A   1      49.391  27.118  39.050  1.00  0.00     0.188 C 
ENDROOT
BRANCH   1   2
ATOM      2  O   UNL A   1      50.091  25.925  38.636  1.00  0.00    -0.376 OA
BRANCH   2   3
ATOM      3  C   UNL A   1      50.475  24.872  39.522  1.00  0.00     0.202 C 
BRANCH   3   4
ATOM      4  C   UNL A   1      49.516  23.590  39.924  1.00  0.00     0.261 C 
BRANCH   4   5
ATOM      5  O   UNL A   1      47.843  23.479  40.250  1.00  0.00    -0.460 OA
BRANCH   5   6
ATOM      6  C   UNL A   1      46.629  23.001  39.685  1.00  0.00     0.338 C 
ATOM      7  O   UNL A   1      45.483  23.442  39.726  1.00  0.00    -0.246 OA
BRANCH   6   8
ATOM      8  C   UNL A   1      46.473  21.759  38.924  1.00  0.00     0.065 A 
ATOM      9  C   UNL A   1      47.394  23.106  37.057  1.00  0.00     0.047 C 
ATOM     10  C   UNL A   1      47.143  21.777  37.720  1.00  0.00    -0.012 A 
ATOM     11  C   UNL A   1      47.669  20.551  37.281  1.00  0.00     0.049 A 
ATOM     12  C   UNL A   1      46.367  20.524  39.650  1.00  0.00     0.016 A 
ATOM     13  C   UNL A   1      47.531  19.326  37.949  1.00  0.00     0.027 A 
ATOM     14  C   UNL A   1      46.867  19.313  39.158  1.00  0.00     0.003 A 
BRANCH  11  15
ATOM     15  N   UNL A   1      48.255  20.527  36.021  1.00  0.00    -0.318 N 
ATOM     16  C   UNL A   1      47.622  20.148  34.855  1.00  0.00     0.020 A 
ATOM     17  C   UNL A   1      49.627  20.457  35.879  1.00  0.00     0.027 A 
ATOM     18  C   UNL A   1      46.151  19.904  34.771  1.00  0.00     0.065 C 
ATOM     19  C   UNL A   1      48.614  19.998  33.906  1.00  0.00     0.031 A 
ATOM     20  C   UNL A   1      49.867  20.226  34.540  1.00  0.00    -0.003 A 
ATOM     21  C   UNL A   1      50.519  20.574  37.084  1.00  0.00     0.065 C 
BRANCH  20  22
ATOM     22  C   UNL A   1      51.138  20.033  33.937  1.00  0.00     0.029 C 
ATOM     23  C   UNL A   1      51.936  20.927  33.325  1.00  0.00     0.102 C 
ATOM     24  C   UNL A   1      53.318  20.477  33.055  1.00  0.00     0.262 C 
ATOM     25  C   UNL A   1      51.695  22.339  33.020  1.00  0.00     0.226 C 
ATOM     26  O   UNL A   1      53.677  19.306  33.049  1.00  0.00    -0.269 OA
ATOM     27  N   UNL A   1      54.201  21.508  32.877  1.00  0.00    -0.297 N 
ATOM     28  N   UNL A   1      52.587  23.237  32.811  1.00  0.00    -0.184 NA
ATOM     29  C   UNL A   1      53.900  22.848  32.831  1.00  0.00     0.203 C 
ATOM     30  H   UNL A   1      55.148  21.265  32.769  1.00  0.00     0.172 HD
ATOM     31  S   UNL A   1      55.178  23.928  32.748  1.00  0.00    -0.038 S 
BRANCH  25  32
ATOM     32  O   UNL A   1      50.421  22.720  32.899  1.00  0.00    -0.493 OA
ATOM     33  H   UNL A   1      49.866  22.303  32.270  1.00  0.00     0.295 HD
ENDBRANCH  25  32
ENDBRANCH  20  22
ENDBRANCH  11  15
ENDBRANCH   6   8
ENDBRANCH   5   6
ENDBRANCH   4   5
ENDBRANCH   3   4
ENDBRANCH   2   3
ENDBRANCH   1   2
BRANCH   1  34
ATOM     34  C   UNL A   1      48.532  27.175  40.317  1.00  0.00     0.188 C 
BRANCH  34  35
ATOM     35  O   UNL A   1      47.308  26.502  40.100  1.00  0.00    -0.376 OA
BRANCH  35  36
ATOM     36  C   UNL A   1      46.150  27.116  40.637  1.00  0.00     0.202 C 
BRANCH  36  37
ATOM     37  C   UNL A   1      45.324  27.820  39.548  1.00  0.00     0.261 C 
BRANCH  37  38
ATOM     38  O   UNL A   1      44.423  26.880  38.908  1.00  0.00    -0.460 OA
BRANCH  38  39
ATOM     39  C   UNL A   1      44.671  26.553  37.597  1.00  0.00     0.338 C 
ATOM     40  O   UNL A   1      45.756  26.196  37.164  1.00  0.00    -0.246 OA
BRANCH  39  41
ATOM     41  C   UNL A   1      43.503  26.949  36.733  1.00  0.00     0.060 A 
ATOM     42  C   UNL A   1      42.763  26.091  35.906  1.00  0.00     0.016 A 
ATOM     43  C   UNL A   1      43.443  28.253  36.399  1.00  0.00     0.016 A 
ATOM     44  C   UNL A   1      42.154  26.550  34.653  1.00  0.00     0.010 A 
ATOM     45  C   UNL A   1      43.177  28.494  35.050  1.00  0.00     0.010 A 
ATOM     46  C   UNL A   1      42.410  27.807  34.083  1.00  0.00    -0.014 A 
BRANCH  46  47
ATOM     47  C   UNL A   1      42.090  28.282  32.493  1.00  0.00     0.031 A 
ATOM     48  C   UNL A   1      40.726  28.877  31.642  1.00  0.00     0.074 A 
ATOM     49  C   UNL A   1      43.061  27.968  31.601  1.00  0.00     0.049 A 
ATOM     50  N   UNL A   1      40.303  28.359  30.496  1.00  0.00    -0.248 NA
ATOM     51  C   UNL A   1      39.693  29.923  32.014  1.00  0.00     0.031 C 
ATOM     52  C   UNL A   1      43.088  28.226  30.164  1.00  0.00     0.029 A 
ATOM     53  N   UNL A   1      44.164  27.137  31.809  1.00  0.00    -0.354 N 
ATOM     54  C   UNL A   1      39.107  28.982  30.111  1.00  0.00     0.074 A 
ATOM     55  C   UNL A   1      38.737  29.894  31.112  1.00  0.00     0.031 C 
ATOM     56  C   UNL A   1      43.885  27.312  29.588  1.00  0.00     0.029 A 
ATOM     57  C   UNL A   1      44.345  26.410  30.627  1.00  0.00     0.049 A 
ATOM     58  H   UNL A   1      44.707  27.075  32.627  1.00  0.00     0.167 HD
ATOM     59  C   UNL A   1      38.430  28.824  28.950  1.00  0.00     0.031 A 
ATOM     60  C   UNL A   1      44.299  25.050  30.619  1.00  0.00     0.031 A 
ATOM     61  C   UNL A   1      39.180  28.048  28.026  1.00  0.00     0.049 A 
ATOM     62  C   UNL A   1      43.289  24.472  29.649  1.00  0.00     0.074 A 
ATOM     63  C   UNL A   1      40.114  28.380  27.065  1.00  0.00     0.029 A 
ATOM     64  N   UNL A   1      39.350  26.717  28.318  1.00  0.00    -0.354 N 
ATOM     65  N   UNL A   1      42.431  25.167  28.953  1.00  0.00    -0.248 NA
ATOM     66  C   UNL A   1      43.103  23.030  29.475  1.00  0.00     0.031 C 
ATOM     67  C   UNL A   1      40.846  27.203  26.763  1.00  0.00     0.029 A 
ATOM     68  C   UNL A   1      40.303  26.166  27.497  1.00  0.00     0.049 A 
ATOM     69  H   UNL A   1      38.859  26.227  29.016  1.00  0.00     0.167 HD
ATOM     70  C   UNL A   1      41.567  24.312  28.316  1.00  0.00     0.074 A 
ATOM     71  C   UNL A   1      42.026  22.986  28.676  1.00  0.00     0.031 C 
ATOM     72  C   UNL A   1      40.506  24.742  27.579  1.00  0.00     0.031 A 
BRANCH  59  73
ATOM     73  C   UNL A   1      37.237  29.704  28.666  1.00  0.00    -0.014 A 
ATOM     74  C   UNL A   1      36.094  29.145  28.082  1.00  0.00     0.009 A 
ATOM     75  C   UNL A   1      37.288  31.115  28.769  1.00  0.00     0.009 A 
ATOM     76  C   UNL A   1      35.094  29.954  27.524  1.00  0.00     0.001 A 
ATOM     77  C   UNL A   1      36.304  31.926  28.179  1.00  0.00     0.001 A 
ATOM     78  C   UNL A   1      35.215  31.342  27.540  1.00  0.00     0.000 A 
ENDBRANCH  59  73
BRANCH  60  79
ATOM     79  C   UNL A   1      44.754  24.386  31.882  1.00  0.00    -0.014 A 
ATOM     80  C   UNL A   1      45.896  24.895  32.543  1.00  0.00     0.009 A 
ATOM     81  C   UNL A   1      43.970  23.445  32.566  1.00  0.00     0.009 A 
ATOM     82  C   UNL A   1      46.189  24.551  33.866  1.00  0.00     0.001 A 
ATOM     83  C   UNL A   1      44.280  23.081  33.887  1.00  0.00     0.001 A 
ATOM     84  C   UNL A   1      45.375  23.647  34.540  1.00  0.00     0.000 A 
ENDBRANCH  60  79
BRANCH  72  85
ATOM     85  C   UNL A   1      39.500  23.860  26.887  1.00  0.00    -0.014 A 
ATOM     86  C   UNL A   1      39.733  22.509  26.620  1.00  0.00     0.009 A 
ATOM     87  C   UNL A   1      38.319  24.424  26.349  1.00  0.00     0.009 A 
ATOM     88  C   UNL A   1      38.802  21.747  25.903  1.00  0.00     0.001 A 
ATOM     89  C   UNL A   1      37.401  23.675  25.612  1.00  0.00     0.001 A 
ATOM     90  C   UNL A   1      37.639  22.328  25.401  1.00  0.00     0.000 A 
ENDBRANCH  72  85
ENDBRANCH  46  47
ENDBRANCH  39  41
ENDBRANCH  38  39
ENDBRANCH  37  38
ENDBRANCH  36  37
ENDBRANCH  35  36
ENDBRANCH  34  35
ENDBRANCH   1  34
TORSDOF 20
ENDMDL
