MODEL 1
REMARK VINA RESULT:     -10.4      0.000      0.000
REMARK SMILES CC(C)(C)OC(=O)N[C@@H](Cc1c[nH]c2cccc(Cl)c12)C(=O)OCCOCCOCCOC(=O)c1ccc(-c2c3nc(c(-c4ccccc4)c4ccc([nH]4)c(-c4ccccc4)c4nc(c(-c5ccccc5)c5ccc2[nH]5)C=C4)C=C3)cc1
REMARK SMILES IDX 27 1 26 2 25 3 24 4 23 5 21 6 22 7 9 8 8 9 6 10 7 11 5 13
REMARK SMILES IDX 2 14 1 15 3 16 4 17 10 18 11 19 12 20 20 21 13 22 14 23
REMARK SMILES IDX 18 24 15 26 17 27 19 28 16 29 28 30 29 31 30 32 31 33 32 34
REMARK SMILES IDX 33 35 34 36 35 37 36 38 82 39 37 40 81 41 38 42 39 43 40 44
REMARK SMILES IDX 75 45 41 46 80 47 74 48 76 49 42 50 79 51 73 52 72 53 43 55
REMARK SMILES IDX 65 56 50 57 64 58 51 59 54 60 63 61 77 62 52 63 53 64 62 66
REMARK SMILES IDX 78 67 55 68 44 69 45 70 49 71 46 72 48 73 47 74 66 75 67 76
REMARK SMILES IDX 71 77 68 78 70 79 69 80 56 81 57 82 61 83 58 84 60 85 59 86
REMARK H PARENT 8 12 13 25 76 54 54 65
REMARK Flexibility Score: inf
ROOT
ATOM      1  C   UNL A   1      39.911  21.307  26.559  1.00  0.00     0.188 C 
ENDROOT
BRANCH   1   2
ATOM      2  O   UNL A   1      39.002  22.284  26.124  1.00  0.00    -0.376 OA
BRANCH   2   3
ATOM      3  C   UNL A   1      37.750  21.877  25.606  1.00  0.00     0.202 C 
BRANCH   3   4
ATOM      4  C   UNL A   1      36.949  22.630  24.524  1.00  0.00     0.261 C 
BRANCH   4   5
ATOM      5  O   UNL A   1      36.542  23.992  24.745  1.00  0.00    -0.462 OA
BRANCH   5   6
ATOM      6  C   UNL A   1      35.328  24.180  25.337  1.00  0.00     0.329 C 
ATOM      7  O   UNL A   1      34.934  23.531  26.304  1.00  0.00    -0.250 OA
BRANCH   6   8
ATOM      8  C   UNL A   1      34.421  25.203  24.622  1.00  0.00     0.200 C 
BRANCH   8   9
ATOM      9  N   UNL A   1      33.936  24.877  23.272  1.00  0.00    -0.308 N 
ATOM     10  C   UNL A   1      33.706  23.648  22.710  1.00  0.00     0.408 C 
ATOM     11  O   UNL A   1      33.385  23.549  21.536  1.00  0.00    -0.225 OA
ATOM     12  H   UNL A   1      33.751  25.648  22.690  1.00  0.00     0.168 HD
BRANCH  10  13
ATOM     13  O   UNL A   1      33.833  22.608  23.577  1.00  0.00    -0.444 OA
BRANCH  13  14
ATOM     14  C   UNL A   1      32.716  21.693  23.809  1.00  0.00     0.106 C 
ATOM     15  C   UNL A   1      33.341  20.427  24.419  1.00  0.00     0.056 C 
ATOM     16  C   UNL A   1      32.019  21.311  22.499  1.00  0.00     0.056 C 
ATOM     17  C   UNL A   1      31.709  22.239  24.828  1.00  0.00     0.056 C 
ENDBRANCH  13  14
ENDBRANCH  10  13
ENDBRANCH   8   9
BRANCH   8  18
ATOM     18  C   UNL A   1      33.237  25.529  25.571  1.00  0.00     0.075 C 
BRANCH  18  19
ATOM     19  C   UNL A   1      32.680  26.924  25.392  1.00  0.00    -0.018 A 
ATOM     20  C   UNL A   1      33.357  28.073  25.760  1.00  0.00     0.087 A 
ATOM     21  C   UNL A   1      31.452  27.354  24.762  1.00  0.00     0.021 A 
ATOM     22  N   UNL A   1      32.677  29.153  25.276  1.00  0.00    -0.361 N 
ATOM     23  C   UNL A   1      31.572  28.738  24.574  1.00  0.00     0.047 A 
ATOM     24  C   UNL A   1      30.272  26.762  24.253  1.00  0.00     0.050 A 
ATOM     25  H   UNL A   1      32.940  30.093  25.410  1.00  0.00     0.166 HD
ATOM     26  C   UNL A   1      30.672  29.490  23.804  1.00  0.00     0.027 A 
ATOM     27  C   UNL A   1      29.372  27.481  23.461  1.00  0.00     0.021 A 
ATOM     28  Cl  UNL A   1      29.926  25.147  24.689  1.00  0.00    -0.084 Cl
ATOM     29  C   UNL A   1      29.595  28.829  23.212  1.00  0.00     0.004 A 
ENDBRANCH  18  19
ENDBRANCH   8  18
ENDBRANCH   6   8
ENDBRANCH   5   6
ENDBRANCH   4   5
ENDBRANCH   3   4
ENDBRANCH   2   3
ENDBRANCH   1   2
BRANCH   1  30
ATOM     30  C   UNL A   1      39.999  20.010  25.740  1.00  0.00     0.188 C 
BRANCH  30  31
ATOM     31  O   UNL A   1      40.895  18.956  26.035  1.00  0.00    -0.376 OA
BRANCH  31  32
ATOM     32  C   UNL A   1      42.274  19.113  26.325  1.00  0.00     0.202 C 
BRANCH  32  33
ATOM     33  C   UNL A   1      43.193  20.162  25.699  1.00  0.00     0.261 C 
BRANCH  33  34
ATOM     34  O   UNL A   1      44.413  19.667  25.202  1.00  0.00    -0.460 OA
BRANCH  34  35
ATOM     35  C   UNL A   1      44.691  20.201  24.001  1.00  0.00     0.338 C 
ATOM     36  O   UNL A   1      44.543  19.705  22.898  1.00  0.00    -0.246 OA
BRANCH  35  37
ATOM     37  C   UNL A   1      45.251  21.528  24.200  1.00  0.00     0.060 A 
ATOM     38  C   UNL A   1      46.128  21.643  25.280  1.00  0.00     0.016 A 
ATOM     39  C   UNL A   1      44.479  22.578  23.707  1.00  0.00     0.016 A 
ATOM     40  C   UNL A   1      46.001  22.745  26.074  1.00  0.00     0.010 A 
ATOM     41  C   UNL A   1      44.312  23.653  24.532  1.00  0.00     0.010 A 
ATOM     42  C   UNL A   1      45.007  23.668  25.743  1.00  0.00    -0.014 A 
BRANCH  42  43
ATOM     43  C   UNL A   1      44.796  24.756  26.658  1.00  0.00     0.031 A 
ATOM     44  C   UNL A   1      45.941  25.684  26.649  1.00  0.00     0.074 A 
ATOM     45  C   UNL A   1      43.650  24.904  27.343  1.00  0.00     0.049 A 
ATOM     46  N   UNL A   1      46.777  25.908  27.605  1.00  0.00    -0.248 NA
ATOM     47  C   UNL A   1      46.327  26.263  25.349  1.00  0.00     0.031 C 
ATOM     48  C   UNL A   1      42.402  24.152  27.195  1.00  0.00     0.029 A 
ATOM     49  N   UNL A   1      43.327  25.866  28.241  1.00  0.00    -0.354 N 
ATOM     50  C   UNL A   1      47.676  26.826  27.081  1.00  0.00     0.074 A 
ATOM     51  C   UNL A   1      47.490  26.832  25.655  1.00  0.00     0.031 C 
ATOM     52  C   UNL A   1      41.399  24.846  27.783  1.00  0.00     0.029 A 
ATOM     53  C   UNL A   1      41.961  26.011  28.447  1.00  0.00     0.049 A 
ATOM     54  H   UNL A   1      44.000  26.413  28.706  1.00  0.00     0.167 HD
ATOM     55  C   UNL A   1      48.268  27.753  27.876  1.00  0.00     0.031 A 
ATOM     56  C   UNL A   1      41.364  27.075  29.038  1.00  0.00     0.031 A 
ATOM     57  C   UNL A   1      48.221  27.379  29.262  1.00  0.00     0.049 A 
ATOM     58  C   UNL A   1      42.413  27.782  29.813  1.00  0.00     0.074 A 
ATOM     59  C   UNL A   1      48.723  26.330  30.002  1.00  0.00     0.029 A 
ATOM     60  N   UNL A   1      47.219  27.947  30.012  1.00  0.00    -0.354 N 
ATOM     61  N   UNL A   1      42.994  27.286  30.867  1.00  0.00    -0.248 NA
ATOM     62  C   UNL A   1      43.114  28.889  29.177  1.00  0.00     0.031 C 
ATOM     63  C   UNL A   1      47.735  26.062  30.992  1.00  0.00     0.029 A 
ATOM     64  C   UNL A   1      46.702  26.991  30.843  1.00  0.00     0.049 A 
ATOM     65  H   UNL A   1      46.923  28.885  29.960  1.00  0.00     0.167 HD
ATOM     66  C   UNL A   1      44.310  27.712  30.777  1.00  0.00     0.074 A 
ATOM     67  C   UNL A   1      44.293  28.795  29.797  1.00  0.00     0.031 C 
ATOM     68  C   UNL A   1      45.323  26.954  31.284  1.00  0.00     0.031 A 
BRANCH  55  69
ATOM     69  C   UNL A   1      48.435  29.178  27.421  1.00  0.00    -0.014 A 
ATOM     70  C   UNL A   1      49.707  29.762  27.481  1.00  0.00     0.009 A 
ATOM     71  C   UNL A   1      47.346  30.046  27.194  1.00  0.00     0.009 A 
ATOM     72  C   UNL A   1      49.872  31.146  27.346  1.00  0.00     0.001 A 
ATOM     73  C   UNL A   1      47.510  31.418  27.013  1.00  0.00     0.001 A 
ATOM     74  C   UNL A   1      48.775  31.972  27.110  1.00  0.00     0.000 A 
ENDBRANCH  55  69
BRANCH  56  75
ATOM     75  C   UNL A   1      40.062  27.717  28.735  1.00  0.00    -0.014 A 
ATOM     76  C   UNL A   1      39.079  27.806  29.739  1.00  0.00     0.009 A 
ATOM     77  C   UNL A   1      39.880  28.498  27.581  1.00  0.00     0.009 A 
ATOM     78  C   UNL A   1      38.005  28.698  29.626  1.00  0.00     0.001 A 
ATOM     79  C   UNL A   1      38.799  29.379  27.462  1.00  0.00     0.001 A 
ATOM     80  C   UNL A   1      37.875  29.497  28.495  1.00  0.00     0.000 A 
ENDBRANCH  56  75
BRANCH  68  81
ATOM     81  C   UNL A   1      44.958  25.806  32.193  1.00  0.00    -0.014 A 
ATOM     82  C   UNL A   1      44.490  24.570  31.715  1.00  0.00     0.009 A 
ATOM     83  C   UNL A   1      45.296  25.918  33.549  1.00  0.00     0.009 A 
ATOM     84  C   UNL A   1      44.374  23.474  32.577  1.00  0.00     0.001 A 
ATOM     85  C   UNL A   1      45.197  24.820  34.403  1.00  0.00     0.001 A 
ATOM     86  C   UNL A   1      44.741  23.596  33.917  1.00  0.00     0.000 A 
ENDBRANCH  68  81
ENDBRANCH  42  43
ENDBRANCH  35  37
ENDBRANCH  34  35
ENDBRANCH  33  34
ENDBRANCH  32  33
ENDBRANCH  31  32
ENDBRANCH  30  31
ENDBRANCH   1  30
TORSDOF 22
ENDMDL
MODEL 2
REMARK VINA RESULT:     -10.3      2.038      3.843
REMARK SMILES CC(C)(C)OC(=O)N[C@@H](Cc1c[nH]c2cccc(Cl)c12)C(=O)OCCOCCOCCOC(=O)c1ccc(-c2c3nc(c(-c4ccccc4)c4ccc([nH]4)c(-c4ccccc4)c4nc(c(-c5ccccc5)c5ccc2[nH]5)C=C4)C=C3)cc1
REMARK SMILES IDX 27 1 26 2 25 3 24 4 23 5 21 6 22 7 9 8 8 9 6 10 7 11 5 13
REMARK SMILES IDX 2 14 1 15 3 16 4 17 10 18 11 19 12 20 20 21 13 22 14 23
REMARK SMILES IDX 18 24 15 26 17 27 19 28 16 29 28 30 29 31 30 32 31 33 32 34
REMARK SMILES IDX 33 35 34 36 35 37 36 38 82 39 37 40 81 41 38 42 39 43 40 44
REMARK SMILES IDX 75 45 41 46 80 47 74 48 76 49 42 50 79 51 73 52 72 53 43 55
REMARK SMILES IDX 65 56 50 57 64 58 51 59 54 60 63 61 77 62 52 63 53 64 62 66
REMARK SMILES IDX 78 67 55 68 44 69 45 70 49 71 46 72 48 73 47 74 66 75 67 76
REMARK SMILES IDX 71 77 68 78 70 79 69 80 56 81 57 82 61 83 58 84 60 85 59 86
REMARK H PARENT 8 12 13 25 76 54 54 65
REMARK Flexibility Score: inf
ROOT
ATOM      1  C   UNL A   1      41.389  20.559  27.310  1.00  0.00     0.188 C 
ENDROOT
BRANCH   1   2
ATOM      2  O   UNL A   1      40.410  21.561  27.377  1.00  0.00    -0.376 OA
BRANCH   2   3
ATOM      3  C   UNL A   1      39.771  21.980  26.186  1.00  0.00     0.202 C 
BRANCH   3   4
ATOM      4  C   UNL A   1      38.328  21.619  25.778  1.00  0.00     0.261 C 
BRANCH   4   5
ATOM      5  O   UNL A   1      37.579  22.503  24.924  1.00  0.00    -0.462 OA
BRANCH   5   6
ATOM      6  C   UNL A   1      36.764  23.405  25.541  1.00  0.00     0.329 C 
ATOM      7  O   UNL A   1      37.151  24.490  25.970  1.00  0.00    -0.250 OA
BRANCH   6   8
ATOM      8  C   UNL A   1      35.321  22.909  25.772  1.00  0.00     0.200 C 
BRANCH   8   9
ATOM      9  N   UNL A   1      34.275  23.911  26.035  1.00  0.00    -0.308 N 
ATOM     10  C   UNL A   1      33.662  24.769  25.160  1.00  0.00     0.408 C 
ATOM     11  O   UNL A   1      32.869  25.607  25.561  1.00  0.00    -0.225 OA
ATOM     12  H   UNL A   1      33.974  23.974  26.969  1.00  0.00     0.168 HD
BRANCH  10  13
ATOM     13  O   UNL A   1      33.992  24.565  23.857  1.00  0.00    -0.444 OA
BRANCH  13  14
ATOM     14  C   UNL A   1      32.960  24.561  22.821  1.00  0.00     0.106 C 
ATOM     15  C   UNL A   1      33.414  23.511  21.792  1.00  0.00     0.056 C 
ATOM     16  C   UNL A   1      32.859  25.919  22.120  1.00  0.00     0.056 C 
ATOM     17  C   UNL A   1      31.592  24.114  23.352  1.00  0.00     0.056 C 
ENDBRANCH  13  14
ENDBRANCH  10  13
ENDBRANCH   8   9
BRANCH   8  18
ATOM     18  C   UNL A   1      34.934  22.009  24.569  1.00  0.00     0.075 C 
BRANCH  18  19
ATOM     19  C   UNL A   1      33.911  20.946  24.908  1.00  0.00    -0.018 A 
ATOM     20  C   UNL A   1      32.609  21.226  25.282  1.00  0.00     0.087 A 
ATOM     21  C   UNL A   1      34.018  19.506  24.836  1.00  0.00     0.021 A 
ATOM     22  N   UNL A   1      31.903  20.058  25.309  1.00  0.00    -0.361 N 
ATOM     23  C   UNL A   1      32.711  19.011  24.939  1.00  0.00     0.047 A 
ATOM     24  C   UNL A   1      35.030  18.540  24.627  1.00  0.00     0.050 A 
ATOM     25  H   UNL A   1      30.953  19.978  25.558  1.00  0.00     0.166 HD
ATOM     26  C   UNL A   1      32.377  17.668  24.704  1.00  0.00     0.027 A 
ATOM     27  C   UNL A   1      34.724  17.201  24.364  1.00  0.00     0.021 A 
ATOM     28  Cl  UNL A   1      36.659  19.031  24.774  1.00  0.00    -0.084 Cl
ATOM     29  C   UNL A   1      33.400  16.781  24.369  1.00  0.00     0.004 A 
ENDBRANCH  18  19
ENDBRANCH   8  18
ENDBRANCH   6   8
ENDBRANCH   5   6
ENDBRANCH   4   5
ENDBRANCH   3   4
ENDBRANCH   2   3
ENDBRANCH   1   2
BRANCH   1  30
ATOM     30  C   UNL A   1      41.334  19.595  26.115  1.00  0.00     0.188 C 
BRANCH  30  31
ATOM     31  O   UNL A   1      42.231  18.516  25.936  1.00  0.00    -0.376 OA
BRANCH  31  32
ATOM     32  C   UNL A   1      43.638  18.635  25.812  1.00  0.00     0.202 C 
BRANCH  32  33
ATOM     33  C   UNL A   1      44.375  19.108  24.559  1.00  0.00     0.261 C 
BRANCH  33  34
ATOM     34  O   UNL A   1      44.267  20.485  24.287  1.00  0.00    -0.460 OA
BRANCH  34  35
ATOM     35  C   UNL A   1      45.478  21.068  24.290  1.00  0.00     0.338 C 
ATOM     36  O   UNL A   1      46.574  20.539  24.358  1.00  0.00    -0.246 OA
BRANCH  35  37
ATOM     37  C   UNL A   1      45.301  22.509  24.221  1.00  0.00     0.060 A 
ATOM     38  C   UNL A   1      46.384  23.260  24.682  1.00  0.00     0.016 A 
ATOM     39  C   UNL A   1      43.979  22.947  24.255  1.00  0.00     0.016 A 
ATOM     40  C   UNL A   1      46.108  24.338  25.471  1.00  0.00     0.010 A 
ATOM     41  C   UNL A   1      43.702  23.991  25.090  1.00  0.00     0.010 A 
ATOM     42  C   UNL A   1      44.767  24.605  25.753  1.00  0.00    -0.014 A 
BRANCH  42  43
ATOM     43  C   UNL A   1      44.494  25.662  26.687  1.00  0.00     0.031 A 
ATOM     44  C   UNL A   1      45.469  26.758  26.545  1.00  0.00     0.074 A 
ATOM     45  C   UNL A   1      43.427  25.639  27.502  1.00  0.00     0.049 A 
ATOM     46  N   UNL A   1      46.364  27.127  27.397  1.00  0.00    -0.248 NA
ATOM     47  C   UNL A   1      45.605  27.368  25.209  1.00  0.00     0.031 C 
ATOM     48  C   UNL A   1      42.304  24.698  27.501  1.00  0.00     0.029 A 
ATOM     49  N   UNL A   1      43.061  26.554  28.433  1.00  0.00    -0.354 N 
ATOM     50  C   UNL A   1      47.040  28.165  26.773  1.00  0.00     0.074 A 
ATOM     51  C   UNL A   1      46.691  28.118  25.378  1.00  0.00     0.031 C 
ATOM     52  C   UNL A   1      41.280  25.236  28.202  1.00  0.00     0.029 A 
ATOM     53  C   UNL A   1      41.723  26.486  28.797  1.00  0.00     0.049 A 
ATOM     54  H   UNL A   1      43.689  27.208  28.817  1.00  0.00     0.167 HD
ATOM     55  C   UNL A   1      47.565  29.188  27.493  1.00  0.00     0.031 A 
ATOM     56  C   UNL A   1      41.038  27.454  29.456  1.00  0.00     0.031 A 
ATOM     57  C   UNL A   1      47.739  28.836  28.875  1.00  0.00     0.049 A 
ATOM     58  C   UNL A   1      42.045  28.329  30.103  1.00  0.00     0.074 A 
ATOM     59  C   UNL A   1      48.483  27.891  29.550  1.00  0.00     0.029 A 
ATOM     60  N   UNL A   1      46.754  29.252  29.738  1.00  0.00    -0.354 N 
ATOM     61  N   UNL A   1      42.815  27.950  31.081  1.00  0.00    -0.248 NA
ATOM     62  C   UNL A   1      42.483  29.522  29.391  1.00  0.00     0.031 C 
ATOM     63  C   UNL A   1      47.672  27.489  30.648  1.00  0.00     0.029 A 
ATOM     64  C   UNL A   1      46.494  28.241  30.623  1.00  0.00     0.049 A 
ATOM     65  H   UNL A   1      46.309  30.130  29.722  1.00  0.00     0.167 HD
ATOM     66  C   UNL A   1      44.027  28.575  30.838  1.00  0.00     0.074 A 
ATOM     67  C   UNL A   1      43.726  29.625  29.868  1.00  0.00     0.031 C 
ATOM     68  C   UNL A   1      45.199  27.995  31.223  1.00  0.00     0.031 A 
BRANCH  55  69
ATOM     69  C   UNL A   1      47.451  30.613  27.024  1.00  0.00    -0.014 A 
ATOM     70  C   UNL A   1      48.524  31.487  27.247  1.00  0.00     0.009 A 
ATOM     71  C   UNL A   1      46.232  31.193  26.616  1.00  0.00     0.009 A 
ATOM     72  C   UNL A   1      48.370  32.871  27.095  1.00  0.00     0.001 A 
ATOM     73  C   UNL A   1      46.087  32.565  26.418  1.00  0.00     0.001 A 
ATOM     74  C   UNL A   1      47.154  33.408  26.679  1.00  0.00     0.000 A 
ENDBRANCH  55  69
BRANCH  56  75
ATOM     75  C   UNL A   1      39.624  27.877  29.308  1.00  0.00    -0.014 A 
ATOM     76  C   UNL A   1      38.814  28.009  30.452  1.00  0.00     0.009 A 
ATOM     77  C   UNL A   1      39.147  28.434  28.110  1.00  0.00     0.009 A 
ATOM     78  C   UNL A   1      37.617  28.736  30.413  1.00  0.00     0.001 A 
ATOM     79  C   UNL A   1      37.944  29.148  28.068  1.00  0.00     0.001 A 
ATOM     80  C   UNL A   1      37.191  29.320  29.225  1.00  0.00     0.000 A 
ENDBRANCH  56  75
BRANCH  68  81
ATOM     81  C   UNL A   1      45.129  26.821  32.166  1.00  0.00    -0.014 A 
ATOM     82  C   UNL A   1      44.998  26.964  33.559  1.00  0.00     0.009 A 
ATOM     83  C   UNL A   1      44.983  25.544  31.606  1.00  0.00     0.009 A 
ATOM     84  C   UNL A   1      44.720  25.853  34.363  1.00  0.00     0.001 A 
ATOM     85  C   UNL A   1      44.688  24.441  32.407  1.00  0.00     0.001 A 
ATOM     86  C   UNL A   1      44.550  24.596  33.785  1.00  0.00     0.000 A 
ENDBRANCH  68  81
ENDBRANCH  42  43
ENDBRANCH  35  37
ENDBRANCH  34  35
ENDBRANCH  33  34
ENDBRANCH  32  33
ENDBRANCH  31  32
ENDBRANCH  30  31
ENDBRANCH   1  30
TORSDOF 22
ENDMDL
MODEL 3
REMARK VINA RESULT:     -10.0      3.659      8.628
REMARK SMILES CC(C)(C)OC(=O)N[C@@H](Cc1c[nH]c2cccc(Cl)c12)C(=O)OCCOCCOCCOC(=O)c1ccc(-c2c3nc(c(-c4ccccc4)c4ccc([nH]4)c(-c4ccccc4)c4nc(c(-c5ccccc5)c5ccc2[nH]5)C=C4)C=C3)cc1
REMARK SMILES IDX 27 1 26 2 25 3 24 4 23 5 21 6 22 7 9 8 8 9 6 10 7 11 5 13
REMARK SMILES IDX 2 14 1 15 3 16 4 17 10 18 11 19 12 20 20 21 13 22 14 23
REMARK SMILES IDX 18 24 15 26 17 27 19 28 16 29 28 30 29 31 30 32 31 33 32 34
REMARK SMILES IDX 33 35 34 36 35 37 36 38 82 39 37 40 81 41 38 42 39 43 40 44
REMARK SMILES IDX 75 45 41 46 80 47 74 48 76 49 42 50 79 51 73 52 72 53 43 55
REMARK SMILES IDX 65 56 50 57 64 58 51 59 54 60 63 61 77 62 52 63 53 64 62 66
REMARK SMILES IDX 78 67 55 68 44 69 45 70 49 71 46 72 48 73 47 74 66 75 67 76
REMARK SMILES IDX 71 77 68 78 70 79 69 80 56 81 57 82 61 83 58 84 60 85 59 86
REMARK H PARENT 8 12 13 25 76 54 54 65
REMARK Flexibility Score: inf
ROOT
ATOM      1  C   UNL A   1      34.309  32.291  27.917  1.00  0.00     0.188 C 
ENDROOT
BRANCH   1   2
ATOM      2  O   UNL A   1      33.460  31.174  27.954  1.00  0.00    -0.376 OA
BRANCH   2   3
ATOM      3  C   UNL A   1      33.589  30.179  26.956  1.00  0.00     0.202 C 
BRANCH   3   4
ATOM      4  C   UNL A   1      33.770  28.671  27.224  1.00  0.00     0.261 C 
BRANCH   4   5
ATOM      5  O   UNL A   1      33.091  27.706  26.399  1.00  0.00    -0.462 OA
BRANCH   5   6
ATOM      6  C   UNL A   1      31.881  27.262  26.847  1.00  0.00     0.329 C 
ATOM      7  O   UNL A   1      31.211  27.848  27.693  1.00  0.00    -0.250 OA
BRANCH   6   8
ATOM      8  C   UNL A   1      31.462  25.885  26.289  1.00  0.00     0.200 C 
BRANCH   8   9
ATOM      9  N   UNL A   1      30.276  25.820  25.420  1.00  0.00    -0.308 N 
ATOM     10  C   UNL A   1      29.816  26.741  24.517  1.00  0.00     0.408 C 
ATOM     11  O   UNL A   1      28.756  26.569  23.934  1.00  0.00    -0.225 OA
ATOM     12  H   UNL A   1      29.738  25.000  25.499  1.00  0.00     0.168 HD
BRANCH  10  13
ATOM     13  O   UNL A   1      30.650  27.798  24.325  1.00  0.00    -0.444 OA
BRANCH  13  14
ATOM     14  C   UNL A   1      31.250  28.042  23.014  1.00  0.00     0.106 C 
ATOM     15  C   UNL A   1      30.326  29.058  22.322  1.00  0.00     0.056 C 
ATOM     16  C   UNL A   1      31.294  26.766  22.168  1.00  0.00     0.056 C 
ATOM     17  C   UNL A   1      32.639  28.685  23.112  1.00  0.00     0.056 C 
ENDBRANCH  13  14
ENDBRANCH  10  13
ENDBRANCH   8   9
BRANCH   8  18
ATOM     18  C   UNL A   1      32.698  25.265  25.585  1.00  0.00     0.075 C 
BRANCH  18  19
ATOM     19  C   UNL A   1      32.820  23.769  25.777  1.00  0.00    -0.018 A 
ATOM     20  C   UNL A   1      32.881  23.156  27.016  1.00  0.00     0.087 A 
ATOM     21  C   UNL A   1      32.808  22.708  24.794  1.00  0.00     0.021 A 
ATOM     22  N   UNL A   1      32.774  21.807  26.841  1.00  0.00    -0.361 N 
ATOM     23  C   UNL A   1      32.623  21.516  25.508  1.00  0.00     0.047 A 
ATOM     24  C   UNL A   1      32.859  22.584  23.387  1.00  0.00     0.050 A 
ATOM     25  H   UNL A   1      32.802  21.140  27.565  1.00  0.00     0.166 HD
ATOM     26  C   UNL A   1      32.349  20.286  24.890  1.00  0.00     0.027 A 
ATOM     27  C   UNL A   1      32.565  21.377  22.744  1.00  0.00     0.021 A 
ATOM     28  Cl  UNL A   1      33.361  23.937  22.473  1.00  0.00    -0.084 Cl
ATOM     29  C   UNL A   1      32.277  20.246  23.497  1.00  0.00     0.004 A 
ENDBRANCH  18  19
ENDBRANCH   8  18
ENDBRANCH   6   8
ENDBRANCH   5   6
ENDBRANCH   4   5
ENDBRANCH   3   4
ENDBRANCH   2   3
ENDBRANCH   1   2
BRANCH   1  30
ATOM     30  C   UNL A   1      34.919  32.759  29.248  1.00  0.00     0.188 C 
BRANCH  30  31
ATOM     31  O   UNL A   1      34.158  33.288  30.317  1.00  0.00    -0.376 OA
BRANCH  31  32
ATOM     32  C   UNL A   1      34.367  33.001  31.689  1.00  0.00     0.202 C 
BRANCH  32  33
ATOM     33  C   UNL A   1      35.483  33.589  32.552  1.00  0.00     0.261 C 
BRANCH  33  34
ATOM     34  O   UNL A   1      36.791  33.264  32.141  1.00  0.00    -0.460 OA
BRANCH  34  35
ATOM     35  C   UNL A   1      37.109  32.011  32.508  1.00  0.00     0.338 C 
ATOM     36  O   UNL A   1      36.997  31.492  33.605  1.00  0.00    -0.246 OA
BRANCH  35  37
ATOM     37  C   UNL A   1      37.663  31.316  31.359  1.00  0.00     0.060 A 
ATOM     38  C   UNL A   1      37.283  29.978  31.238  1.00  0.00     0.016 A 
ATOM     39  C   UNL A   1      38.864  31.831  30.875  1.00  0.00     0.016 A 
ATOM     40  C   UNL A   1      38.253  29.079  30.902  1.00  0.00     0.010 A 
ATOM     41  C   UNL A   1      39.848  30.928  30.594  1.00  0.00     0.010 A 
ATOM     42  C   UNL A   1      39.546  29.569  30.705  1.00  0.00    -0.014 A 
BRANCH  42  43
ATOM     43  C   UNL A   1      40.583  28.600  30.480  1.00  0.00     0.031 A 
ATOM     44  C   UNL A   1      41.333  28.329  31.720  1.00  0.00     0.074 A 
ATOM     45  C   UNL A   1      40.748  27.992  29.294  1.00  0.00     0.049 A 
ATOM     46  N   UNL A   1      42.564  28.616  31.971  1.00  0.00    -0.248 NA
ATOM     47  C   UNL A   1      40.555  27.885  32.892  1.00  0.00     0.031 C 
ATOM     48  C   UNL A   1      39.877  28.046  28.118  1.00  0.00     0.029 A 
ATOM     49  N   UNL A   1      41.686  27.078  28.943  1.00  0.00    -0.354 N 
ATOM     50  C   UNL A   1      42.768  28.190  33.275  1.00  0.00     0.074 A 
ATOM     51  C   UNL A   1      41.470  27.965  33.854  1.00  0.00     0.031 C 
ATOM     52  C   UNL A   1      40.187  27.017  27.295  1.00  0.00     0.029 A 
ATOM     53  C   UNL A   1      41.349  26.323  27.827  1.00  0.00     0.049 A 
ATOM     54  H   UNL A   1      42.531  26.960  29.435  1.00  0.00     0.167 HD
ATOM     55  C   UNL A   1      43.979  27.731  33.677  1.00  0.00     0.031 A 
ATOM     56  C   UNL A   1      41.944  25.162  27.454  1.00  0.00     0.031 A 
ATOM     57  C   UNL A   1      45.034  28.163  32.802  1.00  0.00     0.049 A 
ATOM     58  C   UNL A   1      43.257  25.112  28.142  1.00  0.00     0.074 A 
ATOM     59  C   UNL A   1      45.547  29.388  32.433  1.00  0.00     0.029 A 
ATOM     60  N   UNL A   1      45.444  27.261  31.851  1.00  0.00    -0.354 N 
ATOM     61  N   UNL A   1      44.244  25.917  27.880  1.00  0.00    -0.248 NA
ATOM     62  C   UNL A   1      43.342  24.415  29.419  1.00  0.00     0.031 C 
ATOM     63  C   UNL A   1      45.910  29.246  31.064  1.00  0.00     0.029 A 
ATOM     64  C   UNL A   1      45.648  27.930  30.675  1.00  0.00     0.049 A 
ATOM     65  H   UNL A   1      45.570  26.294  31.993  1.00  0.00     0.167 HD
ATOM     66  C   UNL A   1      44.837  26.160  29.109  1.00  0.00     0.074 A 
ATOM     67  C   UNL A   1      44.327  25.113  29.990  1.00  0.00     0.031 C 
ATOM     68  C   UNL A   1      45.451  27.350  29.363  1.00  0.00     0.031 A 
BRANCH  55  69
ATOM     69  C   UNL A   1      44.101  26.520  34.563  1.00  0.00    -0.014 A 
ATOM     70  C   UNL A   1      43.785  25.261  34.036  1.00  0.00     0.009 A 
ATOM     71  C   UNL A   1      44.253  26.604  35.964  1.00  0.00     0.009 A 
ATOM     72  C   UNL A   1      43.605  24.153  34.873  1.00  0.00     0.001 A 
ATOM     73  C   UNL A   1      44.120  25.495  36.797  1.00  0.00     0.001 A 
ATOM     74  C   UNL A   1      43.775  24.270  36.251  1.00  0.00     0.000 A 
ENDBRANCH  55  69
BRANCH  56  75
ATOM     75  C   UNL A   1      41.350  23.956  26.829  1.00  0.00    -0.014 A 
ATOM     76  C   UNL A   1      42.191  22.919  26.382  1.00  0.00     0.009 A 
ATOM     77  C   UNL A   1      39.977  23.676  26.931  1.00  0.00     0.009 A 
ATOM     78  C   UNL A   1      41.690  21.637  26.126  1.00  0.00     0.001 A 
ATOM     79  C   UNL A   1      39.473  22.398  26.661  1.00  0.00     0.001 A 
ATOM     80  C   UNL A   1      40.333  21.372  26.283  1.00  0.00     0.000 A 
ENDBRANCH  56  75
BRANCH  68  81
ATOM     81  C   UNL A   1      45.725  28.266  28.196  1.00  0.00    -0.014 A 
ATOM     82  C   UNL A   1      44.819  29.252  27.768  1.00  0.00     0.009 A 
ATOM     83  C   UNL A   1      47.019  28.261  27.655  1.00  0.00     0.009 A 
ATOM     84  C   UNL A   1      45.209  30.212  26.827  1.00  0.00     0.001 A 
ATOM     85  C   UNL A   1      47.410  29.230  26.732  1.00  0.00     0.001 A 
ATOM     86  C   UNL A   1      46.508  30.209  26.321  1.00  0.00     0.000 A 
ENDBRANCH  68  81
ENDBRANCH  42  43
ENDBRANCH  35  37
ENDBRANCH  34  35
ENDBRANCH  33  34
ENDBRANCH  32  33
ENDBRANCH  31  32
ENDBRANCH  30  31
ENDBRANCH   1  30
TORSDOF 22
ENDMDL
