MODEL 1
REMARK VINA RESULT:      -9.6      0.000      0.000
REMARK SMILES C[C@@](NC(=O)C[C@@H]1CCC[NH2+]C1)(C(=O)OCCOCCOCCOC(=O)c1ccc(-c2c3nc(c(-c4ccccc4)c4ccc([nH]4)c(-c4ccccc4)c4nc(c(-c5ccccc5)c5ccc2[nH]5)C=C4)C=C3)cc1)C(F)(F)F
REMARK SMILES IDX 19 1 18 2 17 3 16 4 15 5 13 6 14 7 2 8 1 9 3 10 4 11 5 13
REMARK SMILES IDX 6 14 7 15 8 16 12 17 9 18 11 19 10 20 75 23 76 24 77 25
REMARK SMILES IDX 78 26 20 27 21 28 22 29 23 30 24 31 25 32 26 33 27 34 28 35
REMARK SMILES IDX 74 36 29 37 73 38 30 39 31 40 32 41 67 42 33 43 72 44 66 45
REMARK SMILES IDX 68 46 34 47 71 48 65 49 64 50 35 52 57 53 42 54 56 55 43 56
REMARK SMILES IDX 46 57 55 58 69 59 44 60 45 61 54 63 70 64 47 65 36 66 37 67
REMARK SMILES IDX 41 68 38 69 40 70 39 71 58 72 59 73 63 74 60 75 62 76 61 77
REMARK SMILES IDX 48 78 49 79 53 80 50 81 52 82 51 83
REMARK H PARENT 3 12 11 21 11 22 68 51 46 62
REMARK Flexibility Score: inf
ROOT
ATOM      1  C   UNL A   1      39.578  21.841  26.513  1.00  0.00     0.188 C 
ENDROOT
BRANCH   1   2
ATOM      2  O   UNL A   1      38.720  21.878  25.381  1.00  0.00    -0.376 OA
BRANCH   2   3
ATOM      3  C   UNL A   1      37.364  22.252  25.592  1.00  0.00     0.202 C 
BRANCH   3   4
ATOM      4  C   UNL A   1      36.318  21.488  24.776  1.00  0.00     0.261 C 
BRANCH   4   5
ATOM      5  O   UNL A   1      35.021  21.435  25.419  1.00  0.00    -0.461 OA
BRANCH   5   6
ATOM      6  C   UNL A   1      33.940  21.778  24.669  1.00  0.00     0.341 C 
ATOM      7  O   UNL A   1      33.472  21.035  23.813  1.00  0.00    -0.249 OA
BRANCH   6   8
ATOM      8  C   UNL A   1      33.476  23.233  24.873  1.00  0.00     0.231 C 
ATOM      9  C   UNL A   1      33.924  24.056  26.094  1.00  0.00     0.058 C 
BRANCH   8  10
ATOM     10  N   UNL A   1      33.832  24.014  23.655  1.00  0.00    -0.333 N 
ATOM     11  C   UNL A   1      33.398  25.230  23.229  1.00  0.00     0.221 C 
ATOM     12  H   UNL A   1      34.488  23.579  23.064  1.00  0.00     0.164 HD
ATOM     13  O   UNL A   1      33.477  25.452  22.017  1.00  0.00    -0.275 OA
BRANCH  11  14
ATOM     14  C   UNL A   1      32.914  26.311  24.184  1.00  0.00     0.109 C 
BRANCH  14  15
ATOM     15  C   UNL A   1      33.877  27.462  24.539  1.00  0.00     0.054 C 
ATOM     16  C   UNL A   1      33.819  27.904  26.005  1.00  0.00     0.016 C 
ATOM     17  C   UNL A   1      33.640  28.677  23.620  1.00  0.00     0.264 C 
ATOM     18  C   UNL A   1      32.540  28.674  26.300  1.00  0.00     0.062 C 
ATOM     19  N   UNL A   1      32.387  29.363  23.926  1.00  0.00    -0.346 N 
ATOM     20  C   UNL A   1      32.357  29.826  25.314  1.00  0.00     0.260 C 
ATOM     21  H   UNL A   1      32.289  30.167  23.306  1.00  0.00     0.346 HD
ATOM     22  H   UNL A   1      31.620  28.705  23.790  1.00  0.00     0.346 HD
ENDBRANCH  14  15
ENDBRANCH  11  14
ENDBRANCH   8  10
BRANCH   8  23
ATOM     23  C   UNL A   1      31.946  23.051  25.054  1.00  0.00     0.422 C 
ATOM     24  F   UNL A   1      31.425  24.039  25.827  1.00  0.00    -0.168 F 
ATOM     25  F   UNL A   1      31.318  23.133  23.851  1.00  0.00    -0.168 F 
ATOM     26  F   UNL A   1      31.585  21.870  25.590  1.00  0.00    -0.168 F 
ENDBRANCH   8  23
ENDBRANCH   6   8
ENDBRANCH   5   6
ENDBRANCH   4   5
ENDBRANCH   3   4
ENDBRANCH   2   3
ENDBRANCH   1   2
BRANCH   1  27
ATOM     27  C   UNL A   1      40.754  20.848  26.505  1.00  0.00     0.188 C 
BRANCH  27  28
ATOM     28  O   UNL A   1      41.822  21.174  25.636  1.00  0.00    -0.376 OA
BRANCH  28  29
ATOM     29  C   UNL A   1      43.071  20.587  25.976  1.00  0.00     0.202 C 
BRANCH  29  30
ATOM     30  C   UNL A   1      44.295  21.345  25.442  1.00  0.00     0.261 C 
BRANCH  30  31
ATOM     31  O   UNL A   1      44.617  22.571  26.132  1.00  0.00    -0.460 OA
BRANCH  31  32
ATOM     32  C   UNL A   1      44.472  23.742  25.467  1.00  0.00     0.338 C 
ATOM     33  O   UNL A   1      44.639  23.926  24.273  1.00  0.00    -0.246 OA
BRANCH  32  34
ATOM     34  C   UNL A   1      43.781  24.690  26.386  1.00  0.00     0.060 A 
ATOM     35  C   UNL A   1      44.176  26.039  26.395  1.00  0.00     0.016 A 
ATOM     36  C   UNL A   1      42.665  24.290  27.127  1.00  0.00     0.016 A 
ATOM     37  C   UNL A   1      43.467  26.981  27.150  1.00  0.00     0.010 A 
ATOM     38  C   UNL A   1      41.971  25.228  27.901  1.00  0.00     0.010 A 
ATOM     39  C   UNL A   1      42.385  26.573  27.942  1.00  0.00    -0.014 A 
BRANCH  39  40
ATOM     40  C   UNL A   1      41.867  27.462  29.016  1.00  0.00     0.031 A 
ATOM     41  C   UNL A   1      42.585  27.431  30.340  1.00  0.00     0.074 A 
ATOM     42  C   UNL A   1      40.802  28.270  28.858  1.00  0.00     0.049 A 
ATOM     43  N   UNL A   1      42.310  28.055  31.457  1.00  0.00    -0.248 NA
ATOM     44  C   UNL A   1      43.776  26.568  30.408  1.00  0.00     0.031 C 
ATOM     45  C   UNL A   1      40.038  28.450  27.627  1.00  0.00     0.029 A 
ATOM     46  N   UNL A   1      40.178  29.094  29.766  1.00  0.00    -0.354 N 
ATOM     47  C   UNL A   1      43.287  27.651  32.359  1.00  0.00     0.074 A 
ATOM     48  C   UNL A   1      44.137  26.706  31.672  1.00  0.00     0.031 C 
ATOM     49  C   UNL A   1      39.040  29.324  27.859  1.00  0.00     0.029 A 
ATOM     50  C   UNL A   1      39.073  29.739  29.262  1.00  0.00     0.049 A 
ATOM     51  H   UNL A   1      40.491  29.211  30.692  1.00  0.00     0.167 HD
ATOM     52  C   UNL A   1      43.470  28.032  33.644  1.00  0.00     0.031 A 
ATOM     53  C   UNL A   1      38.184  30.552  29.868  1.00  0.00     0.031 A 
ATOM     54  C   UNL A   1      42.613  28.945  34.350  1.00  0.00     0.049 A 
ATOM     55  C   UNL A   1      38.345  30.885  31.332  1.00  0.00     0.074 A 
ATOM     56  C   UNL A   1      42.722  29.394  35.653  1.00  0.00     0.029 A 
ATOM     57  N   UNL A   1      41.479  29.534  33.814  1.00  0.00    -0.354 N 
ATOM     58  N   UNL A   1      39.289  30.521  32.168  1.00  0.00    -0.248 NA
ATOM     59  C   UNL A   1      37.316  31.748  31.935  1.00  0.00     0.031 C 
ATOM     60  C   UNL A   1      41.616  30.204  35.929  1.00  0.00     0.029 A 
ATOM     61  C   UNL A   1      40.860  30.318  34.774  1.00  0.00     0.049 A 
ATOM     62  H   UNL A   1      41.161  29.413  32.891  1.00  0.00     0.167 HD
ATOM     63  C   UNL A   1      38.988  31.139  33.379  1.00  0.00     0.074 A 
ATOM     64  C   UNL A   1      37.779  31.908  33.168  1.00  0.00     0.031 C 
ATOM     65  C   UNL A   1      39.657  31.080  34.556  1.00  0.00     0.031 A 
BRANCH  52  66
ATOM     66  C   UNL A   1      44.623  27.408  34.380  1.00  0.00    -0.014 A 
ATOM     67  C   UNL A   1      44.485  26.185  35.056  1.00  0.00     0.009 A 
ATOM     68  C   UNL A   1      45.865  28.062  34.404  1.00  0.00     0.009 A 
ATOM     69  C   UNL A   1      45.554  25.655  35.781  1.00  0.00     0.001 A 
ATOM     70  C   UNL A   1      46.942  27.512  35.099  1.00  0.00     0.001 A 
ATOM     71  C   UNL A   1      46.782  26.316  35.798  1.00  0.00     0.000 A 
ENDBRANCH  52  66
BRANCH  53  72
ATOM     72  C   UNL A   1      37.035  31.113  29.103  1.00  0.00    -0.014 A 
ATOM     73  C   UNL A   1      37.025  32.461  28.712  1.00  0.00     0.009 A 
ATOM     74  C   UNL A   1      35.925  30.312  28.793  1.00  0.00     0.009 A 
ATOM     75  C   UNL A   1      35.919  33.001  28.047  1.00  0.00     0.001 A 
ATOM     76  C   UNL A   1      34.834  30.847  28.102  1.00  0.00     0.001 A 
ATOM     77  C   UNL A   1      34.827  32.192  27.738  1.00  0.00     0.000 A 
ENDBRANCH  53  72
BRANCH  65  78
ATOM     78  C   UNL A   1      39.134  31.904  35.703  1.00  0.00    -0.014 A 
ATOM     79  C   UNL A   1      39.482  33.254  35.863  1.00  0.00     0.009 A 
ATOM     80  C   UNL A   1      38.225  31.329  36.609  1.00  0.00     0.009 A 
ATOM     81  C   UNL A   1      38.960  33.999  36.923  1.00  0.00     0.001 A 
ATOM     82  C   UNL A   1      37.679  32.084  37.647  1.00  0.00     0.001 A 
ATOM     83  C   UNL A   1      38.055  33.416  37.810  1.00  0.00     0.000 A 
ENDBRANCH  65  78
ENDBRANCH  39  40
ENDBRANCH  32  34
ENDBRANCH  31  32
ENDBRANCH  30  31
ENDBRANCH  29  30
ENDBRANCH  28  29
ENDBRANCH  27  28
ENDBRANCH   1  27
TORSDOF 21
ENDMDL
MODEL 2
REMARK VINA RESULT:      -9.5      1.744      3.538
REMARK SMILES C[C@@](NC(=O)C[C@@H]1CCC[NH2+]C1)(C(=O)OCCOCCOCCOC(=O)c1ccc(-c2c3nc(c(-c4ccccc4)c4ccc([nH]4)c(-c4ccccc4)c4nc(c(-c5ccccc5)c5ccc2[nH]5)C=C4)C=C3)cc1)C(F)(F)F
REMARK SMILES IDX 19 1 18 2 17 3 16 4 15 5 13 6 14 7 2 8 1 9 3 10 4 11 5 13
REMARK SMILES IDX 6 14 7 15 8 16 12 17 9 18 11 19 10 20 75 23 76 24 77 25
REMARK SMILES IDX 78 26 20 27 21 28 22 29 23 30 24 31 25 32 26 33 27 34 28 35
REMARK SMILES IDX 74 36 29 37 73 38 30 39 31 40 32 41 67 42 33 43 72 44 66 45
REMARK SMILES IDX 68 46 34 47 71 48 65 49 64 50 35 52 57 53 42 54 56 55 43 56
REMARK SMILES IDX 46 57 55 58 69 59 44 60 45 61 54 63 70 64 47 65 36 66 37 67
REMARK SMILES IDX 41 68 38 69 40 70 39 71 58 72 59 73 63 74 60 75 62 76 61 77
REMARK SMILES IDX 48 78 49 79 53 80 50 81 52 82 51 83
REMARK H PARENT 3 12 11 21 11 22 68 51 46 62
REMARK Flexibility Score: inf
ROOT
ATOM      1  C   UNL A   1      39.848  21.450  26.392  1.00  0.00     0.188 C 
ENDROOT
BRANCH   1   2
ATOM      2  O   UNL A   1      39.354  22.765  26.176  1.00  0.00    -0.376 OA
BRANCH   2   3
ATOM      3  C   UNL A   1      37.944  22.937  26.101  1.00  0.00     0.202 C 
BRANCH   3   4
ATOM      4  C   UNL A   1      37.201  22.012  25.135  1.00  0.00     0.261 C 
BRANCH   4   5
ATOM      5  O   UNL A   1      35.808  22.369  24.962  1.00  0.00    -0.461 OA
BRANCH   5   6
ATOM      6  C   UNL A   1      35.417  22.769  23.722  1.00  0.00     0.341 C 
ATOM      7  O   UNL A   1      36.217  22.988  22.819  1.00  0.00    -0.249 OA
BRANCH   6   8
ATOM      8  C   UNL A   1      33.912  23.085  23.616  1.00  0.00     0.231 C 
ATOM      9  C   UNL A   1      33.105  22.736  22.353  1.00  0.00     0.058 C 
BRANCH   8  10
ATOM     10  N   UNL A   1      33.219  22.455  24.775  1.00  0.00    -0.333 N 
ATOM     11  C   UNL A   1      32.679  21.215  24.912  1.00  0.00     0.221 C 
ATOM     12  H   UNL A   1      33.139  23.031  25.569  1.00  0.00     0.164 HD
ATOM     13  O   UNL A   1      31.791  21.089  25.759  1.00  0.00    -0.275 OA
BRANCH  11  14
ATOM     14  C   UNL A   1      33.184  20.008  24.135  1.00  0.00     0.109 C 
BRANCH  14  15
ATOM     15  C   UNL A   1      32.269  18.772  24.021  1.00  0.00     0.054 C 
ATOM     16  C   UNL A   1      32.421  17.766  25.168  1.00  0.00     0.016 C 
ATOM     17  C   UNL A   1      32.481  18.057  22.672  1.00  0.00     0.264 C 
ATOM     18  C   UNL A   1      33.732  17.001  25.061  1.00  0.00     0.062 C 
ATOM     19  N   UNL A   1      33.764  17.362  22.611  1.00  0.00    -0.346 N 
ATOM     20  C   UNL A   1      33.884  16.369  23.679  1.00  0.00     0.260 C 
ATOM     21  H   UNL A   1      33.844  16.892  21.710  1.00  0.00     0.346 HD
ATOM     22  H   UNL A   1      34.507  18.051  22.728  1.00  0.00     0.346 HD
ENDBRANCH  14  15
ENDBRANCH  11  14
ENDBRANCH   8  10
BRANCH   8  23
ATOM     23  C   UNL A   1      33.913  24.635  23.676  1.00  0.00     0.422 C 
ATOM     24  F   UNL A   1      34.096  25.171  22.441  1.00  0.00    -0.168 F 
ATOM     25  F   UNL A   1      32.709  25.088  24.116  1.00  0.00    -0.168 F 
ATOM     26  F   UNL A   1      34.840  25.160  24.499  1.00  0.00    -0.168 F 
ENDBRANCH   8  23
ENDBRANCH   6   8
ENDBRANCH   5   6
ENDBRANCH   4   5
ENDBRANCH   3   4
ENDBRANCH   2   3
ENDBRANCH   1   2
BRANCH   1  27
ATOM     27  C   UNL A   1      40.829  21.220  27.555  1.00  0.00     0.188 C 
BRANCH  27  28
ATOM     28  O   UNL A   1      42.101  20.718  27.190  1.00  0.00    -0.376 OA
BRANCH  28  29
ATOM     29  C   UNL A   1      42.414  20.831  25.808  1.00  0.00     0.202 C 
BRANCH  29  30
ATOM     30  C   UNL A   1      43.827  21.360  25.520  1.00  0.00     0.261 C 
BRANCH  30  31
ATOM     31  O   UNL A   1      44.266  22.452  26.355  1.00  0.00    -0.460 OA
BRANCH  31  32
ATOM     32  C   UNL A   1      44.420  23.673  25.792  1.00  0.00     0.338 C 
ATOM     33  O   UNL A   1      44.812  23.909  24.661  1.00  0.00    -0.246 OA
BRANCH  32  34
ATOM     34  C   UNL A   1      43.743  24.660  26.679  1.00  0.00     0.060 A 
ATOM     35  C   UNL A   1      44.191  25.992  26.684  1.00  0.00     0.016 A 
ATOM     36  C   UNL A   1      42.591  24.314  27.393  1.00  0.00     0.016 A 
ATOM     37  C   UNL A   1      43.500  26.971  27.409  1.00  0.00     0.010 A 
ATOM     38  C   UNL A   1      41.914  25.289  28.136  1.00  0.00     0.010 A 
ATOM     39  C   UNL A   1      42.380  26.616  28.173  1.00  0.00    -0.014 A 
BRANCH  39  40
ATOM     40  C   UNL A   1      41.869  27.539  29.222  1.00  0.00     0.031 A 
ATOM     41  C   UNL A   1      42.581  27.533  30.550  1.00  0.00     0.074 A 
ATOM     42  C   UNL A   1      40.814  28.355  29.039  1.00  0.00     0.049 A 
ATOM     43  N   UNL A   1      42.310  28.190  31.648  1.00  0.00    -0.248 NA
ATOM     44  C   UNL A   1      43.762  26.659  30.645  1.00  0.00     0.031 C 
ATOM     45  C   UNL A   1      40.056  28.511  27.801  1.00  0.00     0.029 A 
ATOM     46  N   UNL A   1      40.196  29.209  29.923  1.00  0.00    -0.354 N 
ATOM     47  C   UNL A   1      43.278  27.798  32.565  1.00  0.00     0.074 A 
ATOM     48  C   UNL A   1      44.121  26.825  31.906  1.00  0.00     0.031 C 
ATOM     49  C   UNL A   1      39.068  29.403  28.006  1.00  0.00     0.029 A 
ATOM     50  C   UNL A   1      39.101  29.853  29.398  1.00  0.00     0.049 A 
ATOM     51  H   UNL A   1      40.507  29.346  30.847  1.00  0.00     0.167 HD
ATOM     52  C   UNL A   1      43.462  28.210  33.841  1.00  0.00     0.031 A 
ATOM     53  C   UNL A   1      38.219  30.692  29.979  1.00  0.00     0.031 A 
ATOM     54  C   UNL A   1      42.613  29.150  34.519  1.00  0.00     0.049 A 
ATOM     55  C   UNL A   1      38.378  31.060  31.435  1.00  0.00     0.074 A 
ATOM     56  C   UNL A   1      42.722  29.632  35.811  1.00  0.00     0.029 A 
ATOM     57  N   UNL A   1      41.488  29.739  33.964  1.00  0.00    -0.354 N 
ATOM     58  N   UNL A   1      39.315  30.708  32.284  1.00  0.00    -0.248 NA
ATOM     59  C   UNL A   1      37.357  31.950  32.012  1.00  0.00     0.031 C 
ATOM     60  C   UNL A   1      41.625  30.461  36.061  1.00  0.00     0.029 A 
ATOM     61  C   UNL A   1      40.874  30.554  34.900  1.00  0.00     0.049 A 
ATOM     62  H   UNL A   1      41.172  29.597  33.042  1.00  0.00     0.167 HD
ATOM     63  C   UNL A   1      39.016  31.360  33.477  1.00  0.00     0.074 A 
ATOM     64  C   UNL A   1      37.817  32.137  33.241  1.00  0.00     0.031 C 
ATOM     65  C   UNL A   1      39.681  31.324  34.658  1.00  0.00     0.031 A 
BRANCH  52  66
ATOM     66  C   UNL A   1      44.604  27.592  34.596  1.00  0.00    -0.014 A 
ATOM     67  C   UNL A   1      44.471  26.352  35.243  1.00  0.00     0.009 A 
ATOM     68  C   UNL A   1      45.832  28.268  34.671  1.00  0.00     0.009 A 
ATOM     69  C   UNL A   1      45.529  25.827  35.987  1.00  0.00     0.001 A 
ATOM     70  C   UNL A   1      46.899  27.724  35.387  1.00  0.00     0.001 A 
ATOM     71  C   UNL A   1      46.742  26.510  36.055  1.00  0.00     0.000 A 
ENDBRANCH  52  66
BRANCH  53  72
ATOM     72  C   UNL A   1      37.079  31.246  29.196  1.00  0.00    -0.014 A 
ATOM     73  C   UNL A   1      37.095  32.578  28.752  1.00  0.00     0.009 A 
ATOM     74  C   UNL A   1      35.952  30.457  28.920  1.00  0.00     0.009 A 
ATOM     75  C   UNL A   1      35.999  33.114  28.069  1.00  0.00     0.001 A 
ATOM     76  C   UNL A   1      34.870  30.986  28.211  1.00  0.00     0.001 A 
ATOM     77  C   UNL A   1      34.890  32.316  27.795  1.00  0.00     0.000 A 
ENDBRANCH  53  72
BRANCH  65  78
ATOM     78  C   UNL A   1      39.163  32.183  35.782  1.00  0.00    -0.014 A 
ATOM     79  C   UNL A   1      39.559  33.521  35.932  1.00  0.00     0.009 A 
ATOM     80  C   UNL A   1      38.212  31.656  36.672  1.00  0.00     0.009 A 
ATOM     81  C   UNL A   1      39.041  34.300  36.969  1.00  0.00     0.001 A 
ATOM     82  C   UNL A   1      37.671  32.446  37.688  1.00  0.00     0.001 A 
ATOM     83  C   UNL A   1      38.094  33.765  37.842  1.00  0.00     0.000 A 
ENDBRANCH  65  78
ENDBRANCH  39  40
ENDBRANCH  32  34
ENDBRANCH  31  32
ENDBRANCH  30  31
ENDBRANCH  29  30
ENDBRANCH  28  29
ENDBRANCH  27  28
ENDBRANCH   1  27
TORSDOF 21
ENDMDL
MODEL 3
REMARK VINA RESULT:      -9.3      3.599      4.507
REMARK SMILES C[C@@](NC(=O)C[C@@H]1CCC[NH2+]C1)(C(=O)OCCOCCOCCOC(=O)c1ccc(-c2c3nc(c(-c4ccccc4)c4ccc([nH]4)c(-c4ccccc4)c4nc(c(-c5ccccc5)c5ccc2[nH]5)C=C4)C=C3)cc1)C(F)(F)F
REMARK SMILES IDX 19 1 18 2 17 3 16 4 15 5 13 6 14 7 2 8 1 9 3 10 4 11 5 13
REMARK SMILES IDX 6 14 7 15 8 16 12 17 9 18 11 19 10 20 75 23 76 24 77 25
REMARK SMILES IDX 78 26 20 27 21 28 22 29 23 30 24 31 25 32 26 33 27 34 28 35
REMARK SMILES IDX 74 36 29 37 73 38 30 39 31 40 32 41 67 42 33 43 72 44 66 45
REMARK SMILES IDX 68 46 34 47 71 48 65 49 64 50 35 52 57 53 42 54 56 55 43 56
REMARK SMILES IDX 46 57 55 58 69 59 44 60 45 61 54 63 70 64 47 65 36 66 37 67
REMARK SMILES IDX 41 68 38 69 40 70 39 71 58 72 59 73 63 74 60 75 62 76 61 77
REMARK SMILES IDX 48 78 49 79 53 80 50 81 52 82 51 83
REMARK H PARENT 3 12 11 21 11 22 68 51 46 62
REMARK Flexibility Score: inf
ROOT
ATOM      1  C   UNL A   1      39.778  21.808  26.456  1.00  0.00     0.188 C 
ENDROOT
BRANCH   1   2
ATOM      2  O   UNL A   1      39.142  23.077  26.520  1.00  0.00    -0.376 OA
BRANCH   2   3
ATOM      3  C   UNL A   1      37.849  23.198  25.940  1.00  0.00     0.202 C 
BRANCH   3   4
ATOM      4  C   UNL A   1      37.350  21.990  25.144  1.00  0.00     0.261 C 
BRANCH   4   5
ATOM      5  O   UNL A   1      35.950  22.084  24.785  1.00  0.00    -0.461 OA
BRANCH   5   6
ATOM      6  C   UNL A   1      35.640  22.786  23.662  1.00  0.00     0.341 C 
ATOM      7  O   UNL A   1      36.392  22.846  22.695  1.00  0.00    -0.249 OA
BRANCH   6   8
ATOM      8  C   UNL A   1      34.356  23.629  23.790  1.00  0.00     0.231 C 
ATOM      9  C   UNL A   1      33.920  24.231  25.137  1.00  0.00     0.058 C 
BRANCH   8  10
ATOM     10  N   UNL A   1      34.429  24.745  22.806  1.00  0.00    -0.333 N 
ATOM     11  C   UNL A   1      33.668  25.866  22.685  1.00  0.00     0.221 C 
ATOM     12  H   UNL A   1      35.144  24.658  22.135  1.00  0.00     0.164 HD
ATOM     13  O   UNL A   1      33.622  26.386  21.567  1.00  0.00    -0.275 OA
BRANCH  11  14
ATOM     14  C   UNL A   1      32.968  26.515  23.870  1.00  0.00     0.109 C 
BRANCH  14  15
ATOM     15  C   UNL A   1      33.652  27.712  24.562  1.00  0.00     0.054 C 
ATOM     16  C   UNL A   1      33.355  27.828  26.061  1.00  0.00     0.016 C 
ATOM     17  C   UNL A   1      33.287  29.033  23.857  1.00  0.00     0.264 C 
ATOM     18  C   UNL A   1      31.930  28.299  26.308  1.00  0.00     0.062 C 
ATOM     19  N   UNL A   1      31.901  29.425  24.103  1.00  0.00    -0.346 N 
ATOM     20  C   UNL A   1      31.637  29.582  25.533  1.00  0.00     0.260 C 
ATOM     21  H   UNL A   1      31.719  30.311  23.632  1.00  0.00     0.346 HD
ATOM     22  H   UNL A   1      31.292  28.692  23.742  1.00  0.00     0.346 HD
ENDBRANCH  14  15
ENDBRANCH  11  14
ENDBRANCH   8  10
BRANCH   8  23
ATOM     23  C   UNL A   1      33.262  22.584  23.445  1.00  0.00     0.422 C 
ATOM     24  F   UNL A   1      32.066  22.934  23.987  1.00  0.00    -0.168 F 
ATOM     25  F   UNL A   1      33.073  22.529  22.100  1.00  0.00    -0.168 F 
ATOM     26  F   UNL A   1      33.546  21.329  23.840  1.00  0.00    -0.168 F 
ENDBRANCH   8  23
ENDBRANCH   6   8
ENDBRANCH   5   6
ENDBRANCH   4   5
ENDBRANCH   3   4
ENDBRANCH   2   3
ENDBRANCH   1   2
BRANCH   1  27
ATOM     27  C   UNL A   1      40.824  21.461  27.530  1.00  0.00     0.188 C 
BRANCH  27  28
ATOM     28  O   UNL A   1      41.427  20.187  27.405  1.00  0.00    -0.376 OA
BRANCH  28  29
ATOM     29  C   UNL A   1      41.352  19.614  26.107  1.00  0.00     0.202 C 
BRANCH  29  30
ATOM     30  C   UNL A   1      42.696  19.115  25.555  1.00  0.00     0.261 C 
BRANCH  30  31
ATOM     31  O   UNL A   1      43.844  19.923  25.888  1.00  0.00    -0.460 OA
BRANCH  31  32
ATOM     32  C   UNL A   1      44.259  20.853  24.995  1.00  0.00     0.338 C 
ATOM     33  O   UNL A   1      44.549  20.660  23.826  1.00  0.00    -0.246 OA
BRANCH  32  34
ATOM     34  C   UNL A   1      44.008  22.191  25.599  1.00  0.00     0.060 A 
ATOM     35  C   UNL A   1      43.447  23.204  24.802  1.00  0.00     0.016 A 
ATOM     36  C   UNL A   1      44.190  22.408  26.968  1.00  0.00     0.016 A 
ATOM     37  C   UNL A   1      43.080  24.431  25.367  1.00  0.00     0.010 A 
ATOM     38  C   UNL A   1      43.846  23.645  27.528  1.00  0.00     0.010 A 
ATOM     39  C   UNL A   1      43.316  24.674  26.727  1.00  0.00    -0.014 A 
BRANCH  39  40
ATOM     40  C   UNL A   1      43.286  26.065  27.254  1.00  0.00     0.031 A 
ATOM     41  C   UNL A   1      44.612  26.747  27.472  1.00  0.00     0.074 A 
ATOM     42  C   UNL A   1      42.148  26.721  27.544  1.00  0.00     0.049 A 
ATOM     43  N   UNL A   1      44.874  27.927  27.973  1.00  0.00    -0.248 NA
ATOM     44  C   UNL A   1      45.805  25.983  27.069  1.00  0.00     0.031 C 
ATOM     45  C   UNL A   1      40.792  26.218  27.341  1.00  0.00     0.029 A 
ATOM     46  N   UNL A   1      41.965  27.972  28.088  1.00  0.00    -0.354 N 
ATOM     47  C   UNL A   1      46.260  28.039  27.955  1.00  0.00     0.074 A 
ATOM     48  C   UNL A   1      46.781  26.798  27.427  1.00  0.00     0.031 C 
ATOM     49  C   UNL A   1      39.915  27.148  27.762  1.00  0.00     0.029 A 
ATOM     50  C   UNL A   1      40.645  28.298  28.297  1.00  0.00     0.049 A 
ATOM     51  H   UNL A   1      42.709  28.578  28.308  1.00  0.00     0.167 HD
ATOM     52  C   UNL A   1      47.036  29.079  28.337  1.00  0.00     0.031 A 
ATOM     53  C   UNL A   1      40.095  29.388  28.870  1.00  0.00     0.031 A 
ATOM     54  C   UNL A   1      46.533  30.304  28.894  1.00  0.00     0.049 A 
ATOM     55  C   UNL A   1      40.983  30.496  29.386  1.00  0.00     0.074 A 
ATOM     56  C   UNL A   1      47.244  31.417  29.307  1.00  0.00     0.029 A 
ATOM     57  N   UNL A   1      45.195  30.570  29.133  1.00  0.00    -0.354 N 
ATOM     58  N   UNL A   1      42.290  30.605  29.337  1.00  0.00    -0.248 NA
ATOM     59  C   UNL A   1      40.314  31.637  30.034  1.00  0.00     0.031 C 
ATOM     60  C   UNL A   1      46.341  32.331  29.857  1.00  0.00     0.029 A 
ATOM     61  C   UNL A   1      45.061  31.818  29.719  1.00  0.00     0.049 A 
ATOM     62  H   UNL A   1      44.450  29.963  28.919  1.00  0.00     0.167 HD
ATOM     63  C   UNL A   1      42.593  31.836  29.910  1.00  0.00     0.074 A 
ATOM     64  C   UNL A   1      41.335  32.442  30.292  1.00  0.00     0.031 C 
ATOM     65  C   UNL A   1      43.806  32.415  30.096  1.00  0.00     0.031 A 
BRANCH  52  66
ATOM     66  C   UNL A   1      48.523  28.900  28.208  1.00  0.00    -0.014 A 
ATOM     67  C   UNL A   1      49.298  28.417  29.274  1.00  0.00     0.009 A 
ATOM     68  C   UNL A   1      49.158  29.231  27.001  1.00  0.00     0.009 A 
ATOM     69  C   UNL A   1      50.685  28.316  29.149  1.00  0.00     0.001 A 
ATOM     70  C   UNL A   1      50.540  29.095  26.867  1.00  0.00     0.001 A 
ATOM     71  C   UNL A   1      51.304  28.649  27.945  1.00  0.00     0.000 A 
ENDBRANCH  52  66
BRANCH  53  72
ATOM     72  C   UNL A   1      38.616  29.499  29.010  1.00  0.00    -0.014 A 
ATOM     73  C   UNL A   1      37.820  29.886  27.920  1.00  0.00     0.009 A 
ATOM     74  C   UNL A   1      37.996  29.254  30.245  1.00  0.00     0.009 A 
ATOM     75  C   UNL A   1      36.440  30.048  28.069  1.00  0.00     0.001 A 
ATOM     76  C   UNL A   1      36.612  29.388  30.384  1.00  0.00     0.001 A 
ATOM     77  C   UNL A   1      35.836  29.793  29.299  1.00  0.00     0.000 A 
ENDBRANCH  53  72
BRANCH  65  78
ATOM     78  C   UNL A   1      43.840  33.796  30.697  1.00  0.00    -0.014 A 
ATOM     79  C   UNL A   1      43.747  34.949  29.903  1.00  0.00     0.009 A 
ATOM     80  C   UNL A   1      43.906  33.940  32.093  1.00  0.00     0.009 A 
ATOM     81  C   UNL A   1      43.755  36.216  30.491  1.00  0.00     0.001 A 
ATOM     82  C   UNL A   1      43.881  35.206  32.681  1.00  0.00     0.001 A 
ATOM     83  C   UNL A   1      43.816  36.344  31.879  1.00  0.00     0.000 A 
ENDBRANCH  65  78
ENDBRANCH  39  40
ENDBRANCH  32  34
ENDBRANCH  31  32
ENDBRANCH  30  31
ENDBRANCH  29  30
ENDBRANCH  28  29
ENDBRANCH  27  28
ENDBRANCH   1  27
TORSDOF 21
ENDMDL
