MODEL 1
REMARK VINA RESULT:     -11.8      0.000      0.000
REMARK SMILES Cc1cc(/C=C2/C(=O)NC(=S)N=C2OCCOCCOCCOC(=O)c2ccc(-c3c4nc(c(-c5ccccc5)c5ccc([nH]5)c(-c5ccccc5)c5nc(c(-c6ccccc6)c6ccc3[nH]6)C=C5)C=C4)cc2)c(C)n1-c1cccc(C(=O)[O-])c1
REMARK SMILES IDX 18 1 17 2 16 3 15 4 14 5 13 6 5 7 6 8 7 9 8 10 9 11 12 12
REMARK SMILES IDX 10 13 11 15 4 16 1 17 2 18 3 19 76 20 74 21 75 22 77 23
REMARK SMILES IDX 78 24 85 25 79 26 81 27 80 28 82 29 83 30 84 31 19 32 20 33
REMARK SMILES IDX 21 34 22 35 23 36 24 37 25 38 26 39 27 40 73 41 28 42 72 43
REMARK SMILES IDX 29 44 30 45 31 46 66 47 32 48 71 49 65 50 67 51 33 52 70 53
REMARK SMILES IDX 64 54 63 55 34 57 56 58 41 59 55 60 42 61 45 62 54 63 68 64
REMARK SMILES IDX 43 65 44 66 53 68 69 69 46 70 35 71 36 72 40 73 37 74 39 75
REMARK SMILES IDX 38 76 57 77 58 78 62 79 59 80 61 81 60 82 47 83 48 84 52 85
REMARK SMILES IDX 49 86 51 87 50 88
REMARK H PARENT 9 14 67 56 45 67
REMARK Flexibility Score: inf
ROOT
ATOM      1  C   UNL A   1      38.881  20.714  25.335  1.00  0.00     0.188 C 
ENDROOT
BRANCH   1   2
ATOM      2  O   UNL A   1      38.130  21.903  25.517  1.00  0.00    -0.376 OA
BRANCH   2   3
ATOM      3  C   UNL A   1      36.712  21.929  25.424  1.00  0.00     0.201 C 
BRANCH   3   4
ATOM      4  C   UNL A   1      36.014  23.266  25.195  1.00  0.00     0.260 C 
BRANCH   4   5
ATOM      5  O   UNL A   1      34.622  23.092  24.848  1.00  0.00    -0.475 OA
BRANCH   5   6
ATOM      6  C   UNL A   1      33.820  24.178  24.880  1.00  0.00     0.229 C 
ATOM      7  C   UNL A   1      32.106  23.159  23.235  1.00  0.00     0.029 C 
ATOM      8  C   UNL A   1      32.745  24.166  23.870  1.00  0.00     0.103 C 
ATOM      9  C   UNL A   1      32.296  25.540  23.493  1.00  0.00     0.262 C 
ATOM     10  O   UNL A   1      31.579  25.795  22.532  1.00  0.00    -0.269 OA
ATOM     11  N   UNL A   1      32.749  26.536  24.312  1.00  0.00    -0.297 N 
ATOM     12  N   UNL A   1      34.114  25.173  25.643  1.00  0.00    -0.184 NA
ATOM     13  C   UNL A   1      33.557  26.390  25.406  1.00  0.00     0.203 C 
ATOM     14  H   UNL A   1      32.466  27.453  24.092  1.00  0.00     0.172 HD
ATOM     15  S   UNL A   1      33.942  27.758  26.293  1.00  0.00    -0.038 S 
BRANCH   7  16
ATOM     16  C   UNL A   1      32.205  21.727  23.269  1.00  0.00    -0.003 A 
ATOM     17  C   UNL A   1      32.075  18.393  21.602  1.00  0.00     0.065 C 
ATOM     18  C   UNL A   1      32.251  19.608  22.449  1.00  0.00     0.020 A 
ATOM     19  C   UNL A   1      32.081  20.931  22.098  1.00  0.00     0.031 A 
ATOM     20  N   UNL A   1      32.601  19.582  23.792  1.00  0.00    -0.318 N 
ATOM     21  C   UNL A   1      32.281  20.841  24.334  1.00  0.00     0.027 A 
ATOM     22  C   UNL A   1      32.168  21.089  25.797  1.00  0.00     0.065 C 
BRANCH  20  23
ATOM     23  C   UNL A   1      33.330  18.543  24.455  1.00  0.00     0.046 A 
ATOM     24  C   UNL A   1      34.727  18.508  24.418  1.00  0.00     0.026 A 
ATOM     25  C   UNL A   1      32.628  17.451  24.994  1.00  0.00     0.036 A 
ATOM     26  C   UNL A   1      35.420  17.355  24.780  1.00  0.00     0.003 A 
ATOM     27  C   UNL A   1      33.330  16.302  25.386  1.00  0.00    -0.001 A 
ATOM     28  C   UNL A   1      34.721  16.242  25.238  1.00  0.00     0.010 A 
BRANCH  27  29
ATOM     29  C   UNL A   1      32.662  15.079  25.930  1.00  0.00     0.072 C 
ATOM     30  O   UNL A   1      31.681  15.053  26.591  1.00  0.00    -0.545 OA
ATOM     31  O   UNL A   1      33.296  13.945  25.541  1.00  0.00    -0.545 OA
ENDBRANCH  27  29
ENDBRANCH  20  23
ENDBRANCH   7  16
ENDBRANCH   5   6
ENDBRANCH   4   5
ENDBRANCH   3   4
ENDBRANCH   2   3
ENDBRANCH   1   2
BRANCH   1  32
ATOM     32  C   UNL A   1      40.125  20.399  26.176  1.00  0.00     0.188 C 
BRANCH  32  33
ATOM     33  O   UNL A   1      40.944  19.323  25.793  1.00  0.00    -0.376 OA
BRANCH  33  34
ATOM     34  C   UNL A   1      42.211  19.250  26.413  1.00  0.00     0.202 C 
BRANCH  34  35
ATOM     35  C   UNL A   1      43.409  18.418  25.805  1.00  0.00     0.261 C 
BRANCH  35  36
ATOM     36  O   UNL A   1      44.166  18.630  24.518  1.00  0.00    -0.460 OA
BRANCH  36  37
ATOM     37  C   UNL A   1      45.176  19.597  24.382  1.00  0.00     0.338 C 
ATOM     38  O   UNL A   1      46.283  19.293  23.954  1.00  0.00    -0.246 OA
BRANCH  37  39
ATOM     39  C   UNL A   1      44.888  21.097  24.865  1.00  0.00     0.060 A 
ATOM     40  C   UNL A   1      44.952  21.713  26.162  1.00  0.00     0.016 A 
ATOM     41  C   UNL A   1      44.413  22.016  23.991  1.00  0.00     0.016 A 
ATOM     42  C   UNL A   1      44.612  23.238  26.547  1.00  0.00     0.010 A 
ATOM     43  C   UNL A   1      44.121  23.417  24.429  1.00  0.00     0.010 A 
ATOM     44  C   UNL A   1      44.122  24.245  25.669  1.00  0.00    -0.014 A 
BRANCH  44  45
ATOM     45  C   UNL A   1      44.464  26.092  25.713  1.00  0.00     0.031 A 
ATOM     46  C   UNL A   1      43.185  26.507  25.055  1.00  0.00     0.074 A 
ATOM     47  C   UNL A   1      45.048  27.330  26.452  1.00  0.00     0.049 A 
ATOM     48  N   UNL A   1      42.199  25.709  25.402  1.00  0.00    -0.248 NA
ATOM     49  C   UNL A   1      42.683  27.850  24.870  1.00  0.00     0.031 C 
ATOM     50  C   UNL A   1      45.887  27.402  27.696  1.00  0.00     0.029 A 
ATOM     51  N   UNL A   1      44.895  28.924  26.355  1.00  0.00    -0.354 N 
ATOM     52  C   UNL A   1      41.715  26.424  26.454  1.00  0.00     0.074 A 
ATOM     53  C   UNL A   1      41.631  27.716  25.703  1.00  0.00     0.031 C 
ATOM     54  C   UNL A   1      45.947  28.636  28.291  1.00  0.00     0.029 A 
ATOM     55  C   UNL A   1      45.284  29.764  27.549  1.00  0.00     0.049 A 
ATOM     56  H   UNL A   1      44.554  29.346  25.534  1.00  0.00     0.167 HD
ATOM     57  C   UNL A   1      41.938  26.199  27.837  1.00  0.00     0.031 A 
ATOM     58  C   UNL A   1      45.412  31.122  28.132  1.00  0.00     0.031 A 
ATOM     59  C   UNL A   1      41.156  27.081  28.654  1.00  0.00     0.049 A 
ATOM     60  C   UNL A   1      44.422  30.899  29.250  1.00  0.00     0.074 A 
ATOM     61  C   UNL A   1      40.576  28.285  28.334  1.00  0.00     0.029 A 
ATOM     62  N   UNL A   1      41.523  27.281  29.979  1.00  0.00    -0.354 N 
ATOM     63  N   UNL A   1      44.613  30.559  30.487  1.00  0.00    -0.248 NA
ATOM     64  C   UNL A   1      43.032  31.335  28.944  1.00  0.00     0.031 C 
ATOM     65  C   UNL A   1      41.757  28.951  28.660  1.00  0.00     0.029 A 
ATOM     66  C   UNL A   1      42.118  28.514  29.939  1.00  0.00     0.049 A 
ATOM     67  H   UNL A   1      41.389  26.686  30.752  1.00  0.00     0.167 HD
ATOM     68  C   UNL A   1      43.310  30.294  30.889  1.00  0.00     0.074 A 
ATOM     69  C   UNL A   1      42.445  31.173  30.128  1.00  0.00     0.031 C 
ATOM     70  C   UNL A   1      43.015  28.964  30.970  1.00  0.00     0.031 A 
BRANCH  57  71
ATOM     71  C   UNL A   1      42.907  25.167  28.725  1.00  0.00    -0.014 A 
ATOM     72  C   UNL A   1      42.664  23.817  29.121  1.00  0.00     0.009 A 
ATOM     73  C   UNL A   1      44.056  25.689  29.334  1.00  0.00     0.009 A 
ATOM     74  C   UNL A   1      43.367  23.100  30.117  1.00  0.00     0.001 A 
ATOM     75  C   UNL A   1      44.812  24.967  30.292  1.00  0.00     0.001 A 
ATOM     76  C   UNL A   1      44.445  23.694  30.721  1.00  0.00     0.000 A 
ENDBRANCH  57  71
BRANCH  58  77
ATOM     77  C   UNL A   1      45.433  32.862  28.341  1.00  0.00    -0.014 A 
ATOM     78  C   UNL A   1      44.633  33.739  27.571  1.00  0.00     0.009 A 
ATOM     79  C   UNL A   1      46.548  33.655  28.874  1.00  0.00     0.009 A 
ATOM     80  C   UNL A   1      44.888  35.178  27.446  1.00  0.00     0.001 A 
ATOM     81  C   UNL A   1      46.832  35.043  28.739  1.00  0.00     0.001 A 
ATOM     82  C   UNL A   1      45.976  35.828  28.030  1.00  0.00     0.000 A 
ENDBRANCH  58  77
BRANCH  70  83
ATOM     83  C   UNL A   1      44.034  28.189  31.739  1.00  0.00    -0.014 A 
ATOM     84  C   UNL A   1      43.607  27.380  32.806  1.00  0.00     0.009 A 
ATOM     85  C   UNL A   1      45.407  28.370  31.567  1.00  0.00     0.009 A 
ATOM     86  C   UNL A   1      44.521  26.810  33.692  1.00  0.00     0.001 A 
ATOM     87  C   UNL A   1      46.331  27.794  32.446  1.00  0.00     0.001 A 
ATOM     88  C   UNL A   1      45.884  27.021  33.515  1.00  0.00     0.000 A 
ENDBRANCH  70  83
ENDBRANCH  44  45
ENDBRANCH  37  39
ENDBRANCH  36  37
ENDBRANCH  35  36
ENDBRANCH  34  35
ENDBRANCH  33  34
ENDBRANCH  32  33
ENDBRANCH   1  32
TORSDOF 19
ENDMDL
MODEL 2
REMARK VINA RESULT:     -11.6      1.979      4.792
REMARK SMILES Cc1cc(/C=C2/C(=O)NC(=S)N=C2OCCOCCOCCOC(=O)c2ccc(-c3c4nc(c(-c5ccccc5)c5ccc([nH]5)c(-c5ccccc5)c5nc(c(-c6ccccc6)c6ccc3[nH]6)C=C5)C=C4)cc2)c(C)n1-c1cccc(C(=O)[O-])c1
REMARK SMILES IDX 18 1 17 2 16 3 15 4 14 5 13 6 5 7 6 8 7 9 8 10 9 11 12 12
REMARK SMILES IDX 10 13 11 15 4 16 1 17 2 18 3 19 76 20 74 21 75 22 77 23
REMARK SMILES IDX 78 24 85 25 79 26 81 27 80 28 82 29 83 30 84 31 19 32 20 33
REMARK SMILES IDX 21 34 22 35 23 36 24 37 25 38 26 39 27 40 73 41 28 42 72 43
REMARK SMILES IDX 29 44 30 45 31 46 66 47 32 48 71 49 65 50 67 51 33 52 70 53
REMARK SMILES IDX 64 54 63 55 34 57 56 58 41 59 55 60 42 61 45 62 54 63 68 64
REMARK SMILES IDX 43 65 44 66 53 68 69 69 46 70 35 71 36 72 40 73 37 74 39 75
REMARK SMILES IDX 38 76 57 77 58 78 62 79 59 80 61 81 60 82 47 83 48 84 52 85
REMARK SMILES IDX 49 86 51 87 50 88
REMARK H PARENT 9 14 67 56 45 67
REMARK Flexibility Score: inf
ROOT
ATOM      1  C   UNL A   1      39.948  21.597  26.461  1.00  0.00     0.188 C 
ENDROOT
BRANCH   1   2
ATOM      2  O   UNL A   1      38.928  21.365  25.504  1.00  0.00    -0.376 OA
BRANCH   2   3
ATOM      3  C   UNL A   1      37.609  21.873  25.659  1.00  0.00     0.201 C 
BRANCH   3   4
ATOM      4  C   UNL A   1      36.545  21.480  24.638  1.00  0.00     0.260 C 
BRANCH   4   5
ATOM      5  O   UNL A   1      35.350  20.977  25.276  1.00  0.00    -0.475 OA
BRANCH   5   6
ATOM      6  C   UNL A   1      34.930  19.737  24.947  1.00  0.00     0.229 C 
ATOM      7  C   UNL A   1      32.559  20.538  24.299  1.00  0.00     0.029 C 
ATOM      8  C   UNL A   1      33.479  19.634  24.703  1.00  0.00     0.103 C 
ATOM      9  C   UNL A   1      32.949  18.261  24.962  1.00  0.00     0.262 C 
ATOM     10  O   UNL A   1      31.758  17.982  25.039  1.00  0.00    -0.269 OA
ATOM     11  N   UNL A   1      33.906  17.297  25.114  1.00  0.00    -0.297 N 
ATOM     12  N   UNL A   1      35.747  18.743  25.009  1.00  0.00    -0.184 NA
ATOM     13  C   UNL A   1      35.261  17.475  25.060  1.00  0.00     0.203 C 
ATOM     14  H   UNL A   1      33.587  16.380  25.281  1.00  0.00     0.172 HD
ATOM     15  S   UNL A   1      36.242  16.127  25.224  1.00  0.00    -0.038 S 
BRANCH   7  16
ATOM     16  C   UNL A   1      32.603  21.931  23.956  1.00  0.00    -0.003 A 
ATOM     17  C   UNL A   1      33.117  24.684  21.493  1.00  0.00     0.065 C 
ATOM     18  C   UNL A   1      32.795  23.755  22.614  1.00  0.00     0.020 A 
ATOM     19  C   UNL A   1      32.841  22.377  22.627  1.00  0.00     0.031 A 
ATOM     20  N   UNL A   1      32.411  24.164  23.884  1.00  0.00    -0.318 N 
ATOM     21  C   UNL A   1      32.586  23.069  24.749  1.00  0.00     0.027 A 
ATOM     22  C   UNL A   1      32.631  23.205  26.231  1.00  0.00     0.065 C 
BRANCH  20  23
ATOM     23  C   UNL A   1      31.771  25.402  24.215  1.00  0.00     0.046 A 
ATOM     24  C   UNL A   1      30.422  25.617  23.918  1.00  0.00     0.026 A 
ATOM     25  C   UNL A   1      32.552  26.475  24.678  1.00  0.00     0.036 A 
ATOM     26  C   UNL A   1      29.883  26.901  23.944  1.00  0.00     0.003 A 
ATOM     27  C   UNL A   1      31.999  27.762  24.733  1.00  0.00    -0.001 A 
ATOM     28  C   UNL A   1      30.678  27.978  24.325  1.00  0.00     0.010 A 
BRANCH  27  29
ATOM     29  C   UNL A   1      32.769  28.967  25.172  1.00  0.00     0.072 C 
ATOM     30  O   UNL A   1      32.328  30.048  25.360  1.00  0.00    -0.545 OA
ATOM     31  O   UNL A   1      34.077  28.678  25.384  1.00  0.00    -0.545 OA
ENDBRANCH  27  29
ENDBRANCH  20  23
ENDBRANCH   7  16
ENDBRANCH   5   6
ENDBRANCH   4   5
ENDBRANCH   3   4
ENDBRANCH   2   3
ENDBRANCH   1   2
BRANCH   1  32
ATOM     32  C   UNL A   1      41.436  21.467  26.113  1.00  0.00     0.188 C 
BRANCH  32  33
ATOM     33  O   UNL A   1      42.163  20.389  26.648  1.00  0.00    -0.376 OA
BRANCH  33  34
ATOM     34  C   UNL A   1      42.314  19.262  25.810  1.00  0.00     0.202 C 
BRANCH  34  35
ATOM     35  C   UNL A   1      43.725  18.632  25.478  1.00  0.00     0.261 C 
BRANCH  35  36
ATOM     36  O   UNL A   1      44.666  18.940  24.339  1.00  0.00    -0.460 OA
BRANCH  36  37
ATOM     37  C   UNL A   1      45.666  19.923  24.426  1.00  0.00     0.338 C 
ATOM     38  O   UNL A   1      46.826  19.667  24.126  1.00  0.00    -0.246 OA
BRANCH  37  39
ATOM     39  C   UNL A   1      45.288  21.371  24.997  1.00  0.00     0.060 A 
ATOM     40  C   UNL A   1      45.365  21.928  26.319  1.00  0.00     0.016 A 
ATOM     41  C   UNL A   1      44.703  22.289  24.192  1.00  0.00     0.016 A 
ATOM     42  C   UNL A   1      44.928  23.402  26.795  1.00  0.00     0.010 A 
ATOM     43  C   UNL A   1      44.325  23.641  24.712  1.00  0.00     0.010 A 
ATOM     44  C   UNL A   1      44.322  24.407  25.991  1.00  0.00    -0.014 A 
BRANCH  44  45
ATOM     45  C   UNL A   1      44.523  26.272  26.114  1.00  0.00     0.031 A 
ATOM     46  C   UNL A   1      43.346  26.616  25.254  1.00  0.00     0.074 A 
ATOM     47  C   UNL A   1      44.887  27.528  26.954  1.00  0.00     0.049 A 
ATOM     48  N   UNL A   1      42.374  25.747  25.420  1.00  0.00    -0.248 NA
ATOM     49  C   UNL A   1      42.791  27.926  25.002  1.00  0.00     0.031 C 
ATOM     50  C   UNL A   1      45.499  27.627  28.323  1.00  0.00     0.029 A 
ATOM     51  N   UNL A   1      44.643  29.110  26.852  1.00  0.00    -0.354 N 
ATOM     52  C   UNL A   1      41.672  26.403  26.384  1.00  0.00     0.074 A 
ATOM     53  C   UNL A   1      41.625  27.704  25.645  1.00  0.00     0.031 C 
ATOM     54  C   UNL A   1      45.373  28.848  28.933  1.00  0.00     0.029 A 
ATOM     55  C   UNL A   1      44.768  29.946  28.104  1.00  0.00     0.049 A 
ATOM     56  H   UNL A   1      44.416  29.528  25.990  1.00  0.00     0.167 HD
ATOM     57  C   UNL A   1      41.675  26.162  27.782  1.00  0.00     0.031 A 
ATOM     58  C   UNL A   1      44.701  31.296  28.716  1.00  0.00     0.031 A 
ATOM     59  C   UNL A   1      40.708  26.971  28.466  1.00  0.00     0.049 A 
ATOM     60  C   UNL A   1      43.557  30.983  29.649  1.00  0.00     0.074 A 
ATOM     61  C   UNL A   1      40.108  28.141  28.066  1.00  0.00     0.029 A 
ATOM     62  N   UNL A   1      40.833  27.164  29.836  1.00  0.00    -0.354 N 
ATOM     63  N   UNL A   1      43.561  30.627  30.896  1.00  0.00    -0.248 NA
ATOM     64  C   UNL A   1      42.210  31.332  29.117  1.00  0.00     0.031 C 
ATOM     65  C   UNL A   1      41.169  28.876  28.594  1.00  0.00     0.029 A 
ATOM     66  C   UNL A   1      41.340  28.434  29.912  1.00  0.00     0.049 A 
ATOM     67  H   UNL A   1      40.613  26.544  30.568  1.00  0.00     0.167 HD
ATOM     68  C   UNL A   1      42.230  30.267  31.069  1.00  0.00     0.074 A 
ATOM     69  C   UNL A   1      41.446  31.104  30.183  1.00  0.00     0.031 C 
ATOM     70  C   UNL A   1      42.018  28.920  31.084  1.00  0.00     0.031 A 
BRANCH  57  71
ATOM     71  C   UNL A   1      42.551  25.176  28.809  1.00  0.00    -0.014 A 
ATOM     72  C   UNL A   1      43.702  25.484  29.594  1.00  0.00     0.009 A 
ATOM     73  C   UNL A   1      42.264  23.805  28.821  1.00  0.00     0.009 A 
ATOM     74  C   UNL A   1      44.574  24.549  30.198  1.00  0.00     0.001 A 
ATOM     75  C   UNL A   1      43.092  22.853  29.471  1.00  0.00     0.001 A 
ATOM     76  C   UNL A   1      44.271  23.215  30.117  1.00  0.00     0.000 A 
ENDBRANCH  57  71
BRANCH  58  77
ATOM     77  C   UNL A   1      44.567  33.029  28.945  1.00  0.00    -0.014 A 
ATOM     78  C   UNL A   1      44.392  33.935  27.874  1.00  0.00     0.009 A 
ATOM     79  C   UNL A   1      45.113  33.796  30.072  1.00  0.00     0.009 A 
ATOM     80  C   UNL A   1      44.651  35.375  27.973  1.00  0.00     0.001 A 
ATOM     81  C   UNL A   1      45.402  35.186  30.180  1.00  0.00     0.001 A 
ATOM     82  C   UNL A   1      45.146  35.999  29.119  1.00  0.00     0.000 A 
ENDBRANCH  58  77
BRANCH  70  83
ATOM     83  C   UNL A   1      42.946  28.196  32.005  1.00  0.00    -0.014 A 
ATOM     84  C   UNL A   1      42.410  27.534  33.123  1.00  0.00     0.009 A 
ATOM     85  C   UNL A   1      44.334  28.298  31.910  1.00  0.00     0.009 A 
ATOM     86  C   UNL A   1      43.235  27.032  34.129  1.00  0.00     0.001 A 
ATOM     87  C   UNL A   1      45.169  27.788  32.911  1.00  0.00     0.001 A 
ATOM     88  C   UNL A   1      44.616  27.163  34.026  1.00  0.00     0.000 A 
ENDBRANCH  70  83
ENDBRANCH  44  45
ENDBRANCH  37  39
ENDBRANCH  36  37
ENDBRANCH  35  36
ENDBRANCH  34  35
ENDBRANCH  33  34
ENDBRANCH  32  33
ENDBRANCH   1  32
TORSDOF 19
ENDMDL
MODEL 3
REMARK VINA RESULT:     -11.2      3.436      6.006
REMARK SMILES Cc1cc(/C=C2/C(=O)NC(=S)N=C2OCCOCCOCCOC(=O)c2ccc(-c3c4nc(c(-c5ccccc5)c5ccc([nH]5)c(-c5ccccc5)c5nc(c(-c6ccccc6)c6ccc3[nH]6)C=C5)C=C4)cc2)c(C)n1-c1cccc(C(=O)[O-])c1
REMARK SMILES IDX 18 1 17 2 16 3 15 4 14 5 13 6 5 7 6 8 7 9 8 10 9 11 12 12
REMARK SMILES IDX 10 13 11 15 4 16 1 17 2 18 3 19 76 20 74 21 75 22 77 23
REMARK SMILES IDX 78 24 85 25 79 26 81 27 80 28 82 29 83 30 84 31 19 32 20 33
REMARK SMILES IDX 21 34 22 35 23 36 24 37 25 38 26 39 27 40 73 41 28 42 72 43
REMARK SMILES IDX 29 44 30 45 31 46 66 47 32 48 71 49 65 50 67 51 33 52 70 53
REMARK SMILES IDX 64 54 63 55 34 57 56 58 41 59 55 60 42 61 45 62 54 63 68 64
REMARK SMILES IDX 43 65 44 66 53 68 69 69 46 70 35 71 36 72 40 73 37 74 39 75
REMARK SMILES IDX 38 76 57 77 58 78 62 79 59 80 61 81 60 82 47 83 48 84 52 85
REMARK SMILES IDX 49 86 51 87 50 88
REMARK H PARENT 9 14 67 56 45 67
REMARK Flexibility Score: inf
ROOT
ATOM      1  C   UNL A   1      37.731  22.364  24.604  1.00  0.00     0.188 C 
ENDROOT
BRANCH   1   2
ATOM      2  O   UNL A   1      36.664  23.282  24.427  1.00  0.00    -0.376 OA
BRANCH   2   3
ATOM      3  C   UNL A   1      36.257  24.183  25.448  1.00  0.00     0.201 C 
BRANCH   3   4
ATOM      4  C   UNL A   1      34.769  24.329  25.750  1.00  0.00     0.260 C 
BRANCH   4   5
ATOM      5  O   UNL A   1      34.126  25.252  24.842  1.00  0.00    -0.475 OA
BRANCH   5   6
ATOM      6  C   UNL A   1      33.260  26.149  25.359  1.00  0.00     0.229 C 
ATOM      7  C   UNL A   1      31.195  25.004  24.307  1.00  0.00     0.029 C 
ATOM      8  C   UNL A   1      31.887  26.040  24.830  1.00  0.00     0.103 C 
ATOM      9  C   UNL A   1      31.142  27.333  24.895  1.00  0.00     0.262 C 
ATOM     10  O   UNL A   1      30.078  27.548  24.327  1.00  0.00    -0.269 OA
ATOM     11  N   UNL A   1      31.739  28.302  25.653  1.00  0.00    -0.297 N 
ATOM     12  N   UNL A   1      33.691  27.091  26.124  1.00  0.00    -0.184 NA
ATOM     13  C   UNL A   1      32.923  28.196  26.328  1.00  0.00     0.203 C 
ATOM     14  H   UNL A   1      31.269  29.165  25.719  1.00  0.00     0.172 HD
ATOM     15  S   UNL A   1      33.434  29.505  27.240  1.00  0.00    -0.038 S 
BRANCH   7  16
ATOM     16  C   UNL A   1      31.495  23.625  24.047  1.00  0.00    -0.003 A 
ATOM     17  C   UNL A   1      31.778  20.712  21.735  1.00  0.00     0.065 C 
ATOM     18  C   UNL A   1      31.810  21.744  22.811  1.00  0.00     0.020 A 
ATOM     19  C   UNL A   1      31.444  23.072  22.738  1.00  0.00     0.031 A 
ATOM     20  N   UNL A   1      32.205  21.498  24.119  1.00  0.00    -0.318 N 
ATOM     21  C   UNL A   1      31.731  22.562  24.908  1.00  0.00     0.027 A 
ATOM     22  C   UNL A   1      31.634  22.491  26.391  1.00  0.00     0.065 C 
BRANCH  20  23
ATOM     23  C   UNL A   1      33.095  20.463  24.552  1.00  0.00     0.046 A 
ATOM     24  C   UNL A   1      34.423  20.747  24.884  1.00  0.00     0.026 A 
ATOM     25  C   UNL A   1      32.678  19.123  24.470  1.00  0.00     0.036 A 
ATOM     26  C   UNL A   1      35.363  19.725  24.996  1.00  0.00     0.003 A 
ATOM     27  C   UNL A   1      33.620  18.095  24.614  1.00  0.00    -0.001 A 
ATOM     28  C   UNL A   1      34.968  18.400  24.835  1.00  0.00     0.010 A 
BRANCH  27  29
ATOM     29  C   UNL A   1      33.274  16.644  24.501  1.00  0.00     0.072 C 
ATOM     30  O   UNL A   1      33.283  15.998  23.510  1.00  0.00    -0.545 OA
ATOM     31  O   UNL A   1      32.972  16.103  25.707  1.00  0.00    -0.545 OA
ENDBRANCH  27  29
ENDBRANCH  20  23
ENDBRANCH   7  16
ENDBRANCH   5   6
ENDBRANCH   4   5
ENDBRANCH   3   4
ENDBRANCH   2   3
ENDBRANCH   1   2
BRANCH   1  32
ATOM     32  C   UNL A   1      38.337  22.077  25.984  1.00  0.00     0.188 C 
BRANCH  32  33
ATOM     33  O   UNL A   1      39.347  21.105  26.088  1.00  0.00    -0.376 OA
BRANCH  33  34
ATOM     34  C   UNL A   1      40.462  21.445  26.887  1.00  0.00     0.202 C 
BRANCH  34  35
ATOM     35  C   UNL A   1      41.881  21.770  26.273  1.00  0.00     0.261 C 
BRANCH  35  36
ATOM     36  O   UNL A   1      43.230  21.801  26.946  1.00  0.00    -0.460 OA
BRANCH  36  37
ATOM     37  C   UNL A   1      44.036  22.952  26.979  1.00  0.00     0.338 C 
ATOM     38  O   UNL A   1      45.107  22.986  26.384  1.00  0.00    -0.246 OA
BRANCH  37  39
ATOM     39  C   UNL A   1      43.574  24.202  27.868  1.00  0.00     0.060 A 
ATOM     40  C   UNL A   1      42.407  25.038  27.809  1.00  0.00     0.016 A 
ATOM     41  C   UNL A   1      44.395  24.698  28.823  1.00  0.00     0.016 A 
ATOM     42  C   UNL A   1      42.050  26.299  28.744  1.00  0.00     0.010 A 
ATOM     43  C   UNL A   1      43.988  25.877  29.651  1.00  0.00     0.010 A 
ATOM     44  C   UNL A   1      42.868  26.854  29.767  1.00  0.00    -0.014 A 
BRANCH  44  45
ATOM     45  C   UNL A   1      42.328  27.667  31.373  1.00  0.00     0.031 A 
ATOM     46  C   UNL A   1      43.681  28.185  31.752  1.00  0.00     0.074 A 
ATOM     47  C   UNL A   1      41.265  28.465  32.180  1.00  0.00     0.049 A 
ATOM     48  N   UNL A   1      44.364  28.537  30.685  1.00  0.00    -0.248 NA
ATOM     49  C   UNL A   1      44.014  29.059  32.854  1.00  0.00     0.031 C 
ATOM     50  C   UNL A   1      39.852  28.825  31.819  1.00  0.00     0.029 A 
ATOM     51  N   UNL A   1      41.235  29.332  33.529  1.00  0.00    -0.354 N 
ATOM     52  C   UNL A   1      44.033  29.857  30.653  1.00  0.00     0.074 A 
ATOM     53  C   UNL A   1      44.375  30.110  32.089  1.00  0.00     0.031 C 
ATOM     54  C   UNL A   1      39.291  29.822  32.574  1.00  0.00     0.029 A 
ATOM     55  C   UNL A   1      40.109  30.319  33.733  1.00  0.00     0.049 A 
ATOM     56  H   UNL A   1      41.937  29.224  34.211  1.00  0.00     0.167 HD
ATOM     57  C   UNL A   1      43.066  30.494  29.833  1.00  0.00     0.031 A 
ATOM     58  C   UNL A   1      39.486  31.337  34.614  1.00  0.00     0.031 A 
ATOM     59  C   UNL A   1      43.089  31.919  29.989  1.00  0.00     0.049 A 
ATOM     60  C   UNL A   1      39.639  32.486  33.647  1.00  0.00     0.074 A 
ATOM     61  C   UNL A   1      43.583  32.678  31.024  1.00  0.00     0.029 A 
ATOM     62  N   UNL A   1      41.987  32.663  29.586  1.00  0.00    -0.354 N 
ATOM     63  N   UNL A   1      38.800  32.987  32.795  1.00  0.00    -0.248 NA
ATOM     64  C   UNL A   1      40.869  33.301  33.844  1.00  0.00     0.031 C 
ATOM     65  C   UNL A   1      42.363  32.574  31.692  1.00  0.00     0.029 A 
ATOM     66  C   UNL A   1      41.375  32.956  30.777  1.00  0.00     0.049 A 
ATOM     67  H   UNL A   1      41.713  32.916  28.675  1.00  0.00     0.167 HD
ATOM     68  C   UNL A   1      39.633  33.833  32.074  1.00  0.00     0.074 A 
ATOM     69  C   UNL A   1      40.656  34.298  32.989  1.00  0.00     0.031 C 
ATOM     70  C   UNL A   1      39.993  33.348  30.852  1.00  0.00     0.031 A 
BRANCH  57  71
ATOM     71  C   UNL A   1      41.905  29.970  28.751  1.00  0.00    -0.014 A 
ATOM     72  C   UNL A   1      40.535  29.643  28.984  1.00  0.00     0.009 A 
ATOM     73  C   UNL A   1      42.308  29.629  27.453  1.00  0.00     0.009 A 
ATOM     74  C   UNL A   1      39.690  28.922  28.110  1.00  0.00     0.001 A 
ATOM     75  C   UNL A   1      41.458  28.959  26.537  1.00  0.00     0.001 A 
ATOM     76  C   UNL A   1      40.168  28.561  26.876  1.00  0.00     0.000 A 
ENDBRANCH  57  71
BRANCH  58  77
ATOM     77  C   UNL A   1      39.117  32.378  35.975  1.00  0.00    -0.014 A 
ATOM     78  C   UNL A   1      39.993  32.547  37.073  1.00  0.00     0.009 A 
ATOM     79  C   UNL A   1      37.775  32.759  36.434  1.00  0.00     0.009 A 
ATOM     80  C   UNL A   1      39.578  33.087  38.372  1.00  0.00     0.001 A 
ATOM     81  C   UNL A   1      37.345  33.254  37.697  1.00  0.00     0.001 A 
ATOM     82  C   UNL A   1      38.265  33.446  38.681  1.00  0.00     0.000 A 
ENDBRANCH  58  77
BRANCH  70  83
ATOM     83  C   UNL A   1      38.829  32.855  30.056  1.00  0.00    -0.014 A 
ATOM     84  C   UNL A   1      38.143  33.761  29.228  1.00  0.00     0.009 A 
ATOM     85  C   UNL A   1      38.276  31.586  30.233  1.00  0.00     0.009 A 
ATOM     86  C   UNL A   1      36.927  33.420  28.635  1.00  0.00     0.001 A 
ATOM     87  C   UNL A   1      37.062  31.234  29.635  1.00  0.00     0.001 A 
ATOM     88  C   UNL A   1      36.383  32.156  28.843  1.00  0.00     0.000 A 
ENDBRANCH  70  83
ENDBRANCH  44  45
ENDBRANCH  37  39
ENDBRANCH  36  37
ENDBRANCH  35  36
ENDBRANCH  34  35
ENDBRANCH  33  34
ENDBRANCH  32  33
ENDBRANCH   1  32
TORSDOF 19
ENDMDL
