MODEL 1
REMARK VINA RESULT:      -8.5      0.000      0.000
REMARK SMILES CN(CCO)C(=O)N[C@H]1C=C[C@@H](C(=O)OCCOCCOCCOC(=O)c2ccc(-c3c4nc(c(-c5ccccc5)c5ccc([nH]5)c(-c5ccccc5)c5nc(c(-c6ccccc6)c6ccc3[nH]6)C=C5)C=C4)cc2)C1
REMARK SMILES IDX 18 1 17 2 16 3 15 4 13 5 14 6 12 7 9 8 10 9 75 10 11 11 8 12
REMARK SMILES IDX 6 13 7 14 2 16 1 17 3 18 4 19 5 20 19 22 20 23 21 24 22 25
REMARK SMILES IDX 23 26 24 27 25 28 26 29 27 30 28 31 74 32 29 33 73 34 30 35
REMARK SMILES IDX 31 36 32 37 67 38 33 39 72 40 66 41 68 42 34 43 71 44 65 45
REMARK SMILES IDX 64 46 35 48 57 49 42 50 56 51 43 52 46 53 55 54 69 55 44 56
REMARK SMILES IDX 45 57 54 59 70 60 47 61 36 62 37 63 41 64 38 65 40 66 39 67
REMARK SMILES IDX 58 68 59 69 63 70 60 71 62 72 61 73 48 74 49 75 53 76 50 77
REMARK SMILES IDX 52 78 51 79
REMARK H PARENT 8 15 5 21 68 47 46 58
REMARK Flexibility Score: inf
ROOT
ATOM      1  O   UNL A   1      37.189  22.066  24.818  1.00  0.00    -0.376 OA
ENDROOT
BRANCH   1   2
ATOM      2  C   UNL A   1      36.496  23.173  24.246  1.00  0.00     0.202 C 
BRANCH   2   3
ATOM      3  C   UNL A   1      35.155  22.907  23.542  1.00  0.00     0.261 C 
BRANCH   3   4
ATOM      4  O   UNL A   1      34.538  24.072  22.958  1.00  0.00    -0.463 OA
BRANCH   4   5
ATOM      5  C   UNL A   1      33.300  23.902  22.416  1.00  0.00     0.312 C 
ATOM      6  O   UNL A   1      33.001  22.995  21.646  1.00  0.00    -0.252 OA
BRANCH   5   7
ATOM      7  C   UNL A   1      32.262  24.918  22.907  1.00  0.00     0.124 C 
ATOM      8  C   UNL A   1      30.527  25.209  24.660  1.00  0.00     0.107 C 
ATOM      9  C   UNL A   1      31.807  25.926  24.981  1.00  0.00    -0.006 C 
ATOM     10  C   UNL A   1      30.953  24.369  23.462  1.00  0.00     0.048 C 
ATOM     11  C   UNL A   1      32.748  25.758  24.043  1.00  0.00    -0.014 C 
BRANCH   8  12
ATOM     12  N   UNL A   1      30.147  24.406  25.809  1.00  0.00    -0.332 N 
ATOM     13  C   UNL A   1      30.662  23.401  26.534  1.00  0.00     0.317 C 
ATOM     14  O   UNL A   1      29.986  23.084  27.521  1.00  0.00    -0.249 OA
ATOM     15  H   UNL A   1      29.264  24.676  26.153  1.00  0.00     0.165 HD
BRANCH  13  16
ATOM     16  N   UNL A   1      31.826  22.744  26.242  1.00  0.00    -0.326 N 
ATOM     17  C   UNL A   1      31.715  21.661  25.264  1.00  0.00     0.148 C 
BRANCH  16  18
ATOM     18  C   UNL A   1      33.178  22.974  26.752  1.00  0.00     0.149 C 
BRANCH  18  19
ATOM     19  C   UNL A   1      33.833  21.836  27.541  1.00  0.00     0.177 C 
BRANCH  19  20
ATOM     20  O   UNL A   1      35.162  21.543  27.145  1.00  0.00    -0.395 OA
ATOM     21  H   UNL A   1      35.743  22.276  27.399  1.00  0.00     0.210 HD
ENDBRANCH  19  20
ENDBRANCH  18  19
ENDBRANCH  16  18
ENDBRANCH  13  16
ENDBRANCH   8  12
ENDBRANCH   5   7
ENDBRANCH   4   5
ENDBRANCH   3   4
ENDBRANCH   2   3
ENDBRANCH   1   2
BRANCH   1  22
ATOM     22  C   UNL A   1      38.207  22.333  25.771  1.00  0.00     0.188 C 
BRANCH  22  23
ATOM     23  C   UNL A   1      39.211  21.225  26.112  1.00  0.00     0.188 C 
BRANCH  23  24
ATOM     24  O   UNL A   1      40.046  21.480  27.216  1.00  0.00    -0.376 OA
BRANCH  24  25
ATOM     25  C   UNL A   1      41.425  21.183  27.054  1.00  0.00     0.202 C 
BRANCH  25  26
ATOM     26  C   UNL A   1      42.309  22.392  26.686  1.00  0.00     0.261 C 
BRANCH  26  27
ATOM     27  O   UNL A   1      41.629  23.531  26.115  1.00  0.00    -0.460 OA
BRANCH  27  28
ATOM     28  C   UNL A   1      41.468  24.623  26.902  1.00  0.00     0.338 C 
ATOM     29  O   UNL A   1      40.598  24.804  27.732  1.00  0.00    -0.246 OA
BRANCH  28  30
ATOM     30  C   UNL A   1      42.706  25.443  26.802  1.00  0.00     0.060 A 
ATOM     31  C   UNL A   1      43.368  25.811  27.986  1.00  0.00     0.016 A 
ATOM     32  C   UNL A   1      43.231  25.821  25.566  1.00  0.00     0.016 A 
ATOM     33  C   UNL A   1      44.533  26.580  27.938  1.00  0.00     0.010 A 
ATOM     34  C   UNL A   1      44.386  26.612  25.520  1.00  0.00     0.010 A 
ATOM     35  C   UNL A   1      45.028  27.022  26.705  1.00  0.00    -0.014 A 
BRANCH  35  36
ATOM     36  C   UNL A   1      46.091  28.059  26.653  1.00  0.00     0.031 A 
ATOM     37  C   UNL A   1      45.679  29.507  26.710  1.00  0.00     0.074 A 
ATOM     38  C   UNL A   1      47.397  27.741  26.571  1.00  0.00     0.049 A 
ATOM     39  N   UNL A   1      46.410  30.586  26.594  1.00  0.00    -0.248 NA
ATOM     40  C   UNL A   1      44.246  29.770  26.927  1.00  0.00     0.031 C 
ATOM     41  C   UNL A   1      47.944  26.387  26.564  1.00  0.00     0.029 A 
ATOM     42  N   UNL A   1      48.502  28.551  26.464  1.00  0.00    -0.354 N 
ATOM     43  C   UNL A   1      45.528  31.653  26.720  1.00  0.00     0.074 A 
ATOM     44  C   UNL A   1      44.204  31.092  26.886  1.00  0.00     0.031 C 
ATOM     45  C   UNL A   1      49.282  26.458  26.438  1.00  0.00     0.029 A 
ATOM     46  C   UNL A   1      49.681  27.859  26.316  1.00  0.00     0.049 A 
ATOM     47  H   UNL A   1      48.454  29.534  26.490  1.00  0.00     0.167 HD
ATOM     48  C   UNL A   1      45.792  32.981  26.710  1.00  0.00     0.031 A 
ATOM     49  C   UNL A   1      50.931  28.305  26.076  1.00  0.00     0.031 A 
ATOM     50  C   UNL A   1      47.099  33.547  26.520  1.00  0.00     0.049 A 
ATOM     51  C   UNL A   1      51.184  29.789  25.958  1.00  0.00     0.074 A 
ATOM     52  C   UNL A   1      47.462  34.883  26.477  1.00  0.00     0.029 A 
ATOM     53  N   UNL A   1      48.258  32.812  26.338  1.00  0.00    -0.354 N 
ATOM     54  N   UNL A   1      50.342  30.786  26.088  1.00  0.00    -0.248 NA
ATOM     55  C   UNL A   1      52.564  30.207  25.669  1.00  0.00     0.031 C 
ATOM     56  C   UNL A   1      48.833  34.955  26.214  1.00  0.00     0.029 A 
ATOM     57  C   UNL A   1      49.335  33.665  26.163  1.00  0.00     0.049 A 
ATOM     58  H   UNL A   1      48.309  31.828  26.334  1.00  0.00     0.167 HD
ATOM     59  C   UNL A   1      51.098  31.945  25.932  1.00  0.00     0.074 A 
ATOM     60  C   UNL A   1      52.467  31.527  25.717  1.00  0.00     0.031 C 
ATOM     61  C   UNL A   1      50.695  33.239  25.962  1.00  0.00     0.031 A 
BRANCH  48  62
ATOM     62  C   UNL A   1      44.628  33.917  26.885  1.00  0.00    -0.014 A 
ATOM     63  C   UNL A   1      43.905  34.392  25.777  1.00  0.00     0.009 A 
ATOM     64  C   UNL A   1      44.221  34.296  28.173  1.00  0.00     0.009 A 
ATOM     65  C   UNL A   1      42.819  35.249  25.957  1.00  0.00     0.001 A 
ATOM     66  C   UNL A   1      43.116  35.128  28.351  1.00  0.00     0.001 A 
ATOM     67  C   UNL A   1      42.421  35.611  27.244  1.00  0.00     0.000 A 
ENDBRANCH  48  62
BRANCH  49  68
ATOM     68  C   UNL A   1      52.053  27.344  25.880  1.00  0.00    -0.014 A 
ATOM     69  C   UNL A   1      52.318  26.790  24.617  1.00  0.00     0.009 A 
ATOM     70  C   UNL A   1      52.826  26.926  26.975  1.00  0.00     0.009 A 
ATOM     71  C   UNL A   1      53.302  25.810  24.465  1.00  0.00     0.001 A 
ATOM     72  C   UNL A   1      53.834  25.973  26.813  1.00  0.00     0.001 A 
ATOM     73  C   UNL A   1      54.061  25.405  25.561  1.00  0.00     0.000 A 
ENDBRANCH  49  68
BRANCH  61  74
ATOM     74  C   UNL A   1      51.751  34.302  25.818  1.00  0.00    -0.014 A 
ATOM     75  C   UNL A   1      52.082  34.846  24.567  1.00  0.00     0.009 A 
ATOM     76  C   UNL A   1      52.397  34.795  26.963  1.00  0.00     0.009 A 
ATOM     77  C   UNL A   1      53.063  35.835  24.463  1.00  0.00     0.001 A 
ATOM     78  C   UNL A   1      53.352  35.806  26.861  1.00  0.00     0.001 A 
ATOM     79  C   UNL A   1      53.693  36.318  25.610  1.00  0.00     0.000 A 
ENDBRANCH  61  74
ENDBRANCH  35  36
ENDBRANCH  28  30
ENDBRANCH  27  28
ENDBRANCH  26  27
ENDBRANCH  25  26
ENDBRANCH  24  25
ENDBRANCH  23  24
ENDBRANCH  22  23
ENDBRANCH   1  22
TORSDOF 22
ENDMDL
MODEL 2
REMARK VINA RESULT:      -8.5      1.938      6.422
REMARK SMILES CN(CCO)C(=O)N[C@H]1C=C[C@@H](C(=O)OCCOCCOCCOC(=O)c2ccc(-c3c4nc(c(-c5ccccc5)c5ccc([nH]5)c(-c5ccccc5)c5nc(c(-c6ccccc6)c6ccc3[nH]6)C=C5)C=C4)cc2)C1
REMARK SMILES IDX 18 1 17 2 16 3 15 4 13 5 14 6 12 7 9 8 10 9 75 10 11 11 8 12
REMARK SMILES IDX 6 13 7 14 2 16 1 17 3 18 4 19 5 20 19 22 20 23 21 24 22 25
REMARK SMILES IDX 23 26 24 27 25 28 26 29 27 30 28 31 74 32 29 33 73 34 30 35
REMARK SMILES IDX 31 36 32 37 67 38 33 39 72 40 66 41 68 42 34 43 71 44 65 45
REMARK SMILES IDX 64 46 35 48 57 49 42 50 56 51 43 52 46 53 55 54 69 55 44 56
REMARK SMILES IDX 45 57 54 59 70 60 47 61 36 62 37 63 41 64 38 65 40 66 39 67
REMARK SMILES IDX 58 68 59 69 63 70 60 71 62 72 61 73 48 74 49 75 53 76 50 77
REMARK SMILES IDX 52 78 51 79
REMARK H PARENT 8 15 5 21 68 47 46 58
REMARK Flexibility Score: inf
ROOT
ATOM      1  O   UNL A   1      35.275  22.652  24.202  1.00  0.00    -0.376 OA
ENDROOT
BRANCH   1   2
ATOM      2  C   UNL A   1      35.025  24.043  24.397  1.00  0.00     0.202 C 
BRANCH   2   3
ATOM      3  C   UNL A   1      34.402  24.839  23.239  1.00  0.00     0.261 C 
BRANCH   3   4
ATOM      4  O   UNL A   1      33.448  24.103  22.445  1.00  0.00    -0.463 OA
BRANCH   4   5
ATOM      5  C   UNL A   1      32.134  24.262  22.766  1.00  0.00     0.312 C 
ATOM      6  O   UNL A   1      31.461  25.242  22.461  1.00  0.00    -0.252 OA
BRANCH   5   7
ATOM      7  C   UNL A   1      31.524  23.061  23.499  1.00  0.00     0.124 C 
ATOM      8  C   UNL A   1      32.160  20.860  24.458  1.00  0.00     0.107 C 
ATOM      9  C   UNL A   1      32.026  21.934  25.500  1.00  0.00    -0.006 C 
ATOM     10  C   UNL A   1      32.089  21.683  23.178  1.00  0.00     0.048 C 
ATOM     11  C   UNL A   1      31.697  23.124  24.982  1.00  0.00    -0.014 C 
BRANCH   8  12
ATOM     12  N   UNL A   1      33.441  20.201  24.638  1.00  0.00    -0.332 N 
ATOM     13  C   UNL A   1      33.955  18.969  24.496  1.00  0.00     0.317 C 
ATOM     14  O   UNL A   1      35.175  18.898  24.692  1.00  0.00    -0.249 OA
ATOM     15  H   UNL A   1      34.125  20.837  24.952  1.00  0.00     0.165 HD
BRANCH  13  16
ATOM     16  N   UNL A   1      33.231  17.853  24.174  1.00  0.00    -0.326 N 
ATOM     17  C   UNL A   1      32.922  17.687  22.754  1.00  0.00     0.148 C 
BRANCH  16  18
ATOM     18  C   UNL A   1      32.731  16.786  25.041  1.00  0.00     0.149 C 
BRANCH  18  19
ATOM     19  C   UNL A   1      33.538  15.484  25.088  1.00  0.00     0.177 C 
BRANCH  19  20
ATOM     20  O   UNL A   1      32.770  14.335  25.403  1.00  0.00    -0.395 OA
ATOM     21  H   UNL A   1      33.343  13.553  25.395  1.00  0.00     0.210 HD
ENDBRANCH  19  20
ENDBRANCH  18  19
ENDBRANCH  16  18
ENDBRANCH  13  16
ENDBRANCH   8  12
ENDBRANCH   5   7
ENDBRANCH   4   5
ENDBRANCH   3   4
ENDBRANCH   2   3
ENDBRANCH   1   2
BRANCH   1  22
ATOM     22  C   UNL A   1      36.596  22.249  23.872  1.00  0.00     0.188 C 
BRANCH  22  23
ATOM     23  C   UNL A   1      37.425  21.500  24.922  1.00  0.00     0.188 C 
BRANCH  23  24
ATOM     24  O   UNL A   1      38.278  22.300  25.707  1.00  0.00    -0.376 OA
BRANCH  24  25
ATOM     25  C   UNL A   1      39.447  21.676  26.216  1.00  0.00     0.202 C 
BRANCH  25  26
ATOM     26  C   UNL A   1      40.433  22.626  26.924  1.00  0.00     0.261 C 
BRANCH  26  27
ATOM     27  O   UNL A   1      41.551  23.090  26.135  1.00  0.00    -0.460 OA
BRANCH  27  28
ATOM     28  C   UNL A   1      42.795  22.896  26.640  1.00  0.00     0.338 C 
ATOM     29  O   UNL A   1      43.341  21.830  26.844  1.00  0.00    -0.246 OA
BRANCH  28  30
ATOM     30  C   UNL A   1      43.503  24.205  26.623  1.00  0.00     0.060 A 
ATOM     31  C   UNL A   1      43.621  24.891  25.403  1.00  0.00     0.016 A 
ATOM     32  C   UNL A   1      44.016  24.770  27.791  1.00  0.00     0.016 A 
ATOM     33  C   UNL A   1      44.278  26.123  25.341  1.00  0.00     0.010 A 
ATOM     34  C   UNL A   1      44.695  25.993  27.725  1.00  0.00     0.010 A 
ATOM     35  C   UNL A   1      44.857  26.663  26.496  1.00  0.00    -0.014 A 
BRANCH  35  36
ATOM     36  C   UNL A   1      45.786  27.818  26.398  1.00  0.00     0.031 A 
ATOM     37  C   UNL A   1      47.255  27.538  26.207  1.00  0.00     0.074 A 
ATOM     38  C   UNL A   1      45.355  29.092  26.460  1.00  0.00     0.049 A 
ATOM     39  N   UNL A   1      48.264  28.369  26.180  1.00  0.00    -0.248 NA
ATOM     40  C   UNL A   1      47.631  26.126  26.021  1.00  0.00     0.031 C 
ATOM     41  C   UNL A   1      43.962  29.513  26.586  1.00  0.00     0.029 A 
ATOM     42  N   UNL A   1      46.062  30.271  26.438  1.00  0.00    -0.354 N 
ATOM     43  C   UNL A   1      49.394  27.583  25.979  1.00  0.00     0.074 A 
ATOM     44  C   UNL A   1      48.948  26.208  25.926  1.00  0.00     0.031 C 
ATOM     45  C   UNL A   1      43.916  30.856  26.650  1.00  0.00     0.029 A 
ATOM     46  C   UNL A   1      45.278  31.387  26.609  1.00  0.00     0.049 A 
ATOM     47  H   UNL A   1      47.037  30.312  26.311  1.00  0.00     0.167 HD
ATOM     48  C   UNL A   1      50.685  27.968  25.841  1.00  0.00     0.031 A 
ATOM     49  C   UNL A   1      45.624  32.683  26.751  1.00  0.00     0.031 A 
ATOM     50  C   UNL A   1      51.139  29.329  25.918  1.00  0.00     0.049 A 
ATOM     51  C   UNL A   1      47.081  33.076  26.703  1.00  0.00     0.074 A 
ATOM     52  C   UNL A   1      52.431  29.814  25.807  1.00  0.00     0.029 A 
ATOM     53  N   UNL A   1      50.317  30.424  26.129  1.00  0.00    -0.354 N 
ATOM     54  N   UNL A   1      48.136  32.324  26.505  1.00  0.00    -0.248 NA
ATOM     55  C   UNL A   1      47.390  34.502  26.892  1.00  0.00     0.031 C 
ATOM     56  C   UNL A   1      52.397  31.198  26.006  1.00  0.00     0.029 A 
ATOM     57  C   UNL A   1      51.076  31.581  26.171  1.00  0.00     0.049 A 
ATOM     58  H   UNL A   1      49.339  30.385  26.233  1.00  0.00     0.167 HD
ATOM     59  C   UNL A   1      49.227  33.189  26.509  1.00  0.00     0.074 A 
ATOM     60  C   UNL A   1      48.703  34.523  26.711  1.00  0.00     0.031 C 
ATOM     61  C   UNL A   1      50.544  32.905  26.360  1.00  0.00     0.031 A 
BRANCH  48  62
ATOM     62  C   UNL A   1      51.706  26.887  25.616  1.00  0.00    -0.014 A 
ATOM     63  C   UNL A   1      52.163  26.578  24.324  1.00  0.00     0.009 A 
ATOM     64  C   UNL A   1      52.250  26.199  26.711  1.00  0.00     0.009 A 
ATOM     65  C   UNL A   1      53.121  25.582  24.133  1.00  0.00     0.001 A 
ATOM     66  C   UNL A   1      53.231  25.225  26.519  1.00  0.00     0.001 A 
ATOM     67  C   UNL A   1      53.659  24.911  25.231  1.00  0.00     0.000 A 
ENDBRANCH  48  62
BRANCH  49  68
ATOM     68  C   UNL A   1      44.584  33.721  27.001  1.00  0.00    -0.014 A 
ATOM     69  C   UNL A   1      44.145  34.006  28.304  1.00  0.00     0.009 A 
ATOM     70  C   UNL A   1      43.976  34.388  25.925  1.00  0.00     0.009 A 
ATOM     71  C   UNL A   1      43.095  34.902  28.519  1.00  0.00     0.001 A 
ATOM     72  C   UNL A   1      42.951  35.310  26.145  1.00  0.00     0.001 A 
ATOM     73  C   UNL A   1      42.502  35.556  27.441  1.00  0.00     0.000 A 
ENDBRANCH  49  68
BRANCH  61  74
ATOM     74  C   UNL A   1      51.509  34.060  26.351  1.00  0.00    -0.014 A 
ATOM     75  C   UNL A   1      51.889  34.692  25.157  1.00  0.00     0.009 A 
ATOM     76  C   UNL A   1      52.015  34.548  27.567  1.00  0.00     0.009 A 
ATOM     77  C   UNL A   1      52.783  35.765  25.179  1.00  0.00     0.001 A 
ATOM     78  C   UNL A   1      52.881  35.641  27.589  1.00  0.00     0.001 A 
ATOM     79  C   UNL A   1      53.274  36.242  26.394  1.00  0.00     0.000 A 
ENDBRANCH  61  74
ENDBRANCH  35  36
ENDBRANCH  28  30
ENDBRANCH  27  28
ENDBRANCH  26  27
ENDBRANCH  25  26
ENDBRANCH  24  25
ENDBRANCH  23  24
ENDBRANCH  22  23
ENDBRANCH   1  22
TORSDOF 22
ENDMDL
MODEL 3
REMARK VINA RESULT:      -8.0      2.054      2.702
REMARK SMILES CN(CCO)C(=O)N[C@H]1C=C[C@@H](C(=O)OCCOCCOCCOC(=O)c2ccc(-c3c4nc(c(-c5ccccc5)c5ccc([nH]5)c(-c5ccccc5)c5nc(c(-c6ccccc6)c6ccc3[nH]6)C=C5)C=C4)cc2)C1
REMARK SMILES IDX 18 1 17 2 16 3 15 4 13 5 14 6 12 7 9 8 10 9 75 10 11 11 8 12
REMARK SMILES IDX 6 13 7 14 2 16 1 17 3 18 4 19 5 20 19 22 20 23 21 24 22 25
REMARK SMILES IDX 23 26 24 27 25 28 26 29 27 30 28 31 74 32 29 33 73 34 30 35
REMARK SMILES IDX 31 36 32 37 67 38 33 39 72 40 66 41 68 42 34 43 71 44 65 45
REMARK SMILES IDX 64 46 35 48 57 49 42 50 56 51 43 52 46 53 55 54 69 55 44 56
REMARK SMILES IDX 45 57 54 59 70 60 47 61 36 62 37 63 41 64 38 65 40 66 39 67
REMARK SMILES IDX 58 68 59 69 63 70 60 71 62 72 61 73 48 74 49 75 53 76 50 77
REMARK SMILES IDX 52 78 51 79
REMARK H PARENT 8 15 5 21 68 47 46 58
REMARK Flexibility Score: inf
ROOT
ATOM      1  O   UNL A   1      35.680  23.246  24.881  1.00  0.00    -0.376 OA
ENDROOT
BRANCH   1   2
ATOM      2  C   UNL A   1      35.096  24.471  25.321  1.00  0.00     0.202 C 
BRANCH   2   3
ATOM      3  C   UNL A   1      34.116  25.189  24.378  1.00  0.00     0.261 C 
BRANCH   3   4
ATOM      4  O   UNL A   1      33.630  24.382  23.285  1.00  0.00    -0.463 OA
BRANCH   4   5
ATOM      5  C   UNL A   1      32.278  24.303  23.139  1.00  0.00     0.312 C 
ATOM      6  O   UNL A   1      31.573  25.217  22.724  1.00  0.00    -0.252 OA
BRANCH   5   7
ATOM      7  C   UNL A   1      31.697  22.925  23.478  1.00  0.00     0.124 C 
ATOM      8  C   UNL A   1      32.411  20.633  24.115  1.00  0.00     0.107 C 
ATOM      9  C   UNL A   1      31.936  21.443  25.287  1.00  0.00    -0.006 C 
ATOM     10  C   UNL A   1      32.488  21.702  23.031  1.00  0.00     0.048 C 
ATOM     11  C   UNL A   1      31.564  22.684  24.946  1.00  0.00    -0.014 C 
BRANCH   8  12
ATOM     12  N   UNL A   1      33.706  20.064  24.442  1.00  0.00    -0.332 N 
ATOM     13  C   UNL A   1      34.255  18.845  24.566  1.00  0.00     0.317 C 
ATOM     14  O   UNL A   1      35.472  18.852  24.785  1.00  0.00    -0.249 OA
ATOM     15  H   UNL A   1      34.367  20.771  24.623  1.00  0.00     0.165 HD
BRANCH  13  16
ATOM     16  N   UNL A   1      33.566  17.666  24.476  1.00  0.00    -0.326 N 
ATOM     17  C   UNL A   1      33.621  16.997  23.176  1.00  0.00     0.148 C 
BRANCH  16  18
ATOM     18  C   UNL A   1      32.792  16.960  25.497  1.00  0.00     0.149 C 
BRANCH  18  19
ATOM     19  C   UNL A   1      32.902  15.433  25.531  1.00  0.00     0.177 C 
BRANCH  19  20
ATOM     20  O   UNL A   1      31.659  14.757  25.454  1.00  0.00    -0.395 OA
ATOM     21  H   UNL A   1      31.657  14.172  24.681  1.00  0.00     0.210 HD
ENDBRANCH  19  20
ENDBRANCH  18  19
ENDBRANCH  16  18
ENDBRANCH  13  16
ENDBRANCH   8  12
ENDBRANCH   5   7
ENDBRANCH   4   5
ENDBRANCH   3   4
ENDBRANCH   2   3
ENDBRANCH   1   2
BRANCH   1  22
ATOM     22  C   UNL A   1      37.096  23.171  24.795  1.00  0.00     0.188 C 
BRANCH  22  23
ATOM     23  C   UNL A   1      37.844  22.211  25.728  1.00  0.00     0.188 C 
BRANCH  23  24
ATOM     24  O   UNL A   1      38.783  22.809  26.590  1.00  0.00    -0.376 OA
BRANCH  24  25
ATOM     25  C   UNL A   1      40.137  22.417  26.428  1.00  0.00     0.202 C 
BRANCH  25  26
ATOM     26  C   UNL A   1      41.006  22.549  27.694  1.00  0.00     0.261 C 
BRANCH  26  27
ATOM     27  O   UNL A   1      42.197  23.357  27.570  1.00  0.00    -0.460 OA
BRANCH  27  28
ATOM     28  C   UNL A   1      42.854  23.683  28.711  1.00  0.00     0.338 C 
ATOM     29  O   UNL A   1      42.986  22.990  29.700  1.00  0.00    -0.246 OA
BRANCH  28  30
ATOM     30  C   UNL A   1      43.646  24.915  28.446  1.00  0.00     0.060 A 
ATOM     31  C   UNL A   1      43.904  25.275  27.113  1.00  0.00     0.016 A 
ATOM     32  C   UNL A   1      44.102  25.725  29.486  1.00  0.00     0.016 A 
ATOM     33  C   UNL A   1      44.644  26.424  26.818  1.00  0.00     0.010 A 
ATOM     34  C   UNL A   1      44.863  26.863  29.191  1.00  0.00     0.010 A 
ATOM     35  C   UNL A   1      45.164  27.204  27.858  1.00  0.00    -0.014 A 
BRANCH  35  36
ATOM     36  C   UNL A   1      46.173  28.257  27.571  1.00  0.00     0.031 A 
ATOM     37  C   UNL A   1      45.696  29.678  27.411  1.00  0.00     0.074 A 
ATOM     38  C   UNL A   1      47.486  27.981  27.466  1.00  0.00     0.049 A 
ATOM     39  N   UNL A   1      46.368  30.748  27.074  1.00  0.00    -0.248 NA
ATOM     40  C   UNL A   1      44.266  29.918  27.666  1.00  0.00     0.031 C 
ATOM     41  C   UNL A   1      48.096  26.666  27.652  1.00  0.00     0.029 A 
ATOM     42  N   UNL A   1      48.545  28.802  27.160  1.00  0.00    -0.354 N 
ATOM     43  C   UNL A   1      45.443  31.787  27.073  1.00  0.00     0.074 A 
ATOM     44  C   UNL A   1      44.159  31.212  27.408  1.00  0.00     0.031 C 
ATOM     45  C   UNL A   1      49.421  26.766  27.436  1.00  0.00     0.029 A 
ATOM     46  C   UNL A   1      49.745  28.141  27.059  1.00  0.00     0.049 A 
ATOM     47  H   UNL A   1      48.452  29.773  27.025  1.00  0.00     0.167 HD
ATOM     48  C   UNL A   1      45.643  33.104  26.826  1.00  0.00     0.031 A 
ATOM     49  C   UNL A   1      50.959  28.587  26.675  1.00  0.00     0.031 A 
ATOM     50  C   UNL A   1      46.910  33.679  26.467  1.00  0.00     0.049 A 
ATOM     51  C   UNL A   1      51.135  30.038  26.297  1.00  0.00     0.074 A 
ATOM     52  C   UNL A   1      47.207  35.001  26.181  1.00  0.00     0.029 A 
ATOM     53  N   UNL A   1      48.092  32.968  26.342  1.00  0.00    -0.354 N 
ATOM     54  N   UNL A   1      50.255  31.010  26.309  1.00  0.00    -0.248 NA
ATOM     55  C   UNL A   1      52.477  30.453  25.861  1.00  0.00     0.031 C 
ATOM     56  C   UNL A   1      48.557  35.080  25.828  1.00  0.00     0.029 A 
ATOM     57  C   UNL A   1      49.116  33.820  25.963  1.00  0.00     0.049 A 
ATOM     58  H   UNL A   1      48.190  32.001  26.499  1.00  0.00     0.167 HD
ATOM     59  C   UNL A   1      50.945  32.154  25.917  1.00  0.00     0.074 A 
ATOM     60  C   UNL A   1      52.319  31.759  25.694  1.00  0.00     0.031 C 
ATOM     61  C   UNL A   1      50.483  33.418  25.756  1.00  0.00     0.031 A 
BRANCH  48  62
ATOM     62  C   UNL A   1      44.447  34.011  26.911  1.00  0.00    -0.014 A 
ATOM     63  C   UNL A   1      43.998  34.504  28.148  1.00  0.00     0.009 A 
ATOM     64  C   UNL A   1      43.787  34.412  25.740  1.00  0.00     0.009 A 
ATOM     65  C   UNL A   1      42.894  35.357  28.210  1.00  0.00     0.001 A 
ATOM     66  C   UNL A   1      42.703  35.289  25.802  1.00  0.00     0.001 A 
ATOM     67  C   UNL A   1      42.252  35.753  27.037  1.00  0.00     0.000 A 
ENDBRANCH  48  62
BRANCH  49  68
ATOM     68  C   UNL A   1      52.114  27.650  26.575  1.00  0.00    -0.014 A 
ATOM     69  C   UNL A   1      52.372  26.945  25.389  1.00  0.00     0.009 A 
ATOM     70  C   UNL A   1      52.928  27.409  27.694  1.00  0.00     0.009 A 
ATOM     71  C   UNL A   1      53.390  25.989  25.339  1.00  0.00     0.001 A 
ATOM     72  C   UNL A   1      53.969  26.480  27.630  1.00  0.00     0.001 A 
ATOM     73  C   UNL A   1      54.189  25.760  26.457  1.00  0.00     0.000 A 
ENDBRANCH  49  68
BRANCH  61  74
ATOM     74  C   UNL A   1      51.479  34.481  25.374  1.00  0.00    -0.014 A 
ATOM     75  C   UNL A   1      52.015  34.556  24.080  1.00  0.00     0.009 A 
ATOM     76  C   UNL A   1      51.853  35.449  26.320  1.00  0.00     0.009 A 
ATOM     77  C   UNL A   1      52.934  35.556  23.752  1.00  0.00     0.001 A 
ATOM     78  C   UNL A   1      52.745  36.467  25.981  1.00  0.00     0.001 A 
ATOM     79  C   UNL A   1      53.293  36.513  24.700  1.00  0.00     0.000 A 
ENDBRANCH  61  74
ENDBRANCH  35  36
ENDBRANCH  28  30
ENDBRANCH  27  28
ENDBRANCH  26  27
ENDBRANCH  25  26
ENDBRANCH  24  25
ENDBRANCH  23  24
ENDBRANCH  22  23
ENDBRANCH   1  22
TORSDOF 22
ENDMDL
