MODEL 1
REMARK VINA RESULT:     -10.7      0.000      0.000
REMARK SMILES CNC(=O)c1cc(S(=O)(=O)N2CCC(C(=O)OCCOCCOCCOC(=O)c3ccc(-c4c5nc(c(-c6ccccc6)c6ccc([nH]6)c(-c6ccccc6)c6nc(c(-c7ccccc7)c7ccc4[nH]7)C=C6)C=C5)cc3)CC2)ccc1OC
REMARK SMILES IDX 21 1 20 2 19 3 18 4 17 5 15 6 16 7 14 8 11 9 12 10 78 11
REMARK SMILES IDX 13 12 77 13 8 14 9 15 10 16 7 17 5 18 6 19 81 20 80 21 79 22
REMARK SMILES IDX 3 23 1 24 2 25 4 27 82 28 83 29 22 30 23 31 24 32 25 33
REMARK SMILES IDX 26 34 27 35 28 36 29 37 30 38 76 39 31 40 75 41 32 42 33 43
REMARK SMILES IDX 34 44 69 45 35 46 74 47 68 48 70 49 36 50 73 51 67 52 66 53
REMARK SMILES IDX 37 55 59 56 44 57 58 58 45 59 48 60 57 61 71 62 46 63 47 64
REMARK SMILES IDX 56 66 72 67 49 68 38 69 39 70 43 71 40 72 42 73 41 74 60 75
REMARK SMILES IDX 61 76 65 77 62 78 64 79 63 80 50 81 51 82 55 83 52 84 54 85
REMARK SMILES IDX 53 86
REMARK H PARENT 2 26 70 54 48 65
REMARK Flexibility Score: inf
ROOT
ATOM      1  C   UNL A   1      42.215  19.485  26.844  1.00  0.00     0.188 C 
ENDROOT
BRANCH   1   2
ATOM      2  O   UNL A   1      42.149  20.817  27.341  1.00  0.00    -0.376 OA
BRANCH   2   3
ATOM      3  C   UNL A   1      40.854  21.407  27.441  1.00  0.00     0.202 C 
BRANCH   3   4
ATOM      4  C   UNL A   1      40.138  21.719  26.119  1.00  0.00     0.261 C 
BRANCH   4   5
ATOM      5  O   UNL A   1      38.700  21.651  26.188  1.00  0.00    -0.463 OA
BRANCH   5   6
ATOM      6  C   UNL A   1      38.118  20.790  25.315  1.00  0.00     0.309 C 
ATOM      7  O   UNL A   1      38.527  19.660  25.066  1.00  0.00    -0.252 OA
BRANCH   6   8
ATOM      8  C   UNL A   1      36.843  21.314  24.684  1.00  0.00     0.102 C 
ATOM      9  N   UNL A   1      34.518  22.912  24.088  1.00  0.00    -0.198 NA
ATOM     10  C   UNL A   1      34.340  21.511  24.542  1.00  0.00     0.103 C 
ATOM     11  C   UNL A   1      35.860  23.372  23.670  1.00  0.00     0.103 C 
ATOM     12  C   UNL A   1      35.521  20.990  25.368  1.00  0.00     0.032 C 
ATOM     13  C   UNL A   1      36.954  22.831  24.568  1.00  0.00     0.032 C 
BRANCH   9  14
ATOM     14  S   UNL A   1      33.201  23.634  23.265  1.00  0.00     0.243 S 
ATOM     15  O   UNL A   1      32.047  22.792  23.495  1.00  0.00    -0.207 OA
ATOM     16  O   UNL A   1      33.640  23.972  21.929  1.00  0.00    -0.207 OA
BRANCH  14  17
ATOM     17  C   UNL A   1      32.835  25.188  24.072  1.00  0.00     0.083 A 
ATOM     18  C   UNL A   1      32.595  27.598  23.835  1.00  0.00     0.083 A 
ATOM     19  C   UNL A   1      32.878  26.341  23.275  1.00  0.00     0.039 A 
ATOM     20  C   UNL A   1      32.190  27.694  25.171  1.00  0.00     0.131 A 
ATOM     21  C   UNL A   1      32.182  26.545  25.966  1.00  0.00     0.048 A 
ATOM     22  C   UNL A   1      32.504  25.297  25.422  1.00  0.00     0.025 A 
BRANCH  18  23
ATOM     23  C   UNL A   1      32.757  28.769  22.951  1.00  0.00     0.254 C 
ATOM     24  C   UNL A   1      30.289  28.862  22.367  1.00  0.00     0.143 C 
ATOM     25  N   UNL A   1      31.668  29.291  22.301  1.00  0.00    -0.355 N 
ATOM     26  H   UNL A   1      31.850  30.060  21.712  1.00  0.00     0.163 HD
ATOM     27  O   UNL A   1      33.866  29.277  22.826  1.00  0.00    -0.269 OA
ENDBRANCH  18  23
BRANCH  20  28
ATOM     28  O   UNL A   1      31.840  28.845  25.824  1.00  0.00    -0.496 OA
ATOM     29  C   UNL A   1      31.661  28.680  27.232  1.00  0.00     0.278 C 
ENDBRANCH  20  28
ENDBRANCH  14  17
ENDBRANCH   9  14
ENDBRANCH   6   8
ENDBRANCH   5   6
ENDBRANCH   4   5
ENDBRANCH   3   4
ENDBRANCH   2   3
ENDBRANCH   1   2
BRANCH   1  30
ATOM     30  C   UNL A   1      43.213  19.225  25.716  1.00  0.00     0.188 C 
BRANCH  30  31
ATOM     31  O   UNL A   1      43.581  20.384  24.976  1.00  0.00    -0.376 OA
BRANCH  31  32
ATOM     32  C   UNL A   1      44.990  20.605  24.835  1.00  0.00     0.202 C 
BRANCH  32  33
ATOM     33  C   UNL A   1      45.515  21.964  25.343  1.00  0.00     0.261 C 
BRANCH  33  34
ATOM     34  O   UNL A   1      44.481  22.946  25.559  1.00  0.00    -0.460 OA
BRANCH  34  35
ATOM     35  C   UNL A   1      44.839  24.245  25.428  1.00  0.00     0.338 C 
ATOM     36  O   UNL A   1      45.574  24.712  24.577  1.00  0.00    -0.246 OA
BRANCH  35  37
ATOM     37  C   UNL A   1      43.983  25.063  26.324  1.00  0.00     0.060 A 
ATOM     38  C   UNL A   1      44.314  26.416  26.489  1.00  0.00     0.016 A 
ATOM     39  C   UNL A   1      42.843  24.543  26.948  1.00  0.00     0.016 A 
ATOM     40  C   UNL A   1      43.547  27.231  27.322  1.00  0.00     0.010 A 
ATOM     41  C   UNL A   1      42.078  25.359  27.788  1.00  0.00     0.010 A 
ATOM     42  C   UNL A   1      42.451  26.695  28.013  1.00  0.00    -0.014 A 
BRANCH  42  43
ATOM     43  C   UNL A   1      41.856  27.468  29.131  1.00  0.00     0.031 A 
ATOM     44  C   UNL A   1      42.532  27.404  30.476  1.00  0.00     0.074 A 
ATOM     45  C   UNL A   1      40.778  28.254  28.963  1.00  0.00     0.049 A 
ATOM     46  N   UNL A   1      42.245  28.044  31.580  1.00  0.00    -0.248 NA
ATOM     47  C   UNL A   1      43.690  26.502  30.584  1.00  0.00     0.031 C 
ATOM     48  C   UNL A   1      40.038  28.432  27.717  1.00  0.00     0.029 A 
ATOM     49  N   UNL A   1      40.124  29.060  29.863  1.00  0.00    -0.354 N 
ATOM     50  C   UNL A   1      43.190  27.628  32.510  1.00  0.00     0.074 A 
ATOM     51  C   UNL A   1      44.033  26.655  31.852  1.00  0.00     0.031 C 
ATOM     52  C   UNL A   1      39.031  29.300  27.930  1.00  0.00     0.029 A 
ATOM     53  C   UNL A   1      39.047  29.724  29.329  1.00  0.00     0.049 A 
ATOM     54  H   UNL A   1      40.402  29.153  30.803  1.00  0.00     0.167 HD
ATOM     55  C   UNL A   1      43.357  28.027  33.792  1.00  0.00     0.031 A 
ATOM     56  C   UNL A   1      38.174  30.574  29.906  1.00  0.00     0.031 A 
ATOM     57  C   UNL A   1      42.514  28.973  34.468  1.00  0.00     0.049 A 
ATOM     58  C   UNL A   1      38.336  30.947  31.358  1.00  0.00     0.074 A 
ATOM     59  C   UNL A   1      42.614  29.441  35.767  1.00  0.00     0.029 A 
ATOM     60  N   UNL A   1      41.411  29.588  33.903  1.00  0.00    -0.354 N 
ATOM     61  N   UNL A   1      39.265  30.583  32.210  1.00  0.00    -0.248 NA
ATOM     62  C   UNL A   1      37.333  31.864  31.920  1.00  0.00     0.031 C 
ATOM     63  C   UNL A   1      41.540  30.305  36.004  1.00  0.00     0.029 A 
ATOM     64  C   UNL A   1      40.805  30.415  34.834  1.00  0.00     0.049 A 
ATOM     65  H   UNL A   1      41.102  29.456  32.977  1.00  0.00     0.167 HD
ATOM     66  C   UNL A   1      38.975  31.251  33.395  1.00  0.00     0.074 A 
ATOM     67  C   UNL A   1      37.794  32.051  33.149  1.00  0.00     0.031 C 
ATOM     68  C   UNL A   1      39.632  31.209  34.580  1.00  0.00     0.031 A 
BRANCH  55  69
ATOM     69  C   UNL A   1      44.491  27.407  34.554  1.00  0.00    -0.014 A 
ATOM     70  C   UNL A   1      44.314  26.216  35.276  1.00  0.00     0.009 A 
ATOM     71  C   UNL A   1      45.757  28.013  34.537  1.00  0.00     0.009 A 
ATOM     72  C   UNL A   1      45.375  25.663  35.995  1.00  0.00     0.001 A 
ATOM     73  C   UNL A   1      46.822  27.443  35.235  1.00  0.00     0.001 A 
ATOM     74  C   UNL A   1      46.628  26.274  35.971  1.00  0.00     0.000 A 
ENDBRANCH  55  69
BRANCH  56  75
ATOM     75  C   UNL A   1      37.053  31.146  29.117  1.00  0.00    -0.014 A 
ATOM     76  C   UNL A   1      37.081  32.486  28.699  1.00  0.00     0.009 A 
ATOM     77  C   UNL A   1      35.925  30.365  28.821  1.00  0.00     0.009 A 
ATOM     78  C   UNL A   1      35.989  33.040  28.027  1.00  0.00     0.001 A 
ATOM     79  C   UNL A   1      34.846  30.916  28.126  1.00  0.00     0.001 A 
ATOM     80  C   UNL A   1      34.873  32.255  27.739  1.00  0.00     0.000 A 
ENDBRANCH  56  75
BRANCH  68  81
ATOM     81  C   UNL A   1      39.118  32.083  35.689  1.00  0.00    -0.014 A 
ATOM     82  C   UNL A   1      38.207  31.599  36.641  1.00  0.00     0.009 A 
ATOM     83  C   UNL A   1      39.582  33.403  35.804  1.00  0.00     0.009 A 
ATOM     84  C   UNL A   1      37.744  32.432  37.664  1.00  0.00     0.001 A 
ATOM     85  C   UNL A   1      39.139  34.224  36.842  1.00  0.00     0.001 A 
ATOM     86  C   UNL A   1      38.213  33.741  37.764  1.00  0.00     0.000 A 
ENDBRANCH  68  81
ENDBRANCH  42  43
ENDBRANCH  35  37
ENDBRANCH  34  35
ENDBRANCH  33  34
ENDBRANCH  32  33
ENDBRANCH  31  32
ENDBRANCH  30  31
ENDBRANCH   1  30
TORSDOF 21
ENDMDL
MODEL 2
REMARK VINA RESULT:      -9.8      1.541      2.335
REMARK SMILES CNC(=O)c1cc(S(=O)(=O)N2CCC(C(=O)OCCOCCOCCOC(=O)c3ccc(-c4c5nc(c(-c6ccccc6)c6ccc([nH]6)c(-c6ccccc6)c6nc(c(-c7ccccc7)c7ccc4[nH]7)C=C6)C=C5)cc3)CC2)ccc1OC
REMARK SMILES IDX 21 1 20 2 19 3 18 4 17 5 15 6 16 7 14 8 11 9 12 10 78 11
REMARK SMILES IDX 13 12 77 13 8 14 9 15 10 16 7 17 5 18 6 19 81 20 80 21 79 22
REMARK SMILES IDX 3 23 1 24 2 25 4 27 82 28 83 29 22 30 23 31 24 32 25 33
REMARK SMILES IDX 26 34 27 35 28 36 29 37 30 38 76 39 31 40 75 41 32 42 33 43
REMARK SMILES IDX 34 44 69 45 35 46 74 47 68 48 70 49 36 50 73 51 67 52 66 53
REMARK SMILES IDX 37 55 59 56 44 57 58 58 45 59 48 60 57 61 71 62 46 63 47 64
REMARK SMILES IDX 56 66 72 67 49 68 38 69 39 70 43 71 40 72 42 73 41 74 60 75
REMARK SMILES IDX 61 76 65 77 62 78 64 79 63 80 50 81 51 82 55 83 52 84 54 85
REMARK SMILES IDX 53 86
REMARK H PARENT 2 26 70 54 48 65
REMARK Flexibility Score: inf
ROOT
ATOM      1  C   UNL A   1      43.126  18.310  25.808  1.00  0.00     0.188 C 
ENDROOT
BRANCH   1   2
ATOM      2  O   UNL A   1      41.905  19.001  25.569  1.00  0.00    -0.376 OA
BRANCH   2   3
ATOM      3  C   UNL A   1      41.284  19.624  26.692  1.00  0.00     0.202 C 
BRANCH   3   4
ATOM      4  C   UNL A   1      41.045  21.137  26.591  1.00  0.00     0.261 C 
BRANCH   4   5
ATOM      5  O   UNL A   1      39.813  21.505  25.939  1.00  0.00    -0.463 OA
BRANCH   5   6
ATOM      6  C   UNL A   1      39.128  22.520  26.526  1.00  0.00     0.309 C 
ATOM      7  O   UNL A   1      39.562  23.231  27.426  1.00  0.00    -0.252 OA
BRANCH   6   8
ATOM      8  C   UNL A   1      37.755  22.765  25.931  1.00  0.00     0.102 C 
ATOM      9  N   UNL A   1      35.616  23.404  24.106  1.00  0.00    -0.198 NA
ATOM     10  C   UNL A   1      35.829  24.255  25.303  1.00  0.00     0.103 C 
ATOM     11  C   UNL A   1      36.298  22.094  24.018  1.00  0.00     0.103 C 
ATOM     12  C   UNL A   1      37.266  24.205  25.830  1.00  0.00     0.032 C 
ATOM     13  C   UNL A   1      37.722  22.158  24.532  1.00  0.00     0.032 C 
BRANCH   9  14
ATOM     14  S   UNL A   1      34.077  23.486  23.360  1.00  0.00     0.243 S 
ATOM     15  O   UNL A   1      33.889  22.244  22.641  1.00  0.00    -0.207 OA
ATOM     16  O   UNL A   1      33.968  24.769  22.700  1.00  0.00    -0.207 OA
BRANCH  14  17
ATOM     17  C   UNL A   1      32.840  23.489  24.652  1.00  0.00     0.083 A 
ATOM     18  C   UNL A   1      31.000  24.683  25.708  1.00  0.00     0.083 A 
ATOM     19  C   UNL A   1      32.001  24.611  24.724  1.00  0.00     0.039 A 
ATOM     20  C   UNL A   1      30.784  23.600  26.567  1.00  0.00     0.131 A 
ATOM     21  C   UNL A   1      31.645  22.501  26.510  1.00  0.00     0.048 A 
ATOM     22  C   UNL A   1      32.670  22.444  25.560  1.00  0.00     0.025 A 
BRANCH  18  23
ATOM     23  C   UNL A   1      30.227  25.938  25.775  1.00  0.00     0.254 C 
ATOM     24  C   UNL A   1      32.078  27.194  26.973  1.00  0.00     0.143 C 
ATOM     25  N   UNL A   1      30.771  27.045  26.375  1.00  0.00    -0.355 N 
ATOM     26  H   UNL A   1      30.194  27.844  26.401  1.00  0.00     0.163 HD
ATOM     27  O   UNL A   1      29.111  25.983  25.268  1.00  0.00    -0.269 OA
ENDBRANCH  18  23
BRANCH  20  28
ATOM     28  O   UNL A   1      29.817  23.521  27.532  1.00  0.00    -0.496 OA
ATOM     29  C   UNL A   1      28.913  22.428  27.357  1.00  0.00     0.278 C 
ENDBRANCH  20  28
ENDBRANCH  14  17
ENDBRANCH   9  14
ENDBRANCH   6   8
ENDBRANCH   5   6
ENDBRANCH   4   5
ENDBRANCH   3   4
ENDBRANCH   2   3
ENDBRANCH   1   2
BRANCH   1  30
ATOM     30  C   UNL A   1      44.398  18.960  25.263  1.00  0.00     0.188 C 
BRANCH  30  31
ATOM     31  O   UNL A   1      44.168  20.034  24.357  1.00  0.00    -0.376 OA
BRANCH  31  32
ATOM     32  C   UNL A   1      44.422  21.346  24.876  1.00  0.00     0.202 C 
BRANCH  32  33
ATOM     33  C   UNL A   1      43.875  22.521  24.040  1.00  0.00     0.261 C 
BRANCH  33  34
ATOM     34  O   UNL A   1      43.494  23.670  24.825  1.00  0.00    -0.460 OA
BRANCH  34  35
ATOM     35  C   UNL A   1      44.488  24.512  25.193  1.00  0.00     0.338 C 
ATOM     36  O   UNL A   1      45.467  24.810  24.533  1.00  0.00    -0.246 OA
BRANCH  35  37
ATOM     37  C   UNL A   1      44.067  25.230  26.423  1.00  0.00     0.060 A 
ATOM     38  C   UNL A   1      43.152  24.591  27.272  1.00  0.00     0.016 A 
ATOM     39  C   UNL A   1      44.596  26.476  26.778  1.00  0.00     0.016 A 
ATOM     40  C   UNL A   1      42.719  25.221  28.440  1.00  0.00     0.010 A 
ATOM     41  C   UNL A   1      44.157  27.109  27.946  1.00  0.00     0.010 A 
ATOM     42  C   UNL A   1      43.184  26.504  28.759  1.00  0.00    -0.014 A 
BRANCH  42  43
ATOM     43  C   UNL A   1      42.479  27.287  29.804  1.00  0.00     0.031 A 
ATOM     44  C   UNL A   1      43.109  27.376  31.169  1.00  0.00     0.074 A 
ATOM     45  C   UNL A   1      41.340  27.956  29.550  1.00  0.00     0.049 A 
ATOM     46  N   UNL A   1      42.724  28.056  32.219  1.00  0.00    -0.248 NA
ATOM     47  C   UNL A   1      44.341  26.596  31.373  1.00  0.00     0.031 C 
ATOM     48  C   UNL A   1      40.632  27.982  28.273  1.00  0.00     0.029 A 
ATOM     49  N   UNL A   1      40.582  28.753  30.374  1.00  0.00    -0.354 N 
ATOM     50  C   UNL A   1      43.670  27.792  33.202  1.00  0.00     0.074 A 
ATOM     51  C   UNL A   1      44.623  26.862  32.638  1.00  0.00     0.031 C 
ATOM     52  C   UNL A   1      39.542  28.762  28.397  1.00  0.00     0.029 A 
ATOM     53  C   UNL A   1      39.468  29.275  29.764  1.00  0.00     0.049 A 
ATOM     54  H   UNL A   1      40.816  28.932  31.314  1.00  0.00     0.167 HD
ATOM     55  C   UNL A   1      43.752  28.287  34.459  1.00  0.00     0.031 A 
ATOM     56  C   UNL A   1      38.500  30.075  30.256  1.00  0.00     0.031 A 
ATOM     57  C   UNL A   1      42.802  29.191  35.044  1.00  0.00     0.049 A 
ATOM     58  C   UNL A   1      38.574  30.554  31.683  1.00  0.00     0.074 A 
ATOM     59  C   UNL A   1      42.811  29.749  36.310  1.00  0.00     0.029 A 
ATOM     60  N   UNL A   1      41.667  29.660  34.406  1.00  0.00    -0.354 N 
ATOM     61  N   UNL A   1      39.501  30.336  32.585  1.00  0.00    -0.248 NA
ATOM     62  C   UNL A   1      37.471  31.407  32.152  1.00  0.00     0.031 C 
ATOM     63  C   UNL A   1      41.653  30.521  36.456  1.00  0.00     0.029 A 
ATOM     64  C   UNL A   1      40.954  30.485  35.260  1.00  0.00     0.049 A 
ATOM     65  H   UNL A   1      41.405  29.440  33.482  1.00  0.00     0.167 HD
ATOM     66  C   UNL A   1      39.108  31.049  33.713  1.00  0.00     0.074 A 
ATOM     67  C   UNL A   1      37.868  31.716  33.378  1.00  0.00     0.031 C 
ATOM     68  C   UNL A   1      39.723  31.146  34.917  1.00  0.00     0.031 A 
BRANCH  55  69
ATOM     69  C   UNL A   1      44.911  27.827  35.295  1.00  0.00    -0.014 A 
ATOM     70  C   UNL A   1      46.192  28.375  35.122  1.00  0.00     0.009 A 
ATOM     71  C   UNL A   1      44.716  26.844  36.277  1.00  0.00     0.009 A 
ATOM     72  C   UNL A   1      47.263  27.923  35.894  1.00  0.00     0.001 A 
ATOM     73  C   UNL A   1      45.784  26.413  37.065  1.00  0.00     0.001 A 
ATOM     74  C   UNL A   1      47.057  26.946  36.867  1.00  0.00     0.000 A 
ENDBRANCH  55  69
BRANCH  56  75
ATOM     75  C   UNL A   1      37.360  30.485  29.396  1.00  0.00    -0.014 A 
ATOM     76  C   UNL A   1      36.322  29.586  29.104  1.00  0.00     0.009 A 
ATOM     77  C   UNL A   1      37.331  31.766  28.824  1.00  0.00     0.009 A 
ATOM     78  C   UNL A   1      35.295  29.951  28.231  1.00  0.00     0.001 A 
ATOM     79  C   UNL A   1      36.288  32.137  27.972  1.00  0.00     0.001 A 
ATOM     80  C   UNL A   1      35.277  31.227  27.667  1.00  0.00     0.000 A 
ENDBRANCH  56  75
BRANCH  68  81
ATOM     81  C   UNL A   1      39.090  32.037  35.949  1.00  0.00    -0.014 A 
ATOM     82  C   UNL A   1      38.182  31.535  36.893  1.00  0.00     0.009 A 
ATOM     83  C   UNL A   1      39.438  33.396  35.999  1.00  0.00     0.009 A 
ATOM     84  C   UNL A   1      37.607  32.384  37.843  1.00  0.00     0.001 A 
ATOM     85  C   UNL A   1      38.884  34.237  36.965  1.00  0.00     0.001 A 
ATOM     86  C   UNL A   1      37.961  33.733  37.879  1.00  0.00     0.000 A 
ENDBRANCH  68  81
ENDBRANCH  42  43
ENDBRANCH  35  37
ENDBRANCH  34  35
ENDBRANCH  33  34
ENDBRANCH  32  33
ENDBRANCH  31  32
ENDBRANCH  30  31
ENDBRANCH   1  30
TORSDOF 21
ENDMDL
MODEL 3
REMARK VINA RESULT:      -9.7      1.314      5.857
REMARK SMILES CNC(=O)c1cc(S(=O)(=O)N2CCC(C(=O)OCCOCCOCCOC(=O)c3ccc(-c4c5nc(c(-c6ccccc6)c6ccc([nH]6)c(-c6ccccc6)c6nc(c(-c7ccccc7)c7ccc4[nH]7)C=C6)C=C5)cc3)CC2)ccc1OC
REMARK SMILES IDX 21 1 20 2 19 3 18 4 17 5 15 6 16 7 14 8 11 9 12 10 78 11
REMARK SMILES IDX 13 12 77 13 8 14 9 15 10 16 7 17 5 18 6 19 81 20 80 21 79 22
REMARK SMILES IDX 3 23 1 24 2 25 4 27 82 28 83 29 22 30 23 31 24 32 25 33
REMARK SMILES IDX 26 34 27 35 28 36 29 37 30 38 76 39 31 40 75 41 32 42 33 43
REMARK SMILES IDX 34 44 69 45 35 46 74 47 68 48 70 49 36 50 73 51 67 52 66 53
REMARK SMILES IDX 37 55 59 56 44 57 58 58 45 59 48 60 57 61 71 62 46 63 47 64
REMARK SMILES IDX 56 66 72 67 49 68 38 69 39 70 43 71 40 72 42 73 41 74 60 75
REMARK SMILES IDX 61 76 65 77 62 78 64 79 63 80 50 81 51 82 55 83 52 84 54 85
REMARK SMILES IDX 53 86
REMARK H PARENT 2 26 70 54 48 65
REMARK Flexibility Score: inf
ROOT
ATOM      1  C   UNL A   1      41.353  20.082  26.295  1.00  0.00     0.188 C 
ENDROOT
BRANCH   1   2
ATOM      2  O   UNL A   1      40.643  21.136  26.936  1.00  0.00    -0.376 OA
BRANCH   2   3
ATOM      3  C   UNL A   1      39.306  21.376  26.497  1.00  0.00     0.202 C 
BRANCH   3   4
ATOM      4  C   UNL A   1      39.002  22.783  25.963  1.00  0.00     0.261 C 
BRANCH   4   5
ATOM      5  O   UNL A   1      37.601  23.117  25.924  1.00  0.00    -0.463 OA
BRANCH   5   6
ATOM      6  C   UNL A   1      36.901  22.563  24.902  1.00  0.00     0.309 C 
ATOM      7  O   UNL A   1      37.388  21.879  24.008  1.00  0.00    -0.252 OA
BRANCH   6   8
ATOM      8  C   UNL A   1      35.406  22.806  24.972  1.00  0.00     0.102 C 
ATOM      9  N   UNL A   1      32.789  23.987  24.697  1.00  0.00    -0.198 NA
ATOM     10  C   UNL A   1      33.349  23.768  26.053  1.00  0.00     0.103 C 
ATOM     11  C   UNL A   1      33.436  23.341  23.534  1.00  0.00     0.103 C 
ATOM     12  C   UNL A   1      34.880  23.719  26.074  1.00  0.00     0.032 C 
ATOM     13  C   UNL A   1      34.948  23.374  23.632  1.00  0.00     0.032 C 
BRANCH   9  14
ATOM     14  S   UNL A   1      31.092  24.185  24.581  1.00  0.00     0.243 S 
ATOM     15  O   UNL A   1      30.564  24.105  25.926  1.00  0.00    -0.207 OA
ATOM     16  O   UNL A   1      30.613  23.321  23.524  1.00  0.00    -0.207 OA
BRANCH  14  17
ATOM     17  C   UNL A   1      30.771  25.858  24.033  1.00  0.00     0.083 A 
ATOM     18  C   UNL A   1      31.703  28.046  23.515  1.00  0.00     0.083 A 
ATOM     19  C   UNL A   1      31.875  26.719  23.945  1.00  0.00     0.039 A 
ATOM     20  C   UNL A   1      30.444  28.488  23.095  1.00  0.00     0.131 A 
ATOM     21  C   UNL A   1      29.345  27.634  23.217  1.00  0.00     0.048 A 
ATOM     22  C   UNL A   1      29.504  26.325  23.685  1.00  0.00     0.025 A 
BRANCH  18  23
ATOM     23  C   UNL A   1      32.899  28.911  23.544  1.00  0.00     0.254 C 
ATOM     24  C   UNL A   1      32.288  29.940  25.781  1.00  0.00     0.143 C 
ATOM     25  N   UNL A   1      33.102  29.761  24.601  1.00  0.00    -0.355 N 
ATOM     26  H   UNL A   1      33.910  30.322  24.548  1.00  0.00     0.163 HD
ATOM     27  O   UNL A   1      33.712  28.841  22.629  1.00  0.00    -0.269 OA
ENDBRANCH  18  23
BRANCH  20  28
ATOM     28  O   UNL A   1      30.151  29.734  22.611  1.00  0.00    -0.496 OA
ATOM     29  C   UNL A   1      29.171  30.438  23.378  1.00  0.00     0.278 C 
ENDBRANCH  20  28
ENDBRANCH  14  17
ENDBRANCH   9  14
ENDBRANCH   6   8
ENDBRANCH   5   6
ENDBRANCH   4   5
ENDBRANCH   3   4
ENDBRANCH   2   3
ENDBRANCH   1   2
BRANCH   1  30
ATOM     30  C   UNL A   1      42.876  20.198  26.274  1.00  0.00     0.188 C 
BRANCH  30  31
ATOM     31  O   UNL A   1      43.449  20.217  24.971  1.00  0.00    -0.376 OA
BRANCH  31  32
ATOM     32  C   UNL A   1      44.552  21.114  24.793  1.00  0.00     0.202 C 
BRANCH  32  33
ATOM     33  C   UNL A   1      44.223  22.466  24.126  1.00  0.00     0.261 C 
BRANCH  33  34
ATOM     34  O   UNL A   1      43.721  23.462  25.040  1.00  0.00    -0.460 OA
BRANCH  34  35
ATOM     35  C   UNL A   1      44.625  24.046  25.860  1.00  0.00     0.338 C 
ATOM     36  O   UNL A   1      45.835  24.050  25.719  1.00  0.00    -0.246 OA
BRANCH  35  37
ATOM     37  C   UNL A   1      43.900  24.914  26.822  1.00  0.00     0.060 A 
ATOM     38  C   UNL A   1      44.163  26.291  26.787  1.00  0.00     0.016 A 
ATOM     39  C   UNL A   1      42.935  24.410  27.702  1.00  0.00     0.016 A 
ATOM     40  C   UNL A   1      43.513  27.154  27.670  1.00  0.00     0.010 A 
ATOM     41  C   UNL A   1      42.288  25.275  28.592  1.00  0.00     0.010 A 
ATOM     42  C   UNL A   1      42.606  26.644  28.610  1.00  0.00    -0.014 A 
BRANCH  42  43
ATOM     43  C   UNL A   1      42.181  27.504  29.742  1.00  0.00     0.031 A 
ATOM     44  C   UNL A   1      40.912  28.300  29.589  1.00  0.00     0.074 A 
ATOM     45  C   UNL A   1      42.859  27.545  30.902  1.00  0.00     0.049 A 
ATOM     46  N   UNL A   1      40.300  29.061  30.459  1.00  0.00    -0.248 NA
ATOM     47  C   UNL A   1      40.242  28.219  28.281  1.00  0.00     0.031 C 
ATOM     48  C   UNL A   1      44.086  26.811  31.201  1.00  0.00     0.029 A 
ATOM     49  N   UNL A   1      42.593  28.244  32.055  1.00  0.00    -0.354 N 
ATOM     50  C   UNL A   1      39.171  29.543  29.806  1.00  0.00     0.074 A 
ATOM     51  C   UNL A   1      39.204  29.020  28.459  1.00  0.00     0.031 C 
ATOM     52  C   UNL A   1      44.466  27.095  32.461  1.00  0.00     0.029 A 
ATOM     53  C   UNL A   1      43.519  28.041  33.050  1.00  0.00     0.049 A 
ATOM     54  H   UNL A   1      41.812  28.834  32.159  1.00  0.00     0.167 HD
ATOM     55  C   UNL A   1      38.185  30.337  30.283  1.00  0.00     0.031 A 
ATOM     56  C   UNL A   1      43.592  28.562  34.291  1.00  0.00     0.031 A 
ATOM     57  C   UNL A   1      38.149  30.886  31.610  1.00  0.00     0.049 A 
ATOM     58  C   UNL A   1      42.520  29.504  34.775  1.00  0.00     0.074 A 
ATOM     59  C   UNL A   1      37.184  31.696  32.181  1.00  0.00     0.029 A 
ATOM     60  N   UNL A   1      39.128  30.690  32.569  1.00  0.00    -0.354 N 
ATOM     61  N   UNL A   1      41.433  29.910  34.163  1.00  0.00    -0.248 NA
ATOM     62  C   UNL A   1      42.680  30.045  36.134  1.00  0.00     0.031 C 
ATOM     63  C   UNL A   1      37.602  32.030  33.473  1.00  0.00     0.029 A 
ATOM     64  C   UNL A   1      38.801  31.382  33.723  1.00  0.00     0.049 A 
ATOM     65  H   UNL A   1      39.936  30.140  32.449  1.00  0.00     0.167 HD
ATOM     66  C   UNL A   1      40.768  30.726  35.072  1.00  0.00     0.074 A 
ATOM     67  C   UNL A   1      41.565  30.747  36.280  1.00  0.00     0.031 C 
ATOM     68  C   UNL A   1      39.599  31.395  34.921  1.00  0.00     0.031 A 
BRANCH  55  69
ATOM     69  C   UNL A   1      37.072  30.679  29.337  1.00  0.00    -0.014 A 
ATOM     70  C   UNL A   1      36.944  31.972  28.805  1.00  0.00     0.009 A 
ATOM     71  C   UNL A   1      36.148  29.692  28.962  1.00  0.00     0.009 A 
ATOM     72  C   UNL A   1      35.891  32.279  27.941  1.00  0.00     0.001 A 
ATOM     73  C   UNL A   1      35.111  29.996  28.078  1.00  0.00     0.001 A 
ATOM     74  C   UNL A   1      34.979  31.290  27.576  1.00  0.00     0.000 A 
ENDBRANCH  55  69
BRANCH  56  75
ATOM     75  C   UNL A   1      44.726  28.210  35.184  1.00  0.00    -0.014 A 
ATOM     76  C   UNL A   1      44.642  27.109  36.050  1.00  0.00     0.009 A 
ATOM     77  C   UNL A   1      45.880  29.008  35.210  1.00  0.00     0.009 A 
ATOM     78  C   UNL A   1      45.678  26.831  36.945  1.00  0.00     0.001 A 
ATOM     79  C   UNL A   1      46.926  28.711  36.088  1.00  0.00     0.001 A 
ATOM     80  C   UNL A   1      46.820  27.631  36.961  1.00  0.00     0.000 A 
ENDBRANCH  56  75
BRANCH  68  81
ATOM     81  C   UNL A   1      39.086  32.171  36.101  1.00  0.00    -0.014 A 
ATOM     82  C   UNL A   1      39.482  33.497  36.335  1.00  0.00     0.009 A 
ATOM     83  C   UNL A   1      38.161  31.575  36.974  1.00  0.00     0.009 A 
ATOM     84  C   UNL A   1      38.990  34.197  37.440  1.00  0.00     0.001 A 
ATOM     85  C   UNL A   1      37.650  32.286  38.061  1.00  0.00     0.001 A 
ATOM     86  C   UNL A   1      38.074  33.592  38.299  1.00  0.00     0.000 A 
ENDBRANCH  68  81
ENDBRANCH  42  43
ENDBRANCH  35  37
ENDBRANCH  34  35
ENDBRANCH  33  34
ENDBRANCH  32  33
ENDBRANCH  31  32
ENDBRANCH  30  31
ENDBRANCH   1  30
TORSDOF 21
ENDMDL
