MODEL 1
REMARK VINA RESULT:     -12.8      0.000      0.000
REMARK SMILES Cc1ccc(S(=O)(=O)N2c3ccc(C(=O)OCCOCCOCCOC(=O)c4ccc(-c5c6nc(c(-c7ccccc7)c7ccc([nH]7)c(-c7ccccc7)c7nc(c(-c8ccccc8)c8ccc5[nH]8)C=C7)C=C6)cc4)cc3C[C@H]2C)cc1
REMARK SMILES IDX 20 1 19 2 18 3 17 4 16 5 14 6 15 7 13 8 9 9 10 10 79 11
REMARK SMILES IDX 11 12 77 13 78 14 80 15 12 16 76 17 6 18 7 19 8 20 5 21 1 22
REMARK SMILES IDX 2 23 3 24 82 25 4 26 81 27 21 28 22 29 23 30 24 31 25 32
REMARK SMILES IDX 26 33 27 34 28 35 29 36 75 37 30 38 74 39 31 40 32 41 33 42
REMARK SMILES IDX 68 43 34 44 73 45 67 46 69 47 35 48 72 49 66 50 65 51 36 53
REMARK SMILES IDX 58 54 43 55 57 56 44 57 47 58 56 59 70 60 45 61 46 62 55 64
REMARK SMILES IDX 71 65 48 66 37 67 38 68 42 69 39 70 41 71 40 72 59 73 60 74
REMARK SMILES IDX 64 75 61 76 63 77 62 78 49 79 50 80 54 81 51 82 53 83 52 84
REMARK H PARENT 69 52 47 63
REMARK Flexibility Score: inf
ROOT
ATOM      1  C   UNL A   1      33.974  32.085  27.761  1.00  0.00     0.188 C 
ENDROOT
BRANCH   1   2
ATOM      2  O   UNL A   1      32.658  32.571  27.416  1.00  0.00    -0.376 OA
BRANCH   2   3
ATOM      3  C   UNL A   1      31.649  31.768  26.809  1.00  0.00     0.202 C 
BRANCH   3   4
ATOM      4  C   UNL A   1      31.884  30.179  26.302  1.00  0.00     0.261 C 
BRANCH   4   5
ATOM      5  O   UNL A   1      32.525  29.521  24.890  1.00  0.00    -0.460 OA
BRANCH   5   6
ATOM      6  C   UNL A   1      32.496  28.308  24.160  1.00  0.00     0.338 C 
ATOM      7  O   UNL A   1      31.771  27.976  23.229  1.00  0.00    -0.246 OA
BRANCH   6   8
ATOM      8  C   UNL A   1      33.426  27.155  24.312  1.00  0.00     0.060 A 
ATOM      9  N   UNL A   1      34.489  23.075  24.871  1.00  0.00    -0.263 N 
ATOM     10  C   UNL A   1      34.143  24.479  24.806  1.00  0.00     0.055 A 
ATOM     11  C   UNL A   1      34.859  22.730  23.427  1.00  0.00     0.101 C 
ATOM     12  C   UNL A   1      33.979  25.356  25.870  1.00  0.00     0.028 A 
ATOM     13  C   UNL A   1      33.925  24.886  23.499  1.00  0.00    -0.021 A 
ATOM     14  C   UNL A   1      34.046  23.721  22.556  1.00  0.00     0.063 C 
ATOM     15  C   UNL A   1      36.368  22.960  23.246  1.00  0.00     0.032 C 
ATOM     16  C   UNL A   1      33.616  26.694  25.620  1.00  0.00     0.018 A 
ATOM     17  C   UNL A   1      33.517  26.192  23.252  1.00  0.00     0.021 A 
BRANCH   9  18
ATOM     18  S   UNL A   1      33.187  22.105  25.498  1.00  0.00     0.264 S 
ATOM     19  O   UNL A   1      31.956  22.516  24.853  1.00  0.00    -0.201 OA
ATOM     20  O   UNL A   1      33.301  22.054  26.943  1.00  0.00    -0.201 OA
BRANCH  18  21
ATOM     21  C   UNL A   1      33.496  20.435  24.950  1.00  0.00     0.088 A 
ATOM     22  C   UNL A   1      33.982  16.380  23.585  1.00  0.00     0.044 C 
ATOM     23  C   UNL A   1      33.818  17.794  24.061  1.00  0.00    -0.051 A 
ATOM     24  C   UNL A   1      32.542  18.363  24.128  1.00  0.00     0.005 A 
ATOM     25  C   UNL A   1      34.924  18.547  24.475  1.00  0.00     0.005 A 
ATOM     26  C   UNL A   1      32.380  19.679  24.564  1.00  0.00     0.022 A 
ATOM     27  C   UNL A   1      34.765  19.862  24.926  1.00  0.00     0.022 A 
ENDBRANCH  18  21
ENDBRANCH   9  18
ENDBRANCH   6   8
ENDBRANCH   5   6
ENDBRANCH   4   5
ENDBRANCH   3   4
ENDBRANCH   2   3
ENDBRANCH   1   2
BRANCH   1  28
ATOM     28  C   UNL A   1      35.091  33.068  28.113  1.00  0.00     0.188 C 
BRANCH  28  29
ATOM     29  O   UNL A   1      34.689  34.365  27.716  1.00  0.00    -0.376 OA
BRANCH  29  30
ATOM     30  C   UNL A   1      34.701  35.355  28.724  1.00  0.00     0.202 C 
BRANCH  30  31
ATOM     31  C   UNL A   1      33.279  35.660  29.219  1.00  0.00     0.261 C 
BRANCH  31  32
ATOM     32  O   UNL A   1      32.952  34.807  30.348  1.00  0.00    -0.460 OA
BRANCH  32  33
ATOM     33  C   UNL A   1      33.241  35.276  31.607  1.00  0.00     0.338 C 
ATOM     34  O   UNL A   1      32.760  36.290  32.096  1.00  0.00    -0.246 OA
BRANCH  33  35
ATOM     35  C   UNL A   1      34.409  34.525  32.198  1.00  0.00     0.060 A 
ATOM     36  C   UNL A   1      35.640  35.084  32.579  1.00  0.00     0.016 A 
ATOM     37  C   UNL A   1      34.440  33.194  31.956  1.00  0.00     0.016 A 
ATOM     38  C   UNL A   1      36.890  34.314  32.541  1.00  0.00     0.010 A 
ATOM     39  C   UNL A   1      35.704  32.675  31.641  1.00  0.00     0.010 A 
ATOM     40  C   UNL A   1      37.000  33.035  31.977  1.00  0.00    -0.014 A 
BRANCH  40  41
ATOM     41  C   UNL A   1      38.314  32.281  31.426  1.00  0.00     0.031 A 
ATOM     42  C   UNL A   1      38.589  30.982  30.494  1.00  0.00     0.074 A 
ATOM     43  C   UNL A   1      39.498  32.755  31.884  1.00  0.00     0.049 A 
ATOM     44  N   UNL A   1      39.322  29.940  30.862  1.00  0.00    -0.248 NA
ATOM     45  C   UNL A   1      38.150  30.724  29.095  1.00  0.00     0.031 C 
ATOM     46  C   UNL A   1      40.847  32.351  31.495  1.00  0.00     0.029 A 
ATOM     47  N   UNL A   1      39.703  33.621  32.957  1.00  0.00    -0.354 N 
ATOM     48  C   UNL A   1      39.377  29.024  29.797  1.00  0.00     0.074 A 
ATOM     49  C   UNL A   1      38.492  29.478  28.806  1.00  0.00     0.031 C 
ATOM     50  C   UNL A   1      41.694  32.703  32.476  1.00  0.00     0.029 A 
ATOM     51  C   UNL A   1      40.904  33.252  33.564  1.00  0.00     0.049 A 
ATOM     52  H   UNL A   1      39.111  34.357  33.235  1.00  0.00     0.167 HD
ATOM     53  C   UNL A   1      40.270  28.023  29.586  1.00  0.00     0.031 A 
ATOM     54  C   UNL A   1      40.940  32.864  34.869  1.00  0.00     0.031 A 
ATOM     55  C   UNL A   1      41.396  28.200  30.439  1.00  0.00     0.049 A 
ATOM     56  C   UNL A   1      41.525  31.488  35.075  1.00  0.00     0.074 A 
ATOM     57  C   UNL A   1      42.571  28.908  30.268  1.00  0.00     0.029 A 
ATOM     58  N   UNL A   1      41.224  27.993  31.785  1.00  0.00    -0.354 N 
ATOM     59  N   UNL A   1      41.728  30.619  34.124  1.00  0.00    -0.248 NA
ATOM     60  C   UNL A   1      41.890  30.964  36.388  1.00  0.00     0.031 C 
ATOM     61  C   UNL A   1      43.104  29.155  31.554  1.00  0.00     0.029 A 
ATOM     62  C   UNL A   1      42.280  28.538  32.476  1.00  0.00     0.049 A 
ATOM     63  H   UNL A   1      40.459  27.527  32.194  1.00  0.00     0.167 HD
ATOM     64  C   UNL A   1      42.163  29.435  34.668  1.00  0.00     0.074 A 
ATOM     65  C   UNL A   1      42.286  29.716  36.082  1.00  0.00     0.031 C 
ATOM     66  C   UNL A   1      42.340  28.320  33.903  1.00  0.00     0.031 A 
BRANCH  53  67
ATOM     67  C   UNL A   1      40.229  27.198  28.313  1.00  0.00    -0.014 A 
ATOM     68  C   UNL A   1      39.542  25.976  28.269  1.00  0.00     0.009 A 
ATOM     69  C   UNL A   1      40.957  27.557  27.155  1.00  0.00     0.009 A 
ATOM     70  C   UNL A   1      39.672  25.100  27.179  1.00  0.00     0.001 A 
ATOM     71  C   UNL A   1      41.121  26.667  26.081  1.00  0.00     0.001 A 
ATOM     72  C   UNL A   1      40.491  25.428  26.101  1.00  0.00     0.000 A 
ENDBRANCH  53  67
BRANCH  54  73
ATOM     73  C   UNL A   1      39.908  33.504  35.742  1.00  0.00    -0.014 A 
ATOM     74  C   UNL A   1      38.704  32.804  35.975  1.00  0.00     0.009 A 
ATOM     75  C   UNL A   1      40.199  34.602  36.565  1.00  0.00     0.009 A 
ATOM     76  C   UNL A   1      37.869  33.126  37.052  1.00  0.00     0.001 A 
ATOM     77  C   UNL A   1      39.351  34.935  37.636  1.00  0.00     0.001 A 
ATOM     78  C   UNL A   1      38.203  34.182  37.893  1.00  0.00     0.000 A 
ENDBRANCH  54  73
BRANCH  66  79
ATOM     79  C   UNL A   1      42.551  26.886  34.354  1.00  0.00    -0.014 A 
ATOM     80  C   UNL A   1      43.733  26.163  34.191  1.00  0.00     0.009 A 
ATOM     81  C   UNL A   1      41.537  26.260  35.131  1.00  0.00     0.009 A 
ATOM     82  C   UNL A   1      43.892  24.890  34.762  1.00  0.00     0.001 A 
ATOM     83  C   UNL A   1      41.712  25.024  35.750  1.00  0.00     0.001 A 
ATOM     84  C   UNL A   1      42.894  24.331  35.556  1.00  0.00     0.000 A 
ENDBRANCH  66  79
ENDBRANCH  40  41
ENDBRANCH  33  35
ENDBRANCH  32  33
ENDBRANCH  31  32
ENDBRANCH  30  31
ENDBRANCH  29  30
ENDBRANCH  28  29
ENDBRANCH   1  28
TORSDOF 19
ENDMDL
MODEL 2
REMARK VINA RESULT:     -12.7      1.292      2.494
REMARK SMILES Cc1ccc(S(=O)(=O)N2c3ccc(C(=O)OCCOCCOCCOC(=O)c4ccc(-c5c6nc(c(-c7ccccc7)c7ccc([nH]7)c(-c7ccccc7)c7nc(c(-c8ccccc8)c8ccc5[nH]8)C=C7)C=C6)cc4)cc3C[C@H]2C)cc1
REMARK SMILES IDX 20 1 19 2 18 3 17 4 16 5 14 6 15 7 13 8 9 9 10 10 79 11
REMARK SMILES IDX 11 12 77 13 78 14 80 15 12 16 76 17 6 18 7 19 8 20 5 21 1 22
REMARK SMILES IDX 2 23 3 24 82 25 4 26 81 27 21 28 22 29 23 30 24 31 25 32
REMARK SMILES IDX 26 33 27 34 28 35 29 36 75 37 30 38 74 39 31 40 32 41 33 42
REMARK SMILES IDX 68 43 34 44 73 45 67 46 69 47 35 48 72 49 66 50 65 51 36 53
REMARK SMILES IDX 58 54 43 55 57 56 44 57 47 58 56 59 70 60 45 61 46 62 55 64
REMARK SMILES IDX 71 65 48 66 37 67 38 68 42 69 39 70 41 71 40 72 59 73 60 74
REMARK SMILES IDX 64 75 61 76 63 77 62 78 49 79 50 80 54 81 51 82 53 83 52 84
REMARK H PARENT 69 52 47 63
REMARK Flexibility Score: inf
ROOT
ATOM      1  C   UNL A   1      33.993  31.340  27.458  1.00  0.00     0.188 C 
ENDROOT
BRANCH   1   2
ATOM      2  O   UNL A   1      32.550  31.396  27.494  1.00  0.00    -0.376 OA
BRANCH   2   3
ATOM      3  C   UNL A   1      31.715  31.067  26.387  1.00  0.00     0.202 C 
BRANCH   3   4
ATOM      4  C   UNL A   1      31.972  29.750  25.369  1.00  0.00     0.261 C 
BRANCH   4   5
ATOM      5  O   UNL A   1      33.162  29.416  24.223  1.00  0.00    -0.460 OA
BRANCH   5   6
ATOM      6  C   UNL A   1      33.669  28.316  23.490  1.00  0.00     0.338 C 
ATOM      7  O   UNL A   1      33.896  28.218  22.289  1.00  0.00    -0.246 OA
BRANCH   6   8
ATOM      8  C   UNL A   1      34.132  27.014  24.044  1.00  0.00     0.060 A 
ATOM      9  N   UNL A   1      33.701  23.034  25.481  1.00  0.00    -0.263 N 
ATOM     10  C   UNL A   1      33.844  24.427  25.114  1.00  0.00     0.055 A 
ATOM     11  C   UNL A   1      34.198  22.284  24.244  1.00  0.00     0.101 C 
ATOM     12  C   UNL A   1      33.779  25.531  25.953  1.00  0.00     0.028 A 
ATOM     13  C   UNL A   1      34.013  24.573  23.746  1.00  0.00    -0.021 A 
ATOM     14  C   UNL A   1      33.923  23.240  23.056  1.00  0.00     0.063 C 
ATOM     15  C   UNL A   1      35.707  22.035  24.403  1.00  0.00     0.032 C 
ATOM     16  C   UNL A   1      33.920  26.824  25.415  1.00  0.00     0.018 A 
ATOM     17  C   UNL A   1      34.101  25.851  23.204  1.00  0.00     0.021 A 
BRANCH   9  18
ATOM     18  S   UNL A   1      32.064  22.633  25.916  1.00  0.00     0.264 S 
ATOM     19  O   UNL A   1      31.920  22.779  27.352  1.00  0.00    -0.201 OA
ATOM     20  O   UNL A   1      31.692  21.404  25.243  1.00  0.00    -0.201 OA
BRANCH  18  21
ATOM     21  C   UNL A   1      31.029  23.892  25.189  1.00  0.00     0.088 A 
ATOM     22  C   UNL A   1      28.504  27.033  23.674  1.00  0.00     0.044 C 
ATOM     23  C   UNL A   1      29.385  25.937  24.197  1.00  0.00    -0.051 A 
ATOM     24  C   UNL A   1      29.672  25.866  25.564  1.00  0.00     0.005 A 
ATOM     25  C   UNL A   1      29.899  24.956  23.340  1.00  0.00     0.005 A 
ATOM     26  C   UNL A   1      30.495  24.852  26.059  1.00  0.00     0.022 A 
ATOM     27  C   UNL A   1      30.714  23.931  23.833  1.00  0.00     0.022 A 
ENDBRANCH  18  21
ENDBRANCH   9  18
ENDBRANCH   6   8
ENDBRANCH   5   6
ENDBRANCH   4   5
ENDBRANCH   3   4
ENDBRANCH   2   3
ENDBRANCH   1   2
BRANCH   1  28
ATOM     28  C   UNL A   1      34.823  32.466  28.076  1.00  0.00     0.188 C 
BRANCH  28  29
ATOM     29  O   UNL A   1      34.080  33.666  27.999  1.00  0.00    -0.376 OA
BRANCH  29  30
ATOM     30  C   UNL A   1      34.624  34.779  28.678  1.00  0.00     0.202 C 
BRANCH  30  31
ATOM     31  C   UNL A   1      33.524  35.597  29.371  1.00  0.00     0.261 C 
BRANCH  31  32
ATOM     32  O   UNL A   1      33.017  34.874  30.524  1.00  0.00    -0.460 OA
BRANCH  32  33
ATOM     33  C   UNL A   1      33.334  35.357  31.771  1.00  0.00     0.338 C 
ATOM     34  O   UNL A   1      32.880  36.388  32.250  1.00  0.00    -0.246 OA
BRANCH  33  35
ATOM     35  C   UNL A   1      34.496  34.593  32.358  1.00  0.00     0.060 A 
ATOM     36  C   UNL A   1      35.747  35.131  32.698  1.00  0.00     0.016 A 
ATOM     37  C   UNL A   1      34.490  33.256  32.150  1.00  0.00     0.016 A 
ATOM     38  C   UNL A   1      36.977  34.330  32.655  1.00  0.00     0.010 A 
ATOM     39  C   UNL A   1      35.734  32.698  31.822  1.00  0.00     0.010 A 
ATOM     40  C   UNL A   1      37.045  33.035  32.122  1.00  0.00    -0.014 A 
BRANCH  40  41
ATOM     41  C   UNL A   1      38.329  32.235  31.565  1.00  0.00     0.031 A 
ATOM     42  C   UNL A   1      38.553  30.912  30.652  1.00  0.00     0.074 A 
ATOM     43  C   UNL A   1      39.533  32.684  31.994  1.00  0.00     0.049 A 
ATOM     44  N   UNL A   1      39.263  29.857  31.028  1.00  0.00    -0.248 NA
ATOM     45  C   UNL A   1      38.083  30.641  29.266  1.00  0.00     0.031 C 
ATOM     46  C   UNL A   1      40.864  32.236  31.591  1.00  0.00     0.029 A 
ATOM     47  N   UNL A   1      39.779  33.564  33.048  1.00  0.00    -0.354 N 
ATOM     48  C   UNL A   1      39.274  28.921  29.980  1.00  0.00     0.074 A 
ATOM     49  C   UNL A   1      38.387  29.381  28.995  1.00  0.00     0.031 C 
ATOM     50  C   UNL A   1      41.736  32.582  32.552  1.00  0.00     0.029 A 
ATOM     51  C   UNL A   1      40.979  33.172  33.642  1.00  0.00     0.049 A 
ATOM     52  H   UNL A   1      39.212  34.321  33.322  1.00  0.00     0.167 HD
ATOM     53  C   UNL A   1      40.136  27.892  29.773  1.00  0.00     0.031 A 
ATOM     54  C   UNL A   1      41.026  32.807  34.953  1.00  0.00     0.031 A 
ATOM     55  C   UNL A   1      41.281  28.053  30.604  1.00  0.00     0.049 A 
ATOM     56  C   UNL A   1      41.577  31.419  35.175  1.00  0.00     0.074 A 
ATOM     57  C   UNL A   1      42.472  28.725  30.401  1.00  0.00     0.029 A 
ATOM     58  N   UNL A   1      41.125  27.875  31.957  1.00  0.00    -0.354 N 
ATOM     59  N   UNL A   1      41.740  30.528  34.237  1.00  0.00    -0.248 NA
ATOM     60  C   UNL A   1      41.948  30.909  36.492  1.00  0.00     0.031 C 
ATOM     61  C   UNL A   1      43.033  28.980  31.674  1.00  0.00     0.029 A 
ATOM     62  C   UNL A   1      42.207  28.403  32.620  1.00  0.00     0.049 A 
ATOM     63  H   UNL A   1      40.355  27.439  32.386  1.00  0.00     0.167 HD
ATOM     64  C   UNL A   1      42.151  29.343  34.796  1.00  0.00     0.074 A 
ATOM     65  C   UNL A   1      42.305  29.645  36.203  1.00  0.00     0.031 C 
ATOM     66  C   UNL A   1      42.285  28.209  34.050  1.00  0.00     0.031 A 
BRANCH  53  67
ATOM     67  C   UNL A   1      40.052  27.045  28.516  1.00  0.00    -0.014 A 
ATOM     68  C   UNL A   1      39.362  25.824  28.516  1.00  0.00     0.009 A 
ATOM     69  C   UNL A   1      40.742  27.383  27.329  1.00  0.00     0.009 A 
ATOM     70  C   UNL A   1      39.454  24.929  27.437  1.00  0.00     0.001 A 
ATOM     71  C   UNL A   1      40.868  26.475  26.265  1.00  0.00     0.001 A 
ATOM     72  C   UNL A   1      40.237  25.238  26.328  1.00  0.00     0.000 A 
ENDBRANCH  53  67
BRANCH  54  73
ATOM     73  C   UNL A   1      40.027  33.492  35.831  1.00  0.00    -0.014 A 
ATOM     74  C   UNL A   1      38.990  32.714  36.394  1.00  0.00     0.009 A 
ATOM     75  C   UNL A   1      40.243  34.775  36.353  1.00  0.00     0.009 A 
ATOM     76  C   UNL A   1      38.261  33.163  37.502  1.00  0.00     0.001 A 
ATOM     77  C   UNL A   1      39.498  35.231  37.455  1.00  0.00     0.001 A 
ATOM     78  C   UNL A   1      38.528  34.416  38.043  1.00  0.00     0.000 A 
ENDBRANCH  54  73
BRANCH  66  79
ATOM     79  C   UNL A   1      42.464  26.779  34.523  1.00  0.00    -0.014 A 
ATOM     80  C   UNL A   1      41.527  26.058  35.262  1.00  0.00     0.009 A 
ATOM     81  C   UNL A   1      43.598  26.048  34.070  1.00  0.00     0.009 A 
ATOM     82  C   UNL A   1      41.711  24.694  35.539  1.00  0.00     0.001 A 
ATOM     83  C   UNL A   1      43.756  24.681  34.289  1.00  0.00     0.001 A 
ATOM     84  C   UNL A   1      42.810  24.002  35.037  1.00  0.00     0.000 A 
ENDBRANCH  66  79
ENDBRANCH  40  41
ENDBRANCH  33  35
ENDBRANCH  32  33
ENDBRANCH  31  32
ENDBRANCH  30  31
ENDBRANCH  29  30
ENDBRANCH  28  29
ENDBRANCH   1  28
TORSDOF 19
ENDMDL
MODEL 3
REMARK VINA RESULT:     -11.9      3.412      9.096
REMARK SMILES Cc1ccc(S(=O)(=O)N2c3ccc(C(=O)OCCOCCOCCOC(=O)c4ccc(-c5c6nc(c(-c7ccccc7)c7ccc([nH]7)c(-c7ccccc7)c7nc(c(-c8ccccc8)c8ccc5[nH]8)C=C7)C=C6)cc4)cc3C[C@H]2C)cc1
REMARK SMILES IDX 20 1 19 2 18 3 17 4 16 5 14 6 15 7 13 8 9 9 10 10 79 11
REMARK SMILES IDX 11 12 77 13 78 14 80 15 12 16 76 17 6 18 7 19 8 20 5 21 1 22
REMARK SMILES IDX 2 23 3 24 82 25 4 26 81 27 21 28 22 29 23 30 24 31 25 32
REMARK SMILES IDX 26 33 27 34 28 35 29 36 75 37 30 38 74 39 31 40 32 41 33 42
REMARK SMILES IDX 68 43 34 44 73 45 67 46 69 47 35 48 72 49 66 50 65 51 36 53
REMARK SMILES IDX 58 54 43 55 57 56 44 57 47 58 56 59 70 60 45 61 46 62 55 64
REMARK SMILES IDX 71 65 48 66 37 67 38 68 42 69 39 70 41 71 40 72 59 73 60 74
REMARK SMILES IDX 64 75 61 76 63 77 62 78 49 79 50 80 54 81 51 82 53 83 52 84
REMARK H PARENT 69 52 47 63
REMARK Flexibility Score: inf
ROOT
ATOM      1  C   UNL A   1      43.722  19.765  24.985  1.00  0.00     0.188 C 
ENDROOT
BRANCH   1   2
ATOM      2  O   UNL A   1      42.907  19.113  25.984  1.00  0.00    -0.376 OA
BRANCH   2   3
ATOM      3  C   UNL A   1      42.196  19.808  27.005  1.00  0.00     0.202 C 
BRANCH   3   4
ATOM      4  C   UNL A   1      40.568  20.227  26.904  1.00  0.00     0.261 C 
BRANCH   4   5
ATOM      5  O   UNL A   1      39.704  21.169  25.806  1.00  0.00    -0.460 OA
BRANCH   5   6
ATOM      6  C   UNL A   1      38.673  22.139  25.801  1.00  0.00     0.338 C 
ATOM      7  O   UNL A   1      38.657  23.263  26.291  1.00  0.00    -0.246 OA
BRANCH   6   8
ATOM      8  C   UNL A   1      37.360  22.039  25.106  1.00  0.00     0.060 A 
ATOM      9  N   UNL A   1      33.220  22.805  24.500  1.00  0.00    -0.263 N 
ATOM     10  C   UNL A   1      34.595  22.436  24.764  1.00  0.00     0.055 A 
ATOM     11  C   UNL A   1      33.336  23.843  23.382  1.00  0.00     0.101 C 
ATOM     12  C   UNL A   1      35.049  21.353  25.504  1.00  0.00     0.028 A 
ATOM     13  C   UNL A   1      35.478  23.353  24.216  1.00  0.00    -0.021 A 
ATOM     14  C   UNL A   1      34.730  24.490  23.576  1.00  0.00     0.063 C 
ATOM     15  C   UNL A   1      33.260  23.109  22.032  1.00  0.00     0.032 C 
ATOM     16  C   UNL A   1      36.433  21.159  25.677  1.00  0.00     0.018 A 
ATOM     17  C   UNL A   1      36.843  23.193  24.427  1.00  0.00     0.021 A 
BRANCH   9  18
ATOM     18  S   UNL A   1      32.418  23.413  25.921  1.00  0.00     0.264 S 
ATOM     19  O   UNL A   1      33.351  23.368  27.030  1.00  0.00    -0.201 OA
ATOM     20  O   UNL A   1      31.108  22.798  26.013  1.00  0.00    -0.201 OA
BRANCH  18  21
ATOM     21  C   UNL A   1      32.099  25.142  25.617  1.00  0.00     0.088 A 
ATOM     22  C   UNL A   1      31.121  29.241  24.735  1.00  0.00     0.044 C 
ATOM     23  C   UNL A   1      31.465  27.814  25.045  1.00  0.00    -0.051 A 
ATOM     24  C   UNL A   1      30.697  26.778  24.504  1.00  0.00     0.005 A 
ATOM     25  C   UNL A   1      32.571  27.498  25.845  1.00  0.00     0.005 A 
ATOM     26  C   UNL A   1      31.007  25.447  24.791  1.00  0.00     0.022 A 
ATOM     27  C   UNL A   1      32.893  26.166  26.126  1.00  0.00     0.022 A 
ENDBRANCH  18  21
ENDBRANCH   9  18
ENDBRANCH   6   8
ENDBRANCH   5   6
ENDBRANCH   4   5
ENDBRANCH   3   4
ENDBRANCH   2   3
ENDBRANCH   1   2
BRANCH   1  28
ATOM     28  C   UNL A   1      44.490  21.041  25.331  1.00  0.00     0.188 C 
BRANCH  28  29
ATOM     29  O   UNL A   1      44.059  22.073  24.465  1.00  0.00    -0.376 OA
BRANCH  29  30
ATOM     30  C   UNL A   1      43.037  22.913  24.961  1.00  0.00     0.202 C 
BRANCH  30  31
ATOM     31  C   UNL A   1      43.598  23.940  25.956  1.00  0.00     0.261 C 
BRANCH  31  32
ATOM     32  O   UNL A   1      42.608  24.968  26.222  1.00  0.00    -0.460 OA
BRANCH  32  33
ATOM     33  C   UNL A   1      42.936  26.266  25.908  1.00  0.00     0.338 C 
ATOM     34  O   UNL A   1      44.079  26.673  25.751  1.00  0.00    -0.246 OA
BRANCH  33  35
ATOM     35  C   UNL A   1      41.729  27.164  26.035  1.00  0.00     0.060 A 
ATOM     36  C   UNL A   1      41.755  28.556  26.214  1.00  0.00     0.016 A 
ATOM     37  C   UNL A   1      40.581  26.562  26.425  1.00  0.00     0.016 A 
ATOM     38  C   UNL A   1      40.689  29.269  26.932  1.00  0.00     0.010 A 
ATOM     39  C   UNL A   1      39.820  27.277  27.360  1.00  0.00     0.010 A 
ATOM     40  C   UNL A   1      39.659  28.628  27.633  1.00  0.00    -0.014 A 
BRANCH  40  41
ATOM     41  C   UNL A   1      38.737  29.198  28.826  1.00  0.00     0.031 A 
ATOM     42  C   UNL A   1      37.699  30.435  28.988  1.00  0.00     0.074 A 
ATOM     43  C   UNL A   1      38.884  28.585  30.026  1.00  0.00     0.049 A 
ATOM     44  N   UNL A   1      37.803  31.381  29.911  1.00  0.00    -0.248 NA
ATOM     45  C   UNL A   1      36.458  30.722  28.218  1.00  0.00     0.031 C 
ATOM     46  C   UNL A   1      38.128  28.807  31.256  1.00  0.00     0.029 A 
ATOM     47  N   UNL A   1      39.907  27.720  30.412  1.00  0.00    -0.354 N 
ATOM     48  C   UNL A   1      36.717  32.264  29.781  1.00  0.00     0.074 A 
ATOM     49  C   UNL A   1      36.024  31.909  28.613  1.00  0.00     0.031 C 
ATOM     50  C   UNL A   1      38.862  28.367  32.290  1.00  0.00     0.029 A 
ATOM     51  C   UNL A   1      40.149  27.944  31.767  1.00  0.00     0.049 A 
ATOM     52  H   UNL A   1      40.372  27.070  29.835  1.00  0.00     0.167 HD
ATOM     53  C   UNL A   1      36.223  33.138  30.695  1.00  0.00     0.031 A 
ATOM     54  C   UNL A   1      41.375  28.347  32.203  1.00  0.00     0.031 A 
ATOM     55  C   UNL A   1      36.750  32.835  31.982  1.00  0.00     0.049 A 
ATOM     56  C   UNL A   1      41.345  29.641  32.981  1.00  0.00     0.074 A 
ATOM     57  C   UNL A   1      36.306  31.980  32.973  1.00  0.00     0.029 A 
ATOM     58  N   UNL A   1      38.081  33.086  32.208  1.00  0.00    -0.354 N 
ATOM     59  N   UNL A   1      40.331  30.460  33.017  1.00  0.00    -0.248 NA
ATOM     60  C   UNL A   1      42.483  30.137  33.748  1.00  0.00     0.031 C 
ATOM     61  C   UNL A   1      37.414  31.690  33.804  1.00  0.00     0.029 A 
ATOM     62  C   UNL A   1      38.490  32.423  33.341  1.00  0.00     0.049 A 
ATOM     63  H   UNL A   1      38.655  33.653  31.644  1.00  0.00     0.167 HD
ATOM     64  C   UNL A   1      40.676  31.587  33.721  1.00  0.00     0.074 A 
ATOM     65  C   UNL A   1      42.018  31.319  34.190  1.00  0.00     0.031 C 
ATOM     66  C   UNL A   1      39.835  32.658  33.813  1.00  0.00     0.031 A 
BRANCH  53  67
ATOM     67  C   UNL A   1      34.966  33.939  30.406  1.00  0.00    -0.014 A 
ATOM     68  C   UNL A   1      34.511  34.116  29.091  1.00  0.00     0.009 A 
ATOM     69  C   UNL A   1      34.258  34.628  31.418  1.00  0.00     0.009 A 
ATOM     70  C   UNL A   1      33.485  35.025  28.785  1.00  0.00     0.001 A 
ATOM     71  C   UNL A   1      33.259  35.566  31.112  1.00  0.00     0.001 A 
ATOM     72  C   UNL A   1      32.884  35.778  29.790  1.00  0.00     0.000 A 
ENDBRANCH  53  67
BRANCH  54  73
ATOM     73  C   UNL A   1      42.525  27.859  31.381  1.00  0.00    -0.014 A 
ATOM     74  C   UNL A   1      43.382  26.886  31.942  1.00  0.00     0.009 A 
ATOM     75  C   UNL A   1      42.611  28.092  30.001  1.00  0.00     0.009 A 
ATOM     76  C   UNL A   1      44.223  26.105  31.140  1.00  0.00     0.001 A 
ATOM     77  C   UNL A   1      43.470  27.319  29.199  1.00  0.00     0.001 A 
ATOM     78  C   UNL A   1      44.253  26.311  29.766  1.00  0.00     0.000 A 
ENDBRANCH  54  73
BRANCH  66  79
ATOM     79  C   UNL A   1      40.138  34.060  34.306  1.00  0.00    -0.014 A 
ATOM     80  C   UNL A   1      39.476  34.699  35.354  1.00  0.00     0.009 A 
ATOM     81  C   UNL A   1      41.271  34.739  33.777  1.00  0.00     0.009 A 
ATOM     82  C   UNL A   1      39.910  35.942  35.840  1.00  0.00     0.001 A 
ATOM     83  C   UNL A   1      41.743  35.943  34.296  1.00  0.00     0.001 A 
ATOM     84  C   UNL A   1      41.052  36.553  35.328  1.00  0.00     0.000 A 
ENDBRANCH  66  79
ENDBRANCH  40  41
ENDBRANCH  33  35
ENDBRANCH  32  33
ENDBRANCH  31  32
ENDBRANCH  30  31
ENDBRANCH  29  30
ENDBRANCH  28  29
ENDBRANCH   1  28
TORSDOF 19
ENDMDL
