MODEL 1
REMARK VINA RESULT:     -11.4      0.000      0.000
REMARK SMILES Cc1ccc(S(=O)(=O)n2cc(C(=O)C(=O)NCC(=O)OCCOCCOCCOC(=O)c3ccc(-c4c5nc(c(-c6ccccc6)c6ccc([nH]6)c(-c6ccccc6)c6nc(c(-c7ccccc7)c7ccc4[nH]7)C=C6)C=C5)cc3)c3ccccc32)cc1
REMARK SMILES IDX 23 1 22 2 21 3 20 4 18 5 19 6 17 7 16 8 14 9 15 10 12 12
REMARK SMILES IDX 13 13 11 14 9 15 10 16 85 17 80 18 84 19 81 20 83 21 82 22
REMARK SMILES IDX 6 23 7 24 8 25 5 26 1 27 2 28 3 29 87 30 4 31 86 32 24 33
REMARK SMILES IDX 25 34 26 35 27 36 28 37 29 38 30 39 31 40 32 41 33 42 79 43
REMARK SMILES IDX 34 44 78 45 35 46 36 47 37 48 72 49 38 50 77 51 71 52 73 53
REMARK SMILES IDX 39 54 76 55 70 56 69 57 40 59 62 60 47 61 61 62 48 63 51 64
REMARK SMILES IDX 60 65 74 66 49 67 50 68 59 70 75 71 52 72 41 73 42 74 46 75
REMARK SMILES IDX 43 76 45 77 44 78 63 79 64 80 68 81 65 82 67 83 66 84 53 85
REMARK SMILES IDX 54 86 58 87 55 88 57 89 56 90
REMARK H PARENT 16 11 73 58 51 69
REMARK Flexibility Score: inf
ROOT
ATOM      1  O   UNL A   1      33.165  30.925  27.050  1.00  0.00    -0.376 OA
ENDROOT
BRANCH   1   2
ATOM      2  C   UNL A   1      31.875  30.444  26.657  1.00  0.00     0.202 C 
BRANCH   2   3
ATOM      3  C   UNL A   1      31.309  30.329  25.042  1.00  0.00     0.261 C 
BRANCH   3   4
ATOM      4  O   UNL A   1      30.991  28.966  24.264  1.00  0.00    -0.462 OA
BRANCH   4   5
ATOM      5  C   UNL A   1      30.742  28.393  23.033  1.00  0.00     0.325 C 
ATOM      6  O   UNL A   1      30.424  29.005  22.016  1.00  0.00    -0.250 OA
BRANCH   5   7
ATOM      7  C   UNL A   1      30.778  26.830  22.978  1.00  0.00     0.239 C 
BRANCH   7   8
ATOM      8  N   UNL A   1      31.838  26.382  22.116  1.00  0.00    -0.338 N 
ATOM      9  C   UNL A   1      33.130  26.181  22.519  1.00  0.00     0.292 C 
ATOM     10  O   UNL A   1      33.982  25.809  21.721  1.00  0.00    -0.265 OA
ATOM     11  H   UNL A   1      31.619  26.206  21.173  1.00  0.00     0.164 HD
BRANCH   9  12
ATOM     12  C   UNL A   1      33.495  26.487  23.987  1.00  0.00     0.252 C 
ATOM     13  O   UNL A   1      33.821  27.635  24.278  1.00  0.00    -0.283 OA
BRANCH  12  14
ATOM     14  C   UNL A   1      33.368  25.425  24.977  1.00  0.00     0.054 A 
ATOM     15  N   UNL A   1      33.889  23.574  26.084  1.00  0.00    -0.240 N 
ATOM     16  C   UNL A   1      34.418  24.634  25.399  1.00  0.00     0.117 A 
ATOM     17  C   UNL A   1      32.533  23.734  26.277  1.00  0.00     0.065 A 
ATOM     18  C   UNL A   1      32.189  24.933  25.632  1.00  0.00     0.012 A 
ATOM     19  C   UNL A   1      31.562  22.918  26.885  1.00  0.00     0.028 A 
ATOM     20  C   UNL A   1      30.842  25.357  25.668  1.00  0.00     0.011 A 
ATOM     21  C   UNL A   1      30.234  23.350  26.879  1.00  0.00     0.002 A 
ATOM     22  C   UNL A   1      29.879  24.561  26.296  1.00  0.00     0.001 A 
BRANCH  15  23
ATOM     23  S   UNL A   1      34.751  22.109  26.196  1.00  0.00     0.268 S 
ATOM     24  O   UNL A   1      34.442  21.576  27.531  1.00  0.00    -0.201 OA
ATOM     25  O   UNL A   1      36.091  22.403  25.794  1.00  0.00    -0.201 OA
BRANCH  23  26
ATOM     26  C   UNL A   1      34.035  21.009  24.998  1.00  0.00     0.088 A 
ATOM     27  C   UNL A   1      32.154  18.084  22.472  1.00  0.00     0.044 C 
ATOM     28  C   UNL A   1      32.845  19.117  23.311  1.00  0.00    -0.051 A 
ATOM     29  C   UNL A   1      33.841  18.731  24.215  1.00  0.00     0.005 A 
ATOM     30  C   UNL A   1      32.492  20.467  23.219  1.00  0.00     0.005 A 
ATOM     31  C   UNL A   1      34.436  19.672  25.058  1.00  0.00     0.022 A 
ATOM     32  C   UNL A   1      33.088  21.415  24.053  1.00  0.00     0.022 A 
ENDBRANCH  23  26
ENDBRANCH  15  23
ENDBRANCH  12  14
ENDBRANCH   9  12
ENDBRANCH   7   8
ENDBRANCH   5   7
ENDBRANCH   4   5
ENDBRANCH   3   4
ENDBRANCH   2   3
ENDBRANCH   1   2
BRANCH   1  33
ATOM     33  C   UNL A   1      33.438  32.020  27.950  1.00  0.00     0.188 C 
BRANCH  33  34
ATOM     34  C   UNL A   1      34.851  32.532  28.246  1.00  0.00     0.188 C 
BRANCH  34  35
ATOM     35  O   UNL A   1      34.808  33.804  28.862  1.00  0.00    -0.376 OA
BRANCH  35  36
ATOM     36  C   UNL A   1      33.500  34.292  29.136  1.00  0.00     0.202 C 
BRANCH  36  37
ATOM     37  C   UNL A   1      33.471  35.695  29.786  1.00  0.00     0.261 C 
BRANCH  37  38
ATOM     38  O   UNL A   1      34.145  35.691  31.069  1.00  0.00    -0.460 OA
BRANCH  38  39
ATOM     39  C   UNL A   1      33.712  34.803  32.025  1.00  0.00     0.338 C 
ATOM     40  O   UNL A   1      32.593  34.786  32.507  1.00  0.00    -0.246 OA
BRANCH  39  41
ATOM     41  C   UNL A   1      34.888  34.037  32.579  1.00  0.00     0.060 A 
ATOM     42  C   UNL A   1      36.138  34.556  32.954  1.00  0.00     0.016 A 
ATOM     43  C   UNL A   1      34.885  32.716  32.306  1.00  0.00     0.016 A 
ATOM     44  C   UNL A   1      37.366  33.748  32.907  1.00  0.00     0.010 A 
ATOM     45  C   UNL A   1      36.127  32.179  31.956  1.00  0.00     0.010 A 
ATOM     46  C   UNL A   1      37.432  32.481  32.317  1.00  0.00    -0.014 A 
BRANCH  46  47
ATOM     47  C   UNL A   1      38.709  31.701  31.761  1.00  0.00     0.031 A 
ATOM     48  C   UNL A   1      38.964  30.420  30.834  1.00  0.00     0.074 A 
ATOM     49  C   UNL A   1      39.895  32.235  32.138  1.00  0.00     0.049 A 
ATOM     50  N   UNL A   1      39.791  29.423  31.118  1.00  0.00    -0.248 NA
ATOM     51  C   UNL A   1      38.455  30.171  29.485  1.00  0.00     0.031 C 
ATOM     52  C   UNL A   1      41.246  31.862  31.726  1.00  0.00     0.029 A 
ATOM     53  N   UNL A   1      40.098  33.164  33.158  1.00  0.00    -0.354 N 
ATOM     54  C   UNL A   1      39.887  28.565  30.002  1.00  0.00     0.074 A 
ATOM     55  C   UNL A   1      38.924  29.003  29.076  1.00  0.00     0.031 C 
ATOM     56  C   UNL A   1      42.101  32.276  32.675  1.00  0.00     0.029 A 
ATOM     57  C   UNL A   1      41.316  32.843  33.760  1.00  0.00     0.049 A 
ATOM     58  H   UNL A   1      39.500  33.906  33.405  1.00  0.00     0.167 HD
ATOM     59  C   UNL A   1      40.838  27.630  29.715  1.00  0.00     0.031 A 
ATOM     60  C   UNL A   1      41.348  32.480  35.072  1.00  0.00     0.031 A 
ATOM     61  C   UNL A   1      41.963  27.773  30.580  1.00  0.00     0.049 A 
ATOM     62  C   UNL A   1      41.892  31.086  35.280  1.00  0.00     0.074 A 
ATOM     63  C   UNL A   1      43.126  28.510  30.460  1.00  0.00     0.029 A 
ATOM     64  N   UNL A   1      41.798  27.463  31.910  1.00  0.00    -0.354 N 
ATOM     65  N   UNL A   1      42.087  30.222  34.322  1.00  0.00    -0.248 NA
ATOM     66  C   UNL A   1      42.229  30.541  36.593  1.00  0.00     0.031 C 
ATOM     67  C   UNL A   1      43.584  28.777  31.776  1.00  0.00     0.029 A 
ATOM     68  C   UNL A   1      42.750  28.116  32.659  1.00  0.00     0.049 A 
ATOM     69  H   UNL A   1      41.105  26.866  32.271  1.00  0.00     0.167 HD
ATOM     70  C   UNL A   1      42.517  29.038  34.854  1.00  0.00     0.074 A 
ATOM     71  C   UNL A   1      42.611  29.291  36.278  1.00  0.00     0.031 C 
ATOM     72  C   UNL A   1      42.742  27.932  34.094  1.00  0.00     0.031 A 
BRANCH  59  73
ATOM     73  C   UNL A   1      40.804  26.865  28.401  1.00  0.00    -0.014 A 
ATOM     74  C   UNL A   1      41.497  27.313  27.264  1.00  0.00     0.009 A 
ATOM     75  C   UNL A   1      39.978  25.731  28.231  1.00  0.00     0.009 A 
ATOM     76  C   UNL A   1      41.285  26.734  25.999  1.00  0.00     0.001 A 
ATOM     77  C   UNL A   1      39.743  25.169  26.964  1.00  0.00     0.001 A 
ATOM     78  C   UNL A   1      40.381  25.686  25.842  1.00  0.00     0.000 A 
ENDBRANCH  59  73
BRANCH  60  79
ATOM     79  C   UNL A   1      40.347  33.183  35.937  1.00  0.00    -0.014 A 
ATOM     80  C   UNL A   1      40.640  34.508  36.340  1.00  0.00     0.009 A 
ATOM     81  C   UNL A   1      39.038  32.719  36.136  1.00  0.00     0.009 A 
ATOM     82  C   UNL A   1      39.648  35.368  36.821  1.00  0.00     0.001 A 
ATOM     83  C   UNL A   1      38.046  33.580  36.641  1.00  0.00     0.001 A 
ATOM     84  C   UNL A   1      38.345  34.906  36.960  1.00  0.00     0.000 A 
ENDBRANCH  60  79
BRANCH  72  85
ATOM     85  C   UNL A   1      42.988  26.541  34.605  1.00  0.00    -0.014 A 
ATOM     86  C   UNL A   1      41.993  25.742  35.178  1.00  0.00     0.009 A 
ATOM     87  C   UNL A   1      44.234  25.928  34.334  1.00  0.00     0.009 A 
ATOM     88  C   UNL A   1      42.247  24.404  35.504  1.00  0.00     0.001 A 
ATOM     89  C   UNL A   1      44.472  24.583  34.609  1.00  0.00     0.001 A 
ATOM     90  C   UNL A   1      43.479  23.823  35.210  1.00  0.00     0.000 A 
ENDBRANCH  72  85
ENDBRANCH  46  47
ENDBRANCH  39  41
ENDBRANCH  38  39
ENDBRANCH  37  38
ENDBRANCH  36  37
ENDBRANCH  35  36
ENDBRANCH  34  35
ENDBRANCH  33  34
ENDBRANCH   1  33
TORSDOF 22
ENDMDL
MODEL 2
REMARK VINA RESULT:     -10.8      5.784      9.825
REMARK SMILES Cc1ccc(S(=O)(=O)n2cc(C(=O)C(=O)NCC(=O)OCCOCCOCCOC(=O)c3ccc(-c4c5nc(c(-c6ccccc6)c6ccc([nH]6)c(-c6ccccc6)c6nc(c(-c7ccccc7)c7ccc4[nH]7)C=C6)C=C5)cc3)c3ccccc32)cc1
REMARK SMILES IDX 23 1 22 2 21 3 20 4 18 5 19 6 17 7 16 8 14 9 15 10 12 12
REMARK SMILES IDX 13 13 11 14 9 15 10 16 85 17 80 18 84 19 81 20 83 21 82 22
REMARK SMILES IDX 6 23 7 24 8 25 5 26 1 27 2 28 3 29 87 30 4 31 86 32 24 33
REMARK SMILES IDX 25 34 26 35 27 36 28 37 29 38 30 39 31 40 32 41 33 42 79 43
REMARK SMILES IDX 34 44 78 45 35 46 36 47 37 48 72 49 38 50 77 51 71 52 73 53
REMARK SMILES IDX 39 54 76 55 70 56 69 57 40 59 62 60 47 61 61 62 48 63 51 64
REMARK SMILES IDX 60 65 74 66 49 67 50 68 59 70 75 71 52 72 41 73 42 74 46 75
REMARK SMILES IDX 43 76 45 77 44 78 63 79 64 80 68 81 65 82 67 83 66 84 53 85
REMARK SMILES IDX 54 86 58 87 55 88 57 89 56 90
REMARK H PARENT 16 11 73 58 51 69
REMARK Flexibility Score: inf
ROOT
ATOM      1  O   UNL A   1      33.744  34.011  30.557  1.00  0.00    -0.376 OA
ENDROOT
BRANCH   1   2
ATOM      2  C   UNL A   1      34.223  33.572  29.281  1.00  0.00     0.202 C 
BRANCH   2   3
ATOM      3  C   UNL A   1      34.697  31.969  28.898  1.00  0.00     0.261 C 
BRANCH   3   4
ATOM      4  O   UNL A   1      34.049  31.056  27.754  1.00  0.00    -0.462 OA
BRANCH   4   5
ATOM      5  C   UNL A   1      32.924  30.822  26.989  1.00  0.00     0.325 C 
ATOM      6  O   UNL A   1      31.973  31.591  26.871  1.00  0.00    -0.250 OA
BRANCH   5   7
ATOM      7  C   UNL A   1      32.831  29.417  26.307  1.00  0.00     0.239 C 
BRANCH   7   8
ATOM      8  N   UNL A   1      33.515  29.427  25.042  1.00  0.00    -0.338 N 
ATOM      9  C   UNL A   1      32.998  28.924  23.879  1.00  0.00     0.292 C 
ATOM     10  O   UNL A   1      33.648  28.957  22.842  1.00  0.00    -0.265 OA
ATOM     11  H   UNL A   1      34.416  29.823  25.011  1.00  0.00     0.164 HD
BRANCH   9  12
ATOM     12  C   UNL A   1      31.601  28.269  23.923  1.00  0.00     0.252 C 
ATOM     13  O   UNL A   1      30.615  29.001  23.897  1.00  0.00    -0.283 OA
BRANCH  12  14
ATOM     14  C   UNL A   1      31.509  26.814  23.920  1.00  0.00     0.054 A 
ATOM     15  N   UNL A   1      31.373  24.761  24.751  1.00  0.00    -0.240 N 
ATOM     16  C   UNL A   1      31.041  26.068  24.983  1.00  0.00     0.117 A 
ATOM     17  C   UNL A   1      31.892  24.598  23.484  1.00  0.00     0.065 A 
ATOM     18  C   UNL A   1      31.934  25.882  22.915  1.00  0.00     0.012 A 
ATOM     19  C   UNL A   1      32.395  23.474  22.806  1.00  0.00     0.028 A 
ATOM     20  C   UNL A   1      32.427  26.021  21.599  1.00  0.00     0.011 A 
ATOM     21  C   UNL A   1      32.904  23.648  21.516  1.00  0.00     0.002 A 
ATOM     22  C   UNL A   1      32.902  24.899  20.911  1.00  0.00     0.001 A 
BRANCH  15  23
ATOM     23  S   UNL A   1      31.549  23.676  26.053  1.00  0.00     0.268 S 
ATOM     24  O   UNL A   1      30.652  22.553  25.747  1.00  0.00    -0.201 OA
ATOM     25  O   UNL A   1      31.402  24.455  27.243  1.00  0.00    -0.201 OA
BRANCH  23  26
ATOM     26  C   UNL A   1      33.217  23.070  25.982  1.00  0.00     0.088 A 
ATOM     27  C   UNL A   1      37.142  21.425  25.378  1.00  0.00     0.044 C 
ATOM     28  C   UNL A   1      35.781  21.995  25.644  1.00  0.00    -0.051 A 
ATOM     29  C   UNL A   1      34.655  21.166  25.599  1.00  0.00     0.005 A 
ATOM     30  C   UNL A   1      35.616  23.357  25.918  1.00  0.00     0.005 A 
ATOM     31  C   UNL A   1      33.375  21.698  25.766  1.00  0.00     0.022 A 
ATOM     32  C   UNL A   1      34.340  23.895  26.095  1.00  0.00     0.022 A 
ENDBRANCH  23  26
ENDBRANCH  15  23
ENDBRANCH  12  14
ENDBRANCH   9  12
ENDBRANCH   7   8
ENDBRANCH   5   7
ENDBRANCH   4   5
ENDBRANCH   3   4
ENDBRANCH   2   3
ENDBRANCH   1   2
BRANCH   1  33
ATOM     33  C   UNL A   1      34.495  34.055  31.789  1.00  0.00     0.188 C 
BRANCH  33  34
ATOM     34  C   UNL A   1      34.857  32.806  32.597  1.00  0.00     0.188 C 
BRANCH  34  35
ATOM     35  O   UNL A   1      36.064  32.235  32.131  1.00  0.00    -0.376 OA
BRANCH  35  36
ATOM     36  C   UNL A   1      37.231  32.647  32.832  1.00  0.00     0.202 C 
BRANCH  36  37
ATOM     37  C   UNL A   1      37.287  32.171  34.302  1.00  0.00     0.261 C 
BRANCH  37  38
ATOM     38  O   UNL A   1      38.280  32.911  35.055  1.00  0.00    -0.460 OA
BRANCH  38  39
ATOM     39  C   UNL A   1      39.606  32.619  34.839  1.00  0.00     0.338 C 
ATOM     40  O   UNL A   1      40.051  31.503  34.635  1.00  0.00    -0.246 OA
BRANCH  39  41
ATOM     41  C   UNL A   1      40.452  33.827  35.157  1.00  0.00     0.060 A 
ATOM     42  C   UNL A   1      40.045  35.171  35.162  1.00  0.00     0.016 A 
ATOM     43  C   UNL A   1      41.781  33.642  35.020  1.00  0.00     0.016 A 
ATOM     44  C   UNL A   1      40.980  36.273  34.892  1.00  0.00     0.010 A 
ATOM     45  C   UNL A   1      42.471  34.704  34.429  1.00  0.00     0.010 A 
ATOM     46  C   UNL A   1      42.286  36.078  34.427  1.00  0.00    -0.014 A 
BRANCH  46  47
ATOM     47  C   UNL A   1      43.235  37.100  33.652  1.00  0.00     0.031 A 
ATOM     48  C   UNL A   1      43.428  38.690  33.612  1.00  0.00     0.074 A 
ATOM     49  C   UNL A   1      44.122  36.512  32.815  1.00  0.00     0.049 A 
ATOM     50  N   UNL A   1      43.503  39.425  32.511  1.00  0.00    -0.248 NA
ATOM     51  C   UNL A   1      43.683  39.593  34.736  1.00  0.00     0.031 C 
ATOM     52  C   UNL A   1      45.207  37.119  32.047  1.00  0.00     0.029 A 
ATOM     53  N   UNL A   1      44.083  35.194  32.360  1.00  0.00    -0.354 N 
ATOM     54  C   UNL A   1      43.845  40.749  32.856  1.00  0.00     0.074 A 
ATOM     55  C   UNL A   1      43.800  40.822  34.259  1.00  0.00     0.031 C 
ATOM     56  C   UNL A   1      45.492  36.308  31.015  1.00  0.00     0.029 A 
ATOM     57  C   UNL A   1      44.540  35.209  31.040  1.00  0.00     0.049 A 
ATOM     58  H   UNL A   1      43.792  34.404  32.870  1.00  0.00     0.167 HD
ATOM     59  C   UNL A   1      44.346  41.742  32.065  1.00  0.00     0.031 A 
ATOM     60  C   UNL A   1      43.711  34.818  30.033  1.00  0.00     0.031 A 
ATOM     61  C   UNL A   1      44.771  41.219  30.808  1.00  0.00     0.049 A 
ATOM     62  C   UNL A   1      43.462  35.913  29.022  1.00  0.00     0.074 A 
ATOM     63  C   UNL A   1      45.989  40.723  30.385  1.00  0.00     0.029 A 
ATOM     64  N   UNL A   1      43.808  40.763  29.939  1.00  0.00    -0.354 N 
ATOM     65  N   UNL A   1      43.789  37.163  29.197  1.00  0.00    -0.248 NA
ATOM     66  C   UNL A   1      42.789  35.691  27.744  1.00  0.00     0.031 C 
ATOM     67  C   UNL A   1      45.722  39.821  29.324  1.00  0.00     0.029 A 
ATOM     68  C   UNL A   1      44.365  39.863  29.060  1.00  0.00     0.049 A 
ATOM     69  H   UNL A   1      42.863  41.038  29.946  1.00  0.00     0.167 HD
ATOM     70  C   UNL A   1      43.361  37.902  28.128  1.00  0.00     0.074 A 
ATOM     71  C   UNL A   1      42.759  36.934  27.234  1.00  0.00     0.031 C 
ATOM     72  C   UNL A   1      43.511  39.253  28.065  1.00  0.00     0.031 A 
BRANCH  59  73
ATOM     73  C   UNL A   1      44.734  43.086  32.660  1.00  0.00    -0.014 A 
ATOM     74  C   UNL A   1      45.980  43.292  33.278  1.00  0.00     0.009 A 
ATOM     75  C   UNL A   1      43.815  44.158  32.722  1.00  0.00     0.009 A 
ATOM     76  C   UNL A   1      46.248  44.457  34.020  1.00  0.00     0.001 A 
ATOM     77  C   UNL A   1      44.069  45.310  33.486  1.00  0.00     0.001 A 
ATOM     78  C   UNL A   1      45.280  45.450  34.154  1.00  0.00     0.000 A 
ENDBRANCH  59  73
BRANCH  60  79
ATOM     79  C   UNL A   1      42.770  33.709  30.395  1.00  0.00    -0.014 A 
ATOM     80  C   UNL A   1      41.484  34.066  30.868  1.00  0.00     0.009 A 
ATOM     81  C   UNL A   1      42.981  32.370  30.036  1.00  0.00     0.009 A 
ATOM     82  C   UNL A   1      40.425  33.152  30.883  1.00  0.00     0.001 A 
ATOM     83  C   UNL A   1      41.919  31.446  30.073  1.00  0.00     0.001 A 
ATOM     84  C   UNL A   1      40.641  31.843  30.472  1.00  0.00     0.000 A 
ENDBRANCH  60  79
BRANCH  72  85
ATOM     85  C   UNL A   1      42.875  40.168  27.057  1.00  0.00    -0.014 A 
ATOM     86  C   UNL A   1      43.582  40.788  26.022  1.00  0.00     0.009 A 
ATOM     87  C   UNL A   1      41.463  40.270  27.028  1.00  0.00     0.009 A 
ATOM     88  C   UNL A   1      42.912  41.513  25.029  1.00  0.00     0.001 A 
ATOM     89  C   UNL A   1      40.792  40.946  26.012  1.00  0.00     0.001 A 
ATOM     90  C   UNL A   1      41.520  41.582  25.018  1.00  0.00     0.000 A 
ENDBRANCH  72  85
ENDBRANCH  46  47
ENDBRANCH  39  41
ENDBRANCH  38  39
ENDBRANCH  37  38
ENDBRANCH  36  37
ENDBRANCH  35  36
ENDBRANCH  34  35
ENDBRANCH  33  34
ENDBRANCH   1  33
TORSDOF 22
ENDMDL
MODEL 3
REMARK VINA RESULT:     -10.2      4.943      8.417
REMARK SMILES Cc1ccc(S(=O)(=O)n2cc(C(=O)C(=O)NCC(=O)OCCOCCOCCOC(=O)c3ccc(-c4c5nc(c(-c6ccccc6)c6ccc([nH]6)c(-c6ccccc6)c6nc(c(-c7ccccc7)c7ccc4[nH]7)C=C6)C=C5)cc3)c3ccccc32)cc1
REMARK SMILES IDX 23 1 22 2 21 3 20 4 18 5 19 6 17 7 16 8 14 9 15 10 12 12
REMARK SMILES IDX 13 13 11 14 9 15 10 16 85 17 80 18 84 19 81 20 83 21 82 22
REMARK SMILES IDX 6 23 7 24 8 25 5 26 1 27 2 28 3 29 87 30 4 31 86 32 24 33
REMARK SMILES IDX 25 34 26 35 27 36 28 37 29 38 30 39 31 40 32 41 33 42 79 43
REMARK SMILES IDX 34 44 78 45 35 46 36 47 37 48 72 49 38 50 77 51 71 52 73 53
REMARK SMILES IDX 39 54 76 55 70 56 69 57 40 59 62 60 47 61 61 62 48 63 51 64
REMARK SMILES IDX 60 65 74 66 49 67 50 68 59 70 75 71 52 72 41 73 42 74 46 75
REMARK SMILES IDX 43 76 45 77 44 78 63 79 64 80 68 81 65 82 67 83 66 84 53 85
REMARK SMILES IDX 54 86 58 87 55 88 57 89 56 90
REMARK H PARENT 16 11 73 58 51 69
REMARK Flexibility Score: inf
ROOT
ATOM      1  O   UNL A   1      32.016  29.642  26.239  1.00  0.00    -0.376 OA
ENDROOT
BRANCH   1   2
ATOM      2  C   UNL A   1      32.247  29.634  24.827  1.00  0.00     0.202 C 
BRANCH   2   3
ATOM      3  C   UNL A   1      31.040  29.424  23.626  1.00  0.00     0.261 C 
BRANCH   3   4
ATOM      4  O   UNL A   1      29.922  28.278  23.622  1.00  0.00    -0.462 OA
BRANCH   4   5
ATOM      5  C   UNL A   1      29.674  26.934  23.427  1.00  0.00     0.325 C 
ATOM      6  O   UNL A   1      28.802  26.283  23.998  1.00  0.00    -0.250 OA
BRANCH   5   7
ATOM      7  C   UNL A   1      30.656  26.181  22.471  1.00  0.00     0.239 C 
BRANCH   7   8
ATOM      8  N   UNL A   1      31.829  26.975  22.228  1.00  0.00    -0.338 N 
ATOM      9  C   UNL A   1      33.088  26.465  22.060  1.00  0.00     0.292 C 
ATOM     10  O   UNL A   1      34.043  27.209  21.869  1.00  0.00    -0.265 OA
ATOM     11  H   UNL A   1      31.720  27.952  22.178  1.00  0.00     0.164 HD
BRANCH   9  12
ATOM     12  C   UNL A   1      33.279  24.937  22.171  1.00  0.00     0.252 C 
ATOM     13  O   UNL A   1      33.034  24.248  21.184  1.00  0.00    -0.283 OA
BRANCH  12  14
ATOM     14  C   UNL A   1      33.808  24.386  23.412  1.00  0.00     0.054 A 
ATOM     15  N   UNL A   1      35.079  23.127  24.726  1.00  0.00    -0.240 N 
ATOM     16  C   UNL A   1      35.043  23.779  23.523  1.00  0.00     0.117 A 
ATOM     17  C   UNL A   1      33.971  23.430  25.487  1.00  0.00     0.065 A 
ATOM     18  C   UNL A   1      33.176  24.275  24.696  1.00  0.00     0.012 A 
ATOM     19  C   UNL A   1      33.548  22.994  26.756  1.00  0.00     0.028 A 
ATOM     20  C   UNL A   1      31.959  24.753  25.231  1.00  0.00     0.011 A 
ATOM     21  C   UNL A   1      32.326  23.461  27.245  1.00  0.00     0.002 A 
ATOM     22  C   UNL A   1      31.549  24.343  26.504  1.00  0.00     0.001 A 
BRANCH  15  23
ATOM     23  S   UNL A   1      36.112  21.791  24.946  1.00  0.00     0.268 S 
ATOM     24  O   UNL A   1      36.505  21.832  26.362  1.00  0.00    -0.201 OA
ATOM     25  O   UNL A   1      37.078  21.856  23.894  1.00  0.00    -0.201 OA
BRANCH  23  26
ATOM     26  C   UNL A   1      35.117  20.339  24.704  1.00  0.00     0.088 A 
ATOM     27  C   UNL A   1      32.895  16.663  24.534  1.00  0.00     0.044 C 
ATOM     28  C   UNL A   1      33.667  17.949  24.538  1.00  0.00    -0.051 A 
ATOM     29  C   UNL A   1      35.065  17.925  24.610  1.00  0.00     0.005 A 
ATOM     30  C   UNL A   1      33.007  19.181  24.491  1.00  0.00     0.005 A 
ATOM     31  C   UNL A   1      35.791  19.114  24.694  1.00  0.00     0.022 A 
ATOM     32  C   UNL A   1      33.727  20.375  24.566  1.00  0.00     0.022 A 
ENDBRANCH  23  26
ENDBRANCH  15  23
ENDBRANCH  12  14
ENDBRANCH   9  12
ENDBRANCH   7   8
ENDBRANCH   5   7
ENDBRANCH   4   5
ENDBRANCH   3   4
ENDBRANCH   2   3
ENDBRANCH   1   2
BRANCH   1  33
ATOM     33  C   UNL A   1      32.189  30.762  27.133  1.00  0.00     0.188 C 
BRANCH  33  34
ATOM     34  C   UNL A   1      33.495  31.555  27.243  1.00  0.00     0.188 C 
BRANCH  34  35
ATOM     35  O   UNL A   1      34.341  31.001  28.232  1.00  0.00    -0.376 OA
BRANCH  35  36
ATOM     36  C   UNL A   1      35.303  30.074  27.745  1.00  0.00     0.202 C 
BRANCH  36  37
ATOM     37  C   UNL A   1      36.578  29.970  28.613  1.00  0.00     0.261 C 
BRANCH  37  38
ATOM     38  O   UNL A   1      37.508  29.004  28.065  1.00  0.00    -0.460 OA
BRANCH  38  39
ATOM     39  C   UNL A   1      38.565  28.604  28.848  1.00  0.00     0.338 C 
ATOM     40  O   UNL A   1      38.465  27.994  29.898  1.00  0.00    -0.246 OA
BRANCH  39  41
ATOM     41  C   UNL A   1      39.834  29.259  28.364  1.00  0.00     0.060 A 
ATOM     42  C   UNL A   1      40.556  28.954  27.199  1.00  0.00     0.016 A 
ATOM     43  C   UNL A   1      40.548  29.892  29.318  1.00  0.00     0.016 A 
ATOM     44  C   UNL A   1      42.006  29.177  27.095  1.00  0.00     0.010 A 
ATOM     45  C   UNL A   1      41.932  29.716  29.240  1.00  0.00     0.010 A 
ATOM     46  C   UNL A   1      42.811  29.525  28.186  1.00  0.00    -0.014 A 
BRANCH  46  47
ATOM     47  C   UNL A   1      44.386  29.341  28.365  1.00  0.00     0.031 A 
ATOM     48  C   UNL A   1      45.682  30.268  28.199  1.00  0.00     0.074 A 
ATOM     49  C   UNL A   1      44.760  28.104  28.771  1.00  0.00     0.049 A 
ATOM     50  N   UNL A   1      46.782  29.935  27.539  1.00  0.00    -0.248 NA
ATOM     51  C   UNL A   1      45.947  31.562  28.830  1.00  0.00     0.031 C 
ATOM     52  C   UNL A   1      46.086  27.619  29.148  1.00  0.00     0.029 A 
ATOM     53  N   UNL A   1      43.973  26.953  28.752  1.00  0.00    -0.354 N 
ATOM     54  C   UNL A   1      47.769  30.920  27.750  1.00  0.00     0.074 A 
ATOM     55  C   UNL A   1      47.143  31.974  28.438  1.00  0.00     0.031 C 
ATOM     56  C   UNL A   1      46.101  26.285  28.995  1.00  0.00     0.029 A 
ATOM     57  C   UNL A   1      44.820  25.890  28.431  1.00  0.00     0.049 A 
ATOM     58  H   UNL A   1      43.006  26.899  28.932  1.00  0.00     0.167 HD
ATOM     59  C   UNL A   1      49.117  30.843  27.557  1.00  0.00     0.031 A 
ATOM     60  C   UNL A   1      44.609  25.179  27.289  1.00  0.00     0.031 A 
ATOM     61  C   UNL A   1      49.519  29.491  27.346  1.00  0.00     0.049 A 
ATOM     62  C   UNL A   1      45.783  25.237  26.340  1.00  0.00     0.074 A 
ATOM     63  C   UNL A   1      49.924  28.505  28.226  1.00  0.00     0.029 A 
ATOM     64  N   UNL A   1      49.132  28.876  26.178  1.00  0.00    -0.354 N 
ATOM     65  N   UNL A   1      46.788  26.060  26.463  1.00  0.00    -0.248 NA
ATOM     66  C   UNL A   1      45.900  24.395  25.152  1.00  0.00     0.031 C 
ATOM     67  C   UNL A   1      49.623  27.259  27.618  1.00  0.00     0.029 A 
ATOM     68  C   UNL A   1      49.137  27.511  26.348  1.00  0.00     0.049 A 
ATOM     69  H   UNL A   1      48.888  29.343  25.346  1.00  0.00     0.167 HD
ATOM     70  C   UNL A   1      47.638  25.905  25.402  1.00  0.00     0.074 A 
ATOM     71  C   UNL A   1      47.052  24.837  24.618  1.00  0.00     0.031 C 
ATOM     72  C   UNL A   1      48.746  26.677  25.233  1.00  0.00     0.031 A 
BRANCH  59  73
ATOM     73  C   UNL A   1      50.024  32.004  27.934  1.00  0.00    -0.014 A 
ATOM     74  C   UNL A   1      50.334  33.029  27.024  1.00  0.00     0.009 A 
ATOM     75  C   UNL A   1      50.690  32.043  29.180  1.00  0.00     0.009 A 
ATOM     76  C   UNL A   1      51.341  33.973  27.296  1.00  0.00     0.001 A 
ATOM     77  C   UNL A   1      51.716  32.967  29.443  1.00  0.00     0.001 A 
ATOM     78  C   UNL A   1      52.057  33.920  28.490  1.00  0.00     0.000 A 
ENDBRANCH  59  73
BRANCH  60  79
ATOM     79  C   UNL A   1      43.168  25.013  26.914  1.00  0.00    -0.014 A 
ATOM     80  C   UNL A   1      42.314  24.376  27.847  1.00  0.00     0.009 A 
ATOM     81  C   UNL A   1      42.569  25.686  25.839  1.00  0.00     0.009 A 
ATOM     82  C   UNL A   1      40.923  24.494  27.771  1.00  0.00     0.001 A 
ATOM     83  C   UNL A   1      41.166  25.785  25.753  1.00  0.00     0.001 A 
ATOM     84  C   UNL A   1      40.348  25.211  26.729  1.00  0.00     0.000 A 
ENDBRANCH  60  79
BRANCH  72  85
ATOM     85  C   UNL A   1      49.601  26.739  24.000  1.00  0.00    -0.014 A 
ATOM     86  C   UNL A   1      49.119  27.118  22.743  1.00  0.00     0.009 A 
ATOM     87  C   UNL A   1      51.002  26.590  24.137  1.00  0.00     0.009 A 
ATOM     88  C   UNL A   1      49.992  27.297  21.663  1.00  0.00     0.001 A 
ATOM     89  C   UNL A   1      51.877  26.818  23.076  1.00  0.00     0.001 A 
ATOM     90  C   UNL A   1      51.368  27.159  21.833  1.00  0.00     0.000 A 
ENDBRANCH  72  85
ENDBRANCH  46  47
ENDBRANCH  39  41
ENDBRANCH  38  39
ENDBRANCH  37  38
ENDBRANCH  36  37
ENDBRANCH  35  36
ENDBRANCH  34  35
ENDBRANCH  33  34
ENDBRANCH   1  33
TORSDOF 22
ENDMDL
