MODEL 1
REMARK VINA RESULT:      -9.8      0.000      0.000
REMARK SMILES C[NH+]1CCN(c2nc3c(cc2F)c(=O)c(C(=O)OCCOCCOCCOC(=O)c2ccc(-c4c5nc(c(-c6ccccc6)c6ccc([nH]6)c(-c6ccccc6)c6nc(c(-c7ccccc7)c7ccc4[nH]7)C=C6)C=C5)cc2)cn3-c2ccc(F)cc2F)CC1
REMARK SMILES IDX 23 1 22 2 21 3 20 4 19 5 18 6 16 7 17 8 15 9 6 10 7 11 11 12
REMARK SMILES IDX 8 13 10 14 12 15 9 16 79 17 13 18 78 19 14 20 5 21 1 22 2 23
REMARK SMILES IDX 3 24 89 25 4 27 88 28 80 29 81 30 86 31 82 32 85 33 87 34
REMARK SMILES IDX 83 35 84 36 24 37 25 38 26 39 27 40 28 41 29 42 30 43 31 44
REMARK SMILES IDX 77 45 32 46 76 47 33 48 34 49 35 50 70 51 36 52 75 53 69 54
REMARK SMILES IDX 71 55 37 56 74 57 68 58 67 59 38 61 60 62 45 63 59 64 46 65
REMARK SMILES IDX 49 66 58 67 72 68 47 69 48 70 57 72 73 73 50 74 39 75 40 76
REMARK SMILES IDX 44 77 41 78 43 79 42 80 61 81 62 82 66 83 63 84 65 85 64 86
REMARK SMILES IDX 51 87 52 88 56 89 53 90 55 91 54 92
REMARK H PARENT 2 26 71 60 49 71
REMARK Flexibility Score: inf
ROOT
ATOM      1  C   UNL A   1      35.611  33.154  33.681  1.00  0.00     0.188 C 
ENDROOT
BRANCH   1   2
ATOM      2  C   UNL A   1      35.080  32.784  32.278  1.00  0.00     0.188 C 
BRANCH   2   3
ATOM      3  O   UNL A   1      33.963  33.446  31.715  1.00  0.00    -0.376 OA
BRANCH   3   4
ATOM      4  C   UNL A   1      33.891  34.864  31.737  1.00  0.00     0.202 C 
BRANCH   4   5
ATOM      5  C   UNL A   1      33.339  35.604  30.521  1.00  0.00     0.261 C 
BRANCH   5   6
ATOM      6  O   UNL A   1      32.907  34.709  29.490  1.00  0.00    -0.459 OA
BRANCH   6   7
ATOM      7  C   UNL A   1      33.805  34.449  28.513  1.00  0.00     0.343 C 
ATOM      8  O   UNL A   1      34.660  35.217  28.093  1.00  0.00    -0.246 OA
BRANCH   7   9
ATOM      9  C   UNL A   1      33.740  33.037  28.108  1.00  0.00     0.124 A 
ATOM     10  C   UNL A   1      33.211  28.545  25.868  1.00  0.00     0.167 A 
ATOM     11  N   UNL A   1      34.117  29.047  26.741  1.00  0.00    -0.209 NA
ATOM     12  C   UNL A   1      32.032  29.238  25.566  1.00  0.00     0.166 A 
ATOM     13  C   UNL A   1      33.920  30.298  27.244  1.00  0.00     0.151 A 
ATOM     14  C   UNL A   1      31.786  30.478  26.120  1.00  0.00     0.059 A 
ATOM     15  F   UNL A   1      31.128  28.719  24.721  1.00  0.00    -0.203 F 
ATOM     16  C   UNL A   1      32.761  31.030  26.940  1.00  0.00     0.069 A 
ATOM     17  N   UNL A   1      34.931  30.914  28.054  1.00  0.00    -0.297 N 
ATOM     18  C   UNL A   1      32.598  32.421  27.408  1.00  0.00     0.205 A 
ATOM     19  C   UNL A   1      34.788  32.252  28.397  1.00  0.00     0.113 A 
ATOM     20  O   UNL A   1      31.571  33.037  27.153  1.00  0.00    -0.288 OA
BRANCH  10  21
ATOM     21  N   UNL A   1      33.478  27.360  25.229  1.00  0.00    -0.343 N 
ATOM     22  C   UNL A   1      32.810  23.884  22.967  1.00  0.00     0.332 C 
ATOM     23  N   UNL A   1      33.536  24.916  23.705  1.00  0.00    -0.334 N 
ATOM     24  C   UNL A   1      33.092  24.957  25.124  1.00  0.00     0.283 C 
ATOM     25  C   UNL A   1      33.314  26.235  23.065  1.00  0.00     0.283 C 
ATOM     26  H   UNL A   1      34.532  24.693  23.687  1.00  0.00     0.347 HD
ATOM     27  C   UNL A   1      33.725  26.117  25.946  1.00  0.00     0.179 C 
ATOM     28  C   UNL A   1      33.957  27.393  23.849  1.00  0.00     0.179 C 
ENDBRANCH  10  21
BRANCH  17  29
ATOM     29  C   UNL A   1      36.149  30.247  28.368  1.00  0.00     0.083 A 
ATOM     30  C   UNL A   1      37.144  30.100  27.389  1.00  0.00     0.033 A 
ATOM     31  C   UNL A   1      36.396  29.745  29.656  1.00  0.00     0.150 A 
ATOM     32  C   UNL A   1      38.352  29.473  27.699  1.00  0.00     0.041 A 
ATOM     33  C   UNL A   1      37.594  29.113  29.971  1.00  0.00     0.080 A 
ATOM     34  F   UNL A   1      35.462  29.874  30.612  1.00  0.00    -0.205 F 
ATOM     35  C   UNL A   1      38.563  28.985  28.985  1.00  0.00     0.126 A 
ATOM     36  F   UNL A   1      39.724  28.383  29.274  1.00  0.00    -0.207 F 
ENDBRANCH  17  29
ENDBRANCH   7   9
ENDBRANCH   6   7
ENDBRANCH   5   6
ENDBRANCH   4   5
ENDBRANCH   3   4
ENDBRANCH   2   3
ENDBRANCH   1   2
BRANCH   1  37
ATOM     37  O   UNL A   1      36.599  32.379  34.325  1.00  0.00    -0.376 OA
BRANCH  37  38
ATOM     38  C   UNL A   1      37.632  33.007  35.067  1.00  0.00     0.202 C 
BRANCH  38  39
ATOM     39  C   UNL A   1      39.031  32.393  35.143  1.00  0.00     0.261 C 
BRANCH  39  40
ATOM     40  O   UNL A   1      39.230  31.271  34.274  1.00  0.00    -0.460 OA
BRANCH  40  41
ATOM     41  C   UNL A   1      40.002  30.283  34.788  1.00  0.00     0.338 C 
ATOM     42  O   UNL A   1      39.963  29.804  35.905  1.00  0.00    -0.246 OA
BRANCH  41  43
ATOM     43  C   UNL A   1      40.855  29.739  33.722  1.00  0.00     0.060 A 
ATOM     44  C   UNL A   1      41.730  28.690  34.030  1.00  0.00     0.016 A 
ATOM     45  C   UNL A   1      40.854  30.326  32.456  1.00  0.00     0.016 A 
ATOM     46  C   UNL A   1      42.624  28.229  33.067  1.00  0.00     0.010 A 
ATOM     47  C   UNL A   1      41.777  29.889  31.505  1.00  0.00     0.010 A 
ATOM     48  C   UNL A   1      42.683  28.861  31.819  1.00  0.00    -0.014 A 
BRANCH  48  49
ATOM     49  C   UNL A   1      43.827  28.593  30.924  1.00  0.00     0.031 A 
ATOM     50  C   UNL A   1      43.735  27.426  29.983  1.00  0.00     0.074 A 
ATOM     51  C   UNL A   1      44.917  29.379  30.929  1.00  0.00     0.049 A 
ATOM     52  N   UNL A   1      44.642  26.947  29.172  1.00  0.00    -0.248 NA
ATOM     53  C   UNL A   1      42.447  26.712  29.939  1.00  0.00     0.031 C 
ATOM     54  C   UNL A   1      45.084  30.592  31.727  1.00  0.00     0.029 A 
ATOM     55  N   UNL A   1      46.092  29.266  30.231  1.00  0.00    -0.354 N 
ATOM     56  C   UNL A   1      44.035  25.879  28.524  1.00  0.00     0.074 A 
ATOM     57  C   UNL A   1      42.689  25.770  29.039  1.00  0.00     0.031 C 
ATOM     58  C   UNL A   1      46.300  31.109  31.478  1.00  0.00     0.029 A 
ATOM     59  C   UNL A   1      47.007  30.242  30.536  1.00  0.00     0.049 A 
ATOM     60  H   UNL A   1      46.262  28.552  29.574  1.00  0.00     0.167 HD
ATOM     61  C   UNL A   1      44.556  25.062  27.583  1.00  0.00     0.031 A 
ATOM     62  C   UNL A   1      48.278  30.400  30.118  1.00  0.00     0.031 A 
ATOM     63  C   UNL A   1      45.900  25.151  27.091  1.00  0.00     0.049 A 
ATOM     64  C   UNL A   1      48.877  29.403  29.164  1.00  0.00     0.074 A 
ATOM     65  C   UNL A   1      46.529  24.339  26.164  1.00  0.00     0.029 A 
ATOM     66  N   UNL A   1      46.821  26.107  27.485  1.00  0.00    -0.354 N 
ATOM     67  N   UNL A   1      48.312  28.366  28.594  1.00  0.00    -0.248 NA
ATOM     68  C   UNL A   1      50.290  29.592  28.802  1.00  0.00     0.031 C 
ATOM     69  C   UNL A   1      47.847  24.781  26.025  1.00  0.00     0.029 A 
ATOM     70  C   UNL A   1      48.019  25.898  26.827  1.00  0.00     0.049 A 
ATOM     71  H   UNL A   1      46.649  26.826  28.134  1.00  0.00     0.167 HD
ATOM     72  C   UNL A   1      49.288  27.797  27.787  1.00  0.00     0.074 A 
ATOM     73  C   UNL A   1      50.483  28.601  27.939  1.00  0.00     0.031 C 
ATOM     74  C   UNL A   1      49.197  26.710  26.984  1.00  0.00     0.031 A 
BRANCH  61  75
ATOM     75  C   UNL A   1      43.678  23.978  27.036  1.00  0.00    -0.014 A 
ATOM     76  C   UNL A   1      43.158  24.064  25.737  1.00  0.00     0.009 A 
ATOM     77  C   UNL A   1      43.444  22.820  27.794  1.00  0.00     0.009 A 
ATOM     78  C   UNL A   1      42.415  23.009  25.206  1.00  0.00     0.001 A 
ATOM     79  C   UNL A   1      42.717  21.760  27.253  1.00  0.00     0.001 A 
ATOM     80  C   UNL A   1      42.203  21.855  25.960  1.00  0.00     0.000 A 
ENDBRANCH  61  75
BRANCH  62  81
ATOM     81  C   UNL A   1      49.074  31.551  30.612  1.00  0.00    -0.014 A 
ATOM     82  C   UNL A   1      49.837  31.435  31.783  1.00  0.00     0.009 A 
ATOM     83  C   UNL A   1      49.094  32.764  29.905  1.00  0.00     0.009 A 
ATOM     84  C   UNL A   1      50.600  32.511  32.239  1.00  0.00     0.001 A 
ATOM     85  C   UNL A   1      49.873  33.832  30.353  1.00  0.00     0.001 A 
ATOM     86  C   UNL A   1      50.624  33.706  31.521  1.00  0.00     0.000 A 
ENDBRANCH  62  81
BRANCH  74  87
ATOM     87  C   UNL A   1      50.398  26.327  26.170  1.00  0.00    -0.014 A 
ATOM     88  C   UNL A   1      50.677  26.960  24.951  1.00  0.00     0.009 A 
ATOM     89  C   UNL A   1      51.326  25.415  26.697  1.00  0.00     0.009 A 
ATOM     90  C   UNL A   1      51.865  26.682  24.271  1.00  0.00     0.001 A 
ATOM     91  C   UNL A   1      52.522  25.155  26.026  1.00  0.00     0.001 A 
ATOM     92  C   UNL A   1      52.790  25.789  24.814  1.00  0.00     0.000 A 
ENDBRANCH  74  87
ENDBRANCH  48  49
ENDBRANCH  41  43
ENDBRANCH  40  41
ENDBRANCH  39  40
ENDBRANCH  38  39
ENDBRANCH  37  38
ENDBRANCH   1  37
TORSDOF 19
ENDMDL
MODEL 2
REMARK VINA RESULT:      -9.5      3.466      4.979
REMARK SMILES C[NH+]1CCN(c2nc3c(cc2F)c(=O)c(C(=O)OCCOCCOCCOC(=O)c2ccc(-c4c5nc(c(-c6ccccc6)c6ccc([nH]6)c(-c6ccccc6)c6nc(c(-c7ccccc7)c7ccc4[nH]7)C=C6)C=C5)cc2)cn3-c2ccc(F)cc2F)CC1
REMARK SMILES IDX 23 1 22 2 21 3 20 4 19 5 18 6 16 7 17 8 15 9 6 10 7 11 11 12
REMARK SMILES IDX 8 13 10 14 12 15 9 16 79 17 13 18 78 19 14 20 5 21 1 22 2 23
REMARK SMILES IDX 3 24 89 25 4 27 88 28 80 29 81 30 86 31 82 32 85 33 87 34
REMARK SMILES IDX 83 35 84 36 24 37 25 38 26 39 27 40 28 41 29 42 30 43 31 44
REMARK SMILES IDX 77 45 32 46 76 47 33 48 34 49 35 50 70 51 36 52 75 53 69 54
REMARK SMILES IDX 71 55 37 56 74 57 68 58 67 59 38 61 60 62 45 63 59 64 46 65
REMARK SMILES IDX 49 66 58 67 72 68 47 69 48 70 57 72 73 73 50 74 39 75 40 76
REMARK SMILES IDX 44 77 41 78 43 79 42 80 61 81 62 82 66 83 63 84 65 85 64 86
REMARK SMILES IDX 51 87 52 88 56 89 53 90 55 91 54 92
REMARK H PARENT 2 26 71 60 49 71
REMARK Flexibility Score: inf
ROOT
ATOM      1  C   UNL A   1      35.150  34.174  34.180  1.00  0.00     0.188 C 
ENDROOT
BRANCH   1   2
ATOM      2  C   UNL A   1      34.065  33.556  33.269  1.00  0.00     0.188 C 
BRANCH   2   3
ATOM      3  O   UNL A   1      32.991  34.332  32.774  1.00  0.00    -0.376 OA
BRANCH   3   4
ATOM      4  C   UNL A   1      33.223  35.655  32.312  1.00  0.00     0.202 C 
BRANCH   4   5
ATOM      5  C   UNL A   1      32.527  36.137  31.040  1.00  0.00     0.261 C 
BRANCH   5   6
ATOM      6  O   UNL A   1      32.528  35.141  30.010  1.00  0.00    -0.459 OA
BRANCH   6   7
ATOM      7  C   UNL A   1      33.532  35.218  29.108  1.00  0.00     0.343 C 
ATOM      8  O   UNL A   1      33.770  36.165  28.370  1.00  0.00    -0.246 OA
BRANCH   7   9
ATOM      9  C   UNL A   1      34.433  34.062  29.230  1.00  0.00     0.124 A 
ATOM     10  C   UNL A   1      37.393  30.011  28.691  1.00  0.00     0.167 A 
ATOM     11  N   UNL A   1      37.470  31.122  29.460  1.00  0.00    -0.209 NA
ATOM     12  C   UNL A   1      36.229  29.703  27.974  1.00  0.00     0.166 A 
ATOM     13  C   UNL A   1      36.433  32.006  29.444  1.00  0.00     0.151 A 
ATOM     14  C   UNL A   1      35.144  30.555  28.001  1.00  0.00     0.059 A 
ATOM     15  F   UNL A   1      36.152  28.585  27.236  1.00  0.00    -0.203 F 
ATOM     16  C   UNL A   1      35.263  31.740  28.715  1.00  0.00     0.069 A 
ATOM     17  N   UNL A   1      36.546  33.259  30.132  1.00  0.00    -0.297 N 
ATOM     18  C   UNL A   1      34.184  32.743  28.622  1.00  0.00     0.205 A 
ATOM     19  C   UNL A   1      35.556  34.215  29.946  1.00  0.00     0.113 A 
ATOM     20  O   UNL A   1      33.160  32.486  28.001  1.00  0.00    -0.288 OA
BRANCH  10  21
ATOM     21  N   UNL A   1      38.492  29.198  28.570  1.00  0.00    -0.343 N 
ATOM     22  C   UNL A   1      42.390  27.753  29.172  1.00  0.00     0.332 C 
ATOM     23  N   UNL A   1      41.006  27.797  28.703  1.00  0.00    -0.334 N 
ATOM     24  C   UNL A   1      40.794  28.965  27.807  1.00  0.00     0.283 C 
ATOM     25  C   UNL A   1      40.089  27.876  29.865  1.00  0.00     0.283 C 
ATOM     26  H   UNL A   1      40.811  26.947  28.174  1.00  0.00     0.347 HD
ATOM     27  C   UNL A   1      39.313  29.158  27.368  1.00  0.00     0.179 C 
ATOM     28  C   UNL A   1      38.616  28.039  29.452  1.00  0.00     0.179 C 
ENDBRANCH  10  21
BRANCH  17  29
ATOM     29  C   UNL A   1      37.720  33.612  30.857  1.00  0.00     0.083 A 
ATOM     30  C   UNL A   1      37.826  33.300  32.221  1.00  0.00     0.033 A 
ATOM     31  C   UNL A   1      38.801  34.252  30.228  1.00  0.00     0.150 A 
ATOM     32  C   UNL A   1      38.987  33.618  32.930  1.00  0.00     0.041 A 
ATOM     33  C   UNL A   1      39.957  34.578  30.929  1.00  0.00     0.080 A 
ATOM     34  F   UNL A   1      38.727  34.559  28.924  1.00  0.00    -0.205 F 
ATOM     35  C   UNL A   1      40.038  34.255  32.277  1.00  0.00     0.126 A 
ATOM     36  F   UNL A   1      41.147  34.558  32.964  1.00  0.00    -0.207 F 
ENDBRANCH  17  29
ENDBRANCH   7   9
ENDBRANCH   6   7
ENDBRANCH   5   6
ENDBRANCH   4   5
ENDBRANCH   3   4
ENDBRANCH   2   3
ENDBRANCH   1   2
BRANCH   1  37
ATOM     37  O   UNL A   1      35.953  33.372  35.020  1.00  0.00    -0.376 OA
BRANCH  37  38
ATOM     38  C   UNL A   1      36.315  33.828  36.313  1.00  0.00     0.202 C 
BRANCH  38  39
ATOM     39  C   UNL A   1      37.431  33.143  37.105  1.00  0.00     0.261 C 
BRANCH  39  40
ATOM     40  O   UNL A   1      38.403  32.474  36.293  1.00  0.00    -0.460 OA
BRANCH  40  41
ATOM     41  C   UNL A   1      39.678  32.901  36.463  1.00  0.00     0.338 C 
ATOM     42  O   UNL A   1      40.094  33.728  37.252  1.00  0.00    -0.246 OA
BRANCH  41  43
ATOM     43  C   UNL A   1      40.569  32.099  35.613  1.00  0.00     0.060 A 
ATOM     44  C   UNL A   1      41.921  32.453  35.532  1.00  0.00     0.016 A 
ATOM     45  C   UNL A   1      40.049  31.064  34.834  1.00  0.00     0.016 A 
ATOM     46  C   UNL A   1      42.762  31.777  34.653  1.00  0.00     0.010 A 
ATOM     47  C   UNL A   1      40.886  30.413  33.927  1.00  0.00     0.010 A 
ATOM     48  C   UNL A   1      42.235  30.788  33.813  1.00  0.00    -0.014 A 
BRANCH  48  49
ATOM     49  C   UNL A   1      43.039  30.300  32.674  1.00  0.00     0.031 A 
ATOM     50  C   UNL A   1      43.644  28.928  32.768  1.00  0.00     0.074 A 
ATOM     51  C   UNL A   1      43.212  31.046  31.570  1.00  0.00     0.049 A 
ATOM     52  N   UNL A   1      44.455  28.326  31.938  1.00  0.00    -0.248 NA
ATOM     53  C   UNL A   1      43.279  28.124  33.947  1.00  0.00     0.031 C 
ATOM     54  C   UNL A   1      42.599  32.350  31.323  1.00  0.00     0.029 A 
ATOM     55  N   UNL A   1      43.961  30.804  30.448  1.00  0.00    -0.354 N 
ATOM     56  C   UNL A   1      44.694  27.075  32.492  1.00  0.00     0.074 A 
ATOM     57  C   UNL A   1      43.956  27.005  33.733  1.00  0.00     0.031 C 
ATOM     58  C   UNL A   1      43.005  32.797  30.121  1.00  0.00     0.029 A 
ATOM     59  C   UNL A   1      43.934  31.830  29.538  1.00  0.00     0.049 A 
ATOM     60  H   UNL A   1      44.470  29.972  30.308  1.00  0.00     0.167 HD
ATOM     61  C   UNL A   1      45.462  26.075  32.009  1.00  0.00     0.031 A 
ATOM     62  C   UNL A   1      44.603  31.980  28.378  1.00  0.00     0.031 A 
ATOM     63  C   UNL A   1      46.218  26.154  30.791  1.00  0.00     0.049 A 
ATOM     64  C   UNL A   1      45.551  30.904  27.922  1.00  0.00     0.074 A 
ATOM     65  C   UNL A   1      47.058  25.203  30.241  1.00  0.00     0.029 A 
ATOM     66  N   UNL A   1      46.225  27.244  29.938  1.00  0.00    -0.354 N 
ATOM     67  N   UNL A   1      45.811  29.745  28.479  1.00  0.00    -0.248 NA
ATOM     68  C   UNL A   1      46.305  31.159  26.685  1.00  0.00     0.031 C 
ATOM     69  C   UNL A   1      47.606  25.733  29.071  1.00  0.00     0.029 A 
ATOM     70  C   UNL A   1      47.065  26.993  28.869  1.00  0.00     0.049 A 
ATOM     71  H   UNL A   1      45.709  28.072  30.071  1.00  0.00     0.167 HD
ATOM     72  C   UNL A   1      46.733  29.123  27.647  1.00  0.00     0.074 A 
ATOM     73  C   UNL A   1      46.990  30.030  26.549  1.00  0.00     0.031 C 
ATOM     74  C   UNL A   1      47.306  27.903  27.780  1.00  0.00     0.031 A 
BRANCH  61  75
ATOM     75  C   UNL A   1      45.549  24.811  32.808  1.00  0.00    -0.014 A 
ATOM     76  C   UNL A   1      46.591  24.613  33.725  1.00  0.00     0.009 A 
ATOM     77  C   UNL A   1      44.530  23.851  32.707  1.00  0.00     0.009 A 
ATOM     78  C   UNL A   1      46.612  23.471  34.528  1.00  0.00     0.001 A 
ATOM     79  C   UNL A   1      44.545  22.721  33.525  1.00  0.00     0.001 A 
ATOM     80  C   UNL A   1      45.585  22.532  34.434  1.00  0.00     0.000 A 
ENDBRANCH  61  75
BRANCH  62  81
ATOM     81  C   UNL A   1      44.405  33.208  27.569  1.00  0.00    -0.014 A 
ATOM     82  C   UNL A   1      44.861  34.448  28.040  1.00  0.00     0.009 A 
ATOM     83  C   UNL A   1      43.778  33.146  26.314  1.00  0.00     0.009 A 
ATOM     84  C   UNL A   1      44.690  35.602  27.273  1.00  0.00     0.001 A 
ATOM     85  C   UNL A   1      43.626  34.298  25.541  1.00  0.00     0.001 A 
ATOM     86  C   UNL A   1      44.079  35.526  26.021  1.00  0.00     0.000 A 
ENDBRANCH  62  81
BRANCH  74  87
ATOM     87  C   UNL A   1      48.245  27.440  26.706  1.00  0.00    -0.014 A 
ATOM     88  C   UNL A   1      49.621  27.690  26.791  1.00  0.00     0.009 A 
ATOM     89  C   UNL A   1      47.759  26.630  25.666  1.00  0.00     0.009 A 
ATOM     90  C   UNL A   1      50.495  27.141  25.850  1.00  0.00     0.001 A 
ATOM     91  C   UNL A   1      48.637  26.065  24.740  1.00  0.00     0.001 A 
ATOM     92  C   UNL A   1      50.004  26.322  24.832  1.00  0.00     0.000 A 
ENDBRANCH  74  87
ENDBRANCH  48  49
ENDBRANCH  41  43
ENDBRANCH  40  41
ENDBRANCH  39  40
ENDBRANCH  38  39
ENDBRANCH  37  38
ENDBRANCH   1  37
TORSDOF 19
ENDMDL
MODEL 3
REMARK VINA RESULT:      -9.2      9.654     16.615
REMARK SMILES C[NH+]1CCN(c2nc3c(cc2F)c(=O)c(C(=O)OCCOCCOCCOC(=O)c2ccc(-c4c5nc(c(-c6ccccc6)c6ccc([nH]6)c(-c6ccccc6)c6nc(c(-c7ccccc7)c7ccc4[nH]7)C=C6)C=C5)cc2)cn3-c2ccc(F)cc2F)CC1
REMARK SMILES IDX 23 1 22 2 21 3 20 4 19 5 18 6 16 7 17 8 15 9 6 10 7 11 11 12
REMARK SMILES IDX 8 13 10 14 12 15 9 16 79 17 13 18 78 19 14 20 5 21 1 22 2 23
REMARK SMILES IDX 3 24 89 25 4 27 88 28 80 29 81 30 86 31 82 32 85 33 87 34
REMARK SMILES IDX 83 35 84 36 24 37 25 38 26 39 27 40 28 41 29 42 30 43 31 44
REMARK SMILES IDX 77 45 32 46 76 47 33 48 34 49 35 50 70 51 36 52 75 53 69 54
REMARK SMILES IDX 71 55 37 56 74 57 68 58 67 59 38 61 60 62 45 63 59 64 46 65
REMARK SMILES IDX 49 66 58 67 72 68 47 69 48 70 57 72 73 73 50 74 39 75 40 76
REMARK SMILES IDX 44 77 41 78 43 79 42 80 61 81 62 82 66 83 63 84 65 85 64 86
REMARK SMILES IDX 51 87 52 88 56 89 53 90 55 91 54 92
REMARK H PARENT 2 26 71 60 49 71
REMARK Flexibility Score: inf
ROOT
ATOM      1  C   UNL A   1      50.692  25.828  36.792  1.00  0.00     0.188 C 
ENDROOT
BRANCH   1   2
ATOM      2  C   UNL A   1      50.464  24.677  37.796  1.00  0.00     0.188 C 
BRANCH   2   3
ATOM      3  O   UNL A   1      49.172  24.378  38.292  1.00  0.00    -0.376 OA
BRANCH   3   4
ATOM      4  C   UNL A   1      49.026  23.574  39.454  1.00  0.00     0.202 C 
BRANCH   4   5
ATOM      5  C   UNL A   1      49.415  22.098  39.397  1.00  0.00     0.261 C 
BRANCH   5   6
ATOM      6  O   UNL A   1      48.520  21.271  40.149  1.00  0.00    -0.459 OA
BRANCH   6   7
ATOM      7  C   UNL A   1      48.633  19.938  39.951  1.00  0.00     0.343 C 
ATOM      8  O   UNL A   1      49.658  19.335  39.661  1.00  0.00    -0.246 OA
BRANCH   7   9
ATOM      9  C   UNL A   1      47.378  19.252  40.292  1.00  0.00     0.124 A 
ATOM     10  C   UNL A   1      43.425  16.178  40.916  1.00  0.00     0.167 A 
ATOM     11  N   UNL A   1      44.070  17.040  41.737  1.00  0.00    -0.209 NA
ATOM     12  C   UNL A   1      43.687  16.151  39.540  1.00  0.00     0.166 A 
ATOM     13  C   UNL A   1      45.067  17.814  41.224  1.00  0.00     0.151 A 
ATOM     14  C   UNL A   1      44.648  16.977  38.993  1.00  0.00     0.059 A 
ATOM     15  F   UNL A   1      43.023  15.311  38.731  1.00  0.00    -0.203 F 
ATOM     16  C   UNL A   1      45.373  17.792  39.854  1.00  0.00     0.069 A 
ATOM     17  N   UNL A   1      45.864  18.629  42.094  1.00  0.00    -0.297 N 
ATOM     18  C   UNL A   1      46.516  18.557  39.319  1.00  0.00     0.205 A 
ATOM     19  C   UNL A   1      46.987  19.260  41.575  1.00  0.00     0.113 A 
ATOM     20  O   UNL A   1      46.755  18.545  38.118  1.00  0.00    -0.288 OA
BRANCH  10  21
ATOM     21  N   UNL A   1      42.535  15.279  41.449  1.00  0.00    -0.343 N 
ATOM     22  C   UNL A   1      41.099  11.709  43.135  1.00  0.00     0.332 C 
ATOM     23  N   UNL A   1      41.104  13.093  42.663  1.00  0.00    -0.334 N 
ATOM     24  C   UNL A   1      41.381  13.148  41.203  1.00  0.00     0.283 C 
ATOM     25  C   UNL A   1      42.128  13.868  43.404  1.00  0.00     0.283 C 
ATOM     26  H   UNL A   1      40.183  13.501  42.831  1.00  0.00     0.347 HD
ATOM     27  C   UNL A   1      41.533  14.593  40.647  1.00  0.00     0.179 C 
ATOM     28  C   UNL A   1      42.273  15.310  42.887  1.00  0.00     0.179 C 
ENDBRANCH  10  21
BRANCH  17  29
ATOM     29  C   UNL A   1      45.637  18.669  43.499  1.00  0.00     0.083 A 
ATOM     30  C   UNL A   1      46.341  17.802  44.350  1.00  0.00     0.033 A 
ATOM     31  C   UNL A   1      44.735  19.582  44.067  1.00  0.00     0.150 A 
ATOM     32  C   UNL A   1      46.144  17.857  45.732  1.00  0.00     0.041 A 
ATOM     33  C   UNL A   1      44.529  19.637  45.442  1.00  0.00     0.080 A 
ATOM     34  F   UNL A   1      44.051  20.424  43.276  1.00  0.00    -0.205 F 
ATOM     35  C   UNL A   1      45.240  18.772  46.262  1.00  0.00     0.126 A 
ATOM     36  F   UNL A   1      45.055  18.817  47.588  1.00  0.00    -0.207 F 
ENDBRANCH  17  29
ENDBRANCH   7   9
ENDBRANCH   6   7
ENDBRANCH   5   6
ENDBRANCH   4   5
ENDBRANCH   3   4
ENDBRANCH   2   3
ENDBRANCH   1   2
BRANCH   1  37
ATOM     37  O   UNL A   1      49.873  25.989  35.654  1.00  0.00    -0.376 OA
BRANCH  37  38
ATOM     38  C   UNL A   1      49.413  24.854  34.936  1.00  0.00     0.202 C 
BRANCH  38  39
ATOM     39  C   UNL A   1      47.949  24.417  35.010  1.00  0.00     0.261 C 
BRANCH  39  40
ATOM     40  O   UNL A   1      47.092  25.341  35.693  1.00  0.00    -0.460 OA
BRANCH  40  41
ATOM     41  C   UNL A   1      45.848  24.874  35.958  1.00  0.00     0.338 C 
ATOM     42  O   UNL A   1      45.538  23.859  36.550  1.00  0.00    -0.246 OA
BRANCH  41  43
ATOM     43  C   UNL A   1      44.861  25.875  35.530  1.00  0.00     0.060 A 
ATOM     44  C   UNL A   1      43.502  25.537  35.561  1.00  0.00     0.016 A 
ATOM     45  C   UNL A   1      45.284  27.102  35.016  1.00  0.00     0.016 A 
ATOM     46  C   UNL A   1      42.555  26.427  35.061  1.00  0.00     0.010 A 
ATOM     47  C   UNL A   1      44.337  27.976  34.481  1.00  0.00     0.010 A 
ATOM     48  C   UNL A   1      42.976  27.627  34.476  1.00  0.00    -0.014 A 
BRANCH  48  49
ATOM     49  C   UNL A   1      42.019  28.414  33.669  1.00  0.00     0.031 A 
ATOM     50  C   UNL A   1      41.189  29.453  34.367  1.00  0.00     0.074 A 
ATOM     51  C   UNL A   1      41.905  28.227  32.344  1.00  0.00     0.049 A 
ATOM     52  N   UNL A   1      40.229  30.199  33.887  1.00  0.00    -0.248 NA
ATOM     53  C   UNL A   1      41.488  29.693  35.789  1.00  0.00     0.031 C 
ATOM     54  C   UNL A   1      42.720  27.317  31.541  1.00  0.00     0.029 A 
ATOM     55  N   UNL A   1      41.047  28.802  31.441  1.00  0.00    -0.354 N 
ATOM     56  C   UNL A   1      39.811  30.995  34.946  1.00  0.00     0.074 A 
ATOM     57  C   UNL A   1      40.610  30.637  36.096  1.00  0.00     0.031 C 
ATOM     58  C   UNL A   1      42.316  27.392  30.260  1.00  0.00     0.029 A 
ATOM     59  C   UNL A   1      41.192  28.322  30.164  1.00  0.00     0.049 A 
ATOM     60  H   UNL A   1      40.391  29.494  31.687  1.00  0.00     0.167 HD
ATOM     61  C   UNL A   1      38.845  31.939  34.957  1.00  0.00     0.031 A 
ATOM     62  C   UNL A   1      40.479  28.587  29.052  1.00  0.00     0.031 A 
ATOM     63  C   UNL A   1      38.032  32.276  33.824  1.00  0.00     0.049 A 
ATOM     64  C   UNL A   1      39.326  29.551  29.119  1.00  0.00     0.074 A 
ATOM     65  C   UNL A   1      37.001  33.194  33.753  1.00  0.00     0.029 A 
ATOM     66  N   UNL A   1      38.159  31.707  32.568  1.00  0.00    -0.354 N 
ATOM     67  N   UNL A   1      38.905  30.262  30.137  1.00  0.00    -0.248 NA
ATOM     68  C   UNL A   1      38.545  29.743  27.888  1.00  0.00     0.031 C 
ATOM     69  C   UNL A   1      36.475  33.154  32.460  1.00  0.00     0.029 A 
ATOM     70  C   UNL A   1      37.214  32.249  31.716  1.00  0.00     0.049 A 
ATOM     71  H   UNL A   1      38.821  31.023  32.319  1.00  0.00     0.167 HD
ATOM     72  C   UNL A   1      37.832  31.005  29.664  1.00  0.00     0.074 A 
ATOM     73  C   UNL A   1      37.662  30.659  28.268  1.00  0.00     0.031 C 
ATOM     74  C   UNL A   1      37.062  31.900  30.328  1.00  0.00     0.031 A 
BRANCH  61  75
ATOM     75  C   UNL A   1      38.593  32.665  36.243  1.00  0.00    -0.014 A 
ATOM     76  C   UNL A   1      37.827  32.077  37.260  1.00  0.00     0.009 A 
ATOM     77  C   UNL A   1      39.201  33.909  36.473  1.00  0.00     0.009 A 
ATOM     78  C   UNL A   1      37.673  32.725  38.487  1.00  0.00     0.001 A 
ATOM     79  C   UNL A   1      39.060  34.544  37.707  1.00  0.00     0.001 A 
ATOM     80  C   UNL A   1      38.296  33.952  38.712  1.00  0.00     0.000 A 
ENDBRANCH  61  75
BRANCH  62  81
ATOM     81  C   UNL A   1      40.835  27.917  27.776  1.00  0.00    -0.014 A 
ATOM     82  C   UNL A   1      41.655  28.565  26.841  1.00  0.00     0.009 A 
ATOM     83  C   UNL A   1      40.375  26.621  27.495  1.00  0.00     0.009 A 
ATOM     84  C   UNL A   1      42.004  27.930  25.647  1.00  0.00     0.001 A 
ATOM     85  C   UNL A   1      40.741  25.981  26.309  1.00  0.00     0.001 A 
ATOM     86  C   UNL A   1      41.553  26.637  25.385  1.00  0.00     0.000 A 
ENDBRANCH  62  81
BRANCH  74  87
ATOM     87  C   UNL A   1      35.982  32.610  29.565  1.00  0.00    -0.014 A 
ATOM     88  C   UNL A   1      36.177  33.910  29.078  1.00  0.00     0.009 A 
ATOM     89  C   UNL A   1      34.810  31.918  29.220  1.00  0.00     0.009 A 
ATOM     90  C   UNL A   1      35.213  34.506  28.262  1.00  0.00     0.001 A 
ATOM     91  C   UNL A   1      33.859  32.507  28.387  1.00  0.00     0.001 A 
ATOM     92  C   UNL A   1      34.061  33.801  27.909  1.00  0.00     0.000 A 
ENDBRANCH  74  87
ENDBRANCH  48  49
ENDBRANCH  41  43
ENDBRANCH  40  41
ENDBRANCH  39  40
ENDBRANCH  38  39
ENDBRANCH  37  38
ENDBRANCH   1  37
TORSDOF 19
ENDMDL
