MODEL 1
REMARK VINA RESULT:      -9.1      0.000      0.000
REMARK SMILES CC[C@H](NC(=O)Cc1c(C)c2cc(Cl)c(OC)cc2oc1=O)C(=O)OCCOCCOCCOC(=O)c1ccc(-c2c3nc(c(-c4ccccc4)c4ccc([nH]4)c(-c4ccccc4)c4nc(c(-c5ccccc5)c5ccc2[nH]5)C=C4)C=C3)cc1
REMARK SMILES IDX 29 1 28 2 27 3 26 4 25 5 23 6 24 7 3 8 2 9 1 10 4 11 5 12
REMARK SMILES IDX 6 14 7 15 8 16 9 17 21 18 10 19 11 20 20 21 22 22 12 23
REMARK SMILES IDX 19 24 13 25 18 26 14 27 15 28 16 29 17 30 30 31 31 32 32 33
REMARK SMILES IDX 33 34 34 35 35 36 36 37 37 38 38 39 84 40 39 41 83 42 40 43
REMARK SMILES IDX 41 44 42 45 77 46 43 47 82 48 76 49 78 50 44 51 81 52 75 53
REMARK SMILES IDX 74 54 45 56 67 57 52 58 66 59 53 60 56 61 65 62 79 63 54 64
REMARK SMILES IDX 55 65 64 67 80 68 57 69 46 70 47 71 51 72 48 73 50 74 49 75
REMARK SMILES IDX 68 76 69 77 73 78 70 79 72 80 71 81 58 82 59 83 63 84 60 85
REMARK SMILES IDX 62 86 61 87
REMARK H PARENT 4 13 78 55 56 66
REMARK Flexibility Score: inf
ROOT
ATOM      1  C   UNL A   1      37.101  22.380  26.119  1.00  0.00     0.188 C 
ENDROOT
BRANCH   1   2
ATOM      2  O   UNL A   1      36.704  21.841  24.870  1.00  0.00    -0.376 OA
BRANCH   2   3
ATOM      3  C   UNL A   1      36.446  20.450  24.784  1.00  0.00     0.202 C 
BRANCH   3   4
ATOM      4  C   UNL A   1      34.986  20.014  24.912  1.00  0.00     0.261 C 
BRANCH   4   5
ATOM      5  O   UNL A   1      34.044  21.074  24.642  1.00  0.00    -0.462 OA
BRANCH   5   6
ATOM      6  C   UNL A   1      33.441  21.626  25.731  1.00  0.00     0.328 C 
ATOM      7  O   UNL A   1      33.595  21.220  26.879  1.00  0.00    -0.250 OA
BRANCH   6   8
ATOM      8  C   UNL A   1      32.381  22.694  25.372  1.00  0.00     0.192 C 
BRANCH   8   9
ATOM      9  C   UNL A   1      31.287  22.554  26.453  1.00  0.00     0.033 C 
ATOM     10  C   UNL A   1      30.487  23.827  26.681  1.00  0.00     0.007 C 
ENDBRANCH   8   9
BRANCH   8  11
ATOM     11  N   UNL A   1      31.766  22.736  24.030  1.00  0.00    -0.342 N 
ATOM     12  C   UNL A   1      31.261  23.859  23.411  1.00  0.00     0.225 C 
ATOM     13  H   UNL A   1      31.712  21.887  23.535  1.00  0.00     0.164 HD
ATOM     14  O   UNL A   1      30.143  23.805  22.900  1.00  0.00    -0.275 OA
BRANCH  12  15
ATOM     15  C   UNL A   1      32.167  25.076  23.211  1.00  0.00     0.143 C 
BRANCH  15  16
ATOM     16  C   UNL A   1      32.227  26.153  24.261  1.00  0.00     0.051 A 
ATOM     17  C   UNL A   1      31.525  27.312  24.350  1.00  0.00    -0.029 A 
ATOM     18  C   UNL A   1      33.473  26.093  25.067  1.00  0.00     0.340 A 
ATOM     19  C   UNL A   1      30.478  27.766  23.363  1.00  0.00     0.046 C 
ATOM     20  C   UNL A   1      31.954  28.291  25.387  1.00  0.00     0.023 A 
ATOM     21  O   UNL A   1      33.373  26.563  26.341  1.00  0.00    -0.422 OA
ATOM     22  O   UNL A   1      34.514  25.639  24.608  1.00  0.00    -0.246 OA
ATOM     23  C   UNL A   1      31.513  29.615  25.487  1.00  0.00     0.036 A 
ATOM     24  C   UNL A   1      32.920  27.878  26.310  1.00  0.00     0.142 A 
ATOM     25  C   UNL A   1      32.076  30.488  26.438  1.00  0.00     0.083 A 
ATOM     26  C   UNL A   1      33.516  28.742  27.229  1.00  0.00     0.095 A 
ATOM     27  Cl  UNL A   1      31.404  32.074  26.578  1.00  0.00    -0.080 Cl
ATOM     28  C   UNL A   1      33.127  30.075  27.272  1.00  0.00     0.141 A 
BRANCH  28  29
ATOM     29  O   UNL A   1      33.695  31.007  28.099  1.00  0.00    -0.495 OA
ATOM     30  C   UNL A   1      34.852  31.684  27.615  1.00  0.00     0.278 C 
ENDBRANCH  28  29
ENDBRANCH  15  16
ENDBRANCH  12  15
ENDBRANCH   8  11
ENDBRANCH   6   8
ENDBRANCH   5   6
ENDBRANCH   4   5
ENDBRANCH   3   4
ENDBRANCH   2   3
ENDBRANCH   1   2
BRANCH   1  31
ATOM     31  C   UNL A   1      37.508  23.865  26.232  1.00  0.00     0.188 C 
BRANCH  31  32
ATOM     32  O   UNL A   1      38.860  24.239  26.050  1.00  0.00    -0.376 OA
BRANCH  32  33
ATOM     33  C   UNL A   1      39.857  23.358  26.546  1.00  0.00     0.202 C 
BRANCH  33  34
ATOM     34  C   UNL A   1      41.201  24.005  26.890  1.00  0.00     0.261 C 
BRANCH  34  35
ATOM     35  O   UNL A   1      41.909  24.429  25.703  1.00  0.00    -0.460 OA
BRANCH  35  36
ATOM     36  C   UNL A   1      42.841  23.561  25.242  1.00  0.00     0.338 C 
ATOM     37  O   UNL A   1      42.666  22.408  24.888  1.00  0.00    -0.246 OA
BRANCH  36  38
ATOM     38  C   UNL A   1      44.150  24.220  25.092  1.00  0.00     0.060 A 
ATOM     39  C   UNL A   1      44.326  25.555  25.440  1.00  0.00     0.016 A 
ATOM     40  C   UNL A   1      45.260  23.431  24.807  1.00  0.00     0.016 A 
ATOM     41  C   UNL A   1      45.626  26.083  25.527  1.00  0.00     0.010 A 
ATOM     42  C   UNL A   1      46.551  23.943  24.948  1.00  0.00     0.010 A 
ATOM     43  C   UNL A   1      46.761  25.272  25.328  1.00  0.00    -0.014 A 
BRANCH  43  44
ATOM     44  C   UNL A   1      48.147  25.763  25.613  1.00  0.00     0.031 A 
ATOM     45  C   UNL A   1      48.749  25.709  27.000  1.00  0.00     0.074 A 
ATOM     46  C   UNL A   1      48.841  26.388  24.636  1.00  0.00     0.049 A 
ATOM     47  N   UNL A   1      49.944  26.082  27.396  1.00  0.00    -0.248 NA
ATOM     48  C   UNL A   1      47.894  25.223  28.094  1.00  0.00     0.031 C 
ATOM     49  C   UNL A   1      48.330  26.688  23.295  1.00  0.00     0.029 A 
ATOM     50  N   UNL A   1      50.111  26.913  24.627  1.00  0.00    -0.354 N 
ATOM     51  C   UNL A   1      49.972  25.896  28.773  1.00  0.00     0.074 A 
ATOM     52  C   UNL A   1      48.653  25.445  29.157  1.00  0.00     0.031 C 
ATOM     53  C   UNL A   1      49.283  27.319  22.590  1.00  0.00     0.029 A 
ATOM     54  C   UNL A   1      50.465  27.491  23.430  1.00  0.00     0.049 A 
ATOM     55  H   UNL A   1      50.714  26.877  25.406  1.00  0.00     0.167 HD
ATOM     56  C   UNL A   1      51.003  26.063  29.638  1.00  0.00     0.031 A 
ATOM     57  C   UNL A   1      51.603  28.100  23.040  1.00  0.00     0.031 A 
ATOM     58  C   UNL A   1      52.325  26.484  29.250  1.00  0.00     0.049 A 
ATOM     59  C   UNL A   1      52.771  28.176  23.982  1.00  0.00     0.074 A 
ATOM     60  C   UNL A   1      53.475  26.513  30.021  1.00  0.00     0.029 A 
ATOM     61  N   UNL A   1      52.672  26.960  27.996  1.00  0.00    -0.354 N 
ATOM     62  N   UNL A   1      52.842  27.807  25.236  1.00  0.00    -0.248 NA
ATOM     63  C   UNL A   1      54.034  28.707  23.442  1.00  0.00     0.031 C 
ATOM     64  C   UNL A   1      54.501  27.068  29.256  1.00  0.00     0.029 A 
ATOM     65  C   UNL A   1      54.015  27.301  27.981  1.00  0.00     0.049 A 
ATOM     66  H   UNL A   1      52.058  27.042  27.231  1.00  0.00     0.167 HD
ATOM     67  C   UNL A   1      54.158  28.027  25.625  1.00  0.00     0.074 A 
ATOM     68  C   UNL A   1      54.856  28.551  24.471  1.00  0.00     0.031 C 
ATOM     69  C   UNL A   1      54.726  27.802  26.833  1.00  0.00     0.031 A 
BRANCH  56  70
ATOM     70  C   UNL A   1      50.777  25.757  31.100  1.00  0.00    -0.014 A 
ATOM     71  C   UNL A   1      50.512  26.801  32.004  1.00  0.00     0.009 A 
ATOM     72  C   UNL A   1      50.948  24.459  31.607  1.00  0.00     0.009 A 
ATOM     73  C   UNL A   1      50.430  26.553  33.377  1.00  0.00     0.001 A 
ATOM     74  C   UNL A   1      50.825  24.207  32.976  1.00  0.00     0.001 A 
ATOM     75  C   UNL A   1      50.578  25.255  33.860  1.00  0.00     0.000 A 
ENDBRANCH  56  70
BRANCH  57  76
ATOM     76  C   UNL A   1      51.709  28.623  21.652  1.00  0.00    -0.014 A 
ATOM     77  C   UNL A   1      51.444  29.972  21.369  1.00  0.00     0.009 A 
ATOM     78  C   UNL A   1      52.025  27.757  20.593  1.00  0.00     0.009 A 
ATOM     79  C   UNL A   1      51.479  30.440  20.053  1.00  0.00     0.001 A 
ATOM     80  C   UNL A   1      52.085  28.233  19.282  1.00  0.00     0.001 A 
ATOM     81  C   UNL A   1      51.803  29.571  19.012  1.00  0.00     0.000 A 
ENDBRANCH  57  76
BRANCH  69  82
ATOM     82  C   UNL A   1      56.201  28.053  26.993  1.00  0.00    -0.014 A 
ATOM     83  C   UNL A   1      56.651  29.364  27.230  1.00  0.00     0.009 A 
ATOM     84  C   UNL A   1      57.148  27.039  26.791  1.00  0.00     0.009 A 
ATOM     85  C   UNL A   1      58.016  29.658  27.236  1.00  0.00     0.001 A 
ATOM     86  C   UNL A   1      58.514  27.330  26.829  1.00  0.00     0.001 A 
ATOM     87  C   UNL A   1      58.946  28.640  27.038  1.00  0.00     0.000 A 
ENDBRANCH  69  82
ENDBRANCH  43  44
ENDBRANCH  36  38
ENDBRANCH  35  36
ENDBRANCH  34  35
ENDBRANCH  33  34
ENDBRANCH  32  33
ENDBRANCH  31  32
ENDBRANCH   1  31
TORSDOF 22
ENDMDL
MODEL 2
REMARK VINA RESULT:      -8.8      5.081      8.002
REMARK SMILES CC[C@H](NC(=O)Cc1c(C)c2cc(Cl)c(OC)cc2oc1=O)C(=O)OCCOCCOCCOC(=O)c1ccc(-c2c3nc(c(-c4ccccc4)c4ccc([nH]4)c(-c4ccccc4)c4nc(c(-c5ccccc5)c5ccc2[nH]5)C=C4)C=C3)cc1
REMARK SMILES IDX 29 1 28 2 27 3 26 4 25 5 23 6 24 7 3 8 2 9 1 10 4 11 5 12
REMARK SMILES IDX 6 14 7 15 8 16 9 17 21 18 10 19 11 20 20 21 22 22 12 23
REMARK SMILES IDX 19 24 13 25 18 26 14 27 15 28 16 29 17 30 30 31 31 32 32 33
REMARK SMILES IDX 33 34 34 35 35 36 36 37 37 38 38 39 84 40 39 41 83 42 40 43
REMARK SMILES IDX 41 44 42 45 77 46 43 47 82 48 76 49 78 50 44 51 81 52 75 53
REMARK SMILES IDX 74 54 45 56 67 57 52 58 66 59 53 60 56 61 65 62 79 63 54 64
REMARK SMILES IDX 55 65 64 67 80 68 57 69 46 70 47 71 51 72 48 73 50 74 49 75
REMARK SMILES IDX 68 76 69 77 73 78 70 79 72 80 71 81 58 82 59 83 63 84 60 85
REMARK SMILES IDX 62 86 61 87
REMARK H PARENT 4 13 78 55 56 66
REMARK Flexibility Score: inf
ROOT
ATOM      1  C   UNL A   1      40.979  29.081  28.694  1.00  0.00     0.188 C 
ENDROOT
BRANCH   1   2
ATOM      2  O   UNL A   1      41.075  29.571  30.020  1.00  0.00    -0.376 OA
BRANCH   2   3
ATOM      3  C   UNL A   1      39.902  29.604  30.816  1.00  0.00     0.202 C 
BRANCH   3   4
ATOM      4  C   UNL A   1      39.428  30.981  31.283  1.00  0.00     0.261 C 
BRANCH   4   5
ATOM      5  O   UNL A   1      39.554  31.178  32.707  1.00  0.00    -0.462 OA
BRANCH   5   6
ATOM      6  C   UNL A   1      38.439  30.918  33.446  1.00  0.00     0.328 C 
ATOM      7  O   UNL A   1      38.236  29.857  34.027  1.00  0.00    -0.250 OA
BRANCH   6   8
ATOM      8  C   UNL A   1      37.352  32.012  33.325  1.00  0.00     0.192 C 
BRANCH   8   9
ATOM      9  C   UNL A   1      37.226  32.612  34.742  1.00  0.00     0.033 C 
ATOM     10  C   UNL A   1      36.291  33.809  34.817  1.00  0.00     0.007 C 
ENDBRANCH   8   9
BRANCH   8  11
ATOM     11  N   UNL A   1      36.014  31.699  32.785  1.00  0.00    -0.342 N 
ATOM     12  C   UNL A   1      35.402  32.340  31.729  1.00  0.00     0.225 C 
ATOM     13  H   UNL A   1      35.515  30.969  33.217  1.00  0.00     0.164 HD
ATOM     14  O   UNL A   1      34.238  32.720  31.856  1.00  0.00    -0.275 OA
BRANCH  12  15
ATOM     15  C   UNL A   1      36.112  32.399  30.375  1.00  0.00     0.143 C 
BRANCH  15  16
ATOM     16  C   UNL A   1      35.596  31.588  29.216  1.00  0.00     0.051 A 
ATOM     17  C   UNL A   1      34.560  31.844  28.376  1.00  0.00    -0.029 A 
ATOM     18  C   UNL A   1      36.049  30.174  29.265  1.00  0.00     0.340 A 
ATOM     19  C   UNL A   1      33.683  33.070  28.435  1.00  0.00     0.046 C 
ATOM     20  C   UNL A   1      34.143  30.751  27.455  1.00  0.00     0.023 A 
ATOM     21  O   UNL A   1      36.170  29.553  28.059  1.00  0.00    -0.422 OA
ATOM     22  O   UNL A   1      36.303  29.616  30.326  1.00  0.00    -0.246 OA
ATOM     23  C   UNL A   1      32.974  30.738  26.686  1.00  0.00     0.036 A 
ATOM     24  C   UNL A   1      34.953  29.613  27.388  1.00  0.00     0.142 A 
ATOM     25  C   UNL A   1      32.620  29.597  25.939  1.00  0.00     0.083 A 
ATOM     26  C   UNL A   1      34.594  28.461  26.687  1.00  0.00     0.095 A 
ATOM     27  Cl  UNL A   1      31.224  29.695  24.926  1.00  0.00    -0.080 Cl
ATOM     28  C   UNL A   1      33.396  28.428  25.986  1.00  0.00     0.141 A 
BRANCH  28  29
ATOM     29  O   UNL A   1      32.935  27.325  25.318  1.00  0.00    -0.495 OA
ATOM     30  C   UNL A   1      33.384  26.053  25.779  1.00  0.00     0.278 C 
ENDBRANCH  28  29
ENDBRANCH  15  16
ENDBRANCH  12  15
ENDBRANCH   8  11
ENDBRANCH   6   8
ENDBRANCH   5   6
ENDBRANCH   4   5
ENDBRANCH   3   4
ENDBRANCH   2   3
ENDBRANCH   1   2
BRANCH   1  31
ATOM     31  C   UNL A   1      39.649  28.494  28.175  1.00  0.00     0.188 C 
BRANCH  31  32
ATOM     32  O   UNL A   1      39.499  27.094  28.053  1.00  0.00    -0.376 OA
BRANCH  32  33
ATOM     33  C   UNL A   1      40.129  26.460  26.949  1.00  0.00     0.202 C 
BRANCH  33  34
ATOM     34  C   UNL A   1      40.310  24.945  27.070  1.00  0.00     0.261 C 
BRANCH  34  35
ATOM     35  O   UNL A   1      41.389  24.467  26.235  1.00  0.00    -0.460 OA
BRANCH  35  36
ATOM     36  C   UNL A   1      42.454  23.957  26.899  1.00  0.00     0.338 C 
ATOM     37  O   UNL A   1      42.514  22.898  27.498  1.00  0.00    -0.246 OA
BRANCH  36  38
ATOM     38  C   UNL A   1      43.645  24.808  26.720  1.00  0.00     0.060 A 
ATOM     39  C   UNL A   1      43.986  25.310  25.469  1.00  0.00     0.016 A 
ATOM     40  C   UNL A   1      44.296  25.282  27.854  1.00  0.00     0.016 A 
ATOM     41  C   UNL A   1      44.967  26.313  25.370  1.00  0.00     0.010 A 
ATOM     42  C   UNL A   1      45.228  26.317  27.758  1.00  0.00     0.010 A 
ATOM     43  C   UNL A   1      45.569  26.865  26.519  1.00  0.00    -0.014 A 
BRANCH  43  44
ATOM     44  C   UNL A   1      46.462  28.066  26.447  1.00  0.00     0.031 A 
ATOM     45  C   UNL A   1      47.970  27.945  26.406  1.00  0.00     0.074 A 
ATOM     46  C   UNL A   1      45.919  29.300  26.546  1.00  0.00     0.049 A 
ATOM     47  N   UNL A   1      48.871  28.895  26.326  1.00  0.00    -0.248 NA
ATOM     48  C   UNL A   1      48.546  26.596  26.519  1.00  0.00     0.031 C 
ATOM     49  C   UNL A   1      44.500  29.584  26.777  1.00  0.00     0.029 A 
ATOM     50  N   UNL A   1      46.499  30.546  26.497  1.00  0.00    -0.354 N 
ATOM     51  C   UNL A   1      50.108  28.263  26.399  1.00  0.00     0.074 A 
ATOM     52  C   UNL A   1      49.843  26.857  26.602  1.00  0.00     0.031 C 
ATOM     53  C   UNL A   1      44.318  30.913  26.826  1.00  0.00     0.029 A 
ATOM     54  C   UNL A   1      45.605  31.580  26.652  1.00  0.00     0.049 A 
ATOM     55  H   UNL A   1      47.464  30.685  26.362  1.00  0.00     0.167 HD
ATOM     56  C   UNL A   1      51.349  28.797  26.287  1.00  0.00     0.031 A 
ATOM     57  C   UNL A   1      45.787  32.916  26.663  1.00  0.00     0.031 A 
ATOM     58  C   UNL A   1      51.611  30.195  26.056  1.00  0.00     0.049 A 
ATOM     59  C   UNL A   1      47.156  33.487  26.427  1.00  0.00     0.074 A 
ATOM     60  C   UNL A   1      52.819  30.801  25.754  1.00  0.00     0.029 A 
ATOM     61  N   UNL A   1      50.661  31.202  26.112  1.00  0.00    -0.354 N 
ATOM     62  N   UNL A   1      48.298  32.858  26.297  1.00  0.00    -0.248 NA
ATOM     63  C   UNL A   1      47.259  34.949  26.291  1.00  0.00     0.031 C 
ATOM     64  C   UNL A   1      52.614  32.180  25.693  1.00  0.00     0.029 A 
ATOM     65  C   UNL A   1      51.263  32.426  25.868  1.00  0.00     0.049 A 
ATOM     66  H   UNL A   1      49.704  31.069  26.296  1.00  0.00     0.167 HD
ATOM     67  C   UNL A   1      49.245  33.839  26.030  1.00  0.00     0.074 A 
ATOM     68  C   UNL A   1      48.545  35.105  26.004  1.00  0.00     0.031 C 
ATOM     69  C   UNL A   1      50.573  33.689  25.817  1.00  0.00     0.031 A 
BRANCH  56  70
ATOM     70  C   UNL A   1      52.543  27.876  26.372  1.00  0.00    -0.014 A 
ATOM     71  C   UNL A   1      52.999  27.208  25.222  1.00  0.00     0.009 A 
ATOM     72  C   UNL A   1      53.140  27.570  27.605  1.00  0.00     0.009 A 
ATOM     73  C   UNL A   1      54.018  26.255  25.307  1.00  0.00     0.001 A 
ATOM     74  C   UNL A   1      54.186  26.648  27.682  1.00  0.00     0.001 A 
ATOM     75  C   UNL A   1      54.616  25.982  26.535  1.00  0.00     0.000 A 
ENDBRANCH  56  70
BRANCH  57  76
ATOM     76  C   UNL A   1      44.609  33.808  26.835  1.00  0.00    -0.014 A 
ATOM     77  C   UNL A   1      43.919  34.310  25.720  1.00  0.00     0.009 A 
ATOM     78  C   UNL A   1      44.203  34.204  28.119  1.00  0.00     0.009 A 
ATOM     79  C   UNL A   1      42.856  35.202  25.888  1.00  0.00     0.001 A 
ATOM     80  C   UNL A   1      43.125  35.075  28.284  1.00  0.00     0.001 A 
ATOM     81  C   UNL A   1      42.458  35.580  27.169  1.00  0.00     0.000 A 
ENDBRANCH  57  76
BRANCH  69  82
ATOM     82  C   UNL A   1      51.389  34.905  25.471  1.00  0.00    -0.014 A 
ATOM     83  C   UNL A   1      51.892  35.712  26.508  1.00  0.00     0.009 A 
ATOM     84  C   UNL A   1      51.560  35.326  24.144  1.00  0.00     0.009 A 
ATOM     85  C   UNL A   1      52.524  36.924  26.225  1.00  0.00     0.001 A 
ATOM     86  C   UNL A   1      52.221  36.525  23.863  1.00  0.00     0.001 A 
ATOM     87  C   UNL A   1      52.690  37.328  24.903  1.00  0.00     0.000 A 
ENDBRANCH  69  82
ENDBRANCH  43  44
ENDBRANCH  36  38
ENDBRANCH  35  36
ENDBRANCH  34  35
ENDBRANCH  33  34
ENDBRANCH  32  33
ENDBRANCH  31  32
ENDBRANCH   1  31
TORSDOF 22
ENDMDL
MODEL 3
REMARK VINA RESULT:      -8.5      4.307      5.955
REMARK SMILES CC[C@H](NC(=O)Cc1c(C)c2cc(Cl)c(OC)cc2oc1=O)C(=O)OCCOCCOCCOC(=O)c1ccc(-c2c3nc(c(-c4ccccc4)c4ccc([nH]4)c(-c4ccccc4)c4nc(c(-c5ccccc5)c5ccc2[nH]5)C=C4)C=C3)cc1
REMARK SMILES IDX 29 1 28 2 27 3 26 4 25 5 23 6 24 7 3 8 2 9 1 10 4 11 5 12
REMARK SMILES IDX 6 14 7 15 8 16 9 17 21 18 10 19 11 20 20 21 22 22 12 23
REMARK SMILES IDX 19 24 13 25 18 26 14 27 15 28 16 29 17 30 30 31 31 32 32 33
REMARK SMILES IDX 33 34 34 35 35 36 36 37 37 38 38 39 84 40 39 41 83 42 40 43
REMARK SMILES IDX 41 44 42 45 77 46 43 47 82 48 76 49 78 50 44 51 81 52 75 53
REMARK SMILES IDX 74 54 45 56 67 57 52 58 66 59 53 60 56 61 65 62 79 63 54 64
REMARK SMILES IDX 55 65 64 67 80 68 57 69 46 70 47 71 51 72 48 73 50 74 49 75
REMARK SMILES IDX 68 76 69 77 73 78 70 79 72 80 71 81 58 82 59 83 63 84 60 85
REMARK SMILES IDX 62 86 61 87
REMARK H PARENT 4 13 78 55 56 66
REMARK Flexibility Score: inf
ROOT
ATOM      1  C   UNL A   1      38.203  22.980  26.287  1.00  0.00     0.188 C 
ENDROOT
BRANCH   1   2
ATOM      2  O   UNL A   1      37.734  22.824  24.960  1.00  0.00    -0.376 OA
BRANCH   2   3
ATOM      3  C   UNL A   1      37.342  21.532  24.527  1.00  0.00     0.202 C 
BRANCH   3   4
ATOM      4  C   UNL A   1      36.005  21.008  25.053  1.00  0.00     0.261 C 
BRANCH   4   5
ATOM      5  O   UNL A   1      34.908  21.923  24.845  1.00  0.00    -0.462 OA
BRANCH   5   6
ATOM      6  C   UNL A   1      33.852  21.789  25.696  1.00  0.00     0.328 C 
ATOM      7  O   UNL A   1      33.752  20.893  26.528  1.00  0.00    -0.250 OA
BRANCH   6   8
ATOM      8  C   UNL A   1      32.686  22.757  25.385  1.00  0.00     0.192 C 
BRANCH   8   9
ATOM      9  C   UNL A   1      31.663  22.533  26.520  1.00  0.00     0.033 C 
ATOM     10  C   UNL A   1      30.804  23.752  26.818  1.00  0.00     0.007 C 
ENDBRANCH   8   9
BRANCH   8  11
ATOM     11  N   UNL A   1      32.004  22.733  24.076  1.00  0.00    -0.342 N 
ATOM     12  C   UNL A   1      31.406  23.811  23.459  1.00  0.00     0.225 C 
ATOM     13  H   UNL A   1      31.973  21.871  23.602  1.00  0.00     0.164 HD
ATOM     14  O   UNL A   1      30.269  23.684  23.007  1.00  0.00    -0.275 OA
BRANCH  12  15
ATOM     15  C   UNL A   1      32.231  25.071  23.187  1.00  0.00     0.143 C 
BRANCH  15  16
ATOM     16  C   UNL A   1      32.296  26.168  24.217  1.00  0.00     0.051 A 
ATOM     17  C   UNL A   1      31.540  27.290  24.331  1.00  0.00    -0.029 A 
ATOM     18  C   UNL A   1      33.590  26.187  24.946  1.00  0.00     0.340 A 
ATOM     19  C   UNL A   1      30.413  27.671  23.404  1.00  0.00     0.046 C 
ATOM     20  C   UNL A   1      31.977  28.307  25.327  1.00  0.00     0.023 A 
ATOM     21  O   UNL A   1      33.541  26.672  26.218  1.00  0.00    -0.422 OA
ATOM     22  O   UNL A   1      34.624  25.780  24.432  1.00  0.00    -0.246 OA
ATOM     23  C   UNL A   1      31.473  29.608  25.435  1.00  0.00     0.036 A 
ATOM     24  C   UNL A   1      33.017  27.961  26.196  1.00  0.00     0.142 A 
ATOM     25  C   UNL A   1      32.045  30.525  26.338  1.00  0.00     0.083 A 
ATOM     26  C   UNL A   1      33.621  28.871  27.065  1.00  0.00     0.095 A 
ATOM     27  Cl  UNL A   1      31.298  32.076  26.497  1.00  0.00    -0.080 Cl
ATOM     28  C   UNL A   1      33.164  30.182  27.113  1.00  0.00     0.141 A 
BRANCH  28  29
ATOM     29  O   UNL A   1      33.730  31.157  27.891  1.00  0.00    -0.495 OA
ATOM     30  C   UNL A   1      35.152  31.160  27.993  1.00  0.00     0.278 C 
ENDBRANCH  28  29
ENDBRANCH  15  16
ENDBRANCH  12  15
ENDBRANCH   8  11
ENDBRANCH   6   8
ENDBRANCH   5   6
ENDBRANCH   4   5
ENDBRANCH   3   4
ENDBRANCH   2   3
ENDBRANCH   1   2
BRANCH   1  31
ATOM     31  C   UNL A   1      38.623  24.373  26.805  1.00  0.00     0.188 C 
BRANCH  31  32
ATOM     32  O   UNL A   1      39.981  24.762  26.752  1.00  0.00    -0.376 OA
BRANCH  32  33
ATOM     33  C   UNL A   1      40.780  24.519  27.901  1.00  0.00     0.202 C 
BRANCH  33  34
ATOM     34  C   UNL A   1      42.166  25.168  27.894  1.00  0.00     0.261 C 
BRANCH  34  35
ATOM     35  O   UNL A   1      43.215  24.191  28.077  1.00  0.00    -0.460 OA
BRANCH  35  36
ATOM     36  C   UNL A   1      44.080  24.451  29.087  1.00  0.00     0.338 C 
ATOM     37  O   UNL A   1      44.072  23.975  30.208  1.00  0.00    -0.246 OA
BRANCH  36  38
ATOM     38  C   UNL A   1      45.170  25.334  28.635  1.00  0.00     0.060 A 
ATOM     39  C   UNL A   1      45.518  25.415  27.291  1.00  0.00     0.016 A 
ATOM     40  C   UNL A   1      45.699  26.250  29.539  1.00  0.00     0.016 A 
ATOM     41  C   UNL A   1      46.377  26.440  26.858  1.00  0.00     0.010 A 
ATOM     42  C   UNL A   1      46.507  27.299  29.098  1.00  0.00     0.010 A 
ATOM     43  C   UNL A   1      46.848  27.427  27.748  1.00  0.00    -0.014 A 
BRANCH  43  44
ATOM     44  C   UNL A   1      47.595  28.634  27.272  1.00  0.00     0.031 A 
ATOM     45  C   UNL A   1      46.924  29.980  27.106  1.00  0.00     0.074 A 
ATOM     46  C   UNL A   1      48.874  28.498  26.857  1.00  0.00     0.049 A 
ATOM     47  N   UNL A   1      47.447  31.120  26.719  1.00  0.00    -0.248 NA
ATOM     48  C   UNL A   1      45.476  30.053  27.358  1.00  0.00     0.031 C 
ATOM     49  C   UNL A   1      49.607  27.232  26.776  1.00  0.00     0.029 A 
ATOM     50  N   UNL A   1      49.774  29.429  26.394  1.00  0.00    -0.354 N 
ATOM     51  C   UNL A   1      46.397  32.029  26.662  1.00  0.00     0.074 A 
ATOM     52  C   UNL A   1      45.194  31.294  26.984  1.00  0.00     0.031 C 
ATOM     53  C   UNL A   1      50.847  27.468  26.318  1.00  0.00     0.029 A 
ATOM     54  C   UNL A   1      50.995  28.896  26.050  1.00  0.00     0.049 A 
ATOM     55  H   UNL A   1      49.565  30.388  26.317  1.00  0.00     0.167 HD
ATOM     56  C   UNL A   1      46.428  33.356  26.389  1.00  0.00     0.031 A 
ATOM     57  C   UNL A   1      52.112  29.476  25.565  1.00  0.00     0.031 A 
ATOM     58  C   UNL A   1      47.631  34.094  26.096  1.00  0.00     0.049 A 
ATOM     59  C   UNL A   1      52.159  30.965  25.374  1.00  0.00     0.074 A 
ATOM     60  C   UNL A   1      47.786  35.466  25.980  1.00  0.00     0.029 A 
ATOM     61  N   UNL A   1      48.873  33.529  25.862  1.00  0.00    -0.354 N 
ATOM     62  N   UNL A   1      51.199  31.843  25.520  1.00  0.00    -0.248 NA
ATOM     63  C   UNL A   1      53.455  31.552  24.997  1.00  0.00     0.031 C 
ATOM     64  C   UNL A   1      49.107  35.726  25.610  1.00  0.00     0.029 A 
ATOM     65  C   UNL A   1      49.795  34.525  25.584  1.00  0.00     0.049 A 
ATOM     66  H   UNL A   1      49.072  32.565  25.890  1.00  0.00     0.167 HD
ATOM     67  C   UNL A   1      51.779  33.085  25.289  1.00  0.00     0.074 A 
ATOM     68  C   UNL A   1      53.178  32.849  25.005  1.00  0.00     0.031 C 
ATOM     69  C   UNL A   1      51.195  34.305  25.322  1.00  0.00     0.031 A 
BRANCH  56  70
ATOM     70  C   UNL A   1      45.133  34.133  26.423  1.00  0.00    -0.014 A 
ATOM     71  C   UNL A   1      44.681  34.692  27.631  1.00  0.00     0.009 A 
ATOM     72  C   UNL A   1      44.299  34.208  25.297  1.00  0.00     0.009 A 
ATOM     73  C   UNL A   1      43.425  35.301  27.710  1.00  0.00     0.001 A 
ATOM     74  C   UNL A   1      43.062  34.853  25.367  1.00  0.00     0.001 A 
ATOM     75  C   UNL A   1      42.621  35.388  26.576  1.00  0.00     0.000 A 
ENDBRANCH  56  70
BRANCH  57  76
ATOM     76  C   UNL A   1      53.310  28.636  25.299  1.00  0.00    -0.014 A 
ATOM     77  C   UNL A   1      54.257  28.395  26.307  1.00  0.00     0.009 A 
ATOM     78  C   UNL A   1      53.537  28.114  24.016  1.00  0.00     0.009 A 
ATOM     79  C   UNL A   1      55.415  27.661  26.030  1.00  0.00     0.001 A 
ATOM     80  C   UNL A   1      54.681  27.360  23.749  1.00  0.00     0.001 A 
ATOM     81  C   UNL A   1      55.623  27.142  24.753  1.00  0.00     0.000 A 
ENDBRANCH  57  76
BRANCH  69  82
ATOM     82  C   UNL A   1      52.054  35.521  25.107  1.00  0.00    -0.014 A 
ATOM     83  C   UNL A   1      52.520  36.238  26.224  1.00  0.00     0.009 A 
ATOM     84  C   UNL A   1      52.304  36.031  23.825  1.00  0.00     0.009 A 
ATOM     85  C   UNL A   1      53.193  37.450  26.063  1.00  0.00     0.001 A 
ATOM     86  C   UNL A   1      53.005  37.229  23.665  1.00  0.00     0.001 A 
ATOM     87  C   UNL A   1      53.437  37.943  24.783  1.00  0.00     0.000 A 
ENDBRANCH  69  82
ENDBRANCH  43  44
ENDBRANCH  36  38
ENDBRANCH  35  36
ENDBRANCH  34  35
ENDBRANCH  33  34
ENDBRANCH  32  33
ENDBRANCH  31  32
ENDBRANCH   1  31
TORSDOF 22
ENDMDL
