MODEL 1
REMARK VINA RESULT:     -10.7      0.000      0.000
REMARK SMILES CSCC[C@H](NC(=O)Nc1cccc(-c2nc3ccccc3o2)c1)C(=O)OCCOCCOCCOC(=O)c1ccc(-c2c3nc(c(-c4ccccc4)c4ccc([nH]4)c(-c4ccccc4)c4nc(c(-c5ccccc5)c5ccc2[nH]5)C=C4)C=C3)cc1
REMARK SMILES IDX 31 1 30 2 29 3 28 4 27 5 25 6 26 7 5 8 4 9 3 10 2 11 1 12
REMARK SMILES IDX 6 13 7 14 8 16 9 17 10 19 11 20 24 21 12 22 14 23 13 24
REMARK SMILES IDX 15 25 16 26 23 27 17 28 22 29 18 30 21 31 19 32 20 33 32 34
REMARK SMILES IDX 33 35 34 36 35 37 36 38 37 39 38 40 39 41 40 42 86 43 41 44
REMARK SMILES IDX 85 45 42 46 43 47 44 48 79 49 45 50 84 51 78 52 80 53 46 54
REMARK SMILES IDX 83 55 77 56 76 57 47 59 69 60 54 61 68 62 55 63 58 64 67 65
REMARK SMILES IDX 81 66 56 67 57 68 66 70 82 71 59 72 48 73 49 74 53 75 50 76
REMARK SMILES IDX 52 77 51 78 70 79 71 80 75 81 72 82 74 83 73 84 60 85 61 86
REMARK SMILES IDX 65 87 62 88 64 89 63 90
REMARK H PARENT 6 15 9 18 80 58 58 69
REMARK Flexibility Score: inf
ROOT
ATOM      1  C   UNL A   1      37.792  22.759  26.095  1.00  0.00     0.188 C 
ENDROOT
BRANCH   1   2
ATOM      2  O   UNL A   1      37.269  23.428  24.951  1.00  0.00    -0.376 OA
BRANCH   2   3
ATOM      3  C   UNL A   1      35.914  23.155  24.601  1.00  0.00     0.202 C 
BRANCH   3   4
ATOM      4  C   UNL A   1      34.909  23.722  25.659  1.00  0.00     0.261 C 
BRANCH   4   5
ATOM      5  O   UNL A   1      33.925  22.724  26.051  1.00  0.00    -0.462 OA
BRANCH   5   6
ATOM      6  C   UNL A   1      32.666  23.095  26.499  1.00  0.00     0.328 C 
ATOM      7  O   UNL A   1      32.338  23.114  27.678  1.00  0.00    -0.250 OA
BRANCH   6   8
ATOM      8  C   UNL A   1      31.835  23.760  25.323  1.00  0.00     0.194 C 
BRANCH   8   9
ATOM      9  C   UNL A   1      30.421  24.305  25.510  1.00  0.00     0.048 C 
BRANCH   9  10
ATOM     10  C   UNL A   1      30.470  25.755  26.082  1.00  0.00     0.072 C 
BRANCH  10  11
ATOM     11  S   UNL A   1      32.170  26.404  26.318  1.00  0.00    -0.165 SA
ATOM     12  C   UNL A   1      31.847  28.157  26.682  1.00  0.00     0.085 C 
ENDBRANCH  10  11
ENDBRANCH   9  10
ENDBRANCH   8   9
BRANCH   8  13
ATOM     13  N   UNL A   1      31.893  22.855  24.228  1.00  0.00    -0.324 N 
ATOM     14  C   UNL A   1      32.210  23.106  22.968  1.00  0.00     0.319 C 
ATOM     15  H   UNL A   1      31.668  21.919  24.435  1.00  0.00     0.166 HD
ATOM     16  O   UNL A   1      32.415  22.093  22.289  1.00  0.00    -0.248 OA
ATOM     17  N   UNL A   1      32.283  24.307  22.371  1.00  0.00    -0.308 N 
ATOM     18  H   UNL A   1      32.397  24.143  21.407  1.00  0.00     0.171 HD
BRANCH  17  19
ATOM     19  C   UNL A   1      32.265  25.712  22.551  1.00  0.00     0.043 A 
ATOM     20  C   UNL A   1      33.518  26.326  22.678  1.00  0.00     0.026 A 
ATOM     21  C   UNL A   1      31.183  26.547  22.749  1.00  0.00     0.040 A 
ATOM     22  C   UNL A   1      33.654  27.699  22.947  1.00  0.00     0.003 A 
ATOM     23  C   UNL A   1      31.280  27.940  22.943  1.00  0.00     0.039 A 
ATOM     24  C   UNL A   1      32.531  28.521  23.046  1.00  0.00     0.014 A 
BRANCH  23  25
ATOM     25  C   UNL A   1      29.998  28.643  22.959  1.00  0.00     0.227 A 
ATOM     26  N   UNL A   1      29.252  28.865  21.888  1.00  0.00    -0.209 NA
ATOM     27  O   UNL A   1      29.930  29.639  23.908  1.00  0.00    -0.436 OA
ATOM     28  C   UNL A   1      28.884  30.177  22.019  1.00  0.00     0.110 A 
ATOM     29  C   UNL A   1      29.264  30.647  23.265  1.00  0.00     0.155 A 
ATOM     30  C   UNL A   1      28.316  31.067  21.098  1.00  0.00     0.032 A 
ATOM     31  C   UNL A   1      29.085  31.953  23.703  1.00  0.00     0.049 A 
ATOM     32  C   UNL A   1      28.168  32.408  21.481  1.00  0.00     0.003 A 
ATOM     33  C   UNL A   1      28.535  32.838  22.763  1.00  0.00     0.004 A 
ENDBRANCH  23  25
ENDBRANCH  17  19
ENDBRANCH   8  13
ENDBRANCH   6   8
ENDBRANCH   5   6
ENDBRANCH   4   5
ENDBRANCH   3   4
ENDBRANCH   2   3
ENDBRANCH   1   2
BRANCH   1  34
ATOM     34  C   UNL A   1      38.989  21.852  25.815  1.00  0.00     0.188 C 
BRANCH  34  35
ATOM     35  O   UNL A   1      40.218  22.249  26.406  1.00  0.00    -0.376 OA
BRANCH  35  36
ATOM     36  C   UNL A   1      41.203  21.229  26.424  1.00  0.00     0.202 C 
BRANCH  36  37
ATOM     37  C   UNL A   1      42.526  21.581  25.716  1.00  0.00     0.261 C 
BRANCH  37  38
ATOM     38  O   UNL A   1      42.518  22.862  25.055  1.00  0.00    -0.460 OA
BRANCH  38  39
ATOM     39  C   UNL A   1      43.454  23.744  25.514  1.00  0.00     0.338 C 
ATOM     40  O   UNL A   1      44.651  23.675  25.350  1.00  0.00    -0.246 OA
BRANCH  39  41
ATOM     41  C   UNL A   1      42.793  24.919  26.161  1.00  0.00     0.060 A 
ATOM     42  C   UNL A   1      43.616  25.958  26.620  1.00  0.00     0.016 A 
ATOM     43  C   UNL A   1      41.411  24.995  26.359  1.00  0.00     0.016 A 
ATOM     44  C   UNL A   1      43.079  27.012  27.369  1.00  0.00     0.010 A 
ATOM     45  C   UNL A   1      40.871  26.053  27.109  1.00  0.00     0.010 A 
ATOM     46  C   UNL A   1      41.713  27.028  27.679  1.00  0.00    -0.014 A 
BRANCH  46  47
ATOM     47  C   UNL A   1      41.236  27.851  28.826  1.00  0.00     0.031 A 
ATOM     48  C   UNL A   1      41.994  27.738  30.129  1.00  0.00     0.074 A 
ATOM     49  C   UNL A   1      40.207  28.715  28.732  1.00  0.00     0.049 A 
ATOM     50  N   UNL A   1      41.798  28.350  31.271  1.00  0.00    -0.248 NA
ATOM     51  C   UNL A   1      43.128  26.799  30.142  1.00  0.00     0.031 C 
ATOM     52  C   UNL A   1      39.414  28.967  27.532  1.00  0.00     0.029 A 
ATOM     53  N   UNL A   1      39.657  29.546  29.680  1.00  0.00    -0.354 N 
ATOM     54  C   UNL A   1      42.778  27.865  32.131  1.00  0.00     0.074 A 
ATOM     55  C   UNL A   1      43.538  26.878  31.397  1.00  0.00     0.031 C 
ATOM     56  C   UNL A   1      38.477  29.891  27.816  1.00  0.00     0.029 A 
ATOM     57  C   UNL A   1      38.588  30.279  29.223  1.00  0.00     0.049 A 
ATOM     58  H   UNL A   1      39.997  29.611  30.602  1.00  0.00     0.167 HD
ATOM     59  C   UNL A   1      43.039  28.211  33.414  1.00  0.00     0.031 A 
ATOM     60  C   UNL A   1      37.788  31.154  29.866  1.00  0.00     0.031 A 
ATOM     61  C   UNL A   1      42.279  29.177  34.160  1.00  0.00     0.049 A 
ATOM     62  C   UNL A   1      38.050  31.473  31.319  1.00  0.00     0.074 A 
ATOM     63  C   UNL A   1      42.467  29.603  35.464  1.00  0.00     0.029 A 
ATOM     64  N   UNL A   1      41.180  29.862  33.668  1.00  0.00    -0.354 N 
ATOM     65  N   UNL A   1      38.995  31.025  32.111  1.00  0.00    -0.248 NA
ATOM     66  C   UNL A   1      37.140  32.435  31.959  1.00  0.00     0.031 C 
ATOM     67  C   UNL A   1      41.438  30.496  35.782  1.00  0.00     0.029 A 
ATOM     68  C   UNL A   1      40.659  30.686  34.652  1.00  0.00     0.049 A 
ATOM     69  H   UNL A   1      40.821  29.775  32.755  1.00  0.00     0.167 HD
ATOM     70  C   UNL A   1      38.816  31.677  33.327  1.00  0.00     0.074 A 
ATOM     71  C   UNL A   1      37.684  32.565  33.160  1.00  0.00     0.031 C 
ATOM     72  C   UNL A   1      39.525  31.558  34.476  1.00  0.00     0.031 A 
BRANCH  59  73
ATOM     73  C   UNL A   1      44.171  27.497  34.104  1.00  0.00    -0.014 A 
ATOM     74  C   UNL A   1      43.972  26.280  34.779  1.00  0.00     0.009 A 
ATOM     75  C   UNL A   1      45.462  28.049  34.071  1.00  0.00     0.009 A 
ATOM     76  C   UNL A   1      45.033  25.657  35.440  1.00  0.00     0.001 A 
ATOM     77  C   UNL A   1      46.526  27.405  34.702  1.00  0.00     0.001 A 
ATOM     78  C   UNL A   1      46.310  26.216  35.396  1.00  0.00     0.000 A 
ENDBRANCH  59  73
BRANCH  60  79
ATOM     79  C   UNL A   1      36.647  31.796  29.154  1.00  0.00    -0.014 A 
ATOM     80  C   UNL A   1      36.747  33.106  28.659  1.00  0.00     0.009 A 
ATOM     81  C   UNL A   1      35.431  31.111  28.999  1.00  0.00     0.009 A 
ATOM     82  C   UNL A   1      35.650  33.724  28.052  1.00  0.00     0.001 A 
ATOM     83  C   UNL A   1      34.346  31.717  28.362  1.00  0.00     0.001 A 
ATOM     84  C   UNL A   1      34.452  33.028  27.898  1.00  0.00     0.000 A 
ENDBRANCH  60  79
BRANCH  72  85
ATOM     85  C   UNL A   1      39.129  32.444  35.629  1.00  0.00    -0.014 A 
ATOM     86  C   UNL A   1      39.575  33.772  35.728  1.00  0.00     0.009 A 
ATOM     87  C   UNL A   1      38.281  31.939  36.629  1.00  0.00     0.009 A 
ATOM     88  C   UNL A   1      39.227  34.554  36.833  1.00  0.00     0.001 A 
ATOM     89  C   UNL A   1      37.904  32.735  37.711  1.00  0.00     0.001 A 
ATOM     90  C   UNL A   1      38.391  34.035  37.821  1.00  0.00     0.000 A 
ENDBRANCH  72  85
ENDBRANCH  46  47
ENDBRANCH  39  41
ENDBRANCH  38  39
ENDBRANCH  37  38
ENDBRANCH  36  37
ENDBRANCH  35  36
ENDBRANCH  34  35
ENDBRANCH   1  34
TORSDOF 23
ENDMDL
MODEL 2
REMARK VINA RESULT:      -9.9      6.437      9.810
REMARK SMILES CSCC[C@H](NC(=O)Nc1cccc(-c2nc3ccccc3o2)c1)C(=O)OCCOCCOCCOC(=O)c1ccc(-c2c3nc(c(-c4ccccc4)c4ccc([nH]4)c(-c4ccccc4)c4nc(c(-c5ccccc5)c5ccc2[nH]5)C=C4)C=C3)cc1
REMARK SMILES IDX 31 1 30 2 29 3 28 4 27 5 25 6 26 7 5 8 4 9 3 10 2 11 1 12
REMARK SMILES IDX 6 13 7 14 8 16 9 17 10 19 11 20 24 21 12 22 14 23 13 24
REMARK SMILES IDX 15 25 16 26 23 27 17 28 22 29 18 30 21 31 19 32 20 33 32 34
REMARK SMILES IDX 33 35 34 36 35 37 36 38 37 39 38 40 39 41 40 42 86 43 41 44
REMARK SMILES IDX 85 45 42 46 43 47 44 48 79 49 45 50 84 51 78 52 80 53 46 54
REMARK SMILES IDX 83 55 77 56 76 57 47 59 69 60 54 61 68 62 55 63 58 64 67 65
REMARK SMILES IDX 81 66 56 67 57 68 66 70 82 71 59 72 48 73 49 74 53 75 50 76
REMARK SMILES IDX 52 77 51 78 70 79 71 80 75 81 72 82 74 83 73 84 60 85 61 86
REMARK SMILES IDX 65 87 62 88 64 89 63 90
REMARK H PARENT 6 15 9 18 80 58 58 69
REMARK Flexibility Score: inf
ROOT
ATOM      1  C   UNL A   1      37.416  22.427  25.670  1.00  0.00     0.188 C 
ENDROOT
BRANCH   1   2
ATOM      2  O   UNL A   1      37.164  23.292  24.567  1.00  0.00    -0.376 OA
BRANCH   2   3
ATOM      3  C   UNL A   1      35.963  23.073  23.830  1.00  0.00     0.202 C 
BRANCH   3   4
ATOM      4  C   UNL A   1      34.842  22.430  24.712  1.00  0.00     0.261 C 
BRANCH   4   5
ATOM      5  O   UNL A   1      33.857  21.731  23.899  1.00  0.00    -0.462 OA
BRANCH   5   6
ATOM      6  C   UNL A   1      32.499  21.963  24.061  1.00  0.00     0.328 C 
ATOM      7  O   UNL A   1      31.792  21.356  24.855  1.00  0.00    -0.250 OA
BRANCH   6   8
ATOM      8  C   UNL A   1      32.072  23.293  23.309  1.00  0.00     0.194 C 
BRANCH   8   9
ATOM      9  C   UNL A   1      30.672  23.893  23.413  1.00  0.00     0.048 C 
BRANCH   9  10
ATOM     10  C   UNL A   1      30.512  24.665  24.759  1.00  0.00     0.072 C 
BRANCH  10  11
ATOM     11  S   UNL A   1      32.085  24.894  25.676  1.00  0.00    -0.165 SA
ATOM     12  C   UNL A   1      31.841  23.794  27.105  1.00  0.00     0.085 C 
ENDBRANCH  10  11
ENDBRANCH   9  10
ENDBRANCH   8   9
BRANCH   8  13
ATOM     13  N   UNL A   1      32.457  23.127  21.950  1.00  0.00    -0.324 N 
ATOM     14  C   UNL A   1      32.934  24.035  21.113  1.00  0.00     0.319 C 
ATOM     15  H   UNL A   1      32.356  22.218  21.585  1.00  0.00     0.166 HD
ATOM     16  O   UNL A   1      33.410  23.560  20.075  1.00  0.00    -0.248 OA
ATOM     17  N   UNL A   1      32.908  25.369  21.259  1.00  0.00    -0.308 N 
ATOM     18  H   UNL A   1      33.205  25.758  20.404  1.00  0.00     0.171 HD
BRANCH  17  19
ATOM     19  C   UNL A   1      32.632  26.452  22.130  1.00  0.00     0.043 A 
ATOM     20  C   UNL A   1      33.668  26.811  23.003  1.00  0.00     0.026 A 
ATOM     21  C   UNL A   1      31.441  27.119  22.333  1.00  0.00     0.040 A 
ATOM     22  C   UNL A   1      33.510  27.807  23.981  1.00  0.00     0.003 A 
ATOM     23  C   UNL A   1      31.269  28.176  23.251  1.00  0.00     0.039 A 
ATOM     24  C   UNL A   1      32.316  28.520  24.086  1.00  0.00     0.014 A 
BRANCH  23  25
ATOM     25  C   UNL A   1      29.971  28.846  23.172  1.00  0.00     0.227 A 
ATOM     26  N   UNL A   1      29.218  28.893  22.085  1.00  0.00    -0.209 NA
ATOM     27  O   UNL A   1      29.883  29.967  23.967  1.00  0.00    -0.436 OA
ATOM     28  C   UNL A   1      28.820  30.202  22.025  1.00  0.00     0.110 A 
ATOM     29  C   UNL A   1      29.192  30.856  23.189  1.00  0.00     0.155 A 
ATOM     30  C   UNL A   1      28.230  30.935  20.989  1.00  0.00     0.032 A 
ATOM     31  C   UNL A   1      28.985  32.207  23.433  1.00  0.00     0.049 A 
ATOM     32  C   UNL A   1      28.053  32.314  21.174  1.00  0.00     0.003 A 
ATOM     33  C   UNL A   1      28.413  32.933  22.379  1.00  0.00     0.004 A 
ENDBRANCH  23  25
ENDBRANCH  17  19
ENDBRANCH   8  13
ENDBRANCH   6   8
ENDBRANCH   5   6
ENDBRANCH   4   5
ENDBRANCH   3   4
ENDBRANCH   2   3
ENDBRANCH   1   2
BRANCH   1  34
ATOM     34  C   UNL A   1      38.195  21.160  25.326  1.00  0.00     0.188 C 
BRANCH  34  35
ATOM     35  O   UNL A   1      39.440  20.998  25.992  1.00  0.00    -0.376 OA
BRANCH  35  36
ATOM     36  C   UNL A   1      40.091  22.221  26.298  1.00  0.00     0.202 C 
BRANCH  36  37
ATOM     37  C   UNL A   1      41.608  22.113  26.542  1.00  0.00     0.261 C 
BRANCH  37  38
ATOM     38  O   UNL A   1      42.375  23.197  25.979  1.00  0.00    -0.460 OA
BRANCH  38  39
ATOM     39  C   UNL A   1      43.707  23.164  26.279  1.00  0.00     0.338 C 
ATOM     40  O   UNL A   1      44.413  22.182  26.321  1.00  0.00    -0.246 OA
BRANCH  39  41
ATOM     41  C   UNL A   1      44.244  24.551  26.428  1.00  0.00     0.060 A 
ATOM     42  C   UNL A   1      44.179  25.399  25.312  1.00  0.00     0.016 A 
ATOM     43  C   UNL A   1      44.838  25.009  27.608  1.00  0.00     0.016 A 
ATOM     44  C   UNL A   1      44.799  26.653  25.335  1.00  0.00     0.010 A 
ATOM     45  C   UNL A   1      45.460  26.269  27.632  1.00  0.00     0.010 A 
ATOM     46  C   UNL A   1      45.506  27.066  26.472  1.00  0.00    -0.014 A 
BRANCH  46  47
ATOM     47  C   UNL A   1      46.528  28.144  26.344  1.00  0.00     0.031 A 
ATOM     48  C   UNL A   1      46.053  29.574  26.473  1.00  0.00     0.074 A 
ATOM     49  C   UNL A   1      47.840  27.895  26.173  1.00  0.00     0.049 A 
ATOM     50  N   UNL A   1      46.733  30.692  26.415  1.00  0.00    -0.248 NA
ATOM     51  C   UNL A   1      44.610  29.762  26.693  1.00  0.00     0.031 C 
ATOM     52  C   UNL A   1      48.451  26.571  26.080  1.00  0.00     0.029 A 
ATOM     53  N   UNL A   1      48.900  28.764  26.051  1.00  0.00    -0.354 N 
ATOM     54  C   UNL A   1      45.799  31.709  26.586  1.00  0.00     0.074 A 
ATOM     55  C   UNL A   1      44.503  31.081  26.705  1.00  0.00     0.031 C 
ATOM     56  C   UNL A   1      49.779  26.716  25.914  1.00  0.00     0.029 A 
ATOM     57  C   UNL A   1      50.110  28.140  25.865  1.00  0.00     0.049 A 
ATOM     58  H   UNL A   1      48.800  29.742  26.092  1.00  0.00     0.167 HD
ATOM     59  C   UNL A   1      45.992  33.048  26.652  1.00  0.00     0.031 A 
ATOM     60  C   UNL A   1      51.340  28.659  25.671  1.00  0.00     0.031 A 
ATOM     61  C   UNL A   1      47.274  33.685  26.517  1.00  0.00     0.049 A 
ATOM     62  C   UNL A   1      51.525  30.157  25.675  1.00  0.00     0.074 A 
ATOM     63  C   UNL A   1      47.577  35.035  26.576  1.00  0.00     0.029 A 
ATOM     64  N   UNL A   1      48.466  33.016  26.289  1.00  0.00    -0.354 N 
ATOM     65  N   UNL A   1      50.637  31.104  25.862  1.00  0.00    -0.248 NA
ATOM     66  C   UNL A   1      52.893  30.655  25.457  1.00  0.00     0.031 C 
ATOM     67  C   UNL A   1      48.944  35.186  26.314  1.00  0.00     0.029 A 
ATOM     68  C   UNL A   1      49.503  33.925  26.173  1.00  0.00     0.049 A 
ATOM     69  H   UNL A   1      48.560  32.038  26.218  1.00  0.00     0.167 HD
ATOM     70  C   UNL A   1      51.342  32.303  25.823  1.00  0.00     0.074 A 
ATOM     71  C   UNL A   1      52.733  31.961  25.613  1.00  0.00     0.031 C 
ATOM     72  C   UNL A   1      50.883  33.573  25.954  1.00  0.00     0.031 A 
BRANCH  59  73
ATOM     73  C   UNL A   1      44.774  33.913  26.834  1.00  0.00    -0.014 A 
ATOM     74  C   UNL A   1      44.056  34.414  25.734  1.00  0.00     0.009 A 
ATOM     75  C   UNL A   1      44.331  34.225  28.129  1.00  0.00     0.009 A 
ATOM     76  C   UNL A   1      42.948  35.243  25.931  1.00  0.00     0.001 A 
ATOM     77  C   UNL A   1      43.204  35.024  28.322  1.00  0.00     0.001 A 
ATOM     78  C   UNL A   1      42.520  35.542  27.223  1.00  0.00     0.000 A 
ENDBRANCH  59  73
BRANCH  60  79
ATOM     79  C   UNL A   1      52.508  27.762  25.443  1.00  0.00    -0.014 A 
ATOM     80  C   UNL A   1      53.320  27.345  26.511  1.00  0.00     0.009 A 
ATOM     81  C   UNL A   1      52.843  27.348  24.144  1.00  0.00     0.009 A 
ATOM     82  C   UNL A   1      54.453  26.558  26.279  1.00  0.00     0.001 A 
ATOM     83  C   UNL A   1      53.955  26.533  23.918  1.00  0.00     0.001 A 
ATOM     84  C   UNL A   1      54.766  26.148  24.984  1.00  0.00     0.000 A 
ENDBRANCH  60  79
BRANCH  72  85
ATOM     85  C   UNL A   1      51.900  34.683  25.922  1.00  0.00    -0.014 A 
ATOM     86  C   UNL A   1      52.230  35.351  24.732  1.00  0.00     0.009 A 
ATOM     87  C   UNL A   1      52.532  35.076  27.114  1.00  0.00     0.009 A 
ATOM     88  C   UNL A   1      53.211  36.347  24.727  1.00  0.00     0.001 A 
ATOM     89  C   UNL A   1      53.484  36.096  27.113  1.00  0.00     0.001 A 
ATOM     90  C   UNL A   1      53.834  36.719  25.917  1.00  0.00     0.000 A 
ENDBRANCH  72  85
ENDBRANCH  46  47
ENDBRANCH  39  41
ENDBRANCH  38  39
ENDBRANCH  37  38
ENDBRANCH  36  37
ENDBRANCH  35  36
ENDBRANCH  34  35
ENDBRANCH   1  34
TORSDOF 23
ENDMDL
MODEL 3
REMARK VINA RESULT:      -9.5      6.358      8.464
REMARK SMILES CSCC[C@H](NC(=O)Nc1cccc(-c2nc3ccccc3o2)c1)C(=O)OCCOCCOCCOC(=O)c1ccc(-c2c3nc(c(-c4ccccc4)c4ccc([nH]4)c(-c4ccccc4)c4nc(c(-c5ccccc5)c5ccc2[nH]5)C=C4)C=C3)cc1
REMARK SMILES IDX 31 1 30 2 29 3 28 4 27 5 25 6 26 7 5 8 4 9 3 10 2 11 1 12
REMARK SMILES IDX 6 13 7 14 8 16 9 17 10 19 11 20 24 21 12 22 14 23 13 24
REMARK SMILES IDX 15 25 16 26 23 27 17 28 22 29 18 30 21 31 19 32 20 33 32 34
REMARK SMILES IDX 33 35 34 36 35 37 36 38 37 39 38 40 39 41 40 42 86 43 41 44
REMARK SMILES IDX 85 45 42 46 43 47 44 48 79 49 45 50 84 51 78 52 80 53 46 54
REMARK SMILES IDX 83 55 77 56 76 57 47 59 69 60 54 61 68 62 55 63 58 64 67 65
REMARK SMILES IDX 81 66 56 67 57 68 66 70 82 71 59 72 48 73 49 74 53 75 50 76
REMARK SMILES IDX 52 77 51 78 70 79 71 80 75 81 72 82 74 83 73 84 60 85 61 86
REMARK SMILES IDX 65 87 62 88 64 89 63 90
REMARK H PARENT 6 15 9 18 80 58 58 69
REMARK Flexibility Score: inf
ROOT
ATOM      1  C   UNL A   1      37.476  22.271  25.559  1.00  0.00     0.188 C 
ENDROOT
BRANCH   1   2
ATOM      2  O   UNL A   1      37.206  23.074  24.414  1.00  0.00    -0.376 OA
BRANCH   2   3
ATOM      3  C   UNL A   1      36.008  22.796  23.692  1.00  0.00     0.202 C 
BRANCH   3   4
ATOM      4  C   UNL A   1      34.923  22.121  24.595  1.00  0.00     0.261 C 
BRANCH   4   5
ATOM      5  O   UNL A   1      33.839  21.562  23.801  1.00  0.00    -0.462 OA
BRANCH   5   6
ATOM      6  C   UNL A   1      32.514  21.864  24.082  1.00  0.00     0.328 C 
ATOM      7  O   UNL A   1      31.845  21.284  24.926  1.00  0.00    -0.250 OA
BRANCH   6   8
ATOM      8  C   UNL A   1      32.098  23.226  23.384  1.00  0.00     0.194 C 
BRANCH   8   9
ATOM      9  C   UNL A   1      30.708  23.841  23.523  1.00  0.00     0.048 C 
BRANCH   9  10
ATOM     10  C   UNL A   1      30.564  24.547  24.906  1.00  0.00     0.072 C 
BRANCH  10  11
ATOM     11  S   UNL A   1      32.139  24.687  25.837  1.00  0.00    -0.165 SA
ATOM     12  C   UNL A   1      31.823  23.595  27.259  1.00  0.00     0.085 C 
ENDBRANCH  10  11
ENDBRANCH   9  10
ENDBRANCH   8   9
BRANCH   8  13
ATOM     13  N   UNL A   1      32.470  23.107  22.016  1.00  0.00    -0.324 N 
ATOM     14  C   UNL A   1      32.902  24.051  21.195  1.00  0.00     0.319 C 
ATOM     15  H   UNL A   1      32.395  22.204  21.630  1.00  0.00     0.166 HD
ATOM     16  O   UNL A   1      33.379  23.618  20.139  1.00  0.00    -0.248 OA
ATOM     17  N   UNL A   1      32.831  25.380  21.373  1.00  0.00    -0.308 N 
ATOM     18  H   UNL A   1      33.102  25.799  20.525  1.00  0.00     0.171 HD
BRANCH  17  19
ATOM     19  C   UNL A   1      32.530  26.431  22.274  1.00  0.00     0.043 A 
ATOM     20  C   UNL A   1      33.529  26.739  23.207  1.00  0.00     0.026 A 
ATOM     21  C   UNL A   1      31.339  27.107  22.450  1.00  0.00     0.040 A 
ATOM     22  C   UNL A   1      33.340  27.698  24.217  1.00  0.00     0.003 A 
ATOM     23  C   UNL A   1      31.140  28.129  23.401  1.00  0.00     0.039 A 
ATOM     24  C   UNL A   1      32.152  28.424  24.297  1.00  0.00     0.014 A 
BRANCH  23  25
ATOM     25  C   UNL A   1      29.856  28.821  23.291  1.00  0.00     0.227 A 
ATOM     26  N   UNL A   1      29.067  28.772  22.229  1.00  0.00    -0.209 NA
ATOM     27  O   UNL A   1      29.820  30.023  23.962  1.00  0.00    -0.436 OA
ATOM     28  C   UNL A   1      28.699  30.076  22.040  1.00  0.00     0.110 A 
ATOM     29  C   UNL A   1      29.125  30.842  23.114  1.00  0.00     0.155 A 
ATOM     30  C   UNL A   1      28.091  30.710  20.949  1.00  0.00     0.032 A 
ATOM     31  C   UNL A   1      28.957  32.216  23.217  1.00  0.00     0.049 A 
ATOM     32  C   UNL A   1      27.952  32.105  20.990  1.00  0.00     0.003 A 
ATOM     33  C   UNL A   1      28.367  32.840  22.108  1.00  0.00     0.004 A 
ENDBRANCH  23  25
ENDBRANCH  17  19
ENDBRANCH   8  13
ENDBRANCH   6   8
ENDBRANCH   5   6
ENDBRANCH   4   5
ENDBRANCH   3   4
ENDBRANCH   2   3
ENDBRANCH   1   2
BRANCH   1  34
ATOM     34  C   UNL A   1      38.337  21.039  25.290  1.00  0.00     0.188 C 
BRANCH  34  35
ATOM     35  O   UNL A   1      39.549  20.957  26.027  1.00  0.00    -0.376 OA
BRANCH  35  36
ATOM     36  C   UNL A   1      40.125  22.218  26.328  1.00  0.00     0.202 C 
BRANCH  36  37
ATOM     37  C   UNL A   1      41.547  22.166  26.918  1.00  0.00     0.261 C 
BRANCH  37  38
ATOM     38  O   UNL A   1      42.437  23.176  26.402  1.00  0.00    -0.460 OA
BRANCH  38  39
ATOM     39  C   UNL A   1      43.576  23.357  27.134  1.00  0.00     0.338 C 
ATOM     40  O   UNL A   1      44.246  22.491  27.650  1.00  0.00    -0.246 OA
BRANCH  39  41
ATOM     41  C   UNL A   1      43.986  24.794  27.118  1.00  0.00     0.060 A 
ATOM     42  C   UNL A   1      44.045  25.441  25.874  1.00  0.00     0.016 A 
ATOM     43  C   UNL A   1      44.348  25.490  28.275  1.00  0.00     0.016 A 
ATOM     44  C   UNL A   1      44.567  26.735  25.770  1.00  0.00     0.010 A 
ATOM     45  C   UNL A   1      44.871  26.790  28.172  1.00  0.00     0.010 A 
ATOM     46  C   UNL A   1      45.050  27.391  26.910  1.00  0.00    -0.014 A 
BRANCH  46  47
ATOM     47  C   UNL A   1      46.004  28.526  26.750  1.00  0.00     0.031 A 
ATOM     48  C   UNL A   1      47.459  28.186  26.519  1.00  0.00     0.074 A 
ATOM     49  C   UNL A   1      45.617  29.816  26.750  1.00  0.00     0.049 A 
ATOM     50  N   UNL A   1      48.487  28.977  26.336  1.00  0.00    -0.248 NA
ATOM     51  C   UNL A   1      47.796  26.753  26.498  1.00  0.00     0.031 C 
ATOM     52  C   UNL A   1      44.247  30.294  26.911  1.00  0.00     0.029 A 
ATOM     53  N   UNL A   1      46.359  30.965  26.603  1.00  0.00    -0.354 N 
ATOM     54  C   UNL A   1      49.585  28.137  26.184  1.00  0.00     0.074 A 
ATOM     55  C   UNL A   1      49.110  26.782  26.340  1.00  0.00     0.031 C 
ATOM     56  C   UNL A   1      44.246  31.639  26.856  1.00  0.00     0.029 A 
ATOM     57  C   UNL A   1      45.617  32.118  26.679  1.00  0.00     0.049 A 
ATOM     58  H   UNL A   1      47.333  30.961  26.457  1.00  0.00     0.167 HD
ATOM     59  C   UNL A   1      50.877  28.454  25.925  1.00  0.00     0.031 A 
ATOM     60  C   UNL A   1      46.000  33.410  26.620  1.00  0.00     0.031 A 
ATOM     61  C   UNL A   1      51.365  29.799  25.786  1.00  0.00     0.049 A 
ATOM     62  C   UNL A   1      47.457  33.745  26.404  1.00  0.00     0.074 A 
ATOM     63  C   UNL A   1      52.654  30.226  25.517  1.00  0.00     0.029 A 
ATOM     64  N   UNL A   1      50.584  30.937  25.912  1.00  0.00    -0.354 N 
ATOM     65  N   UNL A   1      48.479  32.941  26.238  1.00  0.00    -0.248 NA
ATOM     66  C   UNL A   1      47.805  35.174  26.350  1.00  0.00     0.031 C 
ATOM     67  C   UNL A   1      52.665  31.625  25.548  1.00  0.00     0.029 A 
ATOM     68  C   UNL A   1      51.368  32.067  25.758  1.00  0.00     0.049 A 
ATOM     69  H   UNL A   1      49.615  30.941  26.088  1.00  0.00     0.167 HD
ATOM     70  C   UNL A   1      49.582  33.762  26.023  1.00  0.00     0.074 A 
ATOM     71  C   UNL A   1      49.097  35.126  26.061  1.00  0.00     0.031 C 
ATOM     72  C   UNL A   1      50.876  33.421  25.808  1.00  0.00     0.031 A 
BRANCH  59  73
ATOM     73  C   UNL A   1      51.859  27.318  25.825  1.00  0.00    -0.014 A 
ATOM     74  C   UNL A   1      52.573  26.860  26.946  1.00  0.00     0.009 A 
ATOM     75  C   UNL A   1      52.067  26.688  24.587  1.00  0.00     0.009 A 
ATOM     76  C   UNL A   1      53.504  25.826  26.818  1.00  0.00     0.001 A 
ATOM     77  C   UNL A   1      52.972  25.632  24.470  1.00  0.00     0.001 A 
ATOM     78  C   UNL A   1      53.698  25.210  25.583  1.00  0.00     0.000 A 
ENDBRANCH  59  73
BRANCH  60  79
ATOM     79  C   UNL A   1      44.997  34.502  26.778  1.00  0.00    -0.014 A 
ATOM     80  C   UNL A   1      45.055  35.386  27.868  1.00  0.00     0.009 A 
ATOM     81  C   UNL A   1      43.948  34.640  25.856  1.00  0.00     0.009 A 
ATOM     82  C   UNL A   1      44.072  36.364  28.044  1.00  0.00     0.001 A 
ATOM     83  C   UNL A   1      42.985  35.640  26.014  1.00  0.00     0.001 A 
ATOM     84  C   UNL A   1      43.041  36.494  27.115  1.00  0.00     0.000 A 
ENDBRANCH  60  79
BRANCH  72  85
ATOM     85  C   UNL A   1      51.853  34.538  25.549  1.00  0.00    -0.014 A 
ATOM     86  C   UNL A   1      52.079  35.037  24.256  1.00  0.00     0.009 A 
ATOM     87  C   UNL A   1      52.550  35.111  26.626  1.00  0.00     0.009 A 
ATOM     88  C   UNL A   1      53.025  36.044  24.041  1.00  0.00     0.001 A 
ATOM     89  C   UNL A   1      53.465  36.142  26.414  1.00  0.00     0.001 A 
ATOM     90  C   UNL A   1      53.715  36.596  25.120  1.00  0.00     0.000 A 
ENDBRANCH  72  85
ENDBRANCH  46  47
ENDBRANCH  39  41
ENDBRANCH  38  39
ENDBRANCH  37  38
ENDBRANCH  36  37
ENDBRANCH  35  36
ENDBRANCH  34  35
ENDBRANCH   1  34
TORSDOF 23
ENDMDL
