MODEL 1
REMARK VINA RESULT:      -9.8      0.000      0.000
REMARK SMILES CC(C)c1nc(N(C)C[C@@H]2CC[N@@H+](C)C2)sc1C(=O)OCCOCCOCCOC(=O)c1ccc(-c2c3nc(c(-c4ccccc4)c4ccc([nH]4)c(-c4ccccc4)c4nc(c(-c5ccccc5)c5ccc2[nH]5)C=C4)C=C3)cc1
REMARK SMILES IDX 24 1 23 2 22 3 21 4 20 5 18 6 19 7 17 8 4 9 5 10 6 11 16 12
REMARK SMILES IDX 2 13 1 14 3 15 7 16 8 17 9 18 10 19 11 20 15 21 12 22 13 23
REMARK SMILES IDX 14 24 25 26 26 27 27 28 28 29 29 30 30 31 31 32 32 33 33 34
REMARK SMILES IDX 79 35 34 36 78 37 35 38 36 39 37 40 72 41 38 42 77 43 71 44
REMARK SMILES IDX 73 45 39 46 76 47 70 48 69 49 40 51 62 52 47 53 61 54 48 55
REMARK SMILES IDX 51 56 60 57 74 58 49 59 50 60 59 62 75 63 52 64 41 65 42 66
REMARK SMILES IDX 46 67 43 68 45 69 44 70 63 71 64 72 68 73 65 74 67 75 66 76
REMARK SMILES IDX 53 77 54 78 58 79 55 80 57 81 56 82
REMARK H PARENT 13 25 73 50 51 61
REMARK Flexibility Score: inf
ROOT
ATOM      1  C   UNL A   1      40.234  21.350  26.436  1.00  0.00     0.188 C 
ENDROOT
BRANCH   1   2
ATOM      2  O   UNL A   1      38.872  21.487  26.095  1.00  0.00    -0.376 OA
BRANCH   2   3
ATOM      3  C   UNL A   1      38.204  20.490  25.353  1.00  0.00     0.202 C 
BRANCH   3   4
ATOM      4  C   UNL A   1      36.748  20.623  24.870  1.00  0.00     0.261 C 
BRANCH   4   5
ATOM      5  O   UNL A   1      36.275  21.934  24.556  1.00  0.00    -0.459 OA
BRANCH   5   6
ATOM      6  C   UNL A   1      35.333  22.474  25.380  1.00  0.00     0.350 C 
ATOM      7  O   UNL A   1      35.406  22.471  26.596  1.00  0.00    -0.245 OA
BRANCH   6   8
ATOM      8  C   UNL A   1      34.331  23.138  24.578  1.00  0.00     0.137 A 
ATOM      9  C   UNL A   1      33.309  22.658  23.775  1.00  0.00     0.071 A 
ATOM     10  N   UNL A   1      32.592  23.656  23.123  1.00  0.00    -0.224 NA
ATOM     11  C   UNL A   1      33.049  24.860  23.386  1.00  0.00     0.186 A 
ATOM     12  S   UNL A   1      34.359  24.850  24.513  1.00  0.00    -0.089 S 
BRANCH   9  13
ATOM     13  C   UNL A   1      32.865  21.226  23.558  1.00  0.00     0.034 C 
ATOM     14  C   UNL A   1      32.160  20.654  24.795  1.00  0.00     0.014 C 
ATOM     15  C   UNL A   1      31.938  21.077  22.351  1.00  0.00     0.014 C 
ENDBRANCH   9  13
BRANCH  11  16
ATOM     16  N   UNL A   1      32.532  25.997  22.833  1.00  0.00    -0.351 N 
ATOM     17  C   UNL A   1      32.271  26.117  21.409  1.00  0.00     0.146 C 
BRANCH  16  18
ATOM     18  C   UNL A   1      32.553  27.244  23.608  1.00  0.00     0.128 C 
BRANCH  18  19
ATOM     19  C   UNL A   1      31.223  27.567  24.304  1.00  0.00     0.069 C 
ATOM     20  C   UNL A   1      30.123  26.531  24.033  1.00  0.00     0.072 C 
ATOM     21  C   UNL A   1      30.642  28.887  23.778  1.00  0.00     0.267 C 
ATOM     22  C   UNL A   1      28.947  27.335  23.502  1.00  0.00     0.262 C 
ATOM     23  N   UNL A   1      29.613  28.452  22.829  1.00  0.00    -0.337 N 
ATOM     24  C   UNL A   1      28.689  29.519  22.478  1.00  0.00     0.332 C 
ATOM     25  H   UNL A   1      30.016  28.173  21.935  1.00  0.00     0.347 HD
ENDBRANCH  18  19
ENDBRANCH  16  18
ENDBRANCH  11  16
ENDBRANCH   6   8
ENDBRANCH   5   6
ENDBRANCH   4   5
ENDBRANCH   3   4
ENDBRANCH   2   3
ENDBRANCH   1   2
BRANCH   1  26
ATOM     26  C   UNL A   1      40.795  19.957  26.098  1.00  0.00     0.188 C 
BRANCH  26  27
ATOM     27  O   UNL A   1      42.054  19.860  25.437  1.00  0.00    -0.376 OA
BRANCH  27  28
ATOM     28  C   UNL A   1      43.188  20.529  25.985  1.00  0.00     0.202 C 
BRANCH  28  29
ATOM     29  C   UNL A   1      43.846  21.617  25.137  1.00  0.00     0.261 C 
BRANCH  29  30
ATOM     30  O   UNL A   1      43.015  22.778  24.981  1.00  0.00    -0.460 OA
BRANCH  30  31
ATOM     31  C   UNL A   1      43.676  23.959  24.998  1.00  0.00     0.338 C 
ATOM     32  O   UNL A   1      44.625  24.295  24.310  1.00  0.00    -0.246 OA
BRANCH  31  33
ATOM     33  C   UNL A   1      42.972  24.899  25.888  1.00  0.00     0.060 A 
ATOM     34  C   UNL A   1      43.463  26.208  25.979  1.00  0.00     0.016 A 
ATOM     35  C   UNL A   1      41.894  24.482  26.671  1.00  0.00     0.016 A 
ATOM     36  C   UNL A   1      42.899  27.098  26.888  1.00  0.00     0.010 A 
ATOM     37  C   UNL A   1      41.342  25.371  27.596  1.00  0.00     0.010 A 
ATOM     38  C   UNL A   1      41.865  26.670  27.730  1.00  0.00    -0.014 A 
BRANCH  38  39
ATOM     39  C   UNL A   1      41.448  27.520  28.867  1.00  0.00     0.031 A 
ATOM     40  C   UNL A   1      42.207  27.414  30.159  1.00  0.00     0.074 A 
ATOM     41  C   UNL A   1      40.421  28.377  28.748  1.00  0.00     0.049 A 
ATOM     42  N   UNL A   1      42.004  28.036  31.292  1.00  0.00    -0.248 NA
ATOM     43  C   UNL A   1      43.350  26.485  30.176  1.00  0.00     0.031 C 
ATOM     44  C   UNL A   1      39.638  28.601  27.534  1.00  0.00     0.029 A 
ATOM     45  N   UNL A   1      39.858  29.216  29.675  1.00  0.00    -0.354 N 
ATOM     46  C   UNL A   1      42.989  27.573  32.155  1.00  0.00     0.074 A 
ATOM     47  C   UNL A   1      43.776  26.605  31.424  1.00  0.00     0.031 C 
ATOM     48  C   UNL A   1      38.684  29.512  27.795  1.00  0.00     0.029 A 
ATOM     49  C   UNL A   1      38.775  29.912  29.199  1.00  0.00     0.049 A 
ATOM     50  H   UNL A   1      40.198  29.311  30.594  1.00  0.00     0.167 HD
ATOM     51  C   UNL A   1      43.219  27.924  33.442  1.00  0.00     0.031 A 
ATOM     52  C   UNL A   1      37.942  30.758  29.832  1.00  0.00     0.031 A 
ATOM     53  C   UNL A   1      42.423  28.865  34.179  1.00  0.00     0.049 A 
ATOM     54  C   UNL A   1      38.166  31.065  31.289  1.00  0.00     0.074 A 
ATOM     55  C   UNL A   1      42.580  29.293  35.485  1.00  0.00     0.029 A 
ATOM     56  N   UNL A   1      41.309  29.516  33.673  1.00  0.00    -0.354 N 
ATOM     57  N   UNL A   1      39.118  30.644  32.086  1.00  0.00    -0.248 NA
ATOM     58  C   UNL A   1      37.199  31.968  31.932  1.00  0.00     0.031 C 
ATOM     59  C   UNL A   1      41.531  30.170  35.785  1.00  0.00     0.029 A 
ATOM     60  C   UNL A   1      40.752  30.323  34.649  1.00  0.00     0.049 A 
ATOM     61  H   UNL A   1      40.966  29.420  32.755  1.00  0.00     0.167 HD
ATOM     62  C   UNL A   1      38.881  31.250  33.314  1.00  0.00     0.074 A 
ATOM     63  C   UNL A   1      37.701  32.075  33.154  1.00  0.00     0.031 C 
ATOM     64  C   UNL A   1      39.579  31.138  34.470  1.00  0.00     0.031 A 
BRANCH  51  65
ATOM     65  C   UNL A   1      44.363  27.249  34.142  1.00  0.00    -0.014 A 
ATOM     66  C   UNL A   1      44.162  26.095  34.914  1.00  0.00     0.009 A 
ATOM     67  C   UNL A   1      45.660  27.768  34.013  1.00  0.00     0.009 A 
ATOM     68  C   UNL A   1      45.237  25.488  35.567  1.00  0.00     0.001 A 
ATOM     69  C   UNL A   1      46.736  27.146  34.649  1.00  0.00     0.001 A 
ATOM     70  C   UNL A   1      46.522  26.011  35.431  1.00  0.00     0.000 A 
ENDBRANCH  51  65
BRANCH  52  71
ATOM     71  C   UNL A   1      36.799  31.366  29.105  1.00  0.00    -0.014 A 
ATOM     72  C   UNL A   1      35.669  30.600  28.782  1.00  0.00     0.009 A 
ATOM     73  C   UNL A   1      36.846  32.711  28.705  1.00  0.00     0.009 A 
ATOM     74  C   UNL A   1      34.619  31.163  28.053  1.00  0.00     0.001 A 
ATOM     75  C   UNL A   1      35.784  33.278  27.997  1.00  0.00     0.001 A 
ATOM     76  C   UNL A   1      34.676  32.501  27.664  1.00  0.00     0.000 A 
ENDBRANCH  52  71
BRANCH  64  77
ATOM     77  C   UNL A   1      39.108  31.951  35.640  1.00  0.00    -0.014 A 
ATOM     78  C   UNL A   1      39.513  33.283  35.811  1.00  0.00     0.009 A 
ATOM     79  C   UNL A   1      38.206  31.389  36.558  1.00  0.00     0.009 A 
ATOM     80  C   UNL A   1      39.046  34.028  36.896  1.00  0.00     0.001 A 
ATOM     81  C   UNL A   1      37.722  32.143  37.626  1.00  0.00     0.001 A 
ATOM     82  C   UNL A   1      38.148  33.459  37.800  1.00  0.00     0.000 A 
ENDBRANCH  64  77
ENDBRANCH  38  39
ENDBRANCH  31  33
ENDBRANCH  30  31
ENDBRANCH  29  30
ENDBRANCH  28  29
ENDBRANCH  27  28
ENDBRANCH  26  27
ENDBRANCH   1  26
TORSDOF 21
ENDMDL
MODEL 2
REMARK VINA RESULT:      -9.5      3.263      8.531
REMARK SMILES CC(C)c1nc(N(C)C[C@@H]2CC[N@@H+](C)C2)sc1C(=O)OCCOCCOCCOC(=O)c1ccc(-c2c3nc(c(-c4ccccc4)c4ccc([nH]4)c(-c4ccccc4)c4nc(c(-c5ccccc5)c5ccc2[nH]5)C=C4)C=C3)cc1
REMARK SMILES IDX 24 1 23 2 22 3 21 4 20 5 18 6 19 7 17 8 4 9 5 10 6 11 16 12
REMARK SMILES IDX 2 13 1 14 3 15 7 16 8 17 9 18 10 19 11 20 15 21 12 22 13 23
REMARK SMILES IDX 14 24 25 26 26 27 27 28 28 29 29 30 30 31 31 32 32 33 33 34
REMARK SMILES IDX 79 35 34 36 78 37 35 38 36 39 37 40 72 41 38 42 77 43 71 44
REMARK SMILES IDX 73 45 39 46 76 47 70 48 69 49 40 51 62 52 47 53 61 54 48 55
REMARK SMILES IDX 51 56 60 57 74 58 49 59 50 60 59 62 75 63 52 64 41 65 42 66
REMARK SMILES IDX 46 67 43 68 45 69 44 70 63 71 64 72 68 73 65 74 67 75 66 76
REMARK SMILES IDX 53 77 54 78 58 79 55 80 57 81 56 82
REMARK H PARENT 13 25 73 50 51 61
REMARK Flexibility Score: inf
ROOT
ATOM      1  C   UNL A   1      33.732  29.276  26.393  1.00  0.00     0.188 C 
ENDROOT
BRANCH   1   2
ATOM      2  O   UNL A   1      33.363  29.145  25.037  1.00  0.00    -0.376 OA
BRANCH   2   3
ATOM      3  C   UNL A   1      33.711  27.996  24.296  1.00  0.00     0.202 C 
BRANCH   3   4
ATOM      4  C   UNL A   1      33.413  27.831  22.795  1.00  0.00     0.261 C 
BRANCH   4   5
ATOM      5  O   UNL A   1      32.118  27.351  22.428  1.00  0.00    -0.459 OA
BRANCH   5   6
ATOM      6  C   UNL A   1      32.051  26.138  21.812  1.00  0.00     0.350 C 
ATOM      7  O   UNL A   1      32.103  25.980  20.605  1.00  0.00    -0.245 OA
BRANCH   6   8
ATOM      8  C   UNL A   1      32.031  25.099  22.817  1.00  0.00     0.137 A 
ATOM      9  C   UNL A   1      31.406  25.004  24.050  1.00  0.00     0.071 A 
ATOM     10  N   UNL A   1      31.699  23.831  24.737  1.00  0.00    -0.224 NA
ATOM     11  C   UNL A   1      32.534  23.056  24.083  1.00  0.00     0.186 A 
ATOM     12  S   UNL A   1      32.968  23.693  22.536  1.00  0.00    -0.089 S 
BRANCH   9  13
ATOM     13  C   UNL A   1      30.441  25.972  24.702  1.00  0.00     0.034 C 
ATOM     14  C   UNL A   1      29.156  26.139  23.878  1.00  0.00     0.014 C 
ATOM     15  C   UNL A   1      30.062  25.554  26.123  1.00  0.00     0.014 C 
ENDBRANCH   9  13
BRANCH  11  16
ATOM     16  N   UNL A   1      33.000  21.869  24.573  1.00  0.00    -0.351 N 
ATOM     17  C   UNL A   1      32.209  20.650  24.531  1.00  0.00     0.146 C 
BRANCH  16  18
ATOM     18  C   UNL A   1      34.167  21.870  25.462  1.00  0.00     0.128 C 
BRANCH  18  19
ATOM     19  C   UNL A   1      35.511  21.988  24.728  1.00  0.00     0.069 C 
ATOM     20  C   UNL A   1      36.510  20.883  25.098  1.00  0.00     0.072 C 
ATOM     21  C   UNL A   1      36.225  23.292  25.111  1.00  0.00     0.267 C 
ATOM     22  C   UNL A   1      37.766  21.618  25.535  1.00  0.00     0.262 C 
ATOM     23  N   UNL A   1      37.222  22.857  26.093  1.00  0.00    -0.337 N 
ATOM     24  C   UNL A   1      38.251  23.859  26.326  1.00  0.00     0.332 C 
ATOM     25  H   UNL A   1      36.809  22.713  27.014  1.00  0.00     0.347 HD
ENDBRANCH  18  19
ENDBRANCH  16  18
ENDBRANCH  11  16
ENDBRANCH   6   8
ENDBRANCH   5   6
ENDBRANCH   4   5
ENDBRANCH   3   4
ENDBRANCH   2   3
ENDBRANCH   1   2
BRANCH   1  26
ATOM     26  C   UNL A   1      33.031  30.457  27.089  1.00  0.00     0.188 C 
BRANCH  26  27
ATOM     27  O   UNL A   1      31.779  30.914  26.581  1.00  0.00    -0.376 OA
BRANCH  27  28
ATOM     28  C   UNL A   1      31.400  32.275  26.770  1.00  0.00     0.202 C 
BRANCH  28  29
ATOM     29  C   UNL A   1      32.514  33.291  27.024  1.00  0.00     0.261 C 
BRANCH  29  30
ATOM     30  O   UNL A   1      32.340  34.008  28.257  1.00  0.00    -0.460 OA
BRANCH  30  31
ATOM     31  C   UNL A   1      33.415  34.731  28.651  1.00  0.00     0.338 C 
ATOM     32  O   UNL A   1      33.464  35.924  28.897  1.00  0.00    -0.246 OA
BRANCH  31  33
ATOM     33  C   UNL A   1      34.544  33.822  28.914  1.00  0.00     0.060 A 
ATOM     34  C   UNL A   1      34.277  32.622  29.585  1.00  0.00     0.016 A 
ATOM     35  C   UNL A   1      35.850  34.175  28.572  1.00  0.00     0.016 A 
ATOM     36  C   UNL A   1      35.325  31.784  29.951  1.00  0.00     0.010 A 
ATOM     37  C   UNL A   1      36.903  33.343  28.959  1.00  0.00     0.010 A 
ATOM     38  C   UNL A   1      36.646  32.162  29.678  1.00  0.00    -0.014 A 
BRANCH  38  39
ATOM     39  C   UNL A   1      37.763  31.414  30.295  1.00  0.00     0.031 A 
ATOM     40  C   UNL A   1      38.082  31.663  31.743  1.00  0.00     0.074 A 
ATOM     41  C   UNL A   1      38.474  30.524  29.585  1.00  0.00     0.049 A 
ATOM     42  N   UNL A   1      39.030  31.148  32.482  1.00  0.00    -0.248 NA
ATOM     43  C   UNL A   1      37.213  32.618  32.451  1.00  0.00     0.031 C 
ATOM     44  C   UNL A   1      38.232  30.165  28.188  1.00  0.00     0.029 A 
ATOM     45  N   UNL A   1      39.556  29.763  29.949  1.00  0.00    -0.354 N 
ATOM     46  C   UNL A   1      38.874  31.717  33.740  1.00  0.00     0.074 A 
ATOM     47  C   UNL A   1      37.755  32.630  33.660  1.00  0.00     0.031 C 
ATOM     48  C   UNL A   1      39.151  29.259  27.808  1.00  0.00     0.029 A 
ATOM     49  C   UNL A   1      40.057  28.998  28.925  1.00  0.00     0.049 A 
ATOM     50  H   UNL A   1      39.936  29.766  30.856  1.00  0.00     0.167 HD
ATOM     51  C   UNL A   1      39.597  31.497  34.863  1.00  0.00     0.031 A 
ATOM     52  C   UNL A   1      41.137  28.195  28.893  1.00  0.00     0.031 A 
ATOM     53  C   UNL A   1      40.724  30.610  34.939  1.00  0.00     0.049 A 
ATOM     54  C   UNL A   1      41.978  28.036  30.131  1.00  0.00     0.074 A 
ATOM     55  C   UNL A   1      41.518  30.314  36.033  1.00  0.00     0.029 A 
ATOM     56  N   UNL A   1      41.226  29.885  33.870  1.00  0.00    -0.354 N 
ATOM     57  N   UNL A   1      41.803  28.556  31.322  1.00  0.00    -0.248 NA
ATOM     58  C   UNL A   1      43.165  27.175  30.019  1.00  0.00     0.031 C 
ATOM     59  C   UNL A   1      42.530  29.443  35.614  1.00  0.00     0.029 A 
ATOM     60  C   UNL A   1      42.335  29.162  34.271  1.00  0.00     0.049 A 
ATOM     61  H   UNL A   1      40.849  29.884  32.960  1.00  0.00     0.167 HD
ATOM     62  C   UNL A   1      42.840  28.064  32.107  1.00  0.00     0.074 A 
ATOM     63  C   UNL A   1      43.633  27.198  31.259  1.00  0.00     0.031 C 
ATOM     64  C   UNL A   1      43.110  28.304  33.413  1.00  0.00     0.031 A 
BRANCH  51  65
ATOM     65  C   UNL A   1      39.204  32.264  36.092  1.00  0.00    -0.014 A 
ATOM     66  C   UNL A   1      38.098  31.879  36.865  1.00  0.00     0.009 A 
ATOM     67  C   UNL A   1      39.962  33.376  36.489  1.00  0.00     0.009 A 
ATOM     68  C   UNL A   1      37.742  32.612  37.999  1.00  0.00     0.001 A 
ATOM     69  C   UNL A   1      39.616  34.093  37.636  1.00  0.00     0.001 A 
ATOM     70  C   UNL A   1      38.503  33.715  38.385  1.00  0.00     0.000 A 
ENDBRANCH  51  65
BRANCH  52  71
ATOM     71  C   UNL A   1      41.507  27.492  27.639  1.00  0.00    -0.014 A 
ATOM     72  C   UNL A   1      42.251  28.146  26.645  1.00  0.00     0.009 A 
ATOM     73  C   UNL A   1      41.094  26.168  27.419  1.00  0.00     0.009 A 
ATOM     74  C   UNL A   1      42.552  27.496  25.446  1.00  0.00     0.001 A 
ATOM     75  C   UNL A   1      41.417  25.513  26.228  1.00  0.00     0.001 A 
ATOM     76  C   UNL A   1      42.138  26.181  25.239  1.00  0.00     0.000 A 
ENDBRANCH  52  71
BRANCH  64  77
ATOM     77  C   UNL A   1      44.288  27.595  34.013  1.00  0.00    -0.014 A 
ATOM     78  C   UNL A   1      44.154  26.328  34.601  1.00  0.00     0.009 A 
ATOM     79  C   UNL A   1      45.561  28.185  33.947  1.00  0.00     0.009 A 
ATOM     80  C   UNL A   1      45.268  25.677  35.135  1.00  0.00     0.001 A 
ATOM     81  C   UNL A   1      46.676  27.522  34.459  1.00  0.00     0.001 A 
ATOM     82  C   UNL A   1      46.527  26.272  35.061  1.00  0.00     0.000 A 
ENDBRANCH  64  77
ENDBRANCH  38  39
ENDBRANCH  31  33
ENDBRANCH  30  31
ENDBRANCH  29  30
ENDBRANCH  28  29
ENDBRANCH  27  28
ENDBRANCH  26  27
ENDBRANCH   1  26
TORSDOF 21
ENDMDL
MODEL 3
REMARK VINA RESULT:      -9.3      3.325      8.639
REMARK SMILES CC(C)c1nc(N(C)C[C@@H]2CC[N@@H+](C)C2)sc1C(=O)OCCOCCOCCOC(=O)c1ccc(-c2c3nc(c(-c4ccccc4)c4ccc([nH]4)c(-c4ccccc4)c4nc(c(-c5ccccc5)c5ccc2[nH]5)C=C4)C=C3)cc1
REMARK SMILES IDX 24 1 23 2 22 3 21 4 20 5 18 6 19 7 17 8 4 9 5 10 6 11 16 12
REMARK SMILES IDX 2 13 1 14 3 15 7 16 8 17 9 18 10 19 11 20 15 21 12 22 13 23
REMARK SMILES IDX 14 24 25 26 26 27 27 28 28 29 29 30 30 31 31 32 32 33 33 34
REMARK SMILES IDX 79 35 34 36 78 37 35 38 36 39 37 40 72 41 38 42 77 43 71 44
REMARK SMILES IDX 73 45 39 46 76 47 70 48 69 49 40 51 62 52 47 53 61 54 48 55
REMARK SMILES IDX 51 56 60 57 74 58 49 59 50 60 59 62 75 63 52 64 41 65 42 66
REMARK SMILES IDX 46 67 43 68 45 69 44 70 63 71 64 72 68 73 65 74 67 75 66 76
REMARK SMILES IDX 53 77 54 78 58 79 55 80 57 81 56 82
REMARK H PARENT 13 25 73 50 51 61
REMARK Flexibility Score: inf
ROOT
ATOM      1  C   UNL A   1      33.618  29.184  26.630  1.00  0.00     0.188 C 
ENDROOT
BRANCH   1   2
ATOM      2  O   UNL A   1      33.587  29.141  25.220  1.00  0.00    -0.376 OA
BRANCH   2   3
ATOM      3  C   UNL A   1      33.631  27.912  24.528  1.00  0.00     0.202 C 
BRANCH   3   4
ATOM      4  C   UNL A   1      32.863  27.644  23.221  1.00  0.00     0.261 C 
BRANCH   4   5
ATOM      5  O   UNL A   1      31.893  26.596  23.229  1.00  0.00    -0.459 OA
BRANCH   5   6
ATOM      6  C   UNL A   1      32.220  25.434  22.598  1.00  0.00     0.350 C 
ATOM      7  O   UNL A   1      32.262  25.302  21.388  1.00  0.00    -0.245 OA
BRANCH   6   8
ATOM      8  C   UNL A   1      32.615  24.455  23.586  1.00  0.00     0.137 A 
ATOM      9  C   UNL A   1      32.095  24.117  24.825  1.00  0.00     0.071 A 
ATOM     10  N   UNL A   1      32.823  23.137  25.489  1.00  0.00    -0.224 NA
ATOM     11  C   UNL A   1      33.879  22.744  24.811  1.00  0.00     0.186 A 
ATOM     12  S   UNL A   1      34.010  23.513  23.269  1.00  0.00    -0.089 S 
BRANCH   9  13
ATOM     13  C   UNL A   1      30.846  24.640  25.505  1.00  0.00     0.034 C 
ATOM     14  C   UNL A   1      30.254  23.610  26.478  1.00  0.00     0.014 C 
ATOM     15  C   UNL A   1      31.094  25.945  26.262  1.00  0.00     0.014 C 
ENDBRANCH   9  13
BRANCH  11  16
ATOM     16  N   UNL A   1      34.769  21.818  25.275  1.00  0.00    -0.351 N 
ATOM     17  C   UNL A   1      35.869  22.173  26.156  1.00  0.00     0.146 C 
BRANCH  16  18
ATOM     18  C   UNL A   1      34.843  20.505  24.622  1.00  0.00     0.128 C 
BRANCH  18  19
ATOM     19  C   UNL A   1      33.499  19.766  24.554  1.00  0.00     0.069 C 
ATOM     20  C   UNL A   1      32.886  19.482  25.933  1.00  0.00     0.072 C 
ATOM     21  C   UNL A   1      33.674  18.379  23.921  1.00  0.00     0.267 C 
ATOM     22  C   UNL A   1      32.627  17.984  25.947  1.00  0.00     0.262 C 
ATOM     23  N   UNL A   1      33.689  17.477  25.077  1.00  0.00    -0.337 N 
ATOM     24  C   UNL A   1      33.484  16.086  24.703  1.00  0.00     0.332 C 
ATOM     25  H   UNL A   1      34.596  17.474  25.542  1.00  0.00     0.347 HD
ENDBRANCH  18  19
ENDBRANCH  16  18
ENDBRANCH  11  16
ENDBRANCH   6   8
ENDBRANCH   5   6
ENDBRANCH   4   5
ENDBRANCH   3   4
ENDBRANCH   2   3
ENDBRANCH   1   2
BRANCH   1  26
ATOM     26  C   UNL A   1      32.980  30.465  27.199  1.00  0.00     0.188 C 
BRANCH  26  27
ATOM     27  O   UNL A   1      31.790  30.970  26.599  1.00  0.00    -0.376 OA
BRANCH  27  28
ATOM     28  C   UNL A   1      31.403  32.321  26.836  1.00  0.00     0.202 C 
BRANCH  28  29
ATOM     29  C   UNL A   1      32.514  33.345  27.070  1.00  0.00     0.261 C 
BRANCH  29  30
ATOM     30  O   UNL A   1      32.283  34.158  28.231  1.00  0.00    -0.460 OA
BRANCH  30  31
ATOM     31  C   UNL A   1      33.364  34.848  28.668  1.00  0.00     0.338 C 
ATOM     32  O   UNL A   1      33.433  36.034  28.941  1.00  0.00    -0.246 OA
BRANCH  31  33
ATOM     33  C   UNL A   1      34.466  33.908  28.937  1.00  0.00     0.060 A 
ATOM     34  C   UNL A   1      34.172  32.743  29.659  1.00  0.00     0.016 A 
ATOM     35  C   UNL A   1      35.775  34.199  28.551  1.00  0.00     0.016 A 
ATOM     36  C   UNL A   1      35.198  31.881  30.032  1.00  0.00     0.010 A 
ATOM     37  C   UNL A   1      36.806  33.343  28.944  1.00  0.00     0.010 A 
ATOM     38  C   UNL A   1      36.524  32.200  29.713  1.00  0.00    -0.014 A 
BRANCH  38  39
ATOM     39  C   UNL A   1      37.629  31.434  30.331  1.00  0.00     0.031 A 
ATOM     40  C   UNL A   1      37.968  31.698  31.771  1.00  0.00     0.074 A 
ATOM     41  C   UNL A   1      38.311  30.516  29.627  1.00  0.00     0.049 A 
ATOM     42  N   UNL A   1      38.911  31.171  32.509  1.00  0.00    -0.248 NA
ATOM     43  C   UNL A   1      37.131  32.685  32.473  1.00  0.00     0.031 C 
ATOM     44  C   UNL A   1      38.046  30.141  28.239  1.00  0.00     0.029 A 
ATOM     45  N   UNL A   1      39.377  29.734  29.993  1.00  0.00    -0.354 N 
ATOM     46  C   UNL A   1      38.782  31.762  33.759  1.00  0.00     0.074 A 
ATOM     47  C   UNL A   1      37.686  32.702  33.676  1.00  0.00     0.031 C 
ATOM     48  C   UNL A   1      38.938  29.207  27.864  1.00  0.00     0.029 A 
ATOM     49  C   UNL A   1      39.849  28.941  28.976  1.00  0.00     0.049 A 
ATOM     50  H   UNL A   1      39.766  29.741  30.896  1.00  0.00     0.167 HD
ATOM     51  C   UNL A   1      39.511  31.542  34.878  1.00  0.00     0.031 A 
ATOM     52  C   UNL A   1      40.908  28.111  28.946  1.00  0.00     0.031 A 
ATOM     53  C   UNL A   1      40.617  30.628  34.957  1.00  0.00     0.049 A 
ATOM     54  C   UNL A   1      41.757  27.950  30.179  1.00  0.00     0.074 A 
ATOM     55  C   UNL A   1      41.414  30.330  36.048  1.00  0.00     0.029 A 
ATOM     56  N   UNL A   1      41.090  29.875  33.895  1.00  0.00    -0.354 N 
ATOM     57  N   UNL A   1      41.608  28.492  31.363  1.00  0.00    -0.248 NA
ATOM     58  C   UNL A   1      42.921  27.058  30.068  1.00  0.00     0.031 C 
ATOM     59  C   UNL A   1      42.400  29.428  35.632  1.00  0.00     0.029 A 
ATOM     60  C   UNL A   1      42.185  29.131  34.296  1.00  0.00     0.049 A 
ATOM     61  H   UNL A   1      40.703  29.870  32.989  1.00  0.00     0.167 HD
ATOM     62  C   UNL A   1      42.640  27.987  32.145  1.00  0.00     0.074 A 
ATOM     63  C   UNL A   1      43.403  27.089  31.303  1.00  0.00     0.031 C 
ATOM     64  C   UNL A   1      42.929  28.241  33.444  1.00  0.00     0.031 A 
BRANCH  51  65
ATOM     65  C   UNL A   1      39.150  32.337  36.099  1.00  0.00    -0.014 A 
ATOM     66  C   UNL A   1      39.789  33.553  36.388  1.00  0.00     0.009 A 
ATOM     67  C   UNL A   1      38.145  31.871  36.960  1.00  0.00     0.009 A 
ATOM     68  C   UNL A   1      39.447  34.274  37.534  1.00  0.00     0.001 A 
ATOM     69  C   UNL A   1      37.791  32.605  38.094  1.00  0.00     0.001 A 
ATOM     70  C   UNL A   1      38.447  33.801  38.383  1.00  0.00     0.000 A 
ENDBRANCH  51  65
BRANCH  52  71
ATOM     71  C   UNL A   1      41.248  27.380  27.699  1.00  0.00    -0.014 A 
ATOM     72  C   UNL A   1      40.749  26.089  27.469  1.00  0.00     0.009 A 
ATOM     73  C   UNL A   1      42.098  27.961  26.745  1.00  0.00     0.009 A 
ATOM     74  C   UNL A   1      41.113  25.386  26.319  1.00  0.00     0.001 A 
ATOM     75  C   UNL A   1      42.442  27.263  25.584  1.00  0.00     0.001 A 
ATOM     76  C   UNL A   1      41.956  25.973  25.377  1.00  0.00     0.000 A 
ENDBRANCH  52  71
BRANCH  64  77
ATOM     77  C   UNL A   1      44.096  27.512  34.044  1.00  0.00    -0.014 A 
ATOM     78  C   UNL A   1      43.943  26.242  34.620  1.00  0.00     0.009 A 
ATOM     79  C   UNL A   1      45.376  28.087  33.990  1.00  0.00     0.009 A 
ATOM     80  C   UNL A   1      45.046  25.573  35.154  1.00  0.00     0.001 A 
ATOM     81  C   UNL A   1      46.480  27.406  34.501  1.00  0.00     0.001 A 
ATOM     82  C   UNL A   1      46.313  26.153  35.091  1.00  0.00     0.000 A 
ENDBRANCH  64  77
ENDBRANCH  38  39
ENDBRANCH  31  33
ENDBRANCH  30  31
ENDBRANCH  29  30
ENDBRANCH  28  29
ENDBRANCH  27  28
ENDBRANCH  26  27
ENDBRANCH   1  26
TORSDOF 21
ENDMDL
