MODEL 1
REMARK VINA RESULT:     -10.1      0.000      0.000
REMARK SMILES C[C@]1(c2nnnn2CCC(=O)OCCOCCOCCOC(=O)c2ccc(-c3c4nc(c(-c5ccccc5)c5ccc([nH]5)c(-c5ccccc5)c5nc(c(-c6ccccc6)c6ccc3[nH]6)C=C5)C=C4)cc2)CCCO1
REMARK SMILES IDX 16 1 15 2 14 3 13 4 12 5 10 6 11 7 9 8 8 9 7 10 3 11 4 12
REMARK SMILES IDX 5 13 6 14 2 15 1 16 72 17 75 18 73 19 74 20 17 21 18 22
REMARK SMILES IDX 19 23 20 24 21 25 22 26 23 27 24 28 25 29 71 30 26 31 70 32
REMARK SMILES IDX 27 33 28 34 29 35 64 36 30 37 69 38 63 39 65 40 31 41 68 42
REMARK SMILES IDX 62 43 61 44 32 46 54 47 39 48 53 49 40 50 43 51 52 52 66 53
REMARK SMILES IDX 41 54 42 55 51 57 67 58 44 59 33 60 34 61 38 62 35 63 37 64
REMARK SMILES IDX 36 65 55 66 56 67 60 68 57 69 59 70 58 71 45 72 46 73 50 74
REMARK SMILES IDX 47 75 49 76 48 77
REMARK H PARENT 65 45 43 56
REMARK Flexibility Score: inf
ROOT
ATOM      1  C   UNL A   1      34.768  33.168  27.945  1.00  0.00     0.188 C 
ENDROOT
BRANCH   1   2
ATOM      2  O   UNL A   1      34.643  31.754  27.776  1.00  0.00    -0.376 OA
BRANCH   2   3
ATOM      3  C   UNL A   1      33.356  31.280  27.386  1.00  0.00     0.202 C 
BRANCH   3   4
ATOM      4  C   UNL A   1      33.340  29.865  26.799  1.00  0.00     0.261 C 
BRANCH   4   5
ATOM      5  O   UNL A   1      32.012  29.319  26.750  1.00  0.00    -0.463 OA
BRANCH   5   6
ATOM      6  C   UNL A   1      31.827  28.064  27.211  1.00  0.00     0.307 C 
ATOM      7  O   UNL A   1      31.193  27.781  28.223  1.00  0.00    -0.252 OA
BRANCH   6   8
ATOM      8  C   UNL A   1      32.383  26.980  26.310  1.00  0.00     0.146 C 
BRANCH   8   9
ATOM      9  C   UNL A   1      31.429  26.126  25.484  1.00  0.00     0.160 C 
BRANCH   9  10
ATOM     10  N   UNL A   1      30.946  24.924  26.119  1.00  0.00    -0.226 N 
ATOM     11  C   UNL A   1      31.514  23.688  26.324  1.00  0.00     0.183 A 
ATOM     12  N   UNL A   1      30.664  22.983  27.056  1.00  0.00    -0.111 NA
ATOM     13  N   UNL A   1      29.584  23.775  27.291  1.00  0.00    -0.024 NA
ATOM     14  N   UNL A   1      29.734  24.947  26.708  1.00  0.00    -0.045 NA
BRANCH  11  15
ATOM     15  C   UNL A   1      32.787  23.117  25.781  1.00  0.00     0.126 C 
ATOM     16  C   UNL A   1      33.922  23.287  26.800  1.00  0.00     0.051 C 
ATOM     17  C   UNL A   1      32.575  21.657  25.381  1.00  0.00     0.046 C 
ATOM     18  O   UNL A   1      33.197  23.790  24.577  1.00  0.00    -0.367 OA
ATOM     19  C   UNL A   1      33.576  21.461  24.271  1.00  0.00     0.032 C 
ATOM     20  C   UNL A   1      33.577  22.814  23.595  1.00  0.00     0.161 C 
ENDBRANCH  11  15
ENDBRANCH   9  10
ENDBRANCH   8   9
ENDBRANCH   6   8
ENDBRANCH   5   6
ENDBRANCH   4   5
ENDBRANCH   3   4
ENDBRANCH   2   3
ENDBRANCH   1   2
BRANCH   1  21
ATOM     21  C   UNL A   1      33.912  33.752  29.070  1.00  0.00     0.188 C 
BRANCH  21  22
ATOM     22  O   UNL A   1      32.932  34.703  28.682  1.00  0.00    -0.376 OA
BRANCH  22  23
ATOM     23  C   UNL A   1      33.009  36.091  29.016  1.00  0.00     0.202 C 
BRANCH  23  24
ATOM     24  C   UNL A   1      32.819  36.652  30.433  1.00  0.00     0.261 C 
BRANCH  24  25
ATOM     25  O   UNL A   1      33.693  36.147  31.412  1.00  0.00    -0.460 OA
BRANCH  25  26
ATOM     26  C   UNL A   1      33.163  35.240  32.261  1.00  0.00     0.338 C 
ATOM     27  O   UNL A   1      31.995  34.999  32.467  1.00  0.00    -0.246 OA
BRANCH  26  28
ATOM     28  C   UNL A   1      34.316  34.606  32.923  1.00  0.00     0.060 A 
ATOM     29  C   UNL A   1      35.477  35.364  32.999  1.00  0.00     0.016 A 
ATOM     30  C   UNL A   1      34.298  33.225  33.212  1.00  0.00     0.016 A 
ATOM     31  C   UNL A   1      36.665  34.681  33.019  1.00  0.00     0.010 A 
ATOM     32  C   UNL A   1      35.482  32.543  33.224  1.00  0.00     0.010 A 
ATOM     33  C   UNL A   1      36.630  33.280  32.989  1.00  0.00    -0.014 A 
BRANCH  33  34
ATOM     34  C   UNL A   1      37.857  32.597  32.680  1.00  0.00     0.031 A 
ATOM     35  C   UNL A   1      38.770  32.535  33.826  1.00  0.00     0.074 A 
ATOM     36  C   UNL A   1      38.102  32.086  31.461  1.00  0.00     0.049 A 
ATOM     37  N   UNL A   1      39.846  33.223  33.991  1.00  0.00    -0.248 NA
ATOM     38  C   UNL A   1      38.331  31.778  35.006  1.00  0.00     0.031 C 
ATOM     39  C   UNL A   1      37.174  31.870  30.347  1.00  0.00     0.029 A 
ATOM     40  N   UNL A   1      39.260  31.551  31.002  1.00  0.00    -0.354 N 
ATOM     41  C   UNL A   1      40.340  32.832  35.224  1.00  0.00     0.074 A 
ATOM     42  C   UNL A   1      39.282  32.106  35.880  1.00  0.00     0.031 C 
ATOM     43  C   UNL A   1      37.749  31.032  29.452  1.00  0.00     0.029 A 
ATOM     44  C   UNL A   1      39.120  30.775  29.863  1.00  0.00     0.049 A 
ATOM     45  H   UNL A   1      40.128  31.700  31.443  1.00  0.00     0.167 HD
ATOM     46  C   UNL A   1      41.673  32.883  35.482  1.00  0.00     0.031 A 
ATOM     47  C   UNL A   1      40.053  29.925  29.366  1.00  0.00     0.031 A 
ATOM     48  C   UNL A   1      42.365  33.744  34.557  1.00  0.00     0.049 A 
ATOM     49  C   UNL A   1      41.366  30.318  29.939  1.00  0.00     0.074 A 
ATOM     50  C   UNL A   1      42.273  35.082  34.225  1.00  0.00     0.029 A 
ATOM     51  N   UNL A   1      43.041  33.142  33.520  1.00  0.00    -0.354 N 
ATOM     52  N   UNL A   1      41.976  31.427  29.631  1.00  0.00    -0.248 NA
ATOM     53  C   UNL A   1      41.772  29.714  31.200  1.00  0.00     0.031 C 
ATOM     54  C   UNL A   1      42.480  35.130  32.815  1.00  0.00     0.029 A 
ATOM     55  C   UNL A   1      42.749  33.834  32.372  1.00  0.00     0.049 A 
ATOM     56  H   UNL A   1      43.628  32.354  33.590  1.00  0.00     0.167 HD
ATOM     57  C   UNL A   1      42.497  31.890  30.832  1.00  0.00     0.074 A 
ATOM     58  C   UNL A   1      42.426  30.747  31.742  1.00  0.00     0.031 C 
ATOM     59  C   UNL A   1      42.662  33.226  31.061  1.00  0.00     0.031 A 
BRANCH  46  60
ATOM     60  C   UNL A   1      42.371  31.800  36.259  1.00  0.00    -0.014 A 
ATOM     61  C   UNL A   1      43.159  32.168  37.359  1.00  0.00     0.009 A 
ATOM     62  C   UNL A   1      42.517  30.480  35.784  1.00  0.00     0.009 A 
ATOM     63  C   UNL A   1      44.100  31.286  37.902  1.00  0.00     0.001 A 
ATOM     64  C   UNL A   1      43.422  29.584  36.350  1.00  0.00     0.001 A 
ATOM     65  C   UNL A   1      44.236  29.998  37.391  1.00  0.00     0.000 A 
ENDBRANCH  46  60
BRANCH  47  66
ATOM     66  C   UNL A   1      39.837  28.618  28.710  1.00  0.00    -0.014 A 
ATOM     67  C   UNL A   1      40.392  28.346  27.450  1.00  0.00     0.009 A 
ATOM     68  C   UNL A   1      39.315  27.533  29.441  1.00  0.00     0.009 A 
ATOM     69  C   UNL A   1      40.459  27.035  26.959  1.00  0.00     0.001 A 
ATOM     70  C   UNL A   1      39.377  26.226  28.949  1.00  0.00     0.001 A 
ATOM     71  C   UNL A   1      39.964  25.974  27.715  1.00  0.00     0.000 A 
ENDBRANCH  47  66
BRANCH  59  72
ATOM     72  C   UNL A   1      42.486  34.171  29.895  1.00  0.00    -0.014 A 
ATOM     73  C   UNL A   1      41.245  34.728  29.535  1.00  0.00     0.009 A 
ATOM     74  C   UNL A   1      43.635  34.632  29.237  1.00  0.00     0.009 A 
ATOM     75  C   UNL A   1      41.158  35.693  28.525  1.00  0.00     0.001 A 
ATOM     76  C   UNL A   1      43.552  35.610  28.244  1.00  0.00     0.001 A 
ATOM     77  C   UNL A   1      42.313  36.136  27.884  1.00  0.00     0.000 A 
ENDBRANCH  59  72
ENDBRANCH  33  34
ENDBRANCH  26  28
ENDBRANCH  25  26
ENDBRANCH  24  25
ENDBRANCH  23  24
ENDBRANCH  22  23
ENDBRANCH  21  22
ENDBRANCH   1  21
TORSDOF 20
ENDMDL
MODEL 2
REMARK VINA RESULT:      -9.9      1.877      2.175
REMARK SMILES C[C@]1(c2nnnn2CCC(=O)OCCOCCOCCOC(=O)c2ccc(-c3c4nc(c(-c5ccccc5)c5ccc([nH]5)c(-c5ccccc5)c5nc(c(-c6ccccc6)c6ccc3[nH]6)C=C5)C=C4)cc2)CCCO1
REMARK SMILES IDX 16 1 15 2 14 3 13 4 12 5 10 6 11 7 9 8 8 9 7 10 3 11 4 12
REMARK SMILES IDX 5 13 6 14 2 15 1 16 72 17 75 18 73 19 74 20 17 21 18 22
REMARK SMILES IDX 19 23 20 24 21 25 22 26 23 27 24 28 25 29 71 30 26 31 70 32
REMARK SMILES IDX 27 33 28 34 29 35 64 36 30 37 69 38 63 39 65 40 31 41 68 42
REMARK SMILES IDX 62 43 61 44 32 46 54 47 39 48 53 49 40 50 43 51 52 52 66 53
REMARK SMILES IDX 41 54 42 55 51 57 67 58 44 59 33 60 34 61 38 62 35 63 37 64
REMARK SMILES IDX 36 65 55 66 56 67 60 68 57 69 59 70 58 71 45 72 46 73 50 74
REMARK SMILES IDX 47 75 49 76 48 77
REMARK H PARENT 65 45 43 56
REMARK Flexibility Score: inf
ROOT
ATOM      1  C   UNL A   1      34.601  33.885  28.005  1.00  0.00     0.188 C 
ENDROOT
BRANCH   1   2
ATOM      2  O   UNL A   1      35.049  32.586  27.613  1.00  0.00    -0.376 OA
BRANCH   2   3
ATOM      3  C   UNL A   1      34.244  31.489  28.038  1.00  0.00     0.202 C 
BRANCH   3   4
ATOM      4  C   UNL A   1      34.793  30.106  27.674  1.00  0.00     0.261 C 
BRANCH   4   5
ATOM      5  O   UNL A   1      34.082  29.520  26.570  1.00  0.00    -0.463 OA
BRANCH   5   6
ATOM      6  C   UNL A   1      32.867  28.987  26.814  1.00  0.00     0.307 C 
ATOM      7  O   UNL A   1      32.610  28.239  27.752  1.00  0.00    -0.252 OA
BRANCH   6   8
ATOM      8  C   UNL A   1      31.774  29.471  25.883  1.00  0.00     0.146 C 
BRANCH   8   9
ATOM      9  C   UNL A   1      32.099  29.744  24.419  1.00  0.00     0.160 C 
BRANCH   9  10
ATOM     10  N   UNL A   1      31.293  29.041  23.450  1.00  0.00    -0.226 N 
ATOM     11  C   UNL A   1      31.509  27.898  22.717  1.00  0.00     0.183 A 
ATOM     12  N   UNL A   1      30.390  27.641  22.054  1.00  0.00    -0.111 NA
ATOM     13  N   UNL A   1      29.501  28.619  22.373  1.00  0.00    -0.024 NA
ATOM     14  N   UNL A   1      30.045  29.487  23.202  1.00  0.00    -0.045 NA
BRANCH  11  15
ATOM     15  C   UNL A   1      32.758  27.090  22.547  1.00  0.00     0.126 C 
ATOM     16  C   UNL A   1      33.939  28.005  22.199  1.00  0.00     0.051 C 
ATOM     17  C   UNL A   1      33.015  26.257  23.804  1.00  0.00     0.046 C 
ATOM     18  O   UNL A   1      32.630  26.139  21.476  1.00  0.00    -0.367 OA
ATOM     19  C   UNL A   1      33.760  25.061  23.271  1.00  0.00     0.032 C 
ATOM     20  C   UNL A   1      33.124  24.863  21.913  1.00  0.00     0.161 C 
ENDBRANCH  11  15
ENDBRANCH   9  10
ENDBRANCH   8   9
ENDBRANCH   6   8
ENDBRANCH   5   6
ENDBRANCH   4   5
ENDBRANCH   3   4
ENDBRANCH   2   3
ENDBRANCH   1   2
BRANCH   1  21
ATOM     21  C   UNL A   1      33.106  33.975  28.316  1.00  0.00     0.188 C 
BRANCH  21  22
ATOM     22  O   UNL A   1      32.572  35.283  28.448  1.00  0.00    -0.376 OA
BRANCH  22  23
ATOM     23  C   UNL A   1      33.275  36.359  29.074  1.00  0.00     0.202 C 
BRANCH  23  24
ATOM     24  C   UNL A   1      33.089  36.779  30.539  1.00  0.00     0.261 C 
BRANCH  24  25
ATOM     25  O   UNL A   1      33.923  36.136  31.470  1.00  0.00    -0.460 OA
BRANCH  25  26
ATOM     26  C   UNL A   1      33.314  35.265  32.303  1.00  0.00     0.338 C 
ATOM     27  O   UNL A   1      32.129  35.131  32.510  1.00  0.00    -0.246 OA
BRANCH  26  28
ATOM     28  C   UNL A   1      34.404  34.511  32.946  1.00  0.00     0.060 A 
ATOM     29  C   UNL A   1      35.567  35.220  33.214  1.00  0.00     0.016 A 
ATOM     30  C   UNL A   1      34.342  33.104  33.027  1.00  0.00     0.016 A 
ATOM     31  C   UNL A   1      36.739  34.510  33.219  1.00  0.00     0.010 A 
ATOM     32  C   UNL A   1      35.511  32.396  33.024  1.00  0.00     0.010 A 
ATOM     33  C   UNL A   1      36.685  33.129  32.982  1.00  0.00    -0.014 A 
BRANCH  33  34
ATOM     34  C   UNL A   1      37.920  32.466  32.664  1.00  0.00     0.031 A 
ATOM     35  C   UNL A   1      38.806  32.340  33.826  1.00  0.00     0.074 A 
ATOM     36  C   UNL A   1      38.196  32.025  31.424  1.00  0.00     0.049 A 
ATOM     37  N   UNL A   1      39.876  33.018  34.056  1.00  0.00    -0.248 NA
ATOM     38  C   UNL A   1      38.340  31.517  34.951  1.00  0.00     0.031 C 
ATOM     39  C   UNL A   1      37.296  31.871  30.278  1.00  0.00     0.029 A 
ATOM     40  N   UNL A   1      39.366  31.517  30.964  1.00  0.00    -0.354 N 
ATOM     41  C   UNL A   1      40.341  32.559  35.276  1.00  0.00     0.074 A 
ATOM     42  C   UNL A   1      39.269  31.796  35.865  1.00  0.00     0.031 C 
ATOM     43  C   UNL A   1      37.894  31.085  29.351  1.00  0.00     0.029 A 
ATOM     44  C   UNL A   1      39.255  30.806  29.780  1.00  0.00     0.049 A 
ATOM     45  H   UNL A   1      40.222  31.642  31.433  1.00  0.00     0.167 HD
ATOM     46  C   UNL A   1      41.667  32.596  35.569  1.00  0.00     0.031 A 
ATOM     47  C   UNL A   1      40.201  29.987  29.258  1.00  0.00     0.031 A 
ATOM     48  C   UNL A   1      42.380  33.508  34.711  1.00  0.00     0.049 A 
ATOM     49  C   UNL A   1      41.499  30.348  29.884  1.00  0.00     0.074 A 
ATOM     50  C   UNL A   1      42.293  34.862  34.453  1.00  0.00     0.029 A 
ATOM     51  N   UNL A   1      43.081  32.966  33.658  1.00  0.00    -0.354 N 
ATOM     52  N   UNL A   1      42.114  31.473  29.654  1.00  0.00    -0.248 NA
ATOM     53  C   UNL A   1      41.876  29.674  31.118  1.00  0.00     0.031 C 
ATOM     54  C   UNL A   1      42.533  34.990  33.053  1.00  0.00     0.029 A 
ATOM     55  C   UNL A   1      42.816  33.722  32.544  1.00  0.00     0.049 A 
ATOM     56  H   UNL A   1      43.668  32.176  33.697  1.00  0.00     0.167 HD
ATOM     57  C   UNL A   1      42.605  31.868  30.891  1.00  0.00     0.074 A 
ATOM     58  C   UNL A   1      42.515  30.675  31.733  1.00  0.00     0.031 C 
ATOM     59  C   UNL A   1      42.761  33.189  31.199  1.00  0.00     0.031 A 
BRANCH  46  60
ATOM     60  C   UNL A   1      42.349  31.471  36.300  1.00  0.00    -0.014 A 
ATOM     61  C   UNL A   1      43.277  31.790  37.302  1.00  0.00     0.009 A 
ATOM     62  C   UNL A   1      42.332  30.135  35.850  1.00  0.00     0.009 A 
ATOM     63  C   UNL A   1      44.191  30.840  37.770  1.00  0.00     0.001 A 
ATOM     64  C   UNL A   1      43.212  29.174  36.344  1.00  0.00     0.001 A 
ATOM     65  C   UNL A   1      44.164  29.536  37.284  1.00  0.00     0.000 A 
ENDBRANCH  46  60
BRANCH  47  66
ATOM     66  C   UNL A   1      40.004  28.718  28.524  1.00  0.00    -0.014 A 
ATOM     67  C   UNL A   1      40.591  28.518  27.266  1.00  0.00     0.009 A 
ATOM     68  C   UNL A   1      39.465  27.594  29.180  1.00  0.00     0.009 A 
ATOM     69  C   UNL A   1      40.671  27.237  26.703  1.00  0.00     0.001 A 
ATOM     70  C   UNL A   1      39.542  26.317  28.616  1.00  0.00     0.001 A 
ATOM     71  C   UNL A   1      40.160  26.135  27.385  1.00  0.00     0.000 A 
ENDBRANCH  47  66
BRANCH  59  72
ATOM     72  C   UNL A   1      42.612  34.198  30.085  1.00  0.00    -0.014 A 
ATOM     73  C   UNL A   1      41.365  34.600  29.572  1.00  0.00     0.009 A 
ATOM     74  C   UNL A   1      43.758  34.876  29.646  1.00  0.00     0.009 A 
ATOM     75  C   UNL A   1      41.276  35.628  28.626  1.00  0.00     0.001 A 
ATOM     76  C   UNL A   1      43.668  35.916  28.719  1.00  0.00     0.001 A 
ATOM     77  C   UNL A   1      42.428  36.288  28.204  1.00  0.00     0.000 A 
ENDBRANCH  59  72
ENDBRANCH  33  34
ENDBRANCH  26  28
ENDBRANCH  25  26
ENDBRANCH  24  25
ENDBRANCH  23  24
ENDBRANCH  22  23
ENDBRANCH  21  22
ENDBRANCH   1  21
TORSDOF 20
ENDMDL
MODEL 3
REMARK VINA RESULT:      -9.8      1.710      2.187
REMARK SMILES C[C@]1(c2nnnn2CCC(=O)OCCOCCOCCOC(=O)c2ccc(-c3c4nc(c(-c5ccccc5)c5ccc([nH]5)c(-c5ccccc5)c5nc(c(-c6ccccc6)c6ccc3[nH]6)C=C5)C=C4)cc2)CCCO1
REMARK SMILES IDX 16 1 15 2 14 3 13 4 12 5 10 6 11 7 9 8 8 9 7 10 3 11 4 12
REMARK SMILES IDX 5 13 6 14 2 15 1 16 72 17 75 18 73 19 74 20 17 21 18 22
REMARK SMILES IDX 19 23 20 24 21 25 22 26 23 27 24 28 25 29 71 30 26 31 70 32
REMARK SMILES IDX 27 33 28 34 29 35 64 36 30 37 69 38 63 39 65 40 31 41 68 42
REMARK SMILES IDX 62 43 61 44 32 46 54 47 39 48 53 49 40 50 43 51 52 52 66 53
REMARK SMILES IDX 41 54 42 55 51 57 67 58 44 59 33 60 34 61 38 62 35 63 37 64
REMARK SMILES IDX 36 65 55 66 56 67 60 68 57 69 59 70 58 71 45 72 46 73 50 74
REMARK SMILES IDX 47 75 49 76 48 77
REMARK H PARENT 65 45 43 56
REMARK Flexibility Score: inf
ROOT
ATOM      1  C   UNL A   1      34.623  30.837  27.649  1.00  0.00     0.188 C 
ENDROOT
BRANCH   1   2
ATOM      2  O   UNL A   1      33.743  29.728  27.453  1.00  0.00    -0.376 OA
BRANCH   2   3
ATOM      3  C   UNL A   1      32.452  30.036  26.932  1.00  0.00     0.202 C 
BRANCH   3   4
ATOM      4  C   UNL A   1      31.874  28.987  25.977  1.00  0.00     0.261 C 
BRANCH   4   5
ATOM      5  O   UNL A   1      32.105  29.331  24.601  1.00  0.00    -0.463 OA
BRANCH   5   6
ATOM      6  C   UNL A   1      31.142  29.027  23.705  1.00  0.00     0.307 C 
ATOM      7  O   UNL A   1      30.116  29.679  23.537  1.00  0.00    -0.252 OA
BRANCH   6   8
ATOM      8  C   UNL A   1      31.470  27.847  22.812  1.00  0.00     0.146 C 
BRANCH   8   9
ATOM      9  C   UNL A   1      32.918  27.397  22.660  1.00  0.00     0.160 C 
BRANCH   9  10
ATOM     10  N   UNL A   1      33.120  26.117  22.026  1.00  0.00    -0.226 N 
ATOM     11  C   UNL A   1      33.300  24.850  22.527  1.00  0.00     0.183 A 
ATOM     12  N   UNL A   1      33.333  24.021  21.494  1.00  0.00    -0.111 NA
ATOM     13  N   UNL A   1      33.182  24.773  20.371  1.00  0.00    -0.024 NA
ATOM     14  N   UNL A   1      33.074  26.050  20.680  1.00  0.00    -0.045 NA
BRANCH  11  15
ATOM     15  C   UNL A   1      33.531  24.401  23.937  1.00  0.00     0.126 C 
ATOM     16  C   UNL A   1      32.243  24.544  24.758  1.00  0.00     0.051 C 
ATOM     17  C   UNL A   1      34.074  22.972  23.947  1.00  0.00     0.046 C 
ATOM     18  O   UNL A   1      34.537  25.198  24.586  1.00  0.00    -0.367 OA
ATOM     19  C   UNL A   1      34.896  22.930  25.209  1.00  0.00     0.032 C 
ATOM     20  C   UNL A   1      35.452  24.335  25.278  1.00  0.00     0.161 C 
ENDBRANCH  11  15
ENDBRANCH   9  10
ENDBRANCH   8   9
ENDBRANCH   6   8
ENDBRANCH   5   6
ENDBRANCH   4   5
ENDBRANCH   3   4
ENDBRANCH   2   3
ENDBRANCH   1   2
BRANCH   1  21
ATOM     21  C   UNL A   1      33.920  32.187  27.803  1.00  0.00     0.188 C 
BRANCH  21  22
ATOM     22  O   UNL A   1      34.161  32.883  29.016  1.00  0.00    -0.376 OA
BRANCH  22  23
ATOM     23  C   UNL A   1      34.320  34.303  29.089  1.00  0.00     0.202 C 
BRANCH  23  24
ATOM     24  C   UNL A   1      33.308  35.254  29.745  1.00  0.00     0.261 C 
BRANCH  24  25
ATOM     25  O   UNL A   1      33.692  35.793  30.985  1.00  0.00    -0.460 OA
BRANCH  25  26
ATOM     26  C   UNL A   1      33.172  35.189  32.075  1.00  0.00     0.338 C 
ATOM     27  O   UNL A   1      32.021  35.179  32.448  1.00  0.00    -0.246 OA
BRANCH  26  28
ATOM     28  C   UNL A   1      34.316  34.555  32.753  1.00  0.00     0.060 A 
ATOM     29  C   UNL A   1      35.467  35.322  32.867  1.00  0.00     0.016 A 
ATOM     30  C   UNL A   1      34.305  33.169  33.018  1.00  0.00     0.016 A 
ATOM     31  C   UNL A   1      36.661  34.650  32.903  1.00  0.00     0.010 A 
ATOM     32  C   UNL A   1      35.495  32.498  33.046  1.00  0.00     0.010 A 
ATOM     33  C   UNL A   1      36.641  33.249  32.849  1.00  0.00    -0.014 A 
BRANCH  33  34
ATOM     34  C   UNL A   1      37.880  32.583  32.556  1.00  0.00     0.031 A 
ATOM     35  C   UNL A   1      38.774  32.521  33.718  1.00  0.00     0.074 A 
ATOM     36  C   UNL A   1      38.153  32.086  31.337  1.00  0.00     0.049 A 
ATOM     37  N   UNL A   1      39.839  33.220  33.907  1.00  0.00    -0.248 NA
ATOM     38  C   UNL A   1      38.322  31.750  34.883  1.00  0.00     0.031 C 
ATOM     39  C   UNL A   1      37.248  31.868  30.205  1.00  0.00     0.029 A 
ATOM     40  N   UNL A   1      39.325  31.567  30.895  1.00  0.00    -0.354 N 
ATOM     41  C   UNL A   1      40.315  32.824  35.146  1.00  0.00     0.074 A 
ATOM     42  C   UNL A   1      39.253  32.081  35.777  1.00  0.00     0.031 C 
ATOM     43  C   UNL A   1      37.849  31.045  29.313  1.00  0.00     0.029 A 
ATOM     44  C   UNL A   1      39.214  30.799  29.747  1.00  0.00     0.049 A 
ATOM     45  H   UNL A   1      40.183  31.722  31.352  1.00  0.00     0.167 HD
ATOM     46  C   UNL A   1      41.642  32.888  35.428  1.00  0.00     0.031 A 
ATOM     47  C   UNL A   1      40.166  29.964  29.260  1.00  0.00     0.031 A 
ATOM     48  C   UNL A   1      42.341  33.764  34.523  1.00  0.00     0.049 A 
ATOM     49  C   UNL A   1      41.464  30.367  29.859  1.00  0.00     0.074 A 
ATOM     50  C   UNL A   1      42.239  35.104  34.201  1.00  0.00     0.029 A 
ATOM     51  N   UNL A   1      43.042  33.179  33.494  1.00  0.00    -0.354 N 
ATOM     52  N   UNL A   1      42.067  31.486  29.572  1.00  0.00    -0.248 NA
ATOM     53  C   UNL A   1      41.854  29.757  31.122  1.00  0.00     0.031 C 
ATOM     54  C   UNL A   1      42.471  35.166  32.795  1.00  0.00     0.029 A 
ATOM     55  C   UNL A   1      42.763  33.878  32.346  1.00  0.00     0.049 A 
ATOM     56  H   UNL A   1      43.637  32.397  33.567  1.00  0.00     0.167 HD
ATOM     57  C   UNL A   1      42.560  31.945  30.786  1.00  0.00     0.074 A 
ATOM     58  C   UNL A   1      42.487  30.793  31.684  1.00  0.00     0.031 C 
ATOM     59  C   UNL A   1      42.706  33.280  31.029  1.00  0.00     0.031 A 
BRANCH  46  60
ATOM     60  C   UNL A   1      42.339  31.806  36.209  1.00  0.00    -0.014 A 
ATOM     61  C   UNL A   1      43.470  32.148  36.963  1.00  0.00     0.009 A 
ATOM     62  C   UNL A   1      42.103  30.431  36.002  1.00  0.00     0.009 A 
ATOM     63  C   UNL A   1      44.360  31.168  37.417  1.00  0.00     0.001 A 
ATOM     64  C   UNL A   1      42.963  29.449  36.491  1.00  0.00     0.001 A 
ATOM     65  C   UNL A   1      44.110  29.821  37.173  1.00  0.00     0.000 A 
ENDBRANCH  46  60
BRANCH  47  66
ATOM     66  C   UNL A   1      39.977  28.660  28.588  1.00  0.00    -0.014 A 
ATOM     67  C   UNL A   1      40.575  28.398  27.347  1.00  0.00     0.009 A 
ATOM     68  C   UNL A   1      39.434  27.570  29.295  1.00  0.00     0.009 A 
ATOM     69  C   UNL A   1      40.662  27.091  26.850  1.00  0.00     0.001 A 
ATOM     70  C   UNL A   1      39.517  26.266  28.797  1.00  0.00     0.001 A 
ATOM     71  C   UNL A   1      40.146  26.024  27.582  1.00  0.00     0.000 A 
ENDBRANCH  47  66
BRANCH  59  72
ATOM     72  C   UNL A   1      42.541  34.233  29.868  1.00  0.00    -0.014 A 
ATOM     73  C   UNL A   1      43.558  34.489  28.931  1.00  0.00     0.009 A 
ATOM     74  C   UNL A   1      41.269  34.770  29.627  1.00  0.00     0.009 A 
ATOM     75  C   UNL A   1      43.314  35.284  27.805  1.00  0.00     0.001 A 
ATOM     76  C   UNL A   1      41.018  35.545  28.493  1.00  0.00     0.001 A 
ATOM     77  C   UNL A   1      42.041  35.808  27.586  1.00  0.00     0.000 A 
ENDBRANCH  59  72
ENDBRANCH  33  34
ENDBRANCH  26  28
ENDBRANCH  25  26
ENDBRANCH  24  25
ENDBRANCH  23  24
ENDBRANCH  22  23
ENDBRANCH  21  22
ENDBRANCH   1  21
TORSDOF 20
ENDMDL
