MODEL 1
REMARK VINA RESULT:     -12.6      0.000      0.000
REMARK SMILES Cc1ccc(C(=O)c2cccc(C)c2C(=O)OCCOCCOCCOC(=O)c2ccc(-c3c4nc(c(-c5ccccc5)c5ccc([nH]5)c(-c5ccccc5)c5nc(c(-c6ccccc6)c6ccc3[nH]6)C=C5)C=C4)cc2)c(C)c1
REMARK SMILES IDX 21 1 20 2 19 3 18 4 17 5 15 6 16 7 14 8 8 9 9 10 10 11 12 12
REMARK SMILES IDX 11 13 13 14 6 15 7 16 5 17 1 18 2 19 3 20 79 21 4 22 77 23
REMARK SMILES IDX 78 24 22 25 23 26 24 27 25 28 26 29 27 30 28 31 29 32 30 33
REMARK SMILES IDX 76 34 31 35 75 36 32 37 33 38 34 39 69 40 35 41 74 42 68 43
REMARK SMILES IDX 70 44 36 45 73 46 67 47 66 48 37 50 59 51 44 52 58 53 45 54
REMARK SMILES IDX 48 55 57 56 71 57 46 58 47 59 56 61 72 62 49 63 38 64 39 65
REMARK SMILES IDX 43 66 40 67 42 68 41 69 60 70 61 71 65 72 62 73 64 74 63 75
REMARK SMILES IDX 50 76 51 77 55 78 52 79 54 80 53 81
REMARK H PARENT 70 49 48 60
REMARK Flexibility Score: inf
ROOT
ATOM      1  C   UNL A   1      40.383  21.847  27.130  1.00  0.00     0.188 C 
ENDROOT
BRANCH   1   2
ATOM      2  O   UNL A   1      39.090  22.487  27.135  1.00  0.00    -0.376 OA
BRANCH   2   3
ATOM      3  C   UNL A   1      38.632  23.594  26.328  1.00  0.00     0.202 C 
BRANCH   3   4
ATOM      4  C   UNL A   1      37.611  23.604  24.922  1.00  0.00     0.261 C 
BRANCH   4   5
ATOM      5  O   UNL A   1      36.102  22.811  24.603  1.00  0.00    -0.460 OA
BRANCH   5   6
ATOM      6  C   UNL A   1      34.729  22.713  25.083  1.00  0.00     0.339 C 
ATOM      7  O   UNL A   1      34.351  22.836  26.251  1.00  0.00    -0.246 OA
BRANCH   6   8
ATOM      8  C   UNL A   1      33.528  22.253  24.374  1.00  0.00     0.074 A 
ATOM      9  C   UNL A   1      33.087  23.062  23.336  1.00  0.00     0.037 A 
ATOM     10  C   UNL A   1      32.346  22.454  22.306  1.00  0.00     0.013 A 
ATOM     11  C   UNL A   1      31.972  21.105  22.343  1.00  0.00     0.001 A 
ATOM     12  C   UNL A   1      33.165  20.829  24.410  1.00  0.00    -0.036 A 
ATOM     13  C   UNL A   1      32.345  20.305  23.405  1.00  0.00     0.004 A 
ATOM     14  C   UNL A   1      33.618  19.757  25.407  1.00  0.00     0.045 C 
BRANCH   9  15
ATOM     15  C   UNL A   1      33.401  24.526  23.353  1.00  0.00     0.194 C 
ATOM     16  O   UNL A   1      34.296  24.978  22.647  1.00  0.00    -0.289 OA
BRANCH  15  17
ATOM     17  C   UNL A   1      32.827  25.417  24.367  1.00  0.00     0.025 A 
ATOM     18  C   UNL A   1      31.728  28.090  27.514  1.00  0.00     0.044 C 
ATOM     19  C   UNL A   1      32.110  27.183  26.391  1.00  0.00    -0.051 A 
ATOM     20  C   UNL A   1      33.454  26.991  26.081  1.00  0.00     0.004 A 
ATOM     21  C   UNL A   1      31.123  26.527  25.647  1.00  0.00     0.007 A 
ATOM     22  C   UNL A   1      33.803  26.134  25.059  1.00  0.00     0.013 A 
ATOM     23  C   UNL A   1      31.460  25.678  24.585  1.00  0.00    -0.040 A 
ATOM     24  C   UNL A   1      30.316  25.171  23.763  1.00  0.00     0.045 C 
ENDBRANCH  15  17
ENDBRANCH   9  15
ENDBRANCH   6   8
ENDBRANCH   5   6
ENDBRANCH   4   5
ENDBRANCH   3   4
ENDBRANCH   2   3
ENDBRANCH   1   2
BRANCH   1  25
ATOM     25  C   UNL A   1      40.770  20.560  26.411  1.00  0.00     0.188 C 
BRANCH  25  26
ATOM     26  O   UNL A   1      42.163  20.393  26.319  1.00  0.00    -0.376 OA
BRANCH  26  27
ATOM     27  C   UNL A   1      42.583  19.074  25.998  1.00  0.00     0.202 C 
BRANCH  27  28
ATOM     28  C   UNL A   1      43.908  18.960  25.199  1.00  0.00     0.261 C 
BRANCH  28  29
ATOM     29  O   UNL A   1      44.153  20.113  24.353  1.00  0.00    -0.460 OA
BRANCH  29  30
ATOM     30  C   UNL A   1      45.416  20.679  24.366  1.00  0.00     0.338 C 
ATOM     31  O   UNL A   1      46.449  20.061  24.432  1.00  0.00    -0.246 OA
BRANCH  30  32
ATOM     32  C   UNL A   1      45.299  22.174  24.525  1.00  0.00     0.060 A 
ATOM     33  C   UNL A   1      46.298  23.105  24.854  1.00  0.00     0.016 A 
ATOM     34  C   UNL A   1      44.042  22.601  24.721  1.00  0.00     0.016 A 
ATOM     35  C   UNL A   1      45.996  24.363  25.560  1.00  0.00     0.010 A 
ATOM     36  C   UNL A   1      43.885  23.606  25.659  1.00  0.00     0.010 A 
ATOM     37  C   UNL A   1      44.737  24.655  26.085  1.00  0.00    -0.014 A 
BRANCH  37  38
ATOM     38  C   UNL A   1      44.229  25.992  27.016  1.00  0.00     0.031 A 
ATOM     39  C   UNL A   1      42.774  26.977  27.056  1.00  0.00     0.074 A 
ATOM     40  C   UNL A   1      45.096  26.329  27.989  1.00  0.00     0.049 A 
ATOM     41  N   UNL A   1      42.668  28.159  27.628  1.00  0.00    -0.248 NA
ATOM     42  C   UNL A   1      41.387  26.736  26.449  1.00  0.00     0.031 C 
ATOM     43  C   UNL A   1      44.921  27.198  29.147  1.00  0.00     0.029 A 
ATOM     44  N   UNL A   1      46.439  25.958  28.078  1.00  0.00    -0.354 N 
ATOM     45  C   UNL A   1      41.316  28.568  27.582  1.00  0.00     0.074 A 
ATOM     46  C   UNL A   1      40.692  27.840  26.574  1.00  0.00     0.031 C 
ATOM     47  C   UNL A   1      46.141  27.572  29.578  1.00  0.00     0.029 A 
ATOM     48  C   UNL A   1      47.102  27.067  28.607  1.00  0.00     0.049 A 
ATOM     49  H   UNL A   1      46.835  25.094  27.821  1.00  0.00     0.167 HD
ATOM     50  C   UNL A   1      40.707  29.338  28.520  1.00  0.00     0.031 A 
ATOM     51  C   UNL A   1      47.901  27.786  27.771  1.00  0.00     0.031 A 
ATOM     52  C   UNL A   1      41.740  30.058  29.210  1.00  0.00     0.049 A 
ATOM     53  C   UNL A   1      47.358  29.193  27.600  1.00  0.00     0.074 A 
ATOM     54  C   UNL A   1      42.470  29.828  30.357  1.00  0.00     0.029 A 
ATOM     55  N   UNL A   1      42.509  30.874  28.400  1.00  0.00    -0.354 N 
ATOM     56  N   UNL A   1      46.164  29.573  27.981  1.00  0.00    -0.248 NA
ATOM     57  C   UNL A   1      48.127  30.300  27.048  1.00  0.00     0.031 C 
ATOM     58  C   UNL A   1      43.786  30.344  30.107  1.00  0.00     0.029 A 
ATOM     59  C   UNL A   1      43.813  30.932  28.848  1.00  0.00     0.049 A 
ATOM     60  H   UNL A   1      42.171  31.350  27.606  1.00  0.00     0.167 HD
ATOM     61  C   UNL A   1      45.980  30.900  27.730  1.00  0.00     0.074 A 
ATOM     62  C   UNL A   1      47.252  31.315  27.165  1.00  0.00     0.031 C 
ATOM     63  C   UNL A   1      44.805  31.558  27.969  1.00  0.00     0.031 A 
BRANCH  50  64
ATOM     64  C   UNL A   1      39.214  29.280  28.869  1.00  0.00    -0.014 A 
ATOM     65  C   UNL A   1      38.282  29.741  27.925  1.00  0.00     0.009 A 
ATOM     66  C   UNL A   1      38.643  28.914  30.115  1.00  0.00     0.009 A 
ATOM     67  C   UNL A   1      36.907  29.862  28.214  1.00  0.00     0.001 A 
ATOM     68  C   UNL A   1      37.273  29.028  30.415  1.00  0.00     0.001 A 
ATOM     69  C   UNL A   1      36.401  29.515  29.462  1.00  0.00     0.000 A 
ENDBRANCH  50  64
BRANCH  51  70
ATOM     70  C   UNL A   1      48.647  26.905  26.792  1.00  0.00    -0.014 A 
ATOM     71  C   UNL A   1      48.385  27.112  25.410  1.00  0.00     0.009 A 
ATOM     72  C   UNL A   1      49.807  26.184  27.107  1.00  0.00     0.009 A 
ATOM     73  C   UNL A   1      49.307  26.773  24.409  1.00  0.00     0.001 A 
ATOM     74  C   UNL A   1      50.705  25.783  26.089  1.00  0.00     0.001 A 
ATOM     75  C   UNL A   1      50.485  26.129  24.753  1.00  0.00     0.000 A 
ENDBRANCH  51  70
BRANCH  63  76
ATOM     76  C   UNL A   1      44.442  32.861  27.280  1.00  0.00    -0.014 A 
ATOM     77  C   UNL A   1      44.193  32.954  25.903  1.00  0.00     0.009 A 
ATOM     78  C   UNL A   1      44.127  34.002  28.053  1.00  0.00     0.009 A 
ATOM     79  C   UNL A   1      43.711  34.133  25.323  1.00  0.00     0.001 A 
ATOM     80  C   UNL A   1      43.551  35.144  27.493  1.00  0.00     0.001 A 
ATOM     81  C   UNL A   1      43.367  35.218  26.120  1.00  0.00     0.000 A 
ENDBRANCH  63  76
ENDBRANCH  37  38
ENDBRANCH  30  32
ENDBRANCH  29  30
ENDBRANCH  28  29
ENDBRANCH  27  28
ENDBRANCH  26  27
ENDBRANCH  25  26
ENDBRANCH   1  25
TORSDOF 19
ENDMDL
MODEL 2
REMARK VINA RESULT:     -12.2      2.539      5.215
REMARK SMILES Cc1ccc(C(=O)c2cccc(C)c2C(=O)OCCOCCOCCOC(=O)c2ccc(-c3c4nc(c(-c5ccccc5)c5ccc([nH]5)c(-c5ccccc5)c5nc(c(-c6ccccc6)c6ccc3[nH]6)C=C5)C=C4)cc2)c(C)c1
REMARK SMILES IDX 21 1 20 2 19 3 18 4 17 5 15 6 16 7 14 8 8 9 9 10 10 11 12 12
REMARK SMILES IDX 11 13 13 14 6 15 7 16 5 17 1 18 2 19 3 20 79 21 4 22 77 23
REMARK SMILES IDX 78 24 22 25 23 26 24 27 25 28 26 29 27 30 28 31 29 32 30 33
REMARK SMILES IDX 76 34 31 35 75 36 32 37 33 38 34 39 69 40 35 41 74 42 68 43
REMARK SMILES IDX 70 44 36 45 73 46 67 47 66 48 37 50 59 51 44 52 58 53 45 54
REMARK SMILES IDX 48 55 57 56 71 57 46 58 47 59 56 61 72 62 49 63 38 64 39 65
REMARK SMILES IDX 43 66 40 67 42 68 41 69 60 70 61 71 65 72 62 73 64 74 63 75
REMARK SMILES IDX 50 76 51 77 55 78 52 79 54 80 53 81
REMARK H PARENT 70 49 48 60
REMARK Flexibility Score: inf
ROOT
ATOM      1  C   UNL A   1      34.618  22.736  26.538  1.00  0.00     0.188 C 
ENDROOT
BRANCH   1   2
ATOM      2  O   UNL A   1      33.191  22.735  26.325  1.00  0.00    -0.376 OA
BRANCH   2   3
ATOM      3  C   UNL A   1      32.197  23.614  26.896  1.00  0.00     0.202 C 
BRANCH   3   4
ATOM      4  C   UNL A   1      31.834  25.274  26.532  1.00  0.00     0.261 C 
BRANCH   4   5
ATOM      5  O   UNL A   1      32.849  26.570  25.987  1.00  0.00    -0.460 OA
BRANCH   5   6
ATOM      6  C   UNL A   1      33.140  27.392  24.818  1.00  0.00     0.339 C 
ATOM      7  O   UNL A   1      34.255  27.759  24.440  1.00  0.00    -0.246 OA
BRANCH   6   8
ATOM      8  C   UNL A   1      32.216  28.135  23.953  1.00  0.00     0.074 A 
ATOM      9  C   UNL A   1      31.765  27.464  22.824  1.00  0.00     0.037 A 
ATOM     10  C   UNL A   1      30.524  27.851  22.288  1.00  0.00     0.013 A 
ATOM     11  C   UNL A   1      29.789  28.930  22.795  1.00  0.00     0.001 A 
ATOM     12  C   UNL A   1      31.440  29.252  24.510  1.00  0.00    -0.036 A 
ATOM     13  C   UNL A   1      30.259  29.651  23.874  1.00  0.00     0.004 A 
ATOM     14  C   UNL A   1      31.713  30.056  25.786  1.00  0.00     0.045 C 
BRANCH   9  15
ATOM     15  C   UNL A   1      32.605  26.379  22.223  1.00  0.00     0.194 C 
ATOM     16  O   UNL A   1      33.333  26.616  21.265  1.00  0.00    -0.289 OA
BRANCH  15  17
ATOM     17  C   UNL A   1      32.413  24.973  22.592  1.00  0.00     0.025 A 
ATOM     18  C   UNL A   1      32.420  20.790  23.458  1.00  0.00     0.044 C 
ATOM     19  C   UNL A   1      32.425  22.258  23.189  1.00  0.00    -0.051 A 
ATOM     20  C   UNL A   1      33.601  22.886  22.788  1.00  0.00     0.004 A 
ATOM     21  C   UNL A   1      31.253  23.007  23.343  1.00  0.00     0.007 A 
ATOM     22  C   UNL A   1      33.596  24.238  22.518  1.00  0.00     0.013 A 
ATOM     23  C   UNL A   1      31.239  24.387  23.102  1.00  0.00    -0.040 A 
ATOM     24  C   UNL A   1      29.972  25.102  23.463  1.00  0.00     0.045 C 
ENDBRANCH  15  17
ENDBRANCH   9  15
ENDBRANCH   6   8
ENDBRANCH   5   6
ENDBRANCH   4   5
ENDBRANCH   3   4
ENDBRANCH   2   3
ENDBRANCH   1   2
BRANCH   1  25
ATOM     25  C   UNL A   1      35.614  21.668  26.100  1.00  0.00     0.188 C 
BRANCH  25  26
ATOM     26  O   UNL A   1      36.148  21.921  24.824  1.00  0.00    -0.376 OA
BRANCH  26  27
ATOM     27  C   UNL A   1      37.499  22.361  24.821  1.00  0.00     0.202 C 
BRANCH  27  28
ATOM     28  C   UNL A   1      38.480  21.544  25.703  1.00  0.00     0.261 C 
BRANCH  28  29
ATOM     29  O   UNL A   1      39.064  22.334  26.770  1.00  0.00    -0.460 OA
BRANCH  29  30
ATOM     30  C   UNL A   1      40.222  23.043  26.501  1.00  0.00     0.338 C 
ATOM     31  O   UNL A   1      41.315  22.553  26.361  1.00  0.00    -0.246 OA
BRANCH  30  32
ATOM     32  C   UNL A   1      39.957  24.520  26.646  1.00  0.00     0.060 A 
ATOM     33  C   UNL A   1      40.649  25.600  26.070  1.00  0.00     0.016 A 
ATOM     34  C   UNL A   1      39.207  24.835  27.713  1.00  0.00     0.016 A 
ATOM     35  C   UNL A   1      40.717  26.922  26.718  1.00  0.00     0.010 A 
ATOM     36  C   UNL A   1      39.592  25.966  28.410  1.00  0.00     0.010 A 
ATOM     37  C   UNL A   1      40.237  27.161  28.006  1.00  0.00    -0.014 A 
BRANCH  37  38
ATOM     38  C   UNL A   1      40.324  28.577  28.954  1.00  0.00     0.031 A 
ATOM     39  C   UNL A   1      39.260  29.954  29.204  1.00  0.00     0.074 A 
ATOM     40  C   UNL A   1      41.410  28.626  29.750  1.00  0.00     0.049 A 
ATOM     41  N   UNL A   1      39.614  31.107  29.737  1.00  0.00    -0.248 NA
ATOM     42  C   UNL A   1      37.780  30.149  28.855  1.00  0.00     0.031 C 
ATOM     43  C   UNL A   1      41.710  29.492  30.883  1.00  0.00     0.029 A 
ATOM     44  N   UNL A   1      42.574  27.867  29.621  1.00  0.00    -0.354 N 
ATOM     45  C   UNL A   1      38.460  31.903  29.907  1.00  0.00     0.074 A 
ATOM     46  C   UNL A   1      37.479  31.410  29.053  1.00  0.00     0.031 C 
ATOM     47  C   UNL A   1      43.042  29.477  31.082  1.00  0.00     0.029 A 
ATOM     48  C   UNL A   1      43.620  28.719  29.981  1.00  0.00     0.049 A 
ATOM     49  H   UNL A   1      42.643  26.927  29.336  1.00  0.00     0.167 HD
ATOM     50  C   UNL A   1      38.285  32.810  30.903  1.00  0.00     0.031 A 
ATOM     51  C   UNL A   1      44.436  29.174  28.991  1.00  0.00     0.031 A 
ATOM     52  C   UNL A   1      39.590  33.177  31.375  1.00  0.00     0.049 A 
ATOM     53  C   UNL A   1      44.317  30.681  28.858  1.00  0.00     0.074 A 
ATOM     54  C   UNL A   1      40.408  32.723  32.387  1.00  0.00     0.029 A 
ATOM     55  N   UNL A   1      40.411  33.733  30.411  1.00  0.00    -0.354 N 
ATOM     56  N   UNL A   1      43.377  31.398  29.424  1.00  0.00    -0.248 NA
ATOM     57  C   UNL A   1      45.271  31.512  28.136  1.00  0.00     0.031 C 
ATOM     58  C   UNL A   1      41.753  32.822  31.893  1.00  0.00     0.029 A 
ATOM     59  C   UNL A   1      41.731  33.390  30.625  1.00  0.00     0.049 A 
ATOM     60  H   UNL A   1      40.096  34.299  29.668  1.00  0.00     0.167 HD
ATOM     61  C   UNL A   1      43.557  32.721  29.153  1.00  0.00     0.074 A 
ATOM     62  C   UNL A   1      44.774  32.742  28.361  1.00  0.00     0.031 C 
ATOM     63  C   UNL A   1      42.693  33.700  29.563  1.00  0.00     0.031 A 
BRANCH  50  64
ATOM     64  C   UNL A   1      36.928  33.199  31.506  1.00  0.00    -0.014 A 
ATOM     65  C   UNL A   1      36.551  32.636  32.736  1.00  0.00     0.009 A 
ATOM     66  C   UNL A   1      35.923  33.996  30.901  1.00  0.00     0.009 A 
ATOM     67  C   UNL A   1      35.267  32.821  33.291  1.00  0.00     0.001 A 
ATOM     68  C   UNL A   1      34.640  34.190  31.445  1.00  0.00     0.001 A 
ATOM     69  C   UNL A   1      34.306  33.589  32.643  1.00  0.00     0.000 A 
ENDBRANCH  50  64
BRANCH  51  70
ATOM     70  C   UNL A   1      44.701  28.121  27.936  1.00  0.00    -0.014 A 
ATOM     71  C   UNL A   1      44.036  28.279  26.689  1.00  0.00     0.009 A 
ATOM     72  C   UNL A   1      45.792  27.242  27.956  1.00  0.00     0.009 A 
ATOM     73  C   UNL A   1      44.531  27.729  25.497  1.00  0.00     0.001 A 
ATOM     74  C   UNL A   1      46.250  26.635  26.762  1.00  0.00     0.001 A 
ATOM     75  C   UNL A   1      45.659  26.926  25.530  1.00  0.00     0.000 A 
ENDBRANCH  51  70
BRANCH  63  76
ATOM     76  C   UNL A   1      42.620  35.061  28.894  1.00  0.00    -0.014 A 
ATOM     77  C   UNL A   1      43.063  36.241  29.508  1.00  0.00     0.009 A 
ATOM     78  C   UNL A   1      42.295  35.152  27.521  1.00  0.00     0.009 A 
ATOM     79  C   UNL A   1      43.126  37.452  28.811  1.00  0.00     0.001 A 
ATOM     80  C   UNL A   1      42.453  36.336  26.797  1.00  0.00     0.001 A 
ATOM     81  C   UNL A   1      42.845  37.494  27.451  1.00  0.00     0.000 A 
ENDBRANCH  63  76
ENDBRANCH  37  38
ENDBRANCH  30  32
ENDBRANCH  29  30
ENDBRANCH  28  29
ENDBRANCH  27  28
ENDBRANCH  26  27
ENDBRANCH  25  26
ENDBRANCH   1  25
TORSDOF 19
ENDMDL
MODEL 3
REMARK VINA RESULT:     -11.9      3.368      8.563
REMARK SMILES Cc1ccc(C(=O)c2cccc(C)c2C(=O)OCCOCCOCCOC(=O)c2ccc(-c3c4nc(c(-c5ccccc5)c5ccc([nH]5)c(-c5ccccc5)c5nc(c(-c6ccccc6)c6ccc3[nH]6)C=C5)C=C4)cc2)c(C)c1
REMARK SMILES IDX 21 1 20 2 19 3 18 4 17 5 15 6 16 7 14 8 8 9 9 10 10 11 12 12
REMARK SMILES IDX 11 13 13 14 6 15 7 16 5 17 1 18 2 19 3 20 79 21 4 22 77 23
REMARK SMILES IDX 78 24 22 25 23 26 24 27 25 28 26 29 27 30 28 31 29 32 30 33
REMARK SMILES IDX 76 34 31 35 75 36 32 37 33 38 34 39 69 40 35 41 74 42 68 43
REMARK SMILES IDX 70 44 36 45 73 46 67 47 66 48 37 50 59 51 44 52 58 53 45 54
REMARK SMILES IDX 48 55 57 56 71 57 46 58 47 59 56 61 72 62 49 63 38 64 39 65
REMARK SMILES IDX 43 66 40 67 42 68 41 69 60 70 61 71 65 72 62 73 64 74 63 75
REMARK SMILES IDX 50 76 51 77 55 78 52 79 54 80 53 81
REMARK H PARENT 70 49 48 60
REMARK Flexibility Score: inf
ROOT
ATOM      1  C   UNL A   1      34.575  32.635  28.028  1.00  0.00     0.188 C 
ENDROOT
BRANCH   1   2
ATOM      2  O   UNL A   1      34.708  31.325  27.438  1.00  0.00    -0.376 OA
BRANCH   2   3
ATOM      3  C   UNL A   1      33.736  30.258  27.391  1.00  0.00     0.202 C 
BRANCH   3   4
ATOM      4  C   UNL A   1      32.782  29.674  26.062  1.00  0.00     0.261 C 
BRANCH   4   5
ATOM      5  O   UNL A   1      33.242  29.127  24.482  1.00  0.00    -0.460 OA
BRANCH   5   6
ATOM      6  C   UNL A   1      32.690  28.600  23.239  1.00  0.00     0.339 C 
ATOM      7  O   UNL A   1      32.991  28.954  22.096  1.00  0.00    -0.246 OA
BRANCH   6   8
ATOM      8  C   UNL A   1      31.539  27.712  23.037  1.00  0.00     0.074 A 
ATOM      9  C   UNL A   1      31.800  26.350  23.114  1.00  0.00     0.037 A 
ATOM     10  C   UNL A   1      30.739  25.503  23.483  1.00  0.00     0.013 A 
ATOM     11  C   UNL A   1      29.436  25.973  23.683  1.00  0.00     0.001 A 
ATOM     12  C   UNL A   1      30.180  28.220  23.271  1.00  0.00    -0.036 A 
ATOM     13  C   UNL A   1      29.147  27.316  23.541  1.00  0.00     0.004 A 
ATOM     14  C   UNL A   1      29.705  29.676  23.321  1.00  0.00     0.045 C 
BRANCH   9  15
ATOM     15  C   UNL A   1      33.172  25.840  22.798  1.00  0.00     0.194 C 
ATOM     16  O   UNL A   1      33.680  26.060  21.704  1.00  0.00    -0.289 OA
BRANCH  15  17
ATOM     17  C   UNL A   1      33.848  24.878  23.674  1.00  0.00     0.025 A 
ATOM     18  C   UNL A   1      35.779  21.686  25.756  1.00  0.00     0.044 C 
ATOM     19  C   UNL A   1      35.136  22.815  25.021  1.00  0.00    -0.051 A 
ATOM     20  C   UNL A   1      34.875  22.697  23.659  1.00  0.00     0.004 A 
ATOM     21  C   UNL A   1      34.799  23.994  25.696  1.00  0.00     0.007 A 
ATOM     22  C   UNL A   1      34.259  23.733  22.989  1.00  0.00     0.013 A 
ATOM     23  C   UNL A   1      34.201  25.067  25.024  1.00  0.00    -0.040 A 
ATOM     24  C   UNL A   1      34.043  26.330  25.815  1.00  0.00     0.045 C 
ENDBRANCH  15  17
ENDBRANCH   9  15
ENDBRANCH   6   8
ENDBRANCH   5   6
ENDBRANCH   4   5
ENDBRANCH   3   4
ENDBRANCH   2   3
ENDBRANCH   1   2
BRANCH   1  25
ATOM     25  C   UNL A   1      34.687  32.994  29.505  1.00  0.00     0.188 C 
BRANCH  25  26
ATOM     26  O   UNL A   1      35.113  31.909  30.291  1.00  0.00    -0.376 OA
BRANCH  26  27
ATOM     27  C   UNL A   1      35.393  32.230  31.647  1.00  0.00     0.202 C 
BRANCH  27  28
ATOM     28  C   UNL A   1      36.373  31.277  32.382  1.00  0.00     0.261 C 
BRANCH  28  29
ATOM     29  O   UNL A   1      36.157  29.883  32.044  1.00  0.00    -0.460 OA
BRANCH  29  30
ATOM     30  C   UNL A   1      37.195  28.991  32.251  1.00  0.00     0.338 C 
ATOM     31  O   UNL A   1      37.369  28.357  33.263  1.00  0.00    -0.246 OA
BRANCH  30  32
ATOM     32  C   UNL A   1      38.195  29.107  31.129  1.00  0.00     0.060 A 
ATOM     33  C   UNL A   1      37.978  29.020  29.744  1.00  0.00     0.016 A 
ATOM     34  C   UNL A   1      39.466  28.918  31.515  1.00  0.00     0.016 A 
ATOM     35  C   UNL A   1      39.019  28.544  28.815  1.00  0.00     0.010 A 
ATOM     36  C   UNL A   1      40.255  28.177  30.653  1.00  0.00     0.010 A 
ATOM     37  C   UNL A   1      40.232  28.007  29.247  1.00  0.00    -0.014 A 
BRANCH  37  38
ATOM     38  C   UNL A   1      41.500  27.314  28.339  1.00  0.00     0.031 A 
ATOM     39  C   UNL A   1      42.152  25.689  28.184  1.00  0.00     0.074 A 
ATOM     40  C   UNL A   1      42.092  28.179  27.494  1.00  0.00     0.049 A 
ATOM     41  N   UNL A   1      43.327  25.382  27.671  1.00  0.00    -0.248 NA
ATOM     42  C   UNL A   1      41.573  24.335  28.611  1.00  0.00     0.031 C 
ATOM     43  C   UNL A   1      42.994  27.935  26.375  1.00  0.00     0.029 A 
ATOM     44  N   UNL A   1      42.025  29.572  27.542  1.00  0.00    -0.354 N 
ATOM     45  C   UNL A   1      43.432  23.976  27.582  1.00  0.00     0.074 A 
ATOM     46  C   UNL A   1      42.509  23.429  28.468  1.00  0.00     0.031 C 
ATOM     47  C   UNL A   1      43.654  29.080  26.111  1.00  0.00     0.029 A 
ATOM     48  C   UNL A   1      43.289  30.024  27.158  1.00  0.00     0.049 A 
ATOM     49  H   UNL A   1      41.248  30.122  27.795  1.00  0.00     0.167 HD
ATOM     50  C   UNL A   1      44.128  23.311  26.624  1.00  0.00     0.031 A 
ATOM     51  C   UNL A   1      44.092  30.555  28.121  1.00  0.00     0.031 A 
ATOM     52  C   UNL A   1      45.105  24.223  26.101  1.00  0.00     0.049 A 
ATOM     53  C   UNL A   1      45.332  29.700  28.306  1.00  0.00     0.074 A 
ATOM     54  C   UNL A   1      45.128  25.099  25.037  1.00  0.00     0.029 A 
ATOM     55  N   UNL A   1      45.998  24.706  27.041  1.00  0.00    -0.354 N 
ATOM     56  N   UNL A   1      45.478  28.496  27.810  1.00  0.00    -0.248 NA
ATOM     57  C   UNL A   1      46.530  30.145  29.006  1.00  0.00     0.031 C 
ATOM     58  C   UNL A   1      45.893  26.237  25.468  1.00  0.00     0.029 A 
ATOM     59  C   UNL A   1      46.369  26.004  26.752  1.00  0.00     0.049 A 
ATOM     60  H   UNL A   1      46.325  24.192  27.815  1.00  0.00     0.167 HD
ATOM     61  C   UNL A   1      46.710  28.000  28.112  1.00  0.00     0.074 A 
ATOM     62  C   UNL A   1      47.341  29.084  28.844  1.00  0.00     0.031 C 
ATOM     63  C   UNL A   1      47.120  26.738  27.774  1.00  0.00     0.031 A 
BRANCH  50  64
ATOM     64  C   UNL A   1      43.780  21.911  26.100  1.00  0.00    -0.014 A 
ATOM     65  C   UNL A   1      42.541  21.349  26.448  1.00  0.00     0.009 A 
ATOM     66  C   UNL A   1      44.631  21.035  25.378  1.00  0.00     0.009 A 
ATOM     67  C   UNL A   1      42.200  20.016  26.136  1.00  0.00     0.001 A 
ATOM     68  C   UNL A   1      44.301  19.705  25.059  1.00  0.00     0.001 A 
ATOM     69  C   UNL A   1      43.082  19.189  25.450  1.00  0.00     0.000 A 
ENDBRANCH  50  64
BRANCH  51  70
ATOM     70  C   UNL A   1      43.315  31.374  29.129  1.00  0.00    -0.014 A 
ATOM     71  C   UNL A   1      43.475  32.787  29.070  1.00  0.00     0.009 A 
ATOM     72  C   UNL A   1      42.208  30.899  29.845  1.00  0.00     0.009 A 
ATOM     73  C   UNL A   1      42.499  33.675  29.548  1.00  0.00     0.001 A 
ATOM     74  C   UNL A   1      41.258  31.801  30.384  1.00  0.00     0.001 A 
ATOM     75  C   UNL A   1      41.373  33.178  30.184  1.00  0.00     0.000 A 
ENDBRANCH  51  70
BRANCH  63  76
ATOM     76  C   UNL A   1      48.256  26.028  28.489  1.00  0.00    -0.014 A 
ATOM     77  C   UNL A   1      49.457  25.679  27.856  1.00  0.00     0.009 A 
ATOM     78  C   UNL A   1      48.223  25.886  29.895  1.00  0.00     0.009 A 
ATOM     79  C   UNL A   1      50.543  25.166  28.575  1.00  0.00     0.001 A 
ATOM     80  C   UNL A   1      49.338  25.471  30.626  1.00  0.00     0.001 A 
ATOM     81  C   UNL A   1      50.491  25.085  29.961  1.00  0.00     0.000 A 
ENDBRANCH  63  76
ENDBRANCH  37  38
ENDBRANCH  30  32
ENDBRANCH  29  30
ENDBRANCH  28  29
ENDBRANCH  27  28
ENDBRANCH  26  27
ENDBRANCH  25  26
ENDBRANCH   1  25
TORSDOF 19
ENDMDL
