MODEL 1
REMARK VINA RESULT:     -11.7      0.000      0.000
REMARK SMILES C[C@@]12CC[C@@H]3c4ccc(O)cc4/C(=N\OCC(=O)OCCOCCOCCOC(=O)c4ccc(-c5c6nc(c(-c7ccccc7)c7ccc([nH]7)c(-c7ccccc7)c7nc(c(-c8ccccc8)c8ccc5[nH]8)C=C7)C=C6)cc4)C[C@H]3[C@@H]1C[C@@H](O)[C@@H]2O
REMARK SMILES IDX 23 1 22 2 21 3 20 4 19 5 17 6 18 7 16 8 15 9 14 10 1 11 2 12
REMARK SMILES IDX 3 13 81 14 85 15 4 16 80 17 82 18 83 19 5 20 79 21 6 22
REMARK SMILES IDX 13 23 7 24 12 25 8 26 11 27 9 28 86 29 84 31 10 33 24 35
REMARK SMILES IDX 25 36 26 37 27 38 28 39 29 40 30 41 31 42 32 43 78 44 33 45
REMARK SMILES IDX 77 46 34 47 35 48 36 49 71 50 37 51 76 52 70 53 72 54 38 55
REMARK SMILES IDX 75 56 69 57 68 58 39 60 61 61 46 62 60 63 47 64 50 65 59 66
REMARK SMILES IDX 73 67 48 68 49 69 58 71 74 72 51 73 40 74 41 75 45 76 42 77
REMARK SMILES IDX 44 78 43 79 62 80 63 81 67 82 64 83 66 84 65 85 52 86 53 87
REMARK SMILES IDX 57 88 54 89 56 90 55 91
REMARK H PARENT 86 30 84 32 10 34 72 59 50 70
REMARK Flexibility Score: inf
ROOT
ATOM      1  C   UNL A   1      42.386  18.776  26.175  1.00  0.00     0.188 C 
ENDROOT
BRANCH   1   2
ATOM      2  O   UNL A   1      42.232  19.531  27.369  1.00  0.00    -0.376 OA
BRANCH   2   3
ATOM      3  C   UNL A   1      41.049  20.326  27.471  1.00  0.00     0.202 C 
BRANCH   3   4
ATOM      4  C   UNL A   1      40.678  21.182  26.247  1.00  0.00     0.261 C 
BRANCH   4   5
ATOM      5  O   UNL A   1      39.312  21.019  25.815  1.00  0.00    -0.461 OA
BRANCH   5   6
ATOM      6  C   UNL A   1      38.526  22.130  25.868  1.00  0.00     0.347 C 
ATOM      7  O   UNL A   1      38.878  23.209  26.339  1.00  0.00    -0.248 OA
BRANCH   6   8
ATOM      8  C   UNL A   1      37.211  21.972  25.104  1.00  0.00     0.386 C 
BRANCH   8   9
ATOM      9  O   UNL A   1      35.981  21.869  25.774  1.00  0.00    -0.383 OA
BRANCH   9  10
ATOM     10  N   UNL A   1      35.617  23.035  26.484  1.00  0.00    -0.090 NA
ATOM     11  C   UNL A   1      33.687  28.641  22.584  1.00  0.00     0.014 C 
ATOM     12  C   UNL A   1      33.005  27.311  23.016  1.00  0.00    -0.001 C 
ATOM     13  C   UNL A   1      33.463  26.301  21.972  1.00  0.00     0.010 C 
ATOM     14  C   UNL A   1      33.399  26.984  24.478  1.00  0.00     0.004 C 
ATOM     15  C   UNL A   1      31.452  27.434  23.133  1.00  0.00     0.149 C 
ATOM     16  C   UNL A   1      33.062  24.895  22.283  1.00  0.00     0.009 C 
ATOM     17  C   UNL A   1      33.272  25.444  24.836  1.00  0.00     0.006 C 
ATOM     18  C   UNL A   1      32.453  27.986  25.261  1.00  0.00     0.039 C 
ATOM     19  C   UNL A   1      31.279  28.384  24.312  1.00  0.00     0.144 C 
ATOM     20  C   UNL A   1      33.611  24.484  23.637  1.00  0.00     0.024 C 
ATOM     21  C   UNL A   1      34.187  24.996  26.020  1.00  0.00     0.065 C 
ATOM     22  C   UNL A   1      33.192  23.071  23.991  1.00  0.00    -0.035 A 
ATOM     23  C   UNL A   1      34.477  23.478  26.017  1.00  0.00     0.088 C 
ATOM     24  C   UNL A   1      32.560  22.180  23.112  1.00  0.00     0.008 A 
ATOM     25  C   UNL A   1      33.531  22.614  25.262  1.00  0.00     0.006 A 
ATOM     26  C   UNL A   1      32.225  20.890  23.518  1.00  0.00     0.046 A 
ATOM     27  C   UNL A   1      33.152  21.342  25.704  1.00  0.00     0.056 A 
ATOM     28  C   UNL A   1      32.500  20.490  24.820  1.00  0.00     0.116 A 
BRANCH  15  29
ATOM     29  O   UNL A   1      30.776  26.215  23.455  1.00  0.00    -0.390 OA
ATOM     30  H   UNL A   1      31.137  25.853  24.279  1.00  0.00     0.211 HD
ENDBRANCH  15  29
BRANCH  19  31
ATOM     31  O   UNL A   1      31.355  29.734  23.862  1.00  0.00    -0.390 OA
ATOM     32  H   UNL A   1      32.016  29.803  23.156  1.00  0.00     0.211 HD
ENDBRANCH  19  31
BRANCH  28  33
ATOM     33  O   UNL A   1      32.175  19.237  25.246  1.00  0.00    -0.508 OA
ATOM     34  H   UNL A   1      31.992  18.563  24.620  1.00  0.00     0.293 HD
ENDBRANCH  28  33
ENDBRANCH   9  10
ENDBRANCH   8   9
ENDBRANCH   6   8
ENDBRANCH   5   6
ENDBRANCH   4   5
ENDBRANCH   3   4
ENDBRANCH   2   3
ENDBRANCH   1   2
BRANCH   1  35
ATOM     35  C   UNL A   1      43.736  18.876  25.462  1.00  0.00     0.188 C 
BRANCH  35  36
ATOM     36  O   UNL A   1      43.845  19.895  24.481  1.00  0.00    -0.376 OA
BRANCH  36  37
ATOM     37  C   UNL A   1      44.632  21.033  24.825  1.00  0.00     0.202 C 
BRANCH  37  38
ATOM     38  C   UNL A   1      44.417  22.319  24.010  1.00  0.00     0.261 C 
BRANCH  38  39
ATOM     39  O   UNL A   1      43.879  23.438  24.743  1.00  0.00    -0.460 OA
BRANCH  39  40
ATOM     40  C   UNL A   1      44.715  24.449  25.099  1.00  0.00     0.338 C 
ATOM     41  O   UNL A   1      45.759  24.744  24.577  1.00  0.00    -0.246 OA
BRANCH  40  42
ATOM     42  C   UNL A   1      43.989  25.287  26.107  1.00  0.00     0.060 A 
ATOM     43  C   UNL A   1      43.048  24.729  26.976  1.00  0.00     0.016 A 
ATOM     44  C   UNL A   1      44.189  26.675  26.106  1.00  0.00     0.016 A 
ATOM     45  C   UNL A   1      42.326  25.549  27.851  1.00  0.00     0.010 A 
ATOM     46  C   UNL A   1      43.469  27.497  26.987  1.00  0.00     0.010 A 
ATOM     47  C   UNL A   1      42.545  26.939  27.883  1.00  0.00    -0.014 A 
BRANCH  47  48
ATOM     48  C   UNL A   1      41.948  27.751  28.979  1.00  0.00     0.031 A 
ATOM     49  C   UNL A   1      40.637  28.470  28.843  1.00  0.00     0.074 A 
ATOM     50  C   UNL A   1      42.628  27.833  30.140  1.00  0.00     0.049 A 
ATOM     51  N   UNL A   1      39.965  29.124  29.761  1.00  0.00    -0.248 NA
ATOM     52  C   UNL A   1      39.996  28.462  27.521  1.00  0.00     0.031 C 
ATOM     53  C   UNL A   1      43.922  27.201  30.393  1.00  0.00     0.029 A 
ATOM     54  N   UNL A   1      42.324  28.461  31.323  1.00  0.00    -0.354 N 
ATOM     55  C   UNL A   1      38.815  29.591  29.137  1.00  0.00     0.074 A 
ATOM     56  C   UNL A   1      38.903  29.184  27.750  1.00  0.00     0.031 C 
ATOM     57  C   UNL A   1      44.284  27.438  31.662  1.00  0.00     0.029 A 
ATOM     58  C   UNL A   1      43.269  28.270  32.303  1.00  0.00     0.049 A 
ATOM     59  H   UNL A   1      41.508  28.996  31.458  1.00  0.00     0.167 HD
ATOM     60  C   UNL A   1      37.781  30.281  29.680  1.00  0.00     0.031 A 
ATOM     61  C   UNL A   1      43.323  28.704  33.578  1.00  0.00     0.031 A 
ATOM     62  C   UNL A   1      37.708  30.704  31.059  1.00  0.00     0.049 A 
ATOM     63  C   UNL A   1      42.185  29.510  34.139  1.00  0.00     0.074 A 
ATOM     64  C   UNL A   1      36.669  31.361  31.698  1.00  0.00     0.029 A 
ATOM     65  N   UNL A   1      38.708  30.534  32.004  1.00  0.00    -0.354 N 
ATOM     66  N   UNL A   1      41.063  29.860  33.561  1.00  0.00    -0.248 NA
ATOM     67  C   UNL A   1      42.312  29.966  35.531  1.00  0.00     0.031 C 
ATOM     68  C   UNL A   1      37.073  31.666  32.998  1.00  0.00     0.029 A 
ATOM     69  C   UNL A   1      38.326  31.115  33.204  1.00  0.00     0.049 A 
ATOM     70  H   UNL A   1      39.563  30.071  31.846  1.00  0.00     0.167 HD
ATOM     71  C   UNL A   1      40.339  30.553  34.524  1.00  0.00     0.074 A 
ATOM     72  C   UNL A   1      41.142  30.559  35.729  1.00  0.00     0.031 C 
ATOM     73  C   UNL A   1      39.119  31.128  34.410  1.00  0.00     0.031 A 
BRANCH  60  74
ATOM     74  C   UNL A   1      36.607  30.629  28.798  1.00  0.00    -0.014 A 
ATOM     75  C   UNL A   1      36.330  31.973  28.495  1.00  0.00     0.009 A 
ATOM     76  C   UNL A   1      35.689  29.645  28.400  1.00  0.00     0.009 A 
ATOM     77  C   UNL A   1      35.151  32.326  27.835  1.00  0.00     0.001 A 
ATOM     78  C   UNL A   1      34.525  29.998  27.710  1.00  0.00     0.001 A 
ATOM     79  C   UNL A   1      34.251  31.338  27.441  1.00  0.00     0.000 A 
ENDBRANCH  60  74
BRANCH  61  80
ATOM     80  C   UNL A   1      44.493  28.332  34.418  1.00  0.00    -0.014 A 
ATOM     81  C   UNL A   1      44.468  27.169  35.206  1.00  0.00     0.009 A 
ATOM     82  C   UNL A   1      45.617  29.170  34.485  1.00  0.00     0.009 A 
ATOM     83  C   UNL A   1      45.524  26.871  36.068  1.00  0.00     0.001 A 
ATOM     84  C   UNL A   1      46.690  28.849  35.321  1.00  0.00     0.001 A 
ATOM     85  C   UNL A   1      46.637  27.709  36.121  1.00  0.00     0.000 A 
ENDBRANCH  61  80
BRANCH  73  86
ATOM     86  C   UNL A   1      38.536  31.819  35.616  1.00  0.00    -0.014 A 
ATOM     87  C   UNL A   1      38.644  33.215  35.741  1.00  0.00     0.009 A 
ATOM     88  C   UNL A   1      37.991  31.089  36.683  1.00  0.00     0.009 A 
ATOM     89  C   UNL A   1      38.248  33.860  36.915  1.00  0.00     0.001 A 
ATOM     90  C   UNL A   1      37.562  31.740  37.842  1.00  0.00     0.001 A 
ATOM     91  C   UNL A   1      37.704  33.122  37.963  1.00  0.00     0.000 A 
ENDBRANCH  73  86
ENDBRANCH  47  48
ENDBRANCH  40  42
ENDBRANCH  39  40
ENDBRANCH  38  39
ENDBRANCH  37  38
ENDBRANCH  36  37
ENDBRANCH  35  36
ENDBRANCH   1  35
TORSDOF 22
ENDMDL
MODEL 2
REMARK VINA RESULT:     -11.4      4.001     10.289
REMARK SMILES C[C@@]12CC[C@@H]3c4ccc(O)cc4/C(=N\OCC(=O)OCCOCCOCCOC(=O)c4ccc(-c5c6nc(c(-c7ccccc7)c7ccc([nH]7)c(-c7ccccc7)c7nc(c(-c8ccccc8)c8ccc5[nH]8)C=C7)C=C6)cc4)C[C@H]3[C@@H]1C[C@@H](O)[C@@H]2O
REMARK SMILES IDX 23 1 22 2 21 3 20 4 19 5 17 6 18 7 16 8 15 9 14 10 1 11 2 12
REMARK SMILES IDX 3 13 81 14 85 15 4 16 80 17 82 18 83 19 5 20 79 21 6 22
REMARK SMILES IDX 13 23 7 24 12 25 8 26 11 27 9 28 86 29 84 31 10 33 24 35
REMARK SMILES IDX 25 36 26 37 27 38 28 39 29 40 30 41 31 42 32 43 78 44 33 45
REMARK SMILES IDX 77 46 34 47 35 48 36 49 71 50 37 51 76 52 70 53 72 54 38 55
REMARK SMILES IDX 75 56 69 57 68 58 39 60 61 61 46 62 60 63 47 64 50 65 59 66
REMARK SMILES IDX 73 67 48 68 49 69 58 71 74 72 51 73 40 74 41 75 45 76 42 77
REMARK SMILES IDX 44 78 43 79 62 80 63 81 67 82 64 83 66 84 65 85 52 86 53 87
REMARK SMILES IDX 57 88 54 89 56 90 55 91
REMARK H PARENT 86 30 84 32 10 34 72 59 50 70
REMARK Flexibility Score: inf
ROOT
ATOM      1  C   UNL A   1      32.766  35.970  30.616  1.00  0.00     0.188 C 
ENDROOT
BRANCH   1   2
ATOM      2  O   UNL A   1      32.831  34.872  29.715  1.00  0.00    -0.376 OA
BRANCH   2   3
ATOM      3  C   UNL A   1      34.137  34.465  29.302  1.00  0.00     0.202 C 
BRANCH   3   4
ATOM      4  C   UNL A   1      34.231  33.633  28.010  1.00  0.00     0.261 C 
BRANCH   4   5
ATOM      5  O   UNL A   1      33.182  32.653  27.873  1.00  0.00    -0.461 OA
BRANCH   5   6
ATOM      6  C   UNL A   1      33.576  31.389  27.557  1.00  0.00     0.347 C 
ATOM      7  O   UNL A   1      34.506  30.795  28.097  1.00  0.00    -0.248 OA
BRANCH   6   8
ATOM      8  C   UNL A   1      32.624  30.688  26.588  1.00  0.00     0.386 C 
BRANCH   8   9
ATOM      9  O   UNL A   1      32.508  29.288  26.554  1.00  0.00    -0.383 OA
BRANCH   9  10
ATOM     10  N   UNL A   1      33.708  28.623  26.213  1.00  0.00    -0.090 NA
ATOM     11  C   UNL A   1      33.998  21.680  27.653  1.00  0.00     0.014 C 
ATOM     12  C   UNL A   1      33.335  22.551  26.547  1.00  0.00    -0.001 C 
ATOM     13  C   UNL A   1      32.006  22.977  27.154  1.00  0.00     0.010 C 
ATOM     14  C   UNL A   1      34.292  23.705  26.159  1.00  0.00     0.004 C 
ATOM     15  C   UNL A   1      33.190  21.797  25.186  1.00  0.00     0.149 C 
ATOM     16  C   UNL A   1      31.259  23.973  26.325  1.00  0.00     0.009 C 
ATOM     17  C   UNL A   1      33.551  24.948  25.512  1.00  0.00     0.006 C 
ATOM     18  C   UNL A   1      35.325  22.925  25.244  1.00  0.00     0.039 C 
ATOM     19  C   UNL A   1      34.638  21.614  24.748  1.00  0.00     0.144 C 
ATOM     20  C   UNL A   1      32.114  25.206  26.099  1.00  0.00     0.024 C 
ATOM     21  C   UNL A   1      34.328  26.295  25.668  1.00  0.00     0.065 C 
ATOM     22  C   UNL A   1      31.393  26.220  25.233  1.00  0.00    -0.035 A 
ATOM     23  C   UNL A   1      33.416  27.536  25.546  1.00  0.00     0.088 C 
ATOM     24  C   UNL A   1      30.045  26.136  24.858  1.00  0.00     0.008 A 
ATOM     25  C   UNL A   1      32.114  27.348  24.851  1.00  0.00     0.006 A 
ATOM     26  C   UNL A   1      29.457  27.126  24.072  1.00  0.00     0.046 A 
ATOM     27  C   UNL A   1      31.556  28.322  24.016  1.00  0.00     0.056 A 
ATOM     28  C   UNL A   1      30.225  28.197  23.635  1.00  0.00     0.116 A 
BRANCH  15  29
ATOM     29  O   UNL A   1      32.517  22.534  24.161  1.00  0.00    -0.390 OA
ATOM     30  H   UNL A   1      32.723  23.477  24.251  1.00  0.00     0.211 HD
ENDBRANCH  15  29
BRANCH  19  31
ATOM     31  O   UNL A   1      35.180  20.438  25.345  1.00  0.00    -0.390 OA
ATOM     32  H   UNL A   1      35.804  20.022  24.730  1.00  0.00     0.211 HD
ENDBRANCH  19  31
BRANCH  28  33
ATOM     33  O   UNL A   1      29.677  29.174  22.858  1.00  0.00    -0.508 OA
ATOM     34  H   UNL A   1      29.710  29.102  21.924  1.00  0.00     0.293 HD
ENDBRANCH  28  33
ENDBRANCH   9  10
ENDBRANCH   8   9
ENDBRANCH   6   8
ENDBRANCH   5   6
ENDBRANCH   4   5
ENDBRANCH   3   4
ENDBRANCH   2   3
ENDBRANCH   1   2
BRANCH   1  35
ATOM     35  C   UNL A   1      32.907  35.652  32.107  1.00  0.00     0.188 C 
BRANCH  35  36
ATOM     36  O   UNL A   1      34.051  36.190  32.750  1.00  0.00    -0.376 OA
BRANCH  36  37
ATOM     37  C   UNL A   1      35.148  35.303  32.950  1.00  0.00     0.202 C 
BRANCH  37  38
ATOM     38  C   UNL A   1      34.945  34.129  33.923  1.00  0.00     0.261 C 
BRANCH  38  39
ATOM     39  O   UNL A   1      35.601  32.898  33.559  1.00  0.00    -0.460 OA
BRANCH  39  40
ATOM     40  C   UNL A   1      35.271  32.304  32.381  1.00  0.00     0.338 C 
ATOM     41  O   UNL A   1      34.197  32.321  31.837  1.00  0.00    -0.246 OA
BRANCH  40  42
ATOM     42  C   UNL A   1      36.546  31.826  31.756  1.00  0.00     0.060 A 
ATOM     43  C   UNL A   1      37.491  31.103  32.490  1.00  0.00     0.016 A 
ATOM     44  C   UNL A   1      36.838  32.202  30.437  1.00  0.00     0.016 A 
ATOM     45  C   UNL A   1      38.708  30.740  31.902  1.00  0.00     0.010 A 
ATOM     46  C   UNL A   1      38.057  31.833  29.847  1.00  0.00     0.010 A 
ATOM     47  C   UNL A   1      38.995  31.081  30.567  1.00  0.00    -0.014 A 
BRANCH  47  48
ATOM     48  C   UNL A   1      40.181  30.481  29.895  1.00  0.00     0.031 A 
ATOM     49  C   UNL A   1      40.189  29.087  29.339  1.00  0.00     0.074 A 
ATOM     50  C   UNL A   1      41.290  31.240  29.789  1.00  0.00     0.049 A 
ATOM     51  N   UNL A   1      41.128  28.492  28.641  1.00  0.00    -0.248 NA
ATOM     52  C   UNL A   1      39.008  28.252  29.593  1.00  0.00     0.031 C 
ATOM     53  C   UNL A   1      41.421  32.602  30.307  1.00  0.00     0.029 A 
ATOM     54  N   UNL A   1      42.505  30.988  29.200  1.00  0.00    -0.354 N 
ATOM     55  C   UNL A   1      40.647  27.219  28.356  1.00  0.00     0.074 A 
ATOM     56  C   UNL A   1      39.351  27.114  28.996  1.00  0.00     0.031 C 
ATOM     57  C   UNL A   1      42.630  33.081  29.981  1.00  0.00     0.029 A 
ATOM     58  C   UNL A   1      43.376  32.050  29.264  1.00  0.00     0.049 A 
ATOM     59  H   UNL A   1      42.732  30.130  28.773  1.00  0.00     0.167 HD
ATOM     60  C   UNL A   1      41.230  26.243  27.617  1.00  0.00     0.031 A 
ATOM     61  C   UNL A   1      44.633  32.194  28.799  1.00  0.00     0.031 A 
ATOM     62  C   UNL A   1      42.531  26.344  27.000  1.00  0.00     0.049 A 
ATOM     63  C   UNL A   1      45.274  31.075  28.026  1.00  0.00     0.074 A 
ATOM     64  C   UNL A   1      43.168  25.417  26.191  1.00  0.00     0.029 A 
ATOM     65  N   UNL A   1      43.400  27.416  27.131  1.00  0.00    -0.354 N 
ATOM     66  N   UNL A   1      44.766  29.916  27.685  1.00  0.00    -0.248 NA
ATOM     67  C   UNL A   1      46.651  31.289  27.559  1.00  0.00     0.031 C 
ATOM     68  C   UNL A   1      44.451  25.886  25.907  1.00  0.00     0.029 A 
ATOM     69  C   UNL A   1      44.582  27.150  26.456  1.00  0.00     0.049 A 
ATOM     70  H   UNL A   1      43.206  28.243  27.630  1.00  0.00     0.167 HD
ATOM     71  C   UNL A   1      45.750  29.274  26.943  1.00  0.00     0.074 A 
ATOM     72  C   UNL A   1      46.877  30.179  26.868  1.00  0.00     0.031 C 
ATOM     73  C   UNL A   1      45.712  28.044  26.378  1.00  0.00     0.031 A 
BRANCH  60  74
ATOM     74  C   UNL A   1      40.473  24.955  27.404  1.00  0.00    -0.014 A 
ATOM     75  C   UNL A   1      40.980  23.749  27.917  1.00  0.00     0.009 A 
ATOM     76  C   UNL A   1      39.348  24.911  26.565  1.00  0.00     0.009 A 
ATOM     77  C   UNL A   1      40.394  22.527  27.578  1.00  0.00     0.001 A 
ATOM     78  C   UNL A   1      38.744  23.689  26.254  1.00  0.00     0.001 A 
ATOM     79  C   UNL A   1      39.275  22.499  26.748  1.00  0.00     0.000 A 
ENDBRANCH  60  74
BRANCH  61  80
ATOM     80  C   UNL A   1      45.342  33.482  29.022  1.00  0.00    -0.014 A 
ATOM     81  C   UNL A   1      45.261  34.518  28.075  1.00  0.00     0.009 A 
ATOM     82  C   UNL A   1      46.155  33.662  30.152  1.00  0.00     0.009 A 
ATOM     83  C   UNL A   1      46.003  35.688  28.236  1.00  0.00     0.001 A 
ATOM     84  C   UNL A   1      46.867  34.850  30.329  1.00  0.00     0.001 A 
ATOM     85  C   UNL A   1      46.802  35.856  29.366  1.00  0.00     0.000 A 
ENDBRANCH  61  80
BRANCH  73  86
ATOM     86  C   UNL A   1      46.917  27.573  25.603  1.00  0.00    -0.014 A 
ATOM     87  C   UNL A   1      46.992  27.807  24.219  1.00  0.00     0.009 A 
ATOM     88  C   UNL A   1      47.915  26.796  26.209  1.00  0.00     0.009 A 
ATOM     89  C   UNL A   1      48.021  27.252  23.456  1.00  0.00     0.001 A 
ATOM     90  C   UNL A   1      48.964  26.271  25.450  1.00  0.00     0.001 A 
ATOM     91  C   UNL A   1      49.008  26.487  24.072  1.00  0.00     0.000 A 
ENDBRANCH  73  86
ENDBRANCH  47  48
ENDBRANCH  40  42
ENDBRANCH  39  40
ENDBRANCH  38  39
ENDBRANCH  37  38
ENDBRANCH  36  37
ENDBRANCH  35  36
ENDBRANCH   1  35
TORSDOF 22
ENDMDL
MODEL 3
REMARK VINA RESULT:     -11.4      0.946      5.644
REMARK SMILES C[C@@]12CC[C@@H]3c4ccc(O)cc4/C(=N\OCC(=O)OCCOCCOCCOC(=O)c4ccc(-c5c6nc(c(-c7ccccc7)c7ccc([nH]7)c(-c7ccccc7)c7nc(c(-c8ccccc8)c8ccc5[nH]8)C=C7)C=C6)cc4)C[C@H]3[C@@H]1C[C@@H](O)[C@@H]2O
REMARK SMILES IDX 23 1 22 2 21 3 20 4 19 5 17 6 18 7 16 8 15 9 14 10 1 11 2 12
REMARK SMILES IDX 3 13 81 14 85 15 4 16 80 17 82 18 83 19 5 20 79 21 6 22
REMARK SMILES IDX 13 23 7 24 12 25 8 26 11 27 9 28 86 29 84 31 10 33 24 35
REMARK SMILES IDX 25 36 26 37 27 38 28 39 29 40 30 41 31 42 32 43 78 44 33 45
REMARK SMILES IDX 77 46 34 47 35 48 36 49 71 50 37 51 76 52 70 53 72 54 38 55
REMARK SMILES IDX 75 56 69 57 68 58 39 60 61 61 46 62 60 63 47 64 50 65 59 66
REMARK SMILES IDX 73 67 48 68 49 69 58 71 74 72 51 73 40 74 41 75 45 76 42 77
REMARK SMILES IDX 44 78 43 79 62 80 63 81 67 82 64 83 66 84 65 85 52 86 53 87
REMARK SMILES IDX 57 88 54 89 56 90 55 91
REMARK H PARENT 86 30 84 32 10 34 72 59 50 70
REMARK Flexibility Score: inf
ROOT
ATOM      1  C   UNL A   1      42.141  20.003  26.357  1.00  0.00     0.188 C 
ENDROOT
BRANCH   1   2
ATOM      2  O   UNL A   1      41.630  21.066  25.564  1.00  0.00    -0.376 OA
BRANCH   2   3
ATOM      3  C   UNL A   1      40.701  21.945  26.202  1.00  0.00     0.202 C 
BRANCH   3   4
ATOM      4  C   UNL A   1      39.213  21.555  26.131  1.00  0.00     0.261 C 
BRANCH   4   5
ATOM      5  O   UNL A   1      38.349  22.631  25.712  1.00  0.00    -0.461 OA
BRANCH   5   6
ATOM      6  C   UNL A   1      37.379  22.309  24.812  1.00  0.00     0.347 C 
ATOM      7  O   UNL A   1      37.035  23.024  23.874  1.00  0.00    -0.248 OA
BRANCH   6   8
ATOM      8  C   UNL A   1      36.878  20.872  24.959  1.00  0.00     0.386 C 
BRANCH   8   9
ATOM      9  O   UNL A   1      35.627  20.585  25.529  1.00  0.00    -0.383 OA
BRANCH   9  10
ATOM     10  N   UNL A   1      35.204  21.534  26.488  1.00  0.00    -0.090 NA
ATOM     11  C   UNL A   1      33.845  28.071  24.082  1.00  0.00     0.014 C 
ATOM     12  C   UNL A   1      33.093  26.708  24.060  1.00  0.00    -0.001 C 
ATOM     13  C   UNL A   1      33.650  25.995  22.835  1.00  0.00     0.010 C 
ATOM     14  C   UNL A   1      33.309  25.981  25.410  1.00  0.00     0.004 C 
ATOM     15  C   UNL A   1      31.540  26.872  24.039  1.00  0.00     0.149 C 
ATOM     16  C   UNL A   1      33.189  24.578  22.706  1.00  0.00     0.009 C 
ATOM     17  C   UNL A   1      33.112  24.411  25.319  1.00  0.00     0.006 C 
ATOM     18  C   UNL A   1      32.297  26.782  26.331  1.00  0.00     0.039 C 
ATOM     19  C   UNL A   1      31.248  27.477  25.407  1.00  0.00     0.144 C 
ATOM     20  C   UNL A   1      33.570  23.793  23.947  1.00  0.00     0.024 C 
ATOM     21  C   UNL A   1      33.875  23.616  26.426  1.00  0.00     0.065 C 
ATOM     22  C   UNL A   1      33.086  22.359  23.856  1.00  0.00    -0.035 A 
ATOM     23  C   UNL A   1      34.136  22.142  26.040  1.00  0.00     0.088 C 
ATOM     24  C   UNL A   1      32.545  21.769  22.705  1.00  0.00     0.008 A 
ATOM     25  C   UNL A   1      33.267  21.561  24.982  1.00  0.00     0.006 A 
ATOM     26  C   UNL A   1      32.140  20.435  22.706  1.00  0.00     0.046 A 
ATOM     27  C   UNL A   1      32.816  20.237  25.018  1.00  0.00     0.056 A 
ATOM     28  C   UNL A   1      32.255  19.687  23.870  1.00  0.00     0.116 A 
BRANCH  15  29
ATOM     29  O   UNL A   1      30.808  25.646  23.942  1.00  0.00    -0.390 OA
ATOM     30  H   UNL A   1      31.148  25.015  24.595  1.00  0.00     0.211 HD
ENDBRANCH  15  29
BRANCH  19  31
ATOM     31  O   UNL A   1      31.401  28.894  25.353  1.00  0.00    -0.390 OA
ATOM     32  H   UNL A   1      30.575  29.319  25.631  1.00  0.00     0.211 HD
ENDBRANCH  19  31
BRANCH  28  33
ATOM     33  O   UNL A   1      31.859  18.383  23.902  1.00  0.00    -0.508 OA
ATOM     34  H   UNL A   1      31.049  18.131  23.503  1.00  0.00     0.293 HD
ENDBRANCH  28  33
ENDBRANCH   9  10
ENDBRANCH   8   9
ENDBRANCH   6   8
ENDBRANCH   5   6
ENDBRANCH   4   5
ENDBRANCH   3   4
ENDBRANCH   2   3
ENDBRANCH   1   2
BRANCH   1  35
ATOM     35  C   UNL A   1      43.138  19.055  25.686  1.00  0.00     0.188 C 
BRANCH  35  36
ATOM     36  O   UNL A   1      43.860  19.591  24.588  1.00  0.00    -0.376 OA
BRANCH  36  37
ATOM     37  C   UNL A   1      44.935  20.473  24.900  1.00  0.00     0.202 C 
BRANCH  37  38
ATOM     38  C   UNL A   1      44.905  21.879  24.276  1.00  0.00     0.261 C 
BRANCH  38  39
ATOM     39  O   UNL A   1      44.312  22.909  25.091  1.00  0.00    -0.460 OA
BRANCH  39  40
ATOM     40  C   UNL A   1      44.944  24.109  25.190  1.00  0.00     0.338 C 
ATOM     41  O   UNL A   1      45.764  24.561  24.434  1.00  0.00    -0.246 OA
BRANCH  40  42
ATOM     42  C   UNL A   1      44.261  24.878  26.279  1.00  0.00     0.060 A 
ATOM     43  C   UNL A   1      43.299  24.282  27.100  1.00  0.00     0.016 A 
ATOM     44  C   UNL A   1      44.522  26.251  26.408  1.00  0.00     0.016 A 
ATOM     45  C   UNL A   1      42.619  25.047  28.055  1.00  0.00     0.010 A 
ATOM     46  C   UNL A   1      43.843  27.015  27.369  1.00  0.00     0.010 A 
ATOM     47  C   UNL A   1      42.900  26.416  28.216  1.00  0.00    -0.014 A 
BRANCH  47  48
ATOM     48  C   UNL A   1      42.344  27.146  29.389  1.00  0.00     0.031 A 
ATOM     49  C   UNL A   1      43.018  27.174  30.730  1.00  0.00     0.074 A 
ATOM     50  C   UNL A   1      41.183  27.809  29.221  1.00  0.00     0.049 A 
ATOM     51  N   UNL A   1      42.684  27.860  31.798  1.00  0.00    -0.248 NA
ATOM     52  C   UNL A   1      44.209  26.332  30.905  1.00  0.00     0.031 C 
ATOM     53  C   UNL A   1      40.416  27.844  27.975  1.00  0.00     0.029 A 
ATOM     54  N   UNL A   1      40.455  28.591  30.083  1.00  0.00    -0.354 N 
ATOM     55  C   UNL A   1      43.629  27.548  32.767  1.00  0.00     0.074 A 
ATOM     56  C   UNL A   1      44.525  26.576  32.174  1.00  0.00     0.031 C 
ATOM     57  C   UNL A   1      39.348  28.637  28.140  1.00  0.00     0.029 A 
ATOM     58  C   UNL A   1      39.330  29.138  29.512  1.00  0.00     0.049 A 
ATOM     59  H   UNL A   1      40.712  28.746  31.022  1.00  0.00     0.167 HD
ATOM     60  C   UNL A   1      43.743  28.042  34.025  1.00  0.00     0.031 A 
ATOM     61  C   UNL A   1      38.386  29.956  30.020  1.00  0.00     0.031 A 
ATOM     62  C   UNL A   1      42.835  28.994  34.620  1.00  0.00     0.049 A 
ATOM     63  C   UNL A   1      38.511  30.447  31.435  1.00  0.00     0.074 A 
ATOM     64  C   UNL A   1      42.913  29.583  35.872  1.00  0.00     0.029 A 
ATOM     65  N   UNL A   1      41.682  29.483  34.025  1.00  0.00    -0.354 N 
ATOM     66  N   UNL A   1      39.464  30.218  32.304  1.00  0.00    -0.248 NA
ATOM     67  C   UNL A   1      37.441  31.324  31.933  1.00  0.00     0.031 C 
ATOM     68  C   UNL A   1      41.767  30.355  36.069  1.00  0.00     0.029 A 
ATOM     69  C   UNL A   1      41.020  30.329  34.903  1.00  0.00     0.049 A 
ATOM     70  H   UNL A   1      41.379  29.263  33.114  1.00  0.00     0.167 HD
ATOM     71  C   UNL A   1      39.123  30.940  33.441  1.00  0.00     0.074 A 
ATOM     72  C   UNL A   1      37.886  31.630  33.146  1.00  0.00     0.031 C 
ATOM     73  C   UNL A   1      39.786  31.019  34.620  1.00  0.00     0.031 A 
BRANCH  60  74
ATOM     74  C   UNL A   1      44.903  27.585  34.875  1.00  0.00    -0.014 A 
ATOM     75  C   UNL A   1      44.806  26.392  35.612  1.00  0.00     0.009 A 
ATOM     76  C   UNL A   1      46.023  28.408  35.069  1.00  0.00     0.009 A 
ATOM     77  C   UNL A   1      45.791  26.046  36.540  1.00  0.00     0.001 A 
ATOM     78  C   UNL A   1      47.023  28.043  35.975  1.00  0.00     0.001 A 
ATOM     79  C   UNL A   1      46.900  26.871  36.719  1.00  0.00     0.000 A 
ENDBRANCH  60  74
BRANCH  61  80
ATOM     80  C   UNL A   1      37.263  30.391  29.147  1.00  0.00    -0.014 A 
ATOM     81  C   UNL A   1      37.169  31.725  28.714  1.00  0.00     0.009 A 
ATOM     82  C   UNL A   1      36.245  29.492  28.794  1.00  0.00     0.009 A 
ATOM     83  C   UNL A   1      36.065  32.157  27.977  1.00  0.00     0.001 A 
ATOM     84  C   UNL A   1      35.161  29.919  28.024  1.00  0.00     0.001 A 
ATOM     85  C   UNL A   1      35.064  31.252  27.629  1.00  0.00     0.000 A 
ENDBRANCH  61  80
BRANCH  73  86
ATOM     86  C   UNL A   1      39.212  31.890  35.708  1.00  0.00    -0.014 A 
ATOM     87  C   UNL A   1      38.259  31.360  36.596  1.00  0.00     0.009 A 
ATOM     88  C   UNL A   1      39.515  33.258  35.784  1.00  0.00     0.009 A 
ATOM     89  C   UNL A   1      37.603  32.184  37.514  1.00  0.00     0.001 A 
ATOM     90  C   UNL A   1      38.884  34.073  36.727  1.00  0.00     0.001 A 
ATOM     91  C   UNL A   1      37.919  33.539  37.581  1.00  0.00     0.000 A 
ENDBRANCH  73  86
ENDBRANCH  47  48
ENDBRANCH  40  42
ENDBRANCH  39  40
ENDBRANCH  38  39
ENDBRANCH  37  38
ENDBRANCH  36  37
ENDBRANCH  35  36
ENDBRANCH   1  35
TORSDOF 22
ENDMDL
