MODEL 1
REMARK VINA RESULT:      -9.7      0.000      0.000
REMARK SMILES CC(C)[C@H](NS(=O)(=O)N1C[C@@H](C)O[C@H](C)C1)C(=O)OCCOCCOCCOC(=O)c1ccc(-c2c3nc(c(-c4ccccc4)c4ccc([nH]4)c(-c4ccccc4)c4nc(c(-c5ccccc5)c5ccc2[nH]5)C=C4)C=C3)cc1
REMARK SMILES IDX 23 1 22 2 21 3 20 4 19 5 17 6 18 7 4 8 2 9 1 10 3 11 5 12
REMARK SMILES IDX 6 14 7 15 8 16 9 17 10 18 16 19 11 20 14 21 12 22 13 23
REMARK SMILES IDX 15 24 24 25 25 26 26 27 27 28 28 29 29 30 30 31 31 32 32 33
REMARK SMILES IDX 78 34 33 35 77 36 34 37 35 38 36 39 71 40 37 41 76 42 70 43
REMARK SMILES IDX 72 44 38 45 75 46 69 47 68 48 39 50 61 51 46 52 60 53 47 54
REMARK SMILES IDX 50 55 59 56 73 57 48 58 49 59 58 61 74 62 51 63 40 64 41 65
REMARK SMILES IDX 45 66 42 67 44 68 43 69 62 70 63 71 67 72 64 73 66 74 65 75
REMARK SMILES IDX 52 76 53 77 57 78 54 79 56 80 55 81
REMARK H PARENT 5 13 72 49 50 60
REMARK Flexibility Score: inf
ROOT
ATOM      1  C   UNL A   1      37.911  21.807  25.524  1.00  0.00     0.188 C 
ENDROOT
BRANCH   1   2
ATOM      2  O   UNL A   1      37.163  21.513  24.366  1.00  0.00    -0.376 OA
BRANCH   2   3
ATOM      3  C   UNL A   1      36.711  22.591  23.569  1.00  0.00     0.202 C 
BRANCH   3   4
ATOM      4  C   UNL A   1      35.307  23.161  23.806  1.00  0.00     0.261 C 
BRANCH   4   5
ATOM      5  O   UNL A   1      34.221  22.208  23.735  1.00  0.00    -0.462 OA
BRANCH   5   6
ATOM      6  C   UNL A   1      33.045  22.660  23.199  1.00  0.00     0.324 C 
ATOM      7  O   UNL A   1      32.466  22.117  22.262  1.00  0.00    -0.250 OA
BRANCH   6   8
ATOM      8  C   UNL A   1      32.560  23.991  23.796  1.00  0.00     0.183 C 
BRANCH   8   9
ATOM      9  C   UNL A   1      31.887  23.706  25.172  1.00  0.00     0.012 C 
ATOM     10  C   UNL A   1      31.374  22.276  25.362  1.00  0.00     0.009 C 
ATOM     11  C   UNL A   1      32.750  24.064  26.394  1.00  0.00     0.009 C 
ENDBRANCH   8   9
BRANCH   8  12
ATOM     12  N   UNL A   1      31.724  24.809  22.889  1.00  0.00    -0.188 NA
ATOM     13  H   UNL A   1      31.097  25.347  23.487  1.00  0.00     0.143 HD
BRANCH  12  14
ATOM     14  S   UNL A   1      32.392  25.898  21.810  1.00  0.00     0.280 S 
ATOM     15  O   UNL A   1      33.789  25.572  21.752  1.00  0.00    -0.195 OA
ATOM     16  O   UNL A   1      31.566  25.958  20.624  1.00  0.00    -0.195 OA
BRANCH  14  17
ATOM     17  N   UNL A   1      32.204  27.334  22.639  1.00  0.00    -0.184 NA
ATOM     18  C   UNL A   1      31.018  28.192  22.364  1.00  0.00     0.135 C 
ATOM     19  C   UNL A   1      32.763  27.460  24.010  1.00  0.00     0.135 C 
ATOM     20  C   UNL A   1      30.016  28.255  23.524  1.00  0.00     0.130 C 
ATOM     21  C   UNL A   1      31.655  27.474  25.080  1.00  0.00     0.130 C 
ATOM     22  C   UNL A   1      29.079  27.055  23.562  1.00  0.00     0.040 C 
ATOM     23  O   UNL A   1      30.669  28.476  24.784  1.00  0.00    -0.373 OA
ATOM     24  C   UNL A   1      32.208  27.774  26.471  1.00  0.00     0.040 C 
ENDBRANCH  14  17
ENDBRANCH  12  14
ENDBRANCH   8  12
ENDBRANCH   6   8
ENDBRANCH   5   6
ENDBRANCH   4   5
ENDBRANCH   3   4
ENDBRANCH   2   3
ENDBRANCH   1   2
BRANCH   1  25
ATOM     25  C   UNL A   1      39.344  21.256  25.687  1.00  0.00     0.188 C 
BRANCH  25  26
ATOM     26  O   UNL A   1      39.776  20.743  26.922  1.00  0.00    -0.376 OA
BRANCH  26  27
ATOM     27  C   UNL A   1      41.069  20.166  26.989  1.00  0.00     0.202 C 
BRANCH  27  28
ATOM     28  C   UNL A   1      42.242  20.606  26.079  1.00  0.00     0.261 C 
BRANCH  28  29
ATOM     29  O   UNL A   1      43.014  21.749  26.507  1.00  0.00    -0.460 OA
BRANCH  29  30
ATOM     30  C   UNL A   1      42.840  22.886  25.773  1.00  0.00     0.338 C 
ATOM     31  O   UNL A   1      43.044  23.007  24.575  1.00  0.00    -0.246 OA
BRANCH  30  32
ATOM     32  C   UNL A   1      42.296  24.008  26.590  1.00  0.00     0.060 A 
ATOM     33  C   UNL A   1      42.907  25.253  26.577  1.00  0.00     0.016 A 
ATOM     34  C   UNL A   1      41.274  23.802  27.519  1.00  0.00     0.016 A 
ATOM     35  C   UNL A   1      42.531  26.265  27.451  1.00  0.00     0.010 A 
ATOM     36  C   UNL A   1      40.864  24.848  28.382  1.00  0.00     0.010 A 
ATOM     37  C   UNL A   1      41.500  26.103  28.365  1.00  0.00    -0.014 A 
BRANCH  37  38
ATOM     38  C   UNL A   1      41.229  27.210  29.340  1.00  0.00     0.031 A 
ATOM     39  C   UNL A   1      42.170  27.440  30.494  1.00  0.00     0.074 A 
ATOM     40  C   UNL A   1      40.262  28.136  29.144  1.00  0.00     0.049 A 
ATOM     41  N   UNL A   1      41.992  28.158  31.575  1.00  0.00    -0.248 NA
ATOM     42  C   UNL A   1      43.488  26.795  30.410  1.00  0.00     0.031 C 
ATOM     43  C   UNL A   1      39.385  28.236  27.974  1.00  0.00     0.029 A 
ATOM     44  N   UNL A   1      39.888  29.217  29.916  1.00  0.00    -0.354 N 
ATOM     45  C   UNL A   1      43.135  27.971  32.343  1.00  0.00     0.074 A 
ATOM     46  C   UNL A   1      44.016  27.108  31.586  1.00  0.00     0.031 C 
ATOM     47  C   UNL A   1      38.644  29.350  28.069  1.00  0.00     0.029 A 
ATOM     48  C   UNL A   1      38.850  29.946  29.383  1.00  0.00     0.049 A 
ATOM     49  H   UNL A   1      40.324  29.446  30.768  1.00  0.00     0.167 HD
ATOM     50  C   UNL A   1      43.407  28.456  33.579  1.00  0.00     0.031 A 
ATOM     51  C   UNL A   1      38.075  30.914  29.913  1.00  0.00     0.031 A 
ATOM     52  C   UNL A   1      42.560  29.372  34.301  1.00  0.00     0.049 A 
ATOM     53  C   UNL A   1      38.285  31.315  31.348  1.00  0.00     0.074 A 
ATOM     54  C   UNL A   1      42.719  29.866  35.585  1.00  0.00     0.029 A 
ATOM     55  N   UNL A   1      41.411  29.953  33.793  1.00  0.00    -0.354 N 
ATOM     56  N   UNL A   1      39.251  30.981  32.167  1.00  0.00    -0.248 NA
ATOM     57  C   UNL A   1      37.263  32.189  31.947  1.00  0.00     0.031 C 
ATOM     58  C   UNL A   1      41.630  30.693  35.877  1.00  0.00     0.029 A 
ATOM     59  C   UNL A   1      40.831  30.773  34.749  1.00  0.00     0.049 A 
ATOM     60  H   UNL A   1      41.057  29.808  32.885  1.00  0.00     0.167 HD
ATOM     61  C   UNL A   1      38.953  31.600  33.375  1.00  0.00     0.074 A 
ATOM     62  C   UNL A   1      37.740  32.363  33.172  1.00  0.00     0.031 C 
ATOM     63  C   UNL A   1      39.622  31.527  34.552  1.00  0.00     0.031 A 
BRANCH  50  64
ATOM     64  C   UNL A   1      44.616  27.912  34.289  1.00  0.00    -0.014 A 
ATOM     65  C   UNL A   1      45.862  28.551  34.263  1.00  0.00     0.009 A 
ATOM     66  C   UNL A   1      44.470  26.737  35.047  1.00  0.00     0.009 A 
ATOM     67  C   UNL A   1      46.945  28.009  34.962  1.00  0.00     0.001 A 
ATOM     68  C   UNL A   1      45.542  26.216  35.770  1.00  0.00     0.001 A 
ATOM     69  C   UNL A   1      46.782  26.847  35.720  1.00  0.00     0.000 A 
ENDBRANCH  50  64
BRANCH  51  70
ATOM     70  C   UNL A   1      36.914  31.458  29.148  1.00  0.00    -0.014 A 
ATOM     71  C   UNL A   1      36.909  32.778  28.671  1.00  0.00     0.009 A 
ATOM     72  C   UNL A   1      35.776  30.663  28.931  1.00  0.00     0.009 A 
ATOM     73  C   UNL A   1      35.787  33.286  28.007  1.00  0.00     0.001 A 
ATOM     74  C   UNL A   1      34.677  31.156  28.227  1.00  0.00     0.001 A 
ATOM     75  C   UNL A   1      34.679  32.472  27.776  1.00  0.00     0.000 A 
ENDBRANCH  51  70
BRANCH  63  76
ATOM     76  C   UNL A   1      39.072  32.315  35.709  1.00  0.00    -0.014 A 
ATOM     77  C   UNL A   1      38.213  31.726  36.651  1.00  0.00     0.009 A 
ATOM     78  C   UNL A   1      39.440  33.660  35.877  1.00  0.00     0.009 A 
ATOM     79  C   UNL A   1      37.705  32.477  37.713  1.00  0.00     0.001 A 
ATOM     80  C   UNL A   1      38.958  34.400  36.958  1.00  0.00     0.001 A 
ATOM     81  C   UNL A   1      38.082  33.811  37.869  1.00  0.00     0.000 A 
ENDBRANCH  63  76
ENDBRANCH  37  38
ENDBRANCH  30  32
ENDBRANCH  29  30
ENDBRANCH  28  29
ENDBRANCH  27  28
ENDBRANCH  26  27
ENDBRANCH  25  26
ENDBRANCH   1  25
TORSDOF 21
ENDMDL
MODEL 2
REMARK VINA RESULT:      -9.3      3.958      9.511
REMARK SMILES CC(C)[C@H](NS(=O)(=O)N1C[C@@H](C)O[C@H](C)C1)C(=O)OCCOCCOCCOC(=O)c1ccc(-c2c3nc(c(-c4ccccc4)c4ccc([nH]4)c(-c4ccccc4)c4nc(c(-c5ccccc5)c5ccc2[nH]5)C=C4)C=C3)cc1
REMARK SMILES IDX 23 1 22 2 21 3 20 4 19 5 17 6 18 7 4 8 2 9 1 10 3 11 5 12
REMARK SMILES IDX 6 14 7 15 8 16 9 17 10 18 16 19 11 20 14 21 12 22 13 23
REMARK SMILES IDX 15 24 24 25 25 26 26 27 27 28 28 29 29 30 30 31 31 32 32 33
REMARK SMILES IDX 78 34 33 35 77 36 34 37 35 38 36 39 71 40 37 41 76 42 70 43
REMARK SMILES IDX 72 44 38 45 75 46 69 47 68 48 39 50 61 51 46 52 60 53 47 54
REMARK SMILES IDX 50 55 59 56 73 57 48 58 49 59 58 61 74 62 51 63 40 64 41 65
REMARK SMILES IDX 45 66 42 67 44 68 43 69 62 70 63 71 67 72 64 73 66 74 65 75
REMARK SMILES IDX 52 76 53 77 57 78 54 79 56 80 55 81
REMARK H PARENT 5 13 72 49 50 60
REMARK Flexibility Score: inf
ROOT
ATOM      1  C   UNL A   1      33.748  31.714  28.019  1.00  0.00     0.188 C 
ENDROOT
BRANCH   1   2
ATOM      2  O   UNL A   1      33.392  30.412  27.612  1.00  0.00    -0.376 OA
BRANCH   2   3
ATOM      3  C   UNL A   1      34.362  29.631  26.941  1.00  0.00     0.202 C 
BRANCH   3   4
ATOM      4  C   UNL A   1      33.920  28.370  26.189  1.00  0.00     0.261 C 
BRANCH   4   5
ATOM      5  O   UNL A   1      32.694  28.488  25.430  1.00  0.00    -0.462 OA
BRANCH   5   6
ATOM      6  C   UNL A   1      32.767  28.179  24.098  1.00  0.00     0.324 C 
ATOM      7  O   UNL A   1      33.472  28.782  23.293  1.00  0.00    -0.250 OA
BRANCH   6   8
ATOM      8  C   UNL A   1      31.789  27.077  23.660  1.00  0.00     0.183 C 
BRANCH   8   9
ATOM      9  C   UNL A   1      30.333  27.569  23.921  1.00  0.00     0.012 C 
ATOM     10  C   UNL A   1      29.823  28.636  22.950  1.00  0.00     0.009 C 
ATOM     11  C   UNL A   1      29.281  26.450  23.990  1.00  0.00     0.009 C 
ENDBRANCH   8   9
BRANCH   8  12
ATOM     12  N   UNL A   1      32.070  25.739  24.226  1.00  0.00    -0.188 NA
ATOM     13  H   UNL A   1      31.222  25.188  24.088  1.00  0.00     0.143 HD
BRANCH  12  14
ATOM     14  S   UNL A   1      33.337  24.794  23.678  1.00  0.00     0.280 S 
ATOM     15  O   UNL A   1      33.199  24.760  22.249  1.00  0.00    -0.195 OA
ATOM     16  O   UNL A   1      34.559  25.219  24.323  1.00  0.00    -0.195 OA
BRANCH  14  17
ATOM     17  N   UNL A   1      32.920  23.302  24.299  1.00  0.00    -0.184 NA
ATOM     18  C   UNL A   1      33.512  22.069  23.708  1.00  0.00     0.135 C 
ATOM     19  C   UNL A   1      32.542  23.190  25.732  1.00  0.00     0.135 C 
ATOM     20  C   UNL A   1      34.498  21.348  24.637  1.00  0.00     0.130 C 
ATOM     21  C   UNL A   1      33.633  22.481  26.556  1.00  0.00     0.130 C 
ATOM     22  C   UNL A   1      35.889  21.968  24.616  1.00  0.00     0.040 C 
ATOM     23  O   UNL A   1      33.979  21.217  25.969  1.00  0.00    -0.373 OA
ATOM     24  C   UNL A   1      33.180  22.211  27.990  1.00  0.00     0.040 C 
ENDBRANCH  14  17
ENDBRANCH  12  14
ENDBRANCH   8  12
ENDBRANCH   6   8
ENDBRANCH   5   6
ENDBRANCH   4   5
ENDBRANCH   3   4
ENDBRANCH   2   3
ENDBRANCH   1   2
BRANCH   1  25
ATOM     25  C   UNL A   1      32.836  32.913  27.684  1.00  0.00     0.188 C 
BRANCH  25  26
ATOM     26  O   UNL A   1      33.247  34.226  27.973  1.00  0.00    -0.376 OA
BRANCH  26  27
ATOM     27  C   UNL A   1      34.406  34.402  28.770  1.00  0.00     0.202 C 
BRANCH  27  28
ATOM     28  C   UNL A   1      34.357  34.606  30.304  1.00  0.00     0.261 C 
BRANCH  28  29
ATOM     29  O   UNL A   1      35.443  34.050  31.077  1.00  0.00    -0.460 OA
BRANCH  29  30
ATOM     30  C   UNL A   1      35.319  32.732  31.405  1.00  0.00     0.338 C 
ATOM     31  O   UNL A   1      34.405  32.233  32.042  1.00  0.00    -0.246 OA
BRANCH  30  32
ATOM     32  C   UNL A   1      36.422  31.903  30.841  1.00  0.00     0.060 A 
ATOM     33  C   UNL A   1      37.391  31.358  31.669  1.00  0.00     0.016 A 
ATOM     34  C   UNL A   1      36.615  31.793  29.462  1.00  0.00     0.016 A 
ATOM     35  C   UNL A   1      38.520  30.727  31.162  1.00  0.00     0.010 A 
ATOM     36  C   UNL A   1      37.747  31.114  28.947  1.00  0.00     0.010 A 
ATOM     37  C   UNL A   1      38.729  30.575  29.798  1.00  0.00    -0.014 A 
BRANCH  37  38
ATOM     38  C   UNL A   1      40.023  29.975  29.336  1.00  0.00     0.031 A 
ATOM     39  C   UNL A   1      41.292  30.782  29.409  1.00  0.00     0.074 A 
ATOM     40  C   UNL A   1      40.146  28.667  29.007  1.00  0.00     0.049 A 
ATOM     41  N   UNL A   1      42.450  30.557  28.838  1.00  0.00    -0.248 NA
ATOM     42  C   UNL A   1      41.261  31.987  30.249  1.00  0.00     0.031 C 
ATOM     43  C   UNL A   1      39.092  27.652  29.089  1.00  0.00     0.029 A 
ATOM     44  N   UNL A   1      41.246  27.951  28.583  1.00  0.00    -0.354 N 
ATOM     45  C   UNL A   1      43.251  31.642  29.170  1.00  0.00     0.074 A 
ATOM     46  C   UNL A   1      42.463  32.502  30.027  1.00  0.00     0.031 C 
ATOM     47  C   UNL A   1      39.613  26.448  28.808  1.00  0.00     0.029 A 
ATOM     48  C   UNL A   1      40.984  26.621  28.346  1.00  0.00     0.049 A 
ATOM     49  H   UNL A   1      42.136  28.354  28.462  1.00  0.00     0.167 HD
ATOM     50  C   UNL A   1      44.519  31.905  28.772  1.00  0.00     0.031 A 
ATOM     51  C   UNL A   1      41.712  25.663  27.736  1.00  0.00     0.031 A 
ATOM     52  C   UNL A   1      45.327  31.013  27.977  1.00  0.00     0.049 A 
ATOM     53  C   UNL A   1      43.049  26.024  27.147  1.00  0.00     0.074 A 
ATOM     54  C   UNL A   1      46.598  31.221  27.469  1.00  0.00     0.029 A 
ATOM     55  N   UNL A   1      44.954  29.734  27.600  1.00  0.00    -0.354 N 
ATOM     56  N   UNL A   1      43.736  27.131  27.274  1.00  0.00    -0.248 NA
ATOM     57  C   UNL A   1      43.685  25.016  26.284  1.00  0.00     0.031 C 
ATOM     58  C   UNL A   1      46.966  30.094  26.727  1.00  0.00     0.029 A 
ATOM     59  C   UNL A   1      45.954  29.155  26.835  1.00  0.00     0.049 A 
ATOM     60  H   UNL A   1      44.103  29.299  27.840  1.00  0.00     0.167 HD
ATOM     61  C   UNL A   1      44.882  26.954  26.509  1.00  0.00     0.074 A 
ATOM     62  C   UNL A   1      44.818  25.619  25.954  1.00  0.00     0.031 C 
ATOM     63  C   UNL A   1      45.890  27.831  26.276  1.00  0.00     0.031 A 
BRANCH  50  64
ATOM     64  C   UNL A   1      45.079  33.266  29.083  1.00  0.00    -0.014 A 
ATOM     65  C   UNL A   1      45.734  33.559  30.286  1.00  0.00     0.009 A 
ATOM     66  C   UNL A   1      44.976  34.268  28.103  1.00  0.00     0.009 A 
ATOM     67  C   UNL A   1      46.254  34.838  30.509  1.00  0.00     0.001 A 
ATOM     68  C   UNL A   1      45.523  35.533  28.314  1.00  0.00     0.001 A 
ATOM     69  C   UNL A   1      46.154  35.820  29.521  1.00  0.00     0.000 A 
ENDBRANCH  50  64
BRANCH  51  70
ATOM     70  C   UNL A   1      41.129  24.310  27.494  1.00  0.00    -0.014 A 
ATOM     71  C   UNL A   1      40.058  24.126  26.606  1.00  0.00     0.009 A 
ATOM     72  C   UNL A   1      41.618  23.194  28.195  1.00  0.00     0.009 A 
ATOM     73  C   UNL A   1      39.488  22.859  26.438  1.00  0.00     0.001 A 
ATOM     74  C   UNL A   1      41.080  21.924  27.989  1.00  0.00     0.001 A 
ATOM     75  C   UNL A   1      40.007  21.759  27.120  1.00  0.00     0.000 A 
ENDBRANCH  51  70
BRANCH  63  76
ATOM     76  C   UNL A   1      47.024  27.365  25.403  1.00  0.00    -0.014 A 
ATOM     77  C   UNL A   1      47.981  26.453  25.876  1.00  0.00     0.009 A 
ATOM     78  C   UNL A   1      47.121  27.824  24.080  1.00  0.00     0.009 A 
ATOM     79  C   UNL A   1      49.031  26.039  25.054  1.00  0.00     0.001 A 
ATOM     80  C   UNL A   1      48.153  27.384  23.249  1.00  0.00     0.001 A 
ATOM     81  C   UNL A   1      49.114  26.501  23.740  1.00  0.00     0.000 A 
ENDBRANCH  63  76
ENDBRANCH  37  38
ENDBRANCH  30  32
ENDBRANCH  29  30
ENDBRANCH  28  29
ENDBRANCH  27  28
ENDBRANCH  26  27
ENDBRANCH  25  26
ENDBRANCH   1  25
TORSDOF 21
ENDMDL
MODEL 3
REMARK VINA RESULT:      -9.2      4.401      9.729
REMARK SMILES CC(C)[C@H](NS(=O)(=O)N1C[C@@H](C)O[C@H](C)C1)C(=O)OCCOCCOCCOC(=O)c1ccc(-c2c3nc(c(-c4ccccc4)c4ccc([nH]4)c(-c4ccccc4)c4nc(c(-c5ccccc5)c5ccc2[nH]5)C=C4)C=C3)cc1
REMARK SMILES IDX 23 1 22 2 21 3 20 4 19 5 17 6 18 7 4 8 2 9 1 10 3 11 5 12
REMARK SMILES IDX 6 14 7 15 8 16 9 17 10 18 16 19 11 20 14 21 12 22 13 23
REMARK SMILES IDX 15 24 24 25 25 26 26 27 27 28 28 29 29 30 30 31 31 32 32 33
REMARK SMILES IDX 78 34 33 35 77 36 34 37 35 38 36 39 71 40 37 41 76 42 70 43
REMARK SMILES IDX 72 44 38 45 75 46 69 47 68 48 39 50 61 51 46 52 60 53 47 54
REMARK SMILES IDX 50 55 59 56 73 57 48 58 49 59 58 61 74 62 51 63 40 64 41 65
REMARK SMILES IDX 45 66 42 67 44 68 43 69 62 70 63 71 67 72 64 73 66 74 65 75
REMARK SMILES IDX 52 76 53 77 57 78 54 79 56 80 55 81
REMARK H PARENT 5 13 72 49 50 60
REMARK Flexibility Score: inf
ROOT
ATOM      1  C   UNL A   1      34.554  32.422  28.129  1.00  0.00     0.188 C 
ENDROOT
BRANCH   1   2
ATOM      2  O   UNL A   1      33.734  31.307  27.858  1.00  0.00    -0.376 OA
BRANCH   2   3
ATOM      3  C   UNL A   1      34.291  30.226  27.136  1.00  0.00     0.202 C 
BRANCH   3   4
ATOM      4  C   UNL A   1      33.753  28.810  27.375  1.00  0.00     0.261 C 
BRANCH   4   5
ATOM      5  O   UNL A   1      33.326  28.092  26.193  1.00  0.00    -0.462 OA
BRANCH   5   6
ATOM      6  C   UNL A   1      32.080  27.526  26.238  1.00  0.00     0.324 C 
ATOM      7  O   UNL A   1      31.393  27.464  27.254  1.00  0.00    -0.250 OA
BRANCH   6   8
ATOM      8  C   UNL A   1      31.654  26.855  24.923  1.00  0.00     0.183 C 
BRANCH   8   9
ATOM      9  C   UNL A   1      30.628  27.779  24.200  1.00  0.00     0.012 C 
ATOM     10  C   UNL A   1      30.951  29.274  24.252  1.00  0.00     0.009 C 
ATOM     11  C   UNL A   1      30.350  27.406  22.735  1.00  0.00     0.009 C 
ENDBRANCH   8   9
BRANCH   8  12
ATOM     12  N   UNL A   1      31.192  25.456  25.062  1.00  0.00    -0.188 NA
ATOM     13  H   UNL A   1      30.272  25.414  24.622  1.00  0.00     0.143 HD
BRANCH  12  14
ATOM     14  S   UNL A   1      32.064  24.169  24.444  1.00  0.00     0.280 S 
ATOM     15  O   UNL A   1      31.106  23.116  24.251  1.00  0.00    -0.195 OA
ATOM     16  O   UNL A   1      32.915  24.641  23.375  1.00  0.00    -0.195 OA
BRANCH  14  17
ATOM     17  N   UNL A   1      33.039  23.784  25.743  1.00  0.00    -0.184 NA
ATOM     18  C   UNL A   1      32.829  22.497  26.462  1.00  0.00     0.135 C 
ATOM     19  C   UNL A   1      34.428  24.309  25.791  1.00  0.00     0.135 C 
ATOM     20  C   UNL A   1      33.965  21.485  26.266  1.00  0.00     0.130 C 
ATOM     21  C   UNL A   1      35.466  23.199  25.542  1.00  0.00     0.130 C 
ATOM     22  C   UNL A   1      33.852  20.716  24.957  1.00  0.00     0.040 C 
ATOM     23  O   UNL A   1      35.256  22.091  26.432  1.00  0.00    -0.373 OA
ATOM     24  C   UNL A   1      36.895  23.695  25.757  1.00  0.00     0.040 C 
ENDBRANCH  14  17
ENDBRANCH  12  14
ENDBRANCH   8  12
ENDBRANCH   6   8
ENDBRANCH   5   6
ENDBRANCH   4   5
ENDBRANCH   3   4
ENDBRANCH   2   3
ENDBRANCH   1   2
BRANCH   1  25
ATOM     25  C   UNL A   1      33.925  33.773  28.532  1.00  0.00     0.188 C 
BRANCH  25  26
ATOM     26  O   UNL A   1      33.654  34.062  29.880  1.00  0.00    -0.376 OA
BRANCH  26  27
ATOM     27  C   UNL A   1      34.706  33.912  30.819  1.00  0.00     0.202 C 
BRANCH  27  28
ATOM     28  C   UNL A   1      34.751  32.775  31.868  1.00  0.00     0.261 C 
BRANCH  28  29
ATOM     29  O   UNL A   1      35.491  31.586  31.518  1.00  0.00    -0.460 OA
BRANCH  29  30
ATOM     30  C   UNL A   1      36.593  31.331  32.280  1.00  0.00     0.338 C 
ATOM     31  O   UNL A   1      36.700  31.532  33.480  1.00  0.00    -0.246 OA
BRANCH  30  32
ATOM     32  C   UNL A   1      37.691  30.700  31.494  1.00  0.00     0.060 A 
ATOM     33  C   UNL A   1      38.737  30.052  32.134  1.00  0.00     0.016 A 
ATOM     34  C   UNL A   1      37.797  30.887  30.114  1.00  0.00     0.016 A 
ATOM     35  C   UNL A   1      39.857  29.606  31.444  1.00  0.00     0.010 A 
ATOM     36  C   UNL A   1      38.920  30.395  29.406  1.00  0.00     0.010 A 
ATOM     37  C   UNL A   1      39.980  29.749  30.069  1.00  0.00    -0.014 A 
BRANCH  37  38
ATOM     38  C   UNL A   1      41.265  29.332  29.420  1.00  0.00     0.031 A 
ATOM     39  C   UNL A   1      41.397  27.951  28.833  1.00  0.00     0.074 A 
ATOM     40  C   UNL A   1      42.277  30.200  29.177  1.00  0.00     0.049 A 
ATOM     41  N   UNL A   1      42.476  27.309  28.463  1.00  0.00    -0.248 NA
ATOM     42  C   UNL A   1      40.149  27.205  28.617  1.00  0.00     0.031 C 
ATOM     43  C   UNL A   1      42.268  31.638  29.455  1.00  0.00     0.029 A 
ATOM     44  N   UNL A   1      43.506  29.997  28.584  1.00  0.00    -0.354 N 
ATOM     45  C   UNL A   1      42.047  26.049  28.063  1.00  0.00     0.074 A 
ATOM     46  C   UNL A   1      40.606  26.033  28.195  1.00  0.00     0.031 C 
ATOM     47  C   UNL A   1      43.387  32.192  28.965  1.00  0.00     0.029 A 
ATOM     48  C   UNL A   1      44.278  31.134  28.507  1.00  0.00     0.049 A 
ATOM     49  H   UNL A   1      43.803  29.122  28.248  1.00  0.00     0.167 HD
ATOM     50  C   UNL A   1      42.794  24.997  27.651  1.00  0.00     0.031 A 
ATOM     51  C   UNL A   1      45.580  31.309  28.203  1.00  0.00     0.031 A 
ATOM     52  C   UNL A   1      44.222  25.037  27.453  1.00  0.00     0.049 A 
ATOM     53  C   UNL A   1      46.433  30.104  27.917  1.00  0.00     0.074 A 
ATOM     54  C   UNL A   1      45.075  24.004  27.100  1.00  0.00     0.029 A 
ATOM     55  N   UNL A   1      45.003  26.176  27.560  1.00  0.00    -0.354 N 
ATOM     56  N   UNL A   1      46.071  28.857  27.743  1.00  0.00    -0.248 NA
ATOM     57  C   UNL A   1      47.886  30.325  27.837  1.00  0.00     0.031 C 
ATOM     58  C   UNL A   1      46.380  24.504  27.062  1.00  0.00     0.029 A 
ATOM     59  C   UNL A   1      46.331  25.863  27.318  1.00  0.00     0.049 A 
ATOM     60  H   UNL A   1      44.664  27.075  27.777  1.00  0.00     0.167 HD
ATOM     61  C   UNL A   1      47.247  28.147  27.535  1.00  0.00     0.074 A 
ATOM     62  C   UNL A   1      48.331  29.106  27.564  1.00  0.00     0.031 C 
ATOM     63  C   UNL A   1      47.411  26.814  27.353  1.00  0.00     0.031 A 
BRANCH  50  64
ATOM     64  C   UNL A   1      42.104  23.669  27.501  1.00  0.00    -0.014 A 
ATOM     65  C   UNL A   1      42.010  22.742  28.548  1.00  0.00     0.009 A 
ATOM     66  C   UNL A   1      41.491  23.371  26.272  1.00  0.00     0.009 A 
ATOM     67  C   UNL A   1      41.336  21.532  28.356  1.00  0.00     0.001 A 
ATOM     68  C   UNL A   1      40.791  22.179  26.093  1.00  0.00     0.001 A 
ATOM     69  C   UNL A   1      40.722  21.256  27.133  1.00  0.00     0.000 A 
ENDBRANCH  50  64
BRANCH  51  70
ATOM     70  C   UNL A   1      46.209  32.658  28.320  1.00  0.00    -0.014 A 
ATOM     71  C   UNL A   1      46.779  33.095  29.526  1.00  0.00     0.009 A 
ATOM     72  C   UNL A   1      46.197  33.541  27.226  1.00  0.00     0.009 A 
ATOM     73  C   UNL A   1      47.310  34.386  29.631  1.00  0.00     0.001 A 
ATOM     74  C   UNL A   1      46.770  34.809  27.319  1.00  0.00     0.001 A 
ATOM     75  C   UNL A   1      47.316  35.235  28.525  1.00  0.00     0.000 A 
ENDBRANCH  51  70
BRANCH  63  76
ATOM     76  C   UNL A   1      48.814  26.313  27.141  1.00  0.00    -0.014 A 
ATOM     77  C   UNL A   1      49.392  26.282  25.862  1.00  0.00     0.009 A 
ATOM     78  C   UNL A   1      49.579  25.891  28.241  1.00  0.00     0.009 A 
ATOM     79  C   UNL A   1      50.693  25.805  25.685  1.00  0.00     0.001 A 
ATOM     80  C   UNL A   1      50.890  25.445  28.065  1.00  0.00     0.001 A 
ATOM     81  C   UNL A   1      51.442  25.391  26.786  1.00  0.00     0.000 A 
ENDBRANCH  63  76
ENDBRANCH  37  38
ENDBRANCH  30  32
ENDBRANCH  29  30
ENDBRANCH  28  29
ENDBRANCH  27  28
ENDBRANCH  26  27
ENDBRANCH  25  26
ENDBRANCH   1  25
TORSDOF 21
ENDMDL
