MODEL 1
REMARK VINA RESULT:     -10.2      0.000      0.000
REMARK SMILES Cc1cc(C)c2c(c1)C=C(C(=O)OCCOCCOCCOC(=O)c1ccc(-c3c4nc(c(-c5ccccc5)c5ccc([nH]5)c(-c5ccccc5)c5nc(c(-c6ccccc6)c6ccc3[nH]6)C=C5)C=C4)cc1)[C@@H](C(F)(F)F)O2
REMARK SMILES IDX 18 1 17 2 16 3 15 4 14 5 13 6 11 7 12 8 10 9 1 10 2 11 3 12
REMARK SMILES IDX 8 13 4 14 7 15 5 16 6 17 9 18 78 19 73 20 74 21 75 22 76 23
REMARK SMILES IDX 77 24 19 25 20 26 21 27 22 28 23 29 24 30 25 31 26 32 72 33
REMARK SMILES IDX 27 34 71 35 28 36 29 37 30 38 65 39 31 40 70 41 64 42 66 43
REMARK SMILES IDX 32 44 69 45 63 46 62 47 33 49 55 50 40 51 54 52 41 53 44 54
REMARK SMILES IDX 53 55 67 56 42 57 43 58 52 60 68 61 45 62 34 63 35 64 39 65
REMARK SMILES IDX 36 66 38 67 37 68 56 69 57 70 61 71 58 72 60 73 59 74 46 75
REMARK SMILES IDX 47 76 51 77 48 78 50 79 49 80
REMARK H PARENT 66 48 44 59
REMARK Flexibility Score: inf
ROOT
ATOM      1  C   UNL A   1      34.368  33.256  29.645  1.00  0.00     0.188 C 
ENDROOT
BRANCH   1   2
ATOM      2  C   UNL A   1      35.223  32.467  28.631  1.00  0.00     0.188 C 
BRANCH   2   3
ATOM      3  O   UNL A   1      34.611  31.817  27.536  1.00  0.00    -0.376 OA
BRANCH   3   4
ATOM      4  C   UNL A   1      34.267  30.445  27.604  1.00  0.00     0.202 C 
BRANCH   4   5
ATOM      5  C   UNL A   1      32.859  29.904  27.304  1.00  0.00     0.261 C 
BRANCH   5   6
ATOM      6  O   UNL A   1      32.759  28.493  27.083  1.00  0.00    -0.460 OA
BRANCH   6   7
ATOM      7  C   UNL A   1      32.981  28.089  25.809  1.00  0.00     0.338 C 
ATOM      8  O   UNL A   1      33.210  28.803  24.846  1.00  0.00    -0.246 OA
BRANCH   7   9
ATOM      9  C   UNL A   1      33.067  26.616  25.764  1.00  0.00     0.087 C 
ATOM     10  C   UNL A   1      36.784  22.102  23.846  1.00  0.00     0.044 C 
ATOM     11  C   UNL A   1      35.545  22.700  24.446  1.00  0.00    -0.050 A 
ATOM     12  C   UNL A   1      34.410  21.917  24.686  1.00  0.00     0.010 A 
ATOM     13  C   UNL A   1      35.495  24.072  24.721  1.00  0.00     0.015 A 
ATOM     14  C   UNL A   1      33.240  22.484  25.214  1.00  0.00    -0.008 A 
ATOM     15  C   UNL A   1      34.325  24.656  25.219  1.00  0.00     0.018 A 
ATOM     16  C   UNL A   1      32.024  21.629  25.432  1.00  0.00     0.048 C 
ATOM     17  C   UNL A   1      33.211  23.859  25.497  1.00  0.00     0.130 A 
ATOM     18  C   UNL A   1      34.236  26.098  25.366  1.00  0.00     0.027 C 
ATOM     19  O   UNL A   1      32.055  24.352  26.034  1.00  0.00    -0.475 OA
ATOM     20  C   UNL A   1      31.875  25.788  26.159  1.00  0.00     0.316 C 
BRANCH  20  21
ATOM     21  C   UNL A   1      30.610  26.182  25.387  1.00  0.00     0.430 C 
ATOM     22  F   UNL A   1      30.442  27.527  25.368  1.00  0.00    -0.167 F 
ATOM     23  F   UNL A   1      30.662  25.781  24.096  1.00  0.00    -0.167 F 
ATOM     24  F   UNL A   1      29.496  25.642  25.933  1.00  0.00    -0.167 F 
ENDBRANCH  20  21
ENDBRANCH   7   9
ENDBRANCH   6   7
ENDBRANCH   5   6
ENDBRANCH   4   5
ENDBRANCH   3   4
ENDBRANCH   2   3
ENDBRANCH   1   2
BRANCH   1  25
ATOM     25  O   UNL A   1      35.004  34.162  30.512  1.00  0.00    -0.376 OA
BRANCH  25  26
ATOM     26  C   UNL A   1      34.469  34.410  31.802  1.00  0.00     0.202 C 
BRANCH  26  27
ATOM     27  C   UNL A   1      34.898  33.703  33.106  1.00  0.00     0.261 C 
BRANCH  27  28
ATOM     28  O   UNL A   1      35.449  32.387  33.007  1.00  0.00    -0.460 OA
BRANCH  28  29
ATOM     29  C   UNL A   1      36.629  32.195  33.654  1.00  0.00     0.338 C 
ATOM     30  O   UNL A   1      36.856  32.339  34.839  1.00  0.00    -0.246 OA
BRANCH  29  31
ATOM     31  C   UNL A   1      37.585  31.578  32.714  1.00  0.00     0.060 A 
ATOM     32  C   UNL A   1      38.694  30.893  33.233  1.00  0.00     0.016 A 
ATOM     33  C   UNL A   1      37.401  31.693  31.337  1.00  0.00     0.016 A 
ATOM     34  C   UNL A   1      39.629  30.322  32.370  1.00  0.00     0.010 A 
ATOM     35  C   UNL A   1      38.357  31.150  30.474  1.00  0.00     0.010 A 
ATOM     36  C   UNL A   1      39.487  30.485  30.987  1.00  0.00    -0.014 A 
BRANCH  36  37
ATOM     37  C   UNL A   1      40.615  30.141  30.089  1.00  0.00     0.031 A 
ATOM     38  C   UNL A   1      40.604  28.795  29.417  1.00  0.00     0.074 A 
ATOM     39  C   UNL A   1      41.614  31.007  29.848  1.00  0.00     0.049 A 
ATOM     40  N   UNL A   1      41.495  28.257  28.625  1.00  0.00    -0.248 NA
ATOM     41  C   UNL A   1      39.428  27.946  29.671  1.00  0.00     0.031 C 
ATOM     42  C   UNL A   1      41.710  32.363  30.384  1.00  0.00     0.029 A 
ATOM     43  N   UNL A   1      42.744  30.865  29.081  1.00  0.00    -0.354 N 
ATOM     44  C   UNL A   1      40.988  27.009  28.288  1.00  0.00     0.074 A 
ATOM     45  C   UNL A   1      39.731  26.855  28.986  1.00  0.00     0.031 C 
ATOM     46  C   UNL A   1      42.842  32.930  29.929  1.00  0.00     0.029 A 
ATOM     47  C   UNL A   1      43.568  31.965  29.103  1.00  0.00     0.049 A 
ATOM     48  H   UNL A   1      42.947  30.051  28.565  1.00  0.00     0.167 HD
ATOM     49  C   UNL A   1      41.516  26.076  27.461  1.00  0.00     0.031 A 
ATOM     50  C   UNL A   1      44.775  32.161  28.537  1.00  0.00     0.031 A 
ATOM     51  C   UNL A   1      42.775  26.217  26.783  1.00  0.00     0.049 A 
ATOM     52  C   UNL A   1      45.398  31.061  27.715  1.00  0.00     0.074 A 
ATOM     53  C   UNL A   1      43.395  25.323  25.928  1.00  0.00     0.029 A 
ATOM     54  N   UNL A   1      43.609  27.318  26.888  1.00  0.00    -0.354 N 
ATOM     55  N   UNL A   1      44.906  29.889  27.391  1.00  0.00    -0.248 NA
ATOM     56  C   UNL A   1      46.744  31.314  27.176  1.00  0.00     0.031 C 
ATOM     57  C   UNL A   1      44.634  25.856  25.566  1.00  0.00     0.029 A 
ATOM     58  C   UNL A   1      44.755  27.112  26.138  1.00  0.00     0.049 A 
ATOM     59  H   UNL A   1      43.417  28.126  27.418  1.00  0.00     0.167 HD
ATOM     60  C   UNL A   1      45.866  29.279  26.594  1.00  0.00     0.074 A 
ATOM     61  C   UNL A   1      46.964  30.215  26.467  1.00  0.00     0.031 C 
ATOM     62  C   UNL A   1      45.841  28.051  26.019  1.00  0.00     0.031 A 
BRANCH  49  63
ATOM     63  C   UNL A   1      40.742  24.803  27.264  1.00  0.00    -0.014 A 
ATOM     64  C   UNL A   1      39.589  24.772  26.465  1.00  0.00     0.009 A 
ATOM     65  C   UNL A   1      41.204  23.610  27.839  1.00  0.00     0.009 A 
ATOM     66  C   UNL A   1      38.901  23.573  26.263  1.00  0.00     0.001 A 
ATOM     67  C   UNL A   1      40.533  22.407  27.611  1.00  0.00     0.001 A 
ATOM     68  C   UNL A   1      39.378  22.391  26.829  1.00  0.00     0.000 A 
ENDBRANCH  49  63
BRANCH  50  69
ATOM     69  C   UNL A   1      45.488  33.453  28.733  1.00  0.00    -0.014 A 
ATOM     70  C   UNL A   1      46.356  33.631  29.821  1.00  0.00     0.009 A 
ATOM     71  C   UNL A   1      45.299  34.517  27.838  1.00  0.00     0.009 A 
ATOM     72  C   UNL A   1      47.009  34.850  30.015  1.00  0.00     0.001 A 
ATOM     73  C   UNL A   1      45.976  35.726  28.017  1.00  0.00     0.001 A 
ATOM     74  C   UNL A   1      46.825  35.894  29.109  1.00  0.00     0.000 A 
ENDBRANCH  50  69
BRANCH  62  75
ATOM     75  C   UNL A   1      47.019  27.643  25.176  1.00  0.00    -0.014 A 
ATOM     76  C   UNL A   1      48.075  26.892  25.714  1.00  0.00     0.009 A 
ATOM     77  C   UNL A   1      47.028  27.938  23.802  1.00  0.00     0.009 A 
ATOM     78  C   UNL A   1      49.125  26.464  24.899  1.00  0.00     0.001 A 
ATOM     79  C   UNL A   1      48.062  27.482  22.983  1.00  0.00     0.001 A 
ATOM     80  C   UNL A   1      49.113  26.751  23.534  1.00  0.00     0.000 A 
ENDBRANCH  62  75
ENDBRANCH  36  37
ENDBRANCH  29  31
ENDBRANCH  28  29
ENDBRANCH  27  28
ENDBRANCH  26  27
ENDBRANCH  25  26
ENDBRANCH   1  25
TORSDOF 18
ENDMDL
MODEL 2
REMARK VINA RESULT:     -10.2      3.289      8.873
REMARK SMILES Cc1cc(C)c2c(c1)C=C(C(=O)OCCOCCOCCOC(=O)c1ccc(-c3c4nc(c(-c5ccccc5)c5ccc([nH]5)c(-c5ccccc5)c5nc(c(-c6ccccc6)c6ccc3[nH]6)C=C5)C=C4)cc1)[C@@H](C(F)(F)F)O2
REMARK SMILES IDX 18 1 17 2 16 3 15 4 14 5 13 6 11 7 12 8 10 9 1 10 2 11 3 12
REMARK SMILES IDX 8 13 4 14 7 15 5 16 6 17 9 18 78 19 73 20 74 21 75 22 76 23
REMARK SMILES IDX 77 24 19 25 20 26 21 27 22 28 23 29 24 30 25 31 26 32 72 33
REMARK SMILES IDX 27 34 71 35 28 36 29 37 30 38 65 39 31 40 70 41 64 42 66 43
REMARK SMILES IDX 32 44 69 45 63 46 62 47 33 49 55 50 40 51 54 52 41 53 44 54
REMARK SMILES IDX 53 55 67 56 42 57 43 58 52 60 68 61 45 62 34 63 35 64 39 65
REMARK SMILES IDX 36 66 38 67 37 68 56 69 57 70 61 71 58 72 60 73 59 74 46 75
REMARK SMILES IDX 47 76 51 77 48 78 50 79 49 80
REMARK H PARENT 66 48 44 59
REMARK Flexibility Score: inf
ROOT
ATOM      1  C   UNL A   1      36.525  20.279  25.003  1.00  0.00     0.188 C 
ENDROOT
BRANCH   1   2
ATOM      2  C   UNL A   1      35.067  20.715  24.748  1.00  0.00     0.188 C 
BRANCH   2   3
ATOM      3  O   UNL A   1      34.080  20.514  25.738  1.00  0.00    -0.376 OA
BRANCH   3   4
ATOM      4  C   UNL A   1      33.615  21.590  26.533  1.00  0.00     0.202 C 
BRANCH   4   5
ATOM      5  C   UNL A   1      34.482  22.802  26.914  1.00  0.00     0.261 C 
BRANCH   5   6
ATOM      6  O   UNL A   1      33.979  24.085  26.521  1.00  0.00    -0.460 OA
BRANCH   6   7
ATOM      7  C   UNL A   1      34.517  24.594  25.386  1.00  0.00     0.338 C 
ATOM      8  O   UNL A   1      35.466  24.147  24.763  1.00  0.00    -0.246 OA
BRANCH   7   9
ATOM      9  C   UNL A   1      33.679  25.708  24.900  1.00  0.00     0.087 C 
ATOM     10  C   UNL A   1      31.687  31.280  26.593  1.00  0.00     0.044 C 
ATOM     11  C   UNL A   1      31.802  30.070  25.711  1.00  0.00    -0.050 A 
ATOM     12  C   UNL A   1      30.938  29.886  24.625  1.00  0.00     0.010 A 
ATOM     13  C   UNL A   1      32.748  29.081  26.002  1.00  0.00     0.015 A 
ATOM     14  C   UNL A   1      31.021  28.738  23.822  1.00  0.00    -0.008 A 
ATOM     15  C   UNL A   1      32.822  27.917  25.228  1.00  0.00     0.018 A 
ATOM     16  C   UNL A   1      30.061  28.548  22.682  1.00  0.00     0.048 C 
ATOM     17  C   UNL A   1      31.984  27.762  24.120  1.00  0.00     0.130 A 
ATOM     18  C   UNL A   1      33.707  26.835  25.623  1.00  0.00     0.027 C 
ATOM     19  O   UNL A   1      32.040  26.677  23.289  1.00  0.00    -0.475 OA
ATOM     20  C   UNL A   1      32.860  25.535  23.650  1.00  0.00     0.316 C 
BRANCH  20  21
ATOM     21  C   UNL A   1      31.958  24.296  23.711  1.00  0.00     0.430 C 
ATOM     22  F   UNL A   1      31.370  24.173  24.926  1.00  0.00    -0.167 F 
ATOM     23  F   UNL A   1      30.957  24.358  22.802  1.00  0.00    -0.167 F 
ATOM     24  F   UNL A   1      32.647  23.156  23.475  1.00  0.00    -0.167 F 
ENDBRANCH  20  21
ENDBRANCH   7   9
ENDBRANCH   6   7
ENDBRANCH   5   6
ENDBRANCH   4   5
ENDBRANCH   3   4
ENDBRANCH   2   3
ENDBRANCH   1   2
BRANCH   1  25
ATOM     25  O   UNL A   1      37.537  21.256  25.003  1.00  0.00    -0.376 OA
BRANCH  25  26
ATOM     26  C   UNL A   1      38.733  21.043  25.735  1.00  0.00     0.202 C 
BRANCH  26  27
ATOM     27  C   UNL A   1      39.584  19.755  25.716  1.00  0.00     0.261 C 
BRANCH  27  28
ATOM     28  O   UNL A   1      40.706  19.677  26.600  1.00  0.00    -0.460 OA
BRANCH  28  29
ATOM     29  C   UNL A   1      41.919  19.894  26.029  1.00  0.00     0.338 C 
ATOM     30  O   UNL A   1      42.486  19.202  25.206  1.00  0.00    -0.246 OA
BRANCH  29  31
ATOM     31  C   UNL A   1      42.387  21.240  26.417  1.00  0.00     0.060 A 
ATOM     32  C   UNL A   1      42.444  21.566  27.779  1.00  0.00     0.016 A 
ATOM     33  C   UNL A   1      42.746  22.174  25.446  1.00  0.00     0.016 A 
ATOM     34  C   UNL A   1      42.858  22.837  28.177  1.00  0.00     0.010 A 
ATOM     35  C   UNL A   1      43.126  23.458  25.844  1.00  0.00     0.010 A 
ATOM     36  C   UNL A   1      43.160  23.803  27.209  1.00  0.00    -0.014 A 
BRANCH  36  37
ATOM     37  C   UNL A   1      43.312  25.221  27.611  1.00  0.00     0.031 A 
ATOM     38  C   UNL A   1      44.702  25.789  27.701  1.00  0.00     0.074 A 
ATOM     39  C   UNL A   1      42.247  26.001  27.863  1.00  0.00     0.049 A 
ATOM     40  N   UNL A   1      45.086  26.985  28.068  1.00  0.00    -0.248 NA
ATOM     41  C   UNL A   1      45.804  24.889  27.324  1.00  0.00     0.031 C 
ATOM     42  C   UNL A   1      40.848  25.592  27.749  1.00  0.00     0.029 A 
ATOM     43  N   UNL A   1      42.184  27.311  28.270  1.00  0.00    -0.354 N 
ATOM     44  C   UNL A   1      46.471  26.978  27.966  1.00  0.00     0.074 A 
ATOM     45  C   UNL A   1      46.862  25.654  27.537  1.00  0.00     0.031 C 
ATOM     46  C   UNL A   1      40.063  26.632  28.080  1.00  0.00     0.029 A 
ATOM     47  C   UNL A   1      40.902  27.767  28.467  1.00  0.00     0.049 A 
ATOM     48  H   UNL A   1      42.981  27.871  28.409  1.00  0.00     0.167 HD
ATOM     49  C   UNL A   1      47.341  27.989  28.198  1.00  0.00     0.031 A 
ATOM     50  C   UNL A   1      40.461  28.956  28.923  1.00  0.00     0.031 A 
ATOM     51  C   UNL A   1      46.957  29.300  28.645  1.00  0.00     0.049 A 
ATOM     52  C   UNL A   1      41.456  30.028  29.287  1.00  0.00     0.074 A 
ATOM     53  C   UNL A   1      47.770  30.387  28.912  1.00  0.00     0.029 A 
ATOM     54  N   UNL A   1      45.655  29.697  28.898  1.00  0.00    -0.354 N 
ATOM     55  N   UNL A   1      42.762  30.017  29.176  1.00  0.00    -0.248 NA
ATOM     56  C   UNL A   1      40.913  31.280  29.837  1.00  0.00     0.031 C 
ATOM     57  C   UNL A   1      46.964  31.424  29.388  1.00  0.00     0.029 A 
ATOM     58  C   UNL A   1      45.644  31.006  29.350  1.00  0.00     0.049 A 
ATOM     59  H   UNL A   1      44.856  29.133  28.776  1.00  0.00     0.167 HD
ATOM     60  C   UNL A   1      43.194  31.263  29.615  1.00  0.00     0.074 A 
ATOM     61  C   UNL A   1      42.010  32.012  29.980  1.00  0.00     0.031 C 
ATOM     62  C   UNL A   1      44.459  31.743  29.710  1.00  0.00     0.031 A 
BRANCH  49  63
ATOM     63  C   UNL A   1      48.804  27.707  27.997  1.00  0.00    -0.014 A 
ATOM     64  C   UNL A   1      49.433  27.977  26.772  1.00  0.00     0.009 A 
ATOM     65  C   UNL A   1      49.573  27.217  29.064  1.00  0.00     0.009 A 
ATOM     66  C   UNL A   1      50.801  27.743  26.614  1.00  0.00     0.001 A 
ATOM     67  C   UNL A   1      50.945  27.013  28.912  1.00  0.00     0.001 A 
ATOM     68  C   UNL A   1      51.557  27.270  27.685  1.00  0.00     0.000 A 
ENDBRANCH  49  63
BRANCH  50  69
ATOM     69  C   UNL A   1      39.000  29.199  29.072  1.00  0.00    -0.014 A 
ATOM     70  C   UNL A   1      38.348  28.906  30.279  1.00  0.00     0.009 A 
ATOM     71  C   UNL A   1      38.248  29.719  28.006  1.00  0.00     0.009 A 
ATOM     72  C   UNL A   1      36.973  29.117  30.412  1.00  0.00     0.001 A 
ATOM     73  C   UNL A   1      36.880  29.956  28.152  1.00  0.00     0.001 A 
ATOM     74  C   UNL A   1      36.242  29.649  29.351  1.00  0.00     0.000 A 
ENDBRANCH  50  69
BRANCH  62  75
ATOM     75  C   UNL A   1      44.644  33.152  30.204  1.00  0.00    -0.014 A 
ATOM     76  C   UNL A   1      44.874  33.424  31.560  1.00  0.00     0.009 A 
ATOM     77  C   UNL A   1      44.676  34.214  29.284  1.00  0.00     0.009 A 
ATOM     78  C   UNL A   1      45.112  34.732  31.989  1.00  0.00     0.001 A 
ATOM     79  C   UNL A   1      44.946  35.515  29.710  1.00  0.00     0.001 A 
ATOM     80  C   UNL A   1      45.157  35.774  31.062  1.00  0.00     0.000 A 
ENDBRANCH  62  75
ENDBRANCH  36  37
ENDBRANCH  29  31
ENDBRANCH  28  29
ENDBRANCH  27  28
ENDBRANCH  26  27
ENDBRANCH  25  26
ENDBRANCH   1  25
TORSDOF 18
ENDMDL
MODEL 3
REMARK VINA RESULT:     -10.2      3.569      8.466
REMARK SMILES Cc1cc(C)c2c(c1)C=C(C(=O)OCCOCCOCCOC(=O)c1ccc(-c3c4nc(c(-c5ccccc5)c5ccc([nH]5)c(-c5ccccc5)c5nc(c(-c6ccccc6)c6ccc3[nH]6)C=C5)C=C4)cc1)[C@@H](C(F)(F)F)O2
REMARK SMILES IDX 18 1 17 2 16 3 15 4 14 5 13 6 11 7 12 8 10 9 1 10 2 11 3 12
REMARK SMILES IDX 8 13 4 14 7 15 5 16 6 17 9 18 78 19 73 20 74 21 75 22 76 23
REMARK SMILES IDX 77 24 19 25 20 26 21 27 22 28 23 29 24 30 25 31 26 32 72 33
REMARK SMILES IDX 27 34 71 35 28 36 29 37 30 38 65 39 31 40 70 41 64 42 66 43
REMARK SMILES IDX 32 44 69 45 63 46 62 47 33 49 55 50 40 51 54 52 41 53 44 54
REMARK SMILES IDX 53 55 67 56 42 57 43 58 52 60 68 61 45 62 34 63 35 64 39 65
REMARK SMILES IDX 36 66 38 67 37 68 56 69 57 70 61 71 58 72 60 73 59 74 46 75
REMARK SMILES IDX 47 76 51 77 48 78 50 79 49 80
REMARK H PARENT 66 48 44 59
REMARK Flexibility Score: inf
ROOT
ATOM      1  C   UNL A   1      36.619  20.168  24.991  1.00  0.00     0.188 C 
ENDROOT
BRANCH   1   2
ATOM      2  C   UNL A   1      35.194  20.724  24.783  1.00  0.00     0.188 C 
BRANCH   2   3
ATOM      3  O   UNL A   1      34.183  20.466  25.735  1.00  0.00    -0.376 OA
BRANCH   3   4
ATOM      4  C   UNL A   1      33.777  21.464  26.655  1.00  0.00     0.202 C 
BRANCH   4   5
ATOM      5  C   UNL A   1      34.635  22.688  27.016  1.00  0.00     0.261 C 
BRANCH   5   6
ATOM      6  O   UNL A   1      34.114  23.962  26.618  1.00  0.00    -0.460 OA
BRANCH   6   7
ATOM      7  C   UNL A   1      34.686  24.501  25.514  1.00  0.00     0.338 C 
ATOM      8  O   UNL A   1      35.670  24.086  24.924  1.00  0.00    -0.246 OA
BRANCH   7   9
ATOM      9  C   UNL A   1      33.843  25.603  25.009  1.00  0.00     0.087 C 
ATOM     10  C   UNL A   1      31.741  31.148  26.654  1.00  0.00     0.044 C 
ATOM     11  C   UNL A   1      31.889  29.940  25.775  1.00  0.00    -0.050 A 
ATOM     12  C   UNL A   1      31.049  29.742  24.673  1.00  0.00     0.010 A 
ATOM     13  C   UNL A   1      32.843  28.964  26.088  1.00  0.00     0.015 A 
ATOM     14  C   UNL A   1      31.165  28.594  23.874  1.00  0.00    -0.008 A 
ATOM     15  C   UNL A   1      32.949  27.800  25.317  1.00  0.00     0.018 A 
ATOM     16  C   UNL A   1      30.230  28.389  22.716  1.00  0.00     0.048 C 
ATOM     17  C   UNL A   1      32.135  27.632  24.193  1.00  0.00     0.130 A 
ATOM     18  C   UNL A   1      33.840  26.731  25.731  1.00  0.00     0.027 C 
ATOM     19  O   UNL A   1      32.222  26.547  23.365  1.00  0.00    -0.475 OA
ATOM     20  C   UNL A   1      33.051  25.417  23.744  1.00  0.00     0.316 C 
BRANCH  20  21
ATOM     21  C   UNL A   1      32.165  24.166  23.789  1.00  0.00     0.430 C 
ATOM     22  F   UNL A   1      31.491  24.080  24.961  1.00  0.00    -0.167 F 
ATOM     23  F   UNL A   1      31.233  24.174  22.807  1.00  0.00    -0.167 F 
ATOM     24  F   UNL A   1      32.886  23.029  23.651  1.00  0.00    -0.167 F 
ENDBRANCH  20  21
ENDBRANCH   7   9
ENDBRANCH   6   7
ENDBRANCH   5   6
ENDBRANCH   4   5
ENDBRANCH   3   4
ENDBRANCH   2   3
ENDBRANCH   1   2
BRANCH   1  25
ATOM     25  O   UNL A   1      37.694  21.068  25.084  1.00  0.00    -0.376 OA
BRANCH  25  26
ATOM     26  C   UNL A   1      38.882  20.693  25.763  1.00  0.00     0.202 C 
BRANCH  26  27
ATOM     27  C   UNL A   1      39.768  19.476  25.423  1.00  0.00     0.261 C 
BRANCH  27  28
ATOM     28  O   UNL A   1      40.887  19.201  26.270  1.00  0.00    -0.460 OA
BRANCH  28  29
ATOM     29  C   UNL A   1      42.063  19.769  25.893  1.00  0.00     0.338 C 
ATOM     30  O   UNL A   1      42.871  19.338  25.095  1.00  0.00    -0.246 OA
BRANCH  29  31
ATOM     31  C   UNL A   1      42.134  21.127  26.467  1.00  0.00     0.060 A 
ATOM     32  C   UNL A   1      42.489  22.194  25.629  1.00  0.00     0.016 A 
ATOM     33  C   UNL A   1      41.874  21.341  27.820  1.00  0.00     0.016 A 
ATOM     34  C   UNL A   1      42.589  23.485  26.147  1.00  0.00     0.010 A 
ATOM     35  C   UNL A   1      42.009  22.629  28.344  1.00  0.00     0.010 A 
ATOM     36  C   UNL A   1      42.391  23.701  27.516  1.00  0.00    -0.014 A 
BRANCH  36  37
ATOM     37  C   UNL A   1      42.780  25.000  28.116  1.00  0.00     0.031 A 
ATOM     38  C   UNL A   1      41.712  26.040  28.313  1.00  0.00     0.074 A 
ATOM     39  C   UNL A   1      44.042  25.245  28.508  1.00  0.00     0.049 A 
ATOM     40  N   UNL A   1      41.817  27.258  28.779  1.00  0.00    -0.248 NA
ATOM     41  C   UNL A   1      40.342  25.653  27.935  1.00  0.00     0.031 C 
ATOM     42  C   UNL A   1      45.154  24.300  28.434  1.00  0.00     0.029 A 
ATOM     43  N   UNL A   1      44.597  26.379  29.051  1.00  0.00    -0.354 N 
ATOM     44  C   UNL A   1      40.531  27.780  28.750  1.00  0.00     0.074 A 
ATOM     45  C   UNL A   1      39.669  26.763  28.190  1.00  0.00     0.031 C 
ATOM     46  C   UNL A   1      46.261  24.894  28.913  1.00  0.00     0.029 A 
ATOM     47  C   UNL A   1      45.946  26.272  29.291  1.00  0.00     0.049 A 
ATOM     48  H   UNL A   1      44.077  27.191  29.249  1.00  0.00     0.167 HD
ATOM     49  C   UNL A   1      40.102  28.996  29.163  1.00  0.00     0.031 A 
ATOM     50  C   UNL A   1      46.825  27.187  29.747  1.00  0.00     0.031 A 
ATOM     51  C   UNL A   1      40.960  30.017  29.699  1.00  0.00     0.049 A 
ATOM     52  C   UNL A   1      46.343  28.573  30.090  1.00  0.00     0.074 A 
ATOM     53  C   UNL A   1      40.616  31.282  30.140  1.00  0.00     0.029 A 
ATOM     54  N   UNL A   1      42.330  29.892  29.860  1.00  0.00    -0.354 N 
ATOM     55  N   UNL A   1      45.123  29.054  30.071  1.00  0.00    -0.248 NA
ATOM     56  C   UNL A   1      47.361  29.544  30.522  1.00  0.00     0.031 C 
ATOM     57  C   UNL A   1      41.789  31.947  30.509  1.00  0.00     0.029 A 
ATOM     58  C   UNL A   1      42.852  31.071  30.365  1.00  0.00     0.049 A 
ATOM     59  H   UNL A   1      42.855  29.086  29.648  1.00  0.00     0.167 HD
ATOM     60  C   UNL A   1      45.224  30.369  30.511  1.00  0.00     0.074 A 
ATOM     61  C   UNL A   1      46.621  30.607  30.806  1.00  0.00     0.031 C 
ATOM     62  C   UNL A   1      44.245  31.297  30.656  1.00  0.00     0.031 A 
BRANCH  49  63
ATOM     63  C   UNL A   1      38.637  29.300  29.025  1.00  0.00    -0.014 A 
ATOM     64  C   UNL A   1      37.767  29.193  30.121  1.00  0.00     0.009 A 
ATOM     65  C   UNL A   1      38.131  29.752  27.797  1.00  0.00     0.009 A 
ATOM     66  C   UNL A   1      36.415  29.514  29.984  1.00  0.00     0.001 A 
ATOM     67  C   UNL A   1      36.785  30.101  27.670  1.00  0.00     0.001 A 
ATOM     68  C   UNL A   1      35.927  29.976  28.763  1.00  0.00     0.000 A 
ENDBRANCH  49  63
BRANCH  50  69
ATOM     69  C   UNL A   1      48.260  26.827  29.899  1.00  0.00    -0.014 A 
ATOM     70  C   UNL A   1      48.729  26.253  31.091  1.00  0.00     0.009 A 
ATOM     71  C   UNL A   1      49.172  27.061  28.858  1.00  0.00     0.009 A 
ATOM     72  C   UNL A   1      50.081  25.934  31.241  1.00  0.00     0.001 A 
ATOM     73  C   UNL A   1      50.517  26.714  28.999  1.00  0.00     0.001 A 
ATOM     74  C   UNL A   1      50.972  26.157  30.192  1.00  0.00     0.000 A 
ENDBRANCH  50  69
BRANCH  62  75
ATOM     75  C   UNL A   1      44.632  32.654  31.179  1.00  0.00    -0.014 A 
ATOM     76  C   UNL A   1      44.950  33.706  30.308  1.00  0.00     0.009 A 
ATOM     77  C   UNL A   1      44.590  32.905  32.561  1.00  0.00     0.009 A 
ATOM     78  C   UNL A   1      45.239  34.977  30.811  1.00  0.00     0.001 A 
ATOM     79  C   UNL A   1      44.847  34.183  33.058  1.00  0.00     0.001 A 
ATOM     80  C   UNL A   1      45.178  35.216  32.184  1.00  0.00     0.000 A 
ENDBRANCH  62  75
ENDBRANCH  36  37
ENDBRANCH  29  31
ENDBRANCH  28  29
ENDBRANCH  27  28
ENDBRANCH  26  27
ENDBRANCH  25  26
ENDBRANCH   1  25
TORSDOF 18
ENDMDL
