MODEL 1
REMARK VINA RESULT:      -9.7      0.000      0.000
REMARK SMILES C[C@@H](C(=O)OCCOCCOCCOC(=O)c1ccc(-c2c3nc(c(-c4ccccc4)c4ccc([nH]4)c(-c4ccccc4)c4nc(c(-c5ccccc5)c5ccc2[nH]5)C=C4)C=C3)cc1)c1ccc(N[C@H]2CCC[C@@H]2O)cc1F
REMARK SMILES IDX 9 1 8 2 7 3 6 4 5 5 3 6 4 7 2 8 1 9 65 10 66 11 77 12 67 13
REMARK SMILES IDX 76 14 78 15 68 16 69 17 70 19 71 20 74 21 72 22 73 23 75 24
REMARK SMILES IDX 10 26 11 27 12 28 13 29 14 30 15 31 16 32 17 33 18 34 64 35
REMARK SMILES IDX 19 36 63 37 20 38 21 39 22 40 57 41 23 42 62 43 56 44 58 45
REMARK SMILES IDX 24 46 61 47 55 48 54 49 25 51 47 52 32 53 46 54 33 55 36 56
REMARK SMILES IDX 45 57 59 58 34 59 35 60 44 62 60 63 37 64 26 65 27 66 31 67
REMARK SMILES IDX 28 68 30 69 29 70 48 71 49 72 53 73 50 74 52 75 51 76 38 77
REMARK SMILES IDX 39 78 43 79 40 80 42 81 41 82
REMARK H PARENT 69 18 75 25 58 50 36 61
REMARK Flexibility Score: inf
ROOT
ATOM      1  C   UNL A   1      36.777  23.246  25.404  1.00  0.00     0.188 C 
ENDROOT
BRANCH   1   2
ATOM      2  O   UNL A   1      35.622  22.857  26.136  1.00  0.00    -0.376 OA
BRANCH   2   3
ATOM      3  C   UNL A   1      35.135  21.526  25.970  1.00  0.00     0.202 C 
BRANCH   3   4
ATOM      4  C   UNL A   1      33.810  21.119  26.646  1.00  0.00     0.261 C 
BRANCH   4   5
ATOM      5  O   UNL A   1      32.817  20.601  25.734  1.00  0.00    -0.463 OA
BRANCH   5   6
ATOM      6  C   UNL A   1      32.383  21.446  24.765  1.00  0.00     0.313 C 
ATOM      7  O   UNL A   1      32.267  21.122  23.587  1.00  0.00    -0.252 OA
BRANCH   6   8
ATOM      8  C   UNL A   1      31.954  22.831  25.287  1.00  0.00     0.129 C 
ATOM      9  C   UNL A   1      30.621  22.819  26.046  1.00  0.00     0.025 C 
BRANCH   8  10
ATOM     10  C   UNL A   1      32.194  23.970  24.290  1.00  0.00     0.002 A 
ATOM     11  C   UNL A   1      33.327  24.778  24.446  1.00  0.00     0.010 A 
ATOM     12  C   UNL A   1      31.281  24.379  23.310  1.00  0.00     0.129 A 
ATOM     13  C   UNL A   1      33.498  25.955  23.713  1.00  0.00     0.026 A 
ATOM     14  C   UNL A   1      31.454  25.566  22.581  1.00  0.00     0.065 A 
ATOM     15  F   UNL A   1      30.177  23.663  23.057  1.00  0.00    -0.207 F 
ATOM     16  C   UNL A   1      32.554  26.400  22.793  1.00  0.00     0.037 A 
BRANCH  16  17
ATOM     17  N   UNL A   1      32.597  27.641  22.190  1.00  0.00    -0.380 N 
ATOM     18  H   UNL A   1      33.103  27.692  21.347  1.00  0.00     0.160 HD
BRANCH  17  19
ATOM     19  C   UNL A   1      31.984  28.886  22.649  1.00  0.00     0.107 C 
ATOM     20  C   UNL A   1      30.519  29.105  22.270  1.00  0.00     0.027 C 
ATOM     21  C   UNL A   1      32.074  29.059  24.166  1.00  0.00     0.136 C 
ATOM     22  C   UNL A   1      29.794  29.516  23.556  1.00  0.00     0.005 C 
ATOM     23  C   UNL A   1      30.880  29.920  24.537  1.00  0.00     0.034 C 
BRANCH  21  24
ATOM     24  O   UNL A   1      33.294  29.692  24.484  1.00  0.00    -0.391 OA
ATOM     25  H   UNL A   1      33.686  29.267  25.263  1.00  0.00     0.211 HD
ENDBRANCH  21  24
ENDBRANCH  17  19
ENDBRANCH  16  17
ENDBRANCH   8  10
ENDBRANCH   6   8
ENDBRANCH   5   6
ENDBRANCH   4   5
ENDBRANCH   3   4
ENDBRANCH   2   3
ENDBRANCH   1   2
BRANCH   1  26
ATOM     26  C   UNL A   1      38.120  23.331  26.146  1.00  0.00     0.188 C 
BRANCH  26  27
ATOM     27  O   UNL A   1      39.020  22.285  25.875  1.00  0.00    -0.376 OA
BRANCH  27  28
ATOM     28  C   UNL A   1      38.548  21.049  25.368  1.00  0.00     0.202 C 
BRANCH  28  29
ATOM     29  C   UNL A   1      39.379  19.749  25.386  1.00  0.00     0.261 C 
BRANCH  29  30
ATOM     30  O   UNL A   1      40.374  19.595  26.407  1.00  0.00    -0.460 OA
BRANCH  30  31
ATOM     31  C   UNL A   1      41.666  19.773  26.044  1.00  0.00     0.338 C 
ATOM     32  O   UNL A   1      42.314  19.093  25.264  1.00  0.00    -0.246 OA
BRANCH  31  33
ATOM     33  C   UNL A   1      42.101  21.080  26.588  1.00  0.00     0.060 A 
ATOM     34  C   UNL A   1      42.145  21.274  27.978  1.00  0.00     0.016 A 
ATOM     35  C   UNL A   1      42.486  22.104  25.723  1.00  0.00     0.016 A 
ATOM     36  C   UNL A   1      42.562  22.501  28.503  1.00  0.00     0.010 A 
ATOM     37  C   UNL A   1      42.869  23.340  26.248  1.00  0.00     0.010 A 
ATOM     38  C   UNL A   1      42.884  23.555  27.638  1.00  0.00    -0.014 A 
BRANCH  38  39
ATOM     39  C   UNL A   1      43.051  24.938  28.156  1.00  0.00     0.031 A 
ATOM     40  C   UNL A   1      44.446  25.439  28.403  1.00  0.00     0.074 A 
ATOM     41  C   UNL A   1      41.994  25.704  28.480  1.00  0.00     0.049 A 
ATOM     42  N   UNL A   1      44.843  26.602  28.850  1.00  0.00    -0.248 NA
ATOM     43  C   UNL A   1      45.536  24.483  28.151  1.00  0.00     0.031 C 
ATOM     44  C   UNL A   1      40.599  25.310  28.322  1.00  0.00     0.029 A 
ATOM     45  N   UNL A   1      41.931  26.984  28.987  1.00  0.00    -0.354 N 
ATOM     46  C   UNL A   1      46.219  26.489  29.010  1.00  0.00     0.074 A 
ATOM     47  C   UNL A   1      46.589  25.158  28.585  1.00  0.00     0.031 C 
ATOM     48  C   UNL A   1      39.816  26.348  28.663  1.00  0.00     0.029 A 
ATOM     49  C   UNL A   1      40.648  27.490  29.047  1.00  0.00     0.049 A 
ATOM     50  H   UNL A   1      42.724  27.489  29.279  1.00  0.00     0.167 HD
ATOM     51  C   UNL A   1      47.087  27.402  29.506  1.00  0.00     0.031 A 
ATOM     52  C   UNL A   1      40.219  28.748  29.298  1.00  0.00     0.031 A 
ATOM     53  C   UNL A   1      46.715  28.723  29.932  1.00  0.00     0.049 A 
ATOM     54  C   UNL A   1      41.238  29.790  29.701  1.00  0.00     0.074 A 
ATOM     55  C   UNL A   1      47.525  29.725  30.441  1.00  0.00     0.029 A 
ATOM     56  N   UNL A   1      45.425  29.227  29.907  1.00  0.00    -0.354 N 
ATOM     57  N   UNL A   1      42.545  29.708  29.746  1.00  0.00    -0.248 NA
ATOM     58  C   UNL A   1      40.710  31.108  30.098  1.00  0.00     0.031 C 
ATOM     59  C   UNL A   1      46.715  30.813  30.778  1.00  0.00     0.029 A 
ATOM     60  C   UNL A   1      45.413  30.516  30.413  1.00  0.00     0.049 A 
ATOM     61  H   UNL A   1      44.634  28.742  29.577  1.00  0.00     0.167 HD
ATOM     62  C   UNL A   1      42.989  30.951  30.183  1.00  0.00     0.074 A 
ATOM     63  C   UNL A   1      41.822  31.798  30.296  1.00  0.00     0.031 C 
ATOM     64  C   UNL A   1      44.242  31.345  30.514  1.00  0.00     0.031 A 
BRANCH  51  65
ATOM     65  C   UNL A   1      48.514  26.969  29.689  1.00  0.00    -0.014 A 
ATOM     66  C   UNL A   1      48.964  26.377  30.877  1.00  0.00     0.009 A 
ATOM     67  C   UNL A   1      49.421  27.141  28.630  1.00  0.00     0.009 A 
ATOM     68  C   UNL A   1      50.302  25.996  31.012  1.00  0.00     0.001 A 
ATOM     69  C   UNL A   1      50.747  26.728  28.754  1.00  0.00     0.001 A 
ATOM     70  C   UNL A   1      51.189  26.166  29.950  1.00  0.00     0.000 A 
ENDBRANCH  51  65
BRANCH  52  71
ATOM     71  C   UNL A   1      38.793  29.161  29.079  1.00  0.00    -0.014 A 
ATOM     72  C   UNL A   1      37.871  29.084  30.146  1.00  0.00     0.009 A 
ATOM     73  C   UNL A   1      38.322  29.621  27.843  1.00  0.00     0.009 A 
ATOM     74  C   UNL A   1      36.529  29.440  29.979  1.00  0.00     0.001 A 
ATOM     75  C   UNL A   1      36.989  30.021  27.689  1.00  0.00     0.001 A 
ATOM     76  C   UNL A   1      36.093  29.925  28.752  1.00  0.00     0.000 A 
ENDBRANCH  52  71
BRANCH  64  77
ATOM     77  C   UNL A   1      44.407  32.744  31.046  1.00  0.00    -0.014 A 
ATOM     78  C   UNL A   1      44.636  33.825  30.176  1.00  0.00     0.009 A 
ATOM     79  C   UNL A   1      44.296  32.995  32.422  1.00  0.00     0.009 A 
ATOM     80  C   UNL A   1      44.795  35.117  30.678  1.00  0.00     0.001 A 
ATOM     81  C   UNL A   1      44.420  34.294  32.918  1.00  0.00     0.001 A 
ATOM     82  C   UNL A   1      44.681  35.352  32.047  1.00  0.00     0.000 A 
ENDBRANCH  64  77
ENDBRANCH  38  39
ENDBRANCH  31  33
ENDBRANCH  30  31
ENDBRANCH  29  30
ENDBRANCH  28  29
ENDBRANCH  27  28
ENDBRANCH  26  27
ENDBRANCH   1  26
TORSDOF 21
ENDMDL
MODEL 2
REMARK VINA RESULT:      -9.4      3.850      6.258
REMARK SMILES C[C@@H](C(=O)OCCOCCOCCOC(=O)c1ccc(-c2c3nc(c(-c4ccccc4)c4ccc([nH]4)c(-c4ccccc4)c4nc(c(-c5ccccc5)c5ccc2[nH]5)C=C4)C=C3)cc1)c1ccc(N[C@H]2CCC[C@@H]2O)cc1F
REMARK SMILES IDX 9 1 8 2 7 3 6 4 5 5 3 6 4 7 2 8 1 9 65 10 66 11 77 12 67 13
REMARK SMILES IDX 76 14 78 15 68 16 69 17 70 19 71 20 74 21 72 22 73 23 75 24
REMARK SMILES IDX 10 26 11 27 12 28 13 29 14 30 15 31 16 32 17 33 18 34 64 35
REMARK SMILES IDX 19 36 63 37 20 38 21 39 22 40 57 41 23 42 62 43 56 44 58 45
REMARK SMILES IDX 24 46 61 47 55 48 54 49 25 51 47 52 32 53 46 54 33 55 36 56
REMARK SMILES IDX 45 57 59 58 34 59 35 60 44 62 60 63 37 64 26 65 27 66 31 67
REMARK SMILES IDX 28 68 30 69 29 70 48 71 49 72 53 73 50 74 52 75 51 76 38 77
REMARK SMILES IDX 39 78 43 79 40 80 42 81 41 82
REMARK H PARENT 69 18 75 25 58 50 36 61
REMARK Flexibility Score: inf
ROOT
ATOM      1  C   UNL A   1      40.730  20.025  26.059  1.00  0.00     0.188 C 
ENDROOT
BRANCH   1   2
ATOM      2  O   UNL A   1      39.857  21.038  26.541  1.00  0.00    -0.376 OA
BRANCH   2   3
ATOM      3  C   UNL A   1      38.669  21.315  25.799  1.00  0.00     0.202 C 
BRANCH   3   4
ATOM      4  C   UNL A   1      38.149  22.765  25.725  1.00  0.00     0.261 C 
BRANCH   4   5
ATOM      5  O   UNL A   1      36.710  22.877  25.760  1.00  0.00    -0.463 OA
BRANCH   5   6
ATOM      6  C   UNL A   1      36.088  23.087  24.572  1.00  0.00     0.313 C 
ATOM      7  O   UNL A   1      36.656  22.999  23.487  1.00  0.00    -0.252 OA
BRANCH   6   8
ATOM      8  C   UNL A   1      34.575  23.352  24.693  1.00  0.00     0.129 C 
ATOM      9  C   UNL A   1      34.210  24.356  25.794  1.00  0.00     0.025 C 
BRANCH   8  10
ATOM     10  C   UNL A   1      33.713  22.090  24.569  1.00  0.00     0.002 A 
ATOM     11  C   UNL A   1      33.739  21.149  25.606  1.00  0.00     0.010 A 
ATOM     12  C   UNL A   1      33.009  21.715  23.419  1.00  0.00     0.129 A 
ATOM     13  C   UNL A   1      33.153  19.888  25.470  1.00  0.00     0.026 A 
ATOM     14  C   UNL A   1      32.428  20.444  23.284  1.00  0.00     0.065 A 
ATOM     15  F   UNL A   1      32.896  22.551  22.378  1.00  0.00    -0.207 F 
ATOM     16  C   UNL A   1      32.519  19.488  24.298  1.00  0.00     0.037 A 
BRANCH  16  17
ATOM     17  N   UNL A   1      32.093  18.196  24.059  1.00  0.00    -0.380 N 
ATOM     18  H   UNL A   1      31.133  18.087  23.869  1.00  0.00     0.160 HD
BRANCH  17  19
ATOM     19  C   UNL A   1      32.894  16.973  24.054  1.00  0.00     0.107 C 
ATOM     20  C   UNL A   1      34.368  17.124  23.679  1.00  0.00     0.027 C 
ATOM     21  C   UNL A   1      32.856  16.243  25.397  1.00  0.00     0.136 C 
ATOM     22  C   UNL A   1      35.168  16.378  24.753  1.00  0.00     0.005 C 
ATOM     23  C   UNL A   1      34.171  15.488  25.474  1.00  0.00     0.034 C 
BRANCH  21  24
ATOM     24  O   UNL A   1      31.749  15.367  25.414  1.00  0.00    -0.391 OA
ATOM     25  H   UNL A   1      31.399  15.303  26.316  1.00  0.00     0.211 HD
ENDBRANCH  21  24
ENDBRANCH  17  19
ENDBRANCH  16  17
ENDBRANCH   8  10
ENDBRANCH   6   8
ENDBRANCH   5   6
ENDBRANCH   4   5
ENDBRANCH   3   4
ENDBRANCH   2   3
ENDBRANCH   1   2
BRANCH   1  26
ATOM     26  C   UNL A   1      42.216  20.097  26.439  1.00  0.00     0.188 C 
BRANCH  26  27
ATOM     27  O   UNL A   1      43.092  20.385  25.377  1.00  0.00    -0.376 OA
BRANCH  27  28
ATOM     28  C   UNL A   1      43.745  21.640  25.309  1.00  0.00     0.202 C 
BRANCH  28  29
ATOM     29  C   UNL A   1      45.257  21.828  25.551  1.00  0.00     0.261 C 
BRANCH  29  30
ATOM     30  O   UNL A   1      45.687  22.983  26.283  1.00  0.00    -0.460 OA
BRANCH  30  31
ATOM     31  C   UNL A   1      45.506  24.191  25.696  1.00  0.00     0.338 C 
ATOM     32  O   UNL A   1      45.818  24.513  24.561  1.00  0.00    -0.246 OA
BRANCH  31  33
ATOM     33  C   UNL A   1      44.654  24.997  26.600  1.00  0.00     0.060 A 
ATOM     34  C   UNL A   1      44.566  26.386  26.417  1.00  0.00     0.016 A 
ATOM     35  C   UNL A   1      43.924  24.374  27.613  1.00  0.00     0.016 A 
ATOM     36  C   UNL A   1      43.759  27.156  27.259  1.00  0.00     0.010 A 
ATOM     37  C   UNL A   1      43.145  25.149  28.475  1.00  0.00     0.010 A 
ATOM     38  C   UNL A   1      43.078  26.545  28.321  1.00  0.00    -0.014 A 
BRANCH  38  39
ATOM     39  C   UNL A   1      42.450  27.363  29.391  1.00  0.00     0.031 A 
ATOM     40  C   UNL A   1      43.219  27.578  30.663  1.00  0.00     0.074 A 
ATOM     41  C   UNL A   1      41.195  27.834  29.276  1.00  0.00     0.049 A 
ATOM     42  N   UNL A   1      42.883  28.250  31.734  1.00  0.00    -0.248 NA
ATOM     43  C   UNL A   1      44.528  26.909  30.755  1.00  0.00     0.031 C 
ATOM     44  C   UNL A   1      40.341  27.654  28.108  1.00  0.00     0.029 A 
ATOM     45  N   UNL A   1      40.430  28.582  30.145  1.00  0.00    -0.354 N 
ATOM     46  C   UNL A   1      43.898  28.017  32.654  1.00  0.00     0.074 A 
ATOM     47  C   UNL A   1      44.873  27.169  32.006  1.00  0.00     0.031 C 
ATOM     48  C   UNL A   1      39.194  28.327  28.304  1.00  0.00     0.029 A 
ATOM     49  C   UNL A   1      39.233  29.003  29.602  1.00  0.00     0.049 A 
ATOM     50  H   UNL A   1      40.711  28.795  31.064  1.00  0.00     0.167 HD
ATOM     51  C   UNL A   1      43.985  28.441  33.936  1.00  0.00     0.031 A 
ATOM     52  C   UNL A   1      38.331  29.894  30.072  1.00  0.00     0.031 A 
ATOM     53  C   UNL A   1      43.011  29.280  34.579  1.00  0.00     0.049 A 
ATOM     54  C   UNL A   1      38.539  30.472  31.453  1.00  0.00     0.074 A 
ATOM     55  C   UNL A   1      43.016  29.771  35.874  1.00  0.00     0.029 A 
ATOM     56  N   UNL A   1      41.855  29.749  33.978  1.00  0.00    -0.354 N 
ATOM     57  N   UNL A   1      39.552  30.334  32.273  1.00  0.00    -0.248 NA
ATOM     58  C   UNL A   1      37.462  31.331  31.977  1.00  0.00     0.031 C 
ATOM     59  C   UNL A   1      41.833  30.488  36.074  1.00  0.00     0.029 A 
ATOM     60  C   UNL A   1      41.127  30.504  34.883  1.00  0.00     0.049 A 
ATOM     61  H   UNL A   1      41.589  29.574  33.046  1.00  0.00     0.167 HD
ATOM     62  C   UNL A   1      39.228  31.075  33.404  1.00  0.00     0.074 A 
ATOM     63  C   UNL A   1      37.973  31.739  33.128  1.00  0.00     0.031 C 
ATOM     64  C   UNL A   1      39.881  31.160  34.589  1.00  0.00     0.031 A 
BRANCH  51  65
ATOM     65  C   UNL A   1      45.139  27.933  34.754  1.00  0.00    -0.014 A 
ATOM     66  C   UNL A   1      46.310  28.683  34.934  1.00  0.00     0.009 A 
ATOM     67  C   UNL A   1      45.034  26.678  35.377  1.00  0.00     0.009 A 
ATOM     68  C   UNL A   1      47.365  28.172  35.693  1.00  0.00     0.001 A 
ATOM     69  C   UNL A   1      46.074  26.185  36.163  1.00  0.00     0.001 A 
ATOM     70  C   UNL A   1      47.244  26.928  36.312  1.00  0.00     0.000 A 
ENDBRANCH  51  65
BRANCH  52  71
ATOM     71  C   UNL A   1      37.204  30.407  29.224  1.00  0.00    -0.014 A 
ATOM     72  C   UNL A   1      36.119  29.557  28.913  1.00  0.00     0.009 A 
ATOM     73  C   UNL A   1      37.178  31.709  28.709  1.00  0.00     0.009 A 
ATOM     74  C   UNL A   1      35.060  29.989  28.110  1.00  0.00     0.001 A 
ATOM     75  C   UNL A   1      36.094  32.156  27.943  1.00  0.00     0.001 A 
ATOM     76  C   UNL A   1      35.041  31.296  27.639  1.00  0.00     0.000 A 
ENDBRANCH  52  71
BRANCH  64  77
ATOM     77  C   UNL A   1      39.238  31.983  35.673  1.00  0.00    -0.014 A 
ATOM     78  C   UNL A   1      39.552  33.344  35.830  1.00  0.00     0.009 A 
ATOM     79  C   UNL A   1      38.282  31.407  36.524  1.00  0.00     0.009 A 
ATOM     80  C   UNL A   1      38.957  34.097  36.842  1.00  0.00     0.001 A 
ATOM     81  C   UNL A   1      37.661  32.172  37.513  1.00  0.00     0.001 A 
ATOM     82  C   UNL A   1      38.008  33.513  37.679  1.00  0.00     0.000 A 
ENDBRANCH  64  77
ENDBRANCH  38  39
ENDBRANCH  31  33
ENDBRANCH  30  31
ENDBRANCH  29  30
ENDBRANCH  28  29
ENDBRANCH  27  28
ENDBRANCH  26  27
ENDBRANCH   1  26
TORSDOF 21
ENDMDL
MODEL 3
REMARK VINA RESULT:      -9.4      3.863      9.476
REMARK SMILES C[C@@H](C(=O)OCCOCCOCCOC(=O)c1ccc(-c2c3nc(c(-c4ccccc4)c4ccc([nH]4)c(-c4ccccc4)c4nc(c(-c5ccccc5)c5ccc2[nH]5)C=C4)C=C3)cc1)c1ccc(N[C@H]2CCC[C@@H]2O)cc1F
REMARK SMILES IDX 9 1 8 2 7 3 6 4 5 5 3 6 4 7 2 8 1 9 65 10 66 11 77 12 67 13
REMARK SMILES IDX 76 14 78 15 68 16 69 17 70 19 71 20 74 21 72 22 73 23 75 24
REMARK SMILES IDX 10 26 11 27 12 28 13 29 14 30 15 31 16 32 17 33 18 34 64 35
REMARK SMILES IDX 19 36 63 37 20 38 21 39 22 40 57 41 23 42 62 43 56 44 58 45
REMARK SMILES IDX 24 46 61 47 55 48 54 49 25 51 47 52 32 53 46 54 33 55 36 56
REMARK SMILES IDX 45 57 59 58 34 59 35 60 44 62 60 63 37 64 26 65 27 66 31 67
REMARK SMILES IDX 28 68 30 69 29 70 48 71 49 72 53 73 50 74 52 75 51 76 38 77
REMARK SMILES IDX 39 78 43 79 40 80 42 81 41 82
REMARK H PARENT 69 18 75 25 58 50 36 61
REMARK Flexibility Score: inf
ROOT
ATOM      1  C   UNL A   1      32.629  29.087  25.487  1.00  0.00     0.188 C 
ENDROOT
BRANCH   1   2
ATOM      2  O   UNL A   1      33.103  27.887  26.084  1.00  0.00    -0.376 OA
BRANCH   2   3
ATOM      3  C   UNL A   1      33.037  26.682  25.321  1.00  0.00     0.202 C 
BRANCH   3   4
ATOM      4  C   UNL A   1      32.773  25.346  26.045  1.00  0.00     0.261 C 
BRANCH   4   5
ATOM      5  O   UNL A   1      32.368  24.271  25.170  1.00  0.00    -0.463 OA
BRANCH   5   6
ATOM      6  C   UNL A   1      32.865  23.040  25.450  1.00  0.00     0.313 C 
ATOM      7  O   UNL A   1      32.605  22.424  26.480  1.00  0.00    -0.252 OA
BRANCH   6   8
ATOM      8  C   UNL A   1      33.715  22.433  24.317  1.00  0.00     0.129 C 
ATOM      9  C   UNL A   1      33.055  21.234  23.625  1.00  0.00     0.025 C 
BRANCH   8  10
ATOM     10  C   UNL A   1      35.208  22.329  24.650  1.00  0.00     0.002 A 
ATOM     11  C   UNL A   1      35.772  21.060  24.834  1.00  0.00     0.010 A 
ATOM     12  C   UNL A   1      36.038  23.417  24.945  1.00  0.00     0.129 A 
ATOM     13  C   UNL A   1      37.062  20.896  25.345  1.00  0.00     0.026 A 
ATOM     14  C   UNL A   1      37.331  23.247  25.465  1.00  0.00     0.065 A 
ATOM     15  F   UNL A   1      35.608  24.675  24.776  1.00  0.00    -0.207 F 
ATOM     16  C   UNL A   1      37.858  21.977  25.709  1.00  0.00     0.037 A 
BRANCH  16  17
ATOM     17  N   UNL A   1      39.056  21.853  26.384  1.00  0.00    -0.380 N 
ATOM     18  H   UNL A   1      39.063  22.180  27.313  1.00  0.00     0.160 HD
BRANCH  17  19
ATOM     19  C   UNL A   1      40.314  21.297  25.889  1.00  0.00     0.107 C 
ATOM     20  C   UNL A   1      41.558  22.171  26.052  1.00  0.00     0.027 C 
ATOM     21  C   UNL A   1      40.645  19.944  26.519  1.00  0.00     0.136 C 
ATOM     22  C   UNL A   1      42.638  21.278  26.673  1.00  0.00     0.005 C 
ATOM     23  C   UNL A   1      42.160  19.850  26.483  1.00  0.00     0.034 C 
BRANCH  21  24
ATOM     24  O   UNL A   1      40.040  18.921  25.757  1.00  0.00    -0.391 OA
ATOM     25  H   UNL A   1      39.345  18.493  26.281  1.00  0.00     0.211 HD
ENDBRANCH  21  24
ENDBRANCH  17  19
ENDBRANCH  16  17
ENDBRANCH   8  10
ENDBRANCH   6   8
ENDBRANCH   5   6
ENDBRANCH   4   5
ENDBRANCH   3   4
ENDBRANCH   2   3
ENDBRANCH   1   2
BRANCH   1  26
ATOM     26  C   UNL A   1      32.604  30.366  26.337  1.00  0.00     0.188 C 
BRANCH  26  27
ATOM     27  O   UNL A   1      31.453  31.160  26.190  1.00  0.00    -0.376 OA
BRANCH  27  28
ATOM     28  C   UNL A   1      31.442  32.497  26.658  1.00  0.00     0.202 C 
BRANCH  28  29
ATOM     29  C   UNL A   1      32.623  33.146  27.409  1.00  0.00     0.261 C 
BRANCH  29  30
ATOM     30  O   UNL A   1      32.333  34.174  28.365  1.00  0.00    -0.460 OA
BRANCH  30  31
ATOM     31  C   UNL A   1      33.343  35.013  28.698  1.00  0.00     0.338 C 
ATOM     32  O   UNL A   1      33.300  36.232  28.760  1.00  0.00    -0.246 OA
BRANCH  31  33
ATOM     33  C   UNL A   1      34.462  34.181  29.197  1.00  0.00     0.060 A 
ATOM     34  C   UNL A   1      34.210  33.173  30.142  1.00  0.00     0.016 A 
ATOM     35  C   UNL A   1      35.754  34.384  28.713  1.00  0.00     0.016 A 
ATOM     36  C   UNL A   1      35.257  32.376  30.614  1.00  0.00     0.010 A 
ATOM     37  C   UNL A   1      36.805  33.611  29.212  1.00  0.00     0.010 A 
ATOM     38  C   UNL A   1      36.568  32.621  30.184  1.00  0.00    -0.014 A 
BRANCH  38  39
ATOM     39  C   UNL A   1      37.724  31.991  30.872  1.00  0.00     0.031 A 
ATOM     40  C   UNL A   1      38.528  30.971  30.119  1.00  0.00     0.074 A 
ATOM     41  C   UNL A   1      38.006  32.250  32.162  1.00  0.00     0.049 A 
ATOM     42  N   UNL A   1      39.575  30.288  30.505  1.00  0.00    -0.248 NA
ATOM     43  C   UNL A   1      38.063  30.647  28.760  1.00  0.00     0.031 C 
ATOM     44  C   UNL A   1      37.272  33.189  33.003  1.00  0.00     0.029 A 
ATOM     45  N   UNL A   1      39.002  31.765  32.982  1.00  0.00    -0.354 N 
ATOM     46  C   UNL A   1      39.842  29.398  29.471  1.00  0.00     0.074 A 
ATOM     47  C   UNL A   1      38.868  29.649  28.432  1.00  0.00     0.031 C 
ATOM     48  C   UNL A   1      37.879  33.261  34.200  1.00  0.00     0.029 A 
ATOM     49  C   UNL A   1      39.055  32.390  34.211  1.00  0.00     0.049 A 
ATOM     50  H   UNL A   1      39.615  31.043  32.716  1.00  0.00     0.167 HD
ATOM     51  C   UNL A   1      40.789  28.433  29.414  1.00  0.00     0.031 A 
ATOM     52  C   UNL A   1      39.995  32.322  35.182  1.00  0.00     0.031 A 
ATOM     53  C   UNL A   1      41.753  28.183  30.451  1.00  0.00     0.049 A 
ATOM     54  C   UNL A   1      41.133  31.340  35.017  1.00  0.00     0.074 A 
ATOM     55  C   UNL A   1      42.759  27.233  30.482  1.00  0.00     0.029 A 
ATOM     56  N   UNL A   1      41.827  28.883  31.644  1.00  0.00    -0.354 N 
ATOM     57  N   UNL A   1      41.440  30.581  33.993  1.00  0.00    -0.248 NA
ATOM     58  C   UNL A   1      42.055  31.201  36.158  1.00  0.00     0.031 C 
ATOM     59  C   UNL A   1      43.405  27.319  31.718  1.00  0.00     0.029 A 
ATOM     60  C   UNL A   1      42.847  28.369  32.428  1.00  0.00     0.049 A 
ATOM     61  H   UNL A   1      41.243  29.634  31.897  1.00  0.00     0.167 HD
ATOM     62  C   UNL A   1      42.576  29.875  34.372  1.00  0.00     0.074 A 
ATOM     63  C   UNL A   1      42.960  30.364  35.677  1.00  0.00     0.031 C 
ATOM     64  C   UNL A   1      43.217  28.872  33.724  1.00  0.00     0.031 A 
BRANCH  51  65
ATOM     65  C   UNL A   1      40.774  27.521  28.219  1.00  0.00    -0.014 A 
ATOM     66  C   UNL A   1      41.420  27.856  27.021  1.00  0.00     0.009 A 
ATOM     67  C   UNL A   1      40.113  26.285  28.313  1.00  0.00     0.009 A 
ATOM     68  C   UNL A   1      41.375  26.986  25.929  1.00  0.00     0.001 A 
ATOM     69  C   UNL A   1      40.099  25.402  27.233  1.00  0.00     0.001 A 
ATOM     70  C   UNL A   1      40.722  25.759  26.038  1.00  0.00     0.000 A 
ENDBRANCH  51  65
BRANCH  52  71
ATOM     71  C   UNL A   1      40.003  33.264  36.350  1.00  0.00    -0.014 A 
ATOM     72  C   UNL A   1      39.170  33.007  37.461  1.00  0.00     0.009 A 
ATOM     73  C   UNL A   1      40.804  34.412  36.388  1.00  0.00     0.009 A 
ATOM     74  C   UNL A   1      39.132  33.870  38.561  1.00  0.00     0.001 A 
ATOM     75  C   UNL A   1      40.800  35.251  37.509  1.00  0.00     0.001 A 
ATOM     76  C   UNL A   1      39.962  34.984  38.590  1.00  0.00     0.000 A 
ENDBRANCH  52  71
BRANCH  64  77
ATOM     77  C   UNL A   1      44.383  28.230  34.428  1.00  0.00    -0.014 A 
ATOM     78  C   UNL A   1      44.196  27.122  35.273  1.00  0.00     0.009 A 
ATOM     79  C   UNL A   1      45.685  28.709  34.219  1.00  0.00     0.009 A 
ATOM     80  C   UNL A   1      45.281  26.538  35.927  1.00  0.00     0.001 A 
ATOM     81  C   UNL A   1      46.773  28.099  34.846  1.00  0.00     0.001 A 
ATOM     82  C   UNL A   1      46.569  27.023  35.709  1.00  0.00     0.000 A 
ENDBRANCH  64  77
ENDBRANCH  38  39
ENDBRANCH  31  33
ENDBRANCH  30  31
ENDBRANCH  29  30
ENDBRANCH  28  29
ENDBRANCH  27  28
ENDBRANCH  26  27
ENDBRANCH   1  26
TORSDOF 21
ENDMDL
