MODEL 1
REMARK VINA RESULT:     -10.3      0.000      0.000
REMARK SMILES CC[C@H]1CC[C@](C(=O)OCCOCCOCCOC(=O)c2ccc(-c3c4nc(c(-c5ccccc5)c5ccc([nH]5)c(-c5ccccc5)c5nc(c(-c6ccccc6)c6ccc3[nH]6)C=C5)C=C4)cc2)([C@H]2CCC[C@@H](S(C)(=O)=O)C2)CC1
REMARK SMILES IDX 13 1 12 2 11 3 10 4 9 5 7 6 8 7 6 8 3 9 80 10 4 11 79 12
REMARK SMILES IDX 5 13 2 14 1 15 69 16 70 17 78 18 71 19 73 20 72 21 74 22
REMARK SMILES IDX 75 23 76 24 77 25 14 26 15 27 16 28 17 29 18 30 19 31 20 32
REMARK SMILES IDX 21 33 22 34 68 35 23 36 67 37 24 38 25 39 26 40 61 41 27 42
REMARK SMILES IDX 66 43 60 44 62 45 28 46 65 47 59 48 58 49 29 51 51 52 36 53
REMARK SMILES IDX 50 54 37 55 40 56 49 57 63 58 38 59 39 60 48 62 64 63 41 64
REMARK SMILES IDX 30 65 31 66 35 67 32 68 34 69 33 70 52 71 53 72 57 73 54 74
REMARK SMILES IDX 56 75 55 76 42 77 43 78 47 79 44 80 46 81 45 82
REMARK H PARENT 62 50 40 61
REMARK Flexibility Score: inf
ROOT
ATOM      1  C   UNL A   1      33.927  31.629  27.892  1.00  0.00     0.188 C 
ENDROOT
BRANCH   1   2
ATOM      2  O   UNL A   1      34.355  30.272  27.755  1.00  0.00    -0.376 OA
BRANCH   2   3
ATOM      3  C   UNL A   1      33.455  29.552  26.897  1.00  0.00     0.202 C 
BRANCH   3   4
ATOM      4  C   UNL A   1      34.025  28.314  26.144  1.00  0.00     0.261 C 
BRANCH   4   5
ATOM      5  O   UNL A   1      33.355  27.004  26.295  1.00  0.00    -0.463 OA
BRANCH   5   6
ATOM      6  C   UNL A   1      33.392  26.224  25.163  1.00  0.00     0.312 C 
ATOM      7  O   UNL A   1      34.133  26.568  24.239  1.00  0.00    -0.252 OA
BRANCH   6   8
ATOM      8  C   UNL A   1      32.601  24.784  25.121  1.00  0.00     0.071 C 
ATOM      9  C   UNL A   1      34.973  22.726  25.342  1.00  0.00    -0.011 C 
ATOM     10  C   UNL A   1      34.583  23.780  26.420  1.00  0.00     0.005 C 
ATOM     11  C   UNL A   1      33.969  22.595  24.229  1.00  0.00     0.005 C 
ATOM     12  C   UNL A   1      33.064  24.200  26.513  1.00  0.00     0.019 C 
ATOM     13  C   UNL A   1      32.725  23.413  24.375  1.00  0.00     0.019 C 
BRANCH   9  14
ATOM     14  C   UNL A   1      36.408  22.923  24.768  1.00  0.00    -0.000 C 
ATOM     15  C   UNL A   1      36.543  22.958  23.235  1.00  0.00     0.004 C 
ENDBRANCH   9  14
BRANCH   8  16
ATOM     16  C   UNL A   1      31.053  25.077  24.865  1.00  0.00     0.008 C 
ATOM     17  C   UNL A   1      30.503  26.448  25.253  1.00  0.00     0.005 C 
ATOM     18  C   UNL A   1      30.596  24.848  23.377  1.00  0.00     0.024 C 
ATOM     19  C   UNL A   1      30.707  27.555  24.215  1.00  0.00     0.002 C 
ATOM     20  C   UNL A   1      31.344  25.719  22.366  1.00  0.00     0.108 C 
ATOM     21  C   UNL A   1      31.070  27.183  22.746  1.00  0.00     0.020 C 
BRANCH  20  22
ATOM     22  S   UNL A   1      32.894  25.017  21.523  1.00  0.00     0.150 S 
ATOM     23  C   UNL A   1      33.068  23.228  21.405  1.00  0.00     0.158 C 
ATOM     24  O   UNL A   1      32.898  25.505  20.153  1.00  0.00    -0.229 OA
ATOM     25  O   UNL A   1      34.066  25.381  22.277  1.00  0.00    -0.229 OA
ENDBRANCH  20  22
ENDBRANCH   8  16
ENDBRANCH   6   8
ENDBRANCH   5   6
ENDBRANCH   4   5
ENDBRANCH   3   4
ENDBRANCH   2   3
ENDBRANCH   1   2
BRANCH   1  26
ATOM     26  C   UNL A   1      34.862  32.526  28.706  1.00  0.00     0.188 C 
BRANCH  26  27
ATOM     27  O   UNL A   1      34.590  33.866  28.353  1.00  0.00    -0.376 OA
BRANCH  27  28
ATOM     28  C   UNL A   1      33.260  34.323  28.295  1.00  0.00     0.202 C 
BRANCH  28  29
ATOM     29  C   UNL A   1      33.099  35.495  29.268  1.00  0.00     0.261 C 
BRANCH  29  30
ATOM     30  O   UNL A   1      32.426  35.090  30.475  1.00  0.00    -0.460 OA
BRANCH  30  31
ATOM     31  C   UNL A   1      32.785  35.740  31.613  1.00  0.00     0.338 C 
ATOM     32  O   UNL A   1      32.304  36.785  32.050  1.00  0.00    -0.246 OA
BRANCH  31  33
ATOM     33  C   UNL A   1      33.889  35.010  32.291  1.00  0.00     0.060 A 
ATOM     34  C   UNL A   1      35.203  35.506  32.239  1.00  0.00     0.016 A 
ATOM     35  C   UNL A   1      33.645  33.801  32.947  1.00  0.00     0.016 A 
ATOM     36  C   UNL A   1      36.259  34.809  32.848  1.00  0.00     0.010 A 
ATOM     37  C   UNL A   1      34.697  33.086  33.515  1.00  0.00     0.010 A 
ATOM     38  C   UNL A   1      36.012  33.569  33.448  1.00  0.00    -0.014 A 
BRANCH  38  39
ATOM     39  C   UNL A   1      37.098  32.611  33.768  1.00  0.00     0.031 A 
ATOM     40  C   UNL A   1      37.881  32.854  35.029  1.00  0.00     0.074 A 
ATOM     41  C   UNL A   1      37.481  31.647  32.911  1.00  0.00     0.049 A 
ATOM     42  N   UNL A   1      39.034  32.363  35.402  1.00  0.00    -0.248 NA
ATOM     43  C   UNL A   1      37.286  33.800  35.990  1.00  0.00     0.031 C 
ATOM     44  C   UNL A   1      36.777  31.261  31.691  1.00  0.00     0.029 A 
ATOM     45  N   UNL A   1      38.593  30.837  32.932  1.00  0.00    -0.354 N 
ATOM     46  C   UNL A   1      39.305  32.945  36.634  1.00  0.00     0.074 A 
ATOM     47  C   UNL A   1      38.210  33.838  36.938  1.00  0.00     0.031 C 
ATOM     48  C   UNL A   1      37.489  30.304  31.064  1.00  0.00     0.029 A 
ATOM     49  C   UNL A   1      38.726  30.057  31.807  1.00  0.00     0.049 A 
ATOM     50  H   UNL A   1      39.231  30.819  33.680  1.00  0.00     0.167 HD
ATOM     51  C   UNL A   1      40.376  32.763  37.439  1.00  0.00     0.031 A 
ATOM     52  C   UNL A   1      39.749  29.274  31.409  1.00  0.00     0.031 A 
ATOM     53  C   UNL A   1      41.493  31.921  37.115  1.00  0.00     0.049 A 
ATOM     54  C   UNL A   1      40.998  29.190  32.259  1.00  0.00     0.074 A 
ATOM     55  C   UNL A   1      42.646  31.699  37.844  1.00  0.00     0.029 A 
ATOM     56  N   UNL A   1      41.595  31.167  35.956  1.00  0.00    -0.354 N 
ATOM     57  N   UNL A   1      41.251  29.750  33.419  1.00  0.00    -0.248 NA
ATOM     58  C   UNL A   1      42.105  28.373  31.740  1.00  0.00     0.031 C 
ATOM     59  C   UNL A   1      43.473  30.852  37.102  1.00  0.00     0.029 A 
ATOM     60  C   UNL A   1      42.800  30.490  35.945  1.00  0.00     0.049 A 
ATOM     61  H   UNL A   1      40.913  31.122  35.248  1.00  0.00     0.167 HD
ATOM     62  C   UNL A   1      42.519  29.310  33.786  1.00  0.00     0.074 A 
ATOM     63  C   UNL A   1      42.986  28.440  32.729  1.00  0.00     0.031 C 
ATOM     64  C   UNL A   1      43.232  29.597  34.902  1.00  0.00     0.031 A 
BRANCH  51  65
ATOM     65  C   UNL A   1      40.403  33.528  38.731  1.00  0.00    -0.014 A 
ATOM     66  C   UNL A   1      41.111  34.735  38.843  1.00  0.00     0.009 A 
ATOM     67  C   UNL A   1      39.699  33.046  39.845  1.00  0.00     0.009 A 
ATOM     68  C   UNL A   1      41.139  35.427  40.055  1.00  0.00     0.001 A 
ATOM     69  C   UNL A   1      39.704  33.756  41.047  1.00  0.00     0.001 A 
ATOM     70  C   UNL A   1      40.432  34.940  41.154  1.00  0.00     0.000 A 
ENDBRANCH  51  65
BRANCH  52  71
ATOM     71  C   UNL A   1      39.684  28.525  30.121  1.00  0.00    -0.014 A 
ATOM     72  C   UNL A   1      39.297  27.175  30.101  1.00  0.00     0.009 A 
ATOM     73  C   UNL A   1      40.079  29.128  28.916  1.00  0.00     0.009 A 
ATOM     74  C   UNL A   1      39.345  26.436  28.916  1.00  0.00     0.001 A 
ATOM     75  C   UNL A   1      40.092  28.397  27.724  1.00  0.00     0.001 A 
ATOM     76  C   UNL A   1      39.739  27.049  27.728  1.00  0.00     0.000 A 
ENDBRANCH  52  71
BRANCH  64  77
ATOM     77  C   UNL A   1      44.553  28.905  35.099  1.00  0.00    -0.014 A 
ATOM     78  C   UNL A   1      44.654  27.683  35.778  1.00  0.00     0.009 A 
ATOM     79  C   UNL A   1      45.703  29.447  34.499  1.00  0.00     0.009 A 
ATOM     80  C   UNL A   1      45.885  27.026  35.866  1.00  0.00     0.001 A 
ATOM     81  C   UNL A   1      46.922  28.774  34.561  1.00  0.00     0.001 A 
ATOM     82  C   UNL A   1      47.014  27.566  35.249  1.00  0.00     0.000 A 
ENDBRANCH  64  77
ENDBRANCH  38  39
ENDBRANCH  31  33
ENDBRANCH  30  31
ENDBRANCH  29  30
ENDBRANCH  28  29
ENDBRANCH  27  28
ENDBRANCH  26  27
ENDBRANCH   1  26
TORSDOF 20
ENDMDL
MODEL 2
REMARK VINA RESULT:     -10.1      4.889      6.950
REMARK SMILES CC[C@H]1CC[C@](C(=O)OCCOCCOCCOC(=O)c2ccc(-c3c4nc(c(-c5ccccc5)c5ccc([nH]5)c(-c5ccccc5)c5nc(c(-c6ccccc6)c6ccc3[nH]6)C=C5)C=C4)cc2)([C@H]2CCC[C@@H](S(C)(=O)=O)C2)CC1
REMARK SMILES IDX 13 1 12 2 11 3 10 4 9 5 7 6 8 7 6 8 3 9 80 10 4 11 79 12
REMARK SMILES IDX 5 13 2 14 1 15 69 16 70 17 78 18 71 19 73 20 72 21 74 22
REMARK SMILES IDX 75 23 76 24 77 25 14 26 15 27 16 28 17 29 18 30 19 31 20 32
REMARK SMILES IDX 21 33 22 34 68 35 23 36 67 37 24 38 25 39 26 40 61 41 27 42
REMARK SMILES IDX 66 43 60 44 62 45 28 46 65 47 59 48 58 49 29 51 51 52 36 53
REMARK SMILES IDX 50 54 37 55 40 56 49 57 63 58 38 59 39 60 48 62 64 63 41 64
REMARK SMILES IDX 30 65 31 66 35 67 32 68 34 69 33 70 52 71 53 72 57 73 54 74
REMARK SMILES IDX 56 75 55 76 42 77 43 78 47 79 44 80 46 81 45 82
REMARK H PARENT 62 50 40 61
REMARK Flexibility Score: inf
ROOT
ATOM      1  C   UNL A   1      32.180  29.182  23.841  1.00  0.00     0.188 C 
ENDROOT
BRANCH   1   2
ATOM      2  O   UNL A   1      33.445  28.742  23.342  1.00  0.00    -0.376 OA
BRANCH   2   3
ATOM      3  C   UNL A   1      33.257  27.828  22.249  1.00  0.00     0.202 C 
BRANCH   3   4
ATOM      4  C   UNL A   1      33.742  26.363  22.453  1.00  0.00     0.261 C 
BRANCH   4   5
ATOM      5  O   UNL A   1      34.083  25.897  23.814  1.00  0.00    -0.463 OA
BRANCH   5   6
ATOM      6  C   UNL A   1      34.060  24.529  23.959  1.00  0.00     0.312 C 
ATOM      7  O   UNL A   1      34.311  23.832  22.973  1.00  0.00    -0.252 OA
BRANCH   6   8
ATOM      8  C   UNL A   1      33.875  23.855  25.446  1.00  0.00     0.071 C 
ATOM      9  C   UNL A   1      36.614  22.352  25.830  1.00  0.00    -0.011 C 
ATOM     10  C   UNL A   1      36.439  23.890  25.663  1.00  0.00     0.005 C 
ATOM     11  C   UNL A   1      35.320  21.611  26.025  1.00  0.00     0.005 C 
ATOM     12  C   UNL A   1      35.094  24.532  26.185  1.00  0.00     0.019 C 
ATOM     13  C   UNL A   1      34.092  22.459  26.123  1.00  0.00     0.019 C 
BRANCH   9  14
ATOM     14  C   UNL A   1      37.460  21.694  24.699  1.00  0.00    -0.000 C 
ATOM     15  C   UNL A   1      37.713  20.180  24.814  1.00  0.00     0.004 C 
ENDBRANCH   9  14
BRANCH   8  16
ATOM     16  C   UNL A   1      32.388  24.153  25.944  1.00  0.00     0.008 C 
ATOM     17  C   UNL A   1      31.675  25.386  25.391  1.00  0.00     0.005 C 
ATOM     18  C   UNL A   1      31.387  22.959  25.725  1.00  0.00     0.024 C 
ATOM     19  C   UNL A   1      30.998  25.199  24.031  1.00  0.00     0.002 C 
ATOM     20  C   UNL A   1      31.247  22.538  24.261  1.00  0.00     0.108 C 
ATOM     21  C   UNL A   1      30.727  23.763  23.491  1.00  0.00     0.020 C 
BRANCH  20  22
ATOM     22  S   UNL A   1      32.352  21.144  23.598  1.00  0.00     0.150 S 
ATOM     23  C   UNL A   1      32.467  19.619  24.549  1.00  0.00     0.158 C 
ATOM     24  O   UNL A   1      31.827  20.759  22.297  1.00  0.00    -0.229 OA
ATOM     25  O   UNL A   1      33.724  21.581  23.569  1.00  0.00    -0.229 OA
ENDBRANCH  20  22
ENDBRANCH   8  16
ENDBRANCH   6   8
ENDBRANCH   5   6
ENDBRANCH   4   5
ENDBRANCH   3   4
ENDBRANCH   2   3
ENDBRANCH   1   2
BRANCH   1  26
ATOM     26  C   UNL A   1      32.189  29.672  25.291  1.00  0.00     0.188 C 
BRANCH  26  27
ATOM     27  O   UNL A   1      33.004  28.792  26.038  1.00  0.00    -0.376 OA
BRANCH  27  28
ATOM     28  C   UNL A   1      33.569  29.218  27.254  1.00  0.00     0.202 C 
BRANCH  28  29
ATOM     29  C   UNL A   1      33.432  30.741  27.353  1.00  0.00     0.261 C 
BRANCH  29  30
ATOM     30  O   UNL A   1      34.715  31.377  27.508  1.00  0.00    -0.460 OA
BRANCH  30  31
ATOM     31  C   UNL A   1      35.251  31.354  28.756  1.00  0.00     0.338 C 
ATOM     32  O   UNL A   1      34.881  32.007  29.732  1.00  0.00    -0.246 OA
BRANCH  31  33
ATOM     33  C   UNL A   1      36.401  30.412  28.800  1.00  0.00     0.060 A 
ATOM     34  C   UNL A   1      36.741  29.764  30.001  1.00  0.00     0.016 A 
ATOM     35  C   UNL A   1      37.185  30.193  27.666  1.00  0.00     0.016 A 
ATOM     36  C   UNL A   1      37.844  28.898  30.063  1.00  0.00     0.010 A 
ATOM     37  C   UNL A   1      38.305  29.367  27.735  1.00  0.00     0.010 A 
ATOM     38  C   UNL A   1      38.658  28.735  28.937  1.00  0.00    -0.014 A 
BRANCH  38  39
ATOM     39  C   UNL A   1      40.022  28.158  29.019  1.00  0.00     0.031 A 
ATOM     40  C   UNL A   1      41.160  29.115  29.248  1.00  0.00     0.074 A 
ATOM     41  C   UNL A   1      40.270  26.863  28.757  1.00  0.00     0.049 A 
ATOM     42  N   UNL A   1      42.444  28.936  29.083  1.00  0.00    -0.248 NA
ATOM     43  C   UNL A   1      40.791  30.465  29.707  1.00  0.00     0.031 C 
ATOM     44  C   UNL A   1      39.265  25.818  28.583  1.00  0.00     0.029 A 
ATOM     45  N   UNL A   1      41.469  26.216  28.557  1.00  0.00    -0.354 N 
ATOM     46  C   UNL A   1      43.034  30.151  29.408  1.00  0.00     0.074 A 
ATOM     47  C   UNL A   1      41.970  31.064  29.762  1.00  0.00     0.031 C 
ATOM     48  C   UNL A   1      39.888  24.663  28.276  1.00  0.00     0.029 A 
ATOM     49  C   UNL A   1      41.327  24.904  28.172  1.00  0.00     0.049 A 
ATOM     50  H   UNL A   1      42.342  26.652  28.679  1.00  0.00     0.167 HD
ATOM     51  C   UNL A   1      44.344  30.485  29.405  1.00  0.00     0.031 A 
ATOM     52  C   UNL A   1      42.252  24.020  27.743  1.00  0.00     0.031 A 
ATOM     53  C   UNL A   1      45.399  29.598  28.999  1.00  0.00     0.049 A 
ATOM     54  C   UNL A   1      43.695  24.455  27.614  1.00  0.00     0.074 A 
ATOM     55  C   UNL A   1      46.756  29.852  28.920  1.00  0.00     0.029 A 
ATOM     56  N   UNL A   1      45.208  28.286  28.596  1.00  0.00    -0.354 N 
ATOM     57  N   UNL A   1      44.244  25.608  27.916  1.00  0.00    -0.248 NA
ATOM     58  C   UNL A   1      44.644  23.467  27.077  1.00  0.00     0.031 C 
ATOM     59  C   UNL A   1      47.382  28.709  28.417  1.00  0.00     0.029 A 
ATOM     60  C   UNL A   1      46.422  27.722  28.253  1.00  0.00     0.049 A 
ATOM     61  H   UNL A   1      44.339  27.826  28.559  1.00  0.00     0.167 HD
ATOM     62  C   UNL A   1      45.603  25.463  27.655  1.00  0.00     0.074 A 
ATOM     63  C   UNL A   1      45.798  24.114  27.170  1.00  0.00     0.031 C 
ATOM     64  C   UNL A   1      46.603  26.365  27.809  1.00  0.00     0.031 A 
BRANCH  51  65
ATOM     65  C   UNL A   1      44.699  31.886  29.812  1.00  0.00    -0.014 A 
ATOM     66  C   UNL A   1      44.908  32.217  31.160  1.00  0.00     0.009 A 
ATOM     67  C   UNL A   1      44.844  32.883  28.836  1.00  0.00     0.009 A 
ATOM     68  C   UNL A   1      45.223  33.526  31.525  1.00  0.00     0.001 A 
ATOM     69  C   UNL A   1      45.189  34.185  29.201  1.00  0.00     0.001 A 
ATOM     70  C   UNL A   1      45.368  34.508  30.545  1.00  0.00     0.000 A 
ENDBRANCH  51  65
BRANCH  52  71
ATOM     71  C   UNL A   1      41.863  22.635  27.350  1.00  0.00    -0.014 A 
ATOM     72  C   UNL A   1      42.080  21.559  28.227  1.00  0.00     0.009 A 
ATOM     73  C   UNL A   1      41.343  22.366  26.074  1.00  0.00     0.009 A 
ATOM     74  C   UNL A   1      41.824  20.246  27.822  1.00  0.00     0.001 A 
ATOM     75  C   UNL A   1      41.054  21.056  25.683  1.00  0.00     0.001 A 
ATOM     76  C   UNL A   1      41.309  19.996  26.551  1.00  0.00     0.000 A 
ENDBRANCH  52  71
BRANCH  64  77
ATOM     77  C   UNL A   1      48.013  25.915  27.541  1.00  0.00    -0.014 A 
ATOM     78  C   UNL A   1      48.627  26.109  26.296  1.00  0.00     0.009 A 
ATOM     79  C   UNL A   1      48.769  25.377  28.596  1.00  0.00     0.009 A 
ATOM     80  C   UNL A   1      49.967  25.758  26.109  1.00  0.00     0.001 A 
ATOM     81  C   UNL A   1      50.115  25.057  28.415  1.00  0.00     0.001 A 
ATOM     82  C   UNL A   1      50.712  25.243  27.170  1.00  0.00     0.000 A 
ENDBRANCH  64  77
ENDBRANCH  38  39
ENDBRANCH  31  33
ENDBRANCH  30  31
ENDBRANCH  29  30
ENDBRANCH  28  29
ENDBRANCH  27  28
ENDBRANCH  26  27
ENDBRANCH   1  26
TORSDOF 20
ENDMDL
MODEL 3
REMARK VINA RESULT:      -9.8      4.349      6.543
REMARK SMILES CC[C@H]1CC[C@](C(=O)OCCOCCOCCOC(=O)c2ccc(-c3c4nc(c(-c5ccccc5)c5ccc([nH]5)c(-c5ccccc5)c5nc(c(-c6ccccc6)c6ccc3[nH]6)C=C5)C=C4)cc2)([C@H]2CCC[C@@H](S(C)(=O)=O)C2)CC1
REMARK SMILES IDX 13 1 12 2 11 3 10 4 9 5 7 6 8 7 6 8 3 9 80 10 4 11 79 12
REMARK SMILES IDX 5 13 2 14 1 15 69 16 70 17 78 18 71 19 73 20 72 21 74 22
REMARK SMILES IDX 75 23 76 24 77 25 14 26 15 27 16 28 17 29 18 30 19 31 20 32
REMARK SMILES IDX 21 33 22 34 68 35 23 36 67 37 24 38 25 39 26 40 61 41 27 42
REMARK SMILES IDX 66 43 60 44 62 45 28 46 65 47 59 48 58 49 29 51 51 52 36 53
REMARK SMILES IDX 50 54 37 55 40 56 49 57 63 58 38 59 39 60 48 62 64 63 41 64
REMARK SMILES IDX 30 65 31 66 35 67 32 68 34 69 33 70 52 71 53 72 57 73 54 74
REMARK SMILES IDX 56 75 55 76 42 77 43 78 47 79 44 80 46 81 45 82
REMARK H PARENT 62 50 40 61
REMARK Flexibility Score: inf
ROOT
ATOM      1  C   UNL A   1      34.414  31.159  27.656  1.00  0.00     0.188 C 
ENDROOT
BRANCH   1   2
ATOM      2  O   UNL A   1      34.129  30.221  26.615  1.00  0.00    -0.376 OA
BRANCH   2   3
ATOM      3  C   UNL A   1      33.975  28.902  27.164  1.00  0.00     0.202 C 
BRANCH   3   4
ATOM      4  C   UNL A   1      32.864  28.000  26.551  1.00  0.00     0.261 C 
BRANCH   4   5
ATOM      5  O   UNL A   1      32.996  26.530  26.638  1.00  0.00    -0.463 OA
BRANCH   5   6
ATOM      6  C   UNL A   1      33.163  25.911  25.421  1.00  0.00     0.312 C 
ATOM      7  O   UNL A   1      33.869  26.464  24.575  1.00  0.00    -0.252 OA
BRANCH   6   8
ATOM      8  C   UNL A   1      32.578  24.395  25.174  1.00  0.00     0.071 C 
ATOM      9  C   UNL A   1      35.217  22.686  25.041  1.00  0.00    -0.011 C 
ATOM     10  C   UNL A   1      34.726  23.502  26.273  1.00  0.00     0.005 C 
ATOM     11  C   UNL A   1      34.201  22.580  23.937  1.00  0.00     0.005 C 
ATOM     12  C   UNL A   1      33.168  23.683  26.453  1.00  0.00     0.019 C 
ATOM     13  C   UNL A   1      32.862  23.181  24.225  1.00  0.00     0.019 C 
BRANCH   9  14
ATOM     14  C   UNL A   1      36.590  23.168  24.481  1.00  0.00    -0.000 C 
ATOM     15  C   UNL A   1      36.889  22.843  23.006  1.00  0.00     0.004 C 
ENDBRANCH   9  14
BRANCH   8  16
ATOM     16  C   UNL A   1      30.995  24.499  24.989  1.00  0.00     0.008 C 
ATOM     17  C   UNL A   1      30.282  25.727  25.552  1.00  0.00     0.005 C 
ATOM     18  C   UNL A   1      30.515  24.385  23.495  1.00  0.00     0.024 C 
ATOM     19  C   UNL A   1      30.295  26.965  24.651  1.00  0.00     0.002 C 
ATOM     20  C   UNL A   1      31.100  25.462  22.580  1.00  0.00     0.108 C 
ATOM     21  C   UNL A   1      30.647  26.820  23.140  1.00  0.00     0.020 C 
BRANCH  20  22
ATOM     22  S   UNL A   1      32.696  25.084  21.624  1.00  0.00     0.150 S 
ATOM     23  C   UNL A   1      32.724  25.395  19.850  1.00  0.00     0.158 C 
ATOM     24  O   UNL A   1      33.745  25.921  22.188  1.00  0.00    -0.229 OA
ATOM     25  O   UNL A   1      32.979  23.673  21.684  1.00  0.00    -0.229 OA
ENDBRANCH  20  22
ENDBRANCH   8  16
ENDBRANCH   6   8
ENDBRANCH   5   6
ENDBRANCH   4   5
ENDBRANCH   3   4
ENDBRANCH   2   3
ENDBRANCH   1   2
BRANCH   1  26
ATOM     26  C   UNL A   1      33.321  32.198  27.910  1.00  0.00     0.188 C 
BRANCH  26  27
ATOM     27  O   UNL A   1      33.897  33.478  27.748  1.00  0.00    -0.376 OA
BRANCH  27  28
ATOM     28  C   UNL A   1      34.945  33.890  28.591  1.00  0.00     0.202 C 
BRANCH  28  29
ATOM     29  C   UNL A   1      34.405  34.024  30.019  1.00  0.00     0.261 C 
BRANCH  29  30
ATOM     30  O   UNL A   1      34.886  32.964  30.866  1.00  0.00    -0.460 OA
BRANCH  30  31
ATOM     31  C   UNL A   1      36.040  33.209  31.540  1.00  0.00     0.338 C 
ATOM     32  O   UNL A   1      36.239  34.098  32.367  1.00  0.00    -0.246 OA
BRANCH  31  33
ATOM     33  C   UNL A   1      37.087  32.235  31.130  1.00  0.00     0.060 A 
ATOM     34  C   UNL A   1      37.807  31.517  32.100  1.00  0.00     0.016 A 
ATOM     35  C   UNL A   1      37.401  32.054  29.781  1.00  0.00     0.016 A 
ATOM     36  C   UNL A   1      38.820  30.619  31.727  1.00  0.00     0.010 A 
ATOM     37  C   UNL A   1      38.435  31.197  29.409  1.00  0.00     0.010 A 
ATOM     38  C   UNL A   1      39.167  30.494  30.377  1.00  0.00    -0.014 A 
BRANCH  38  39
ATOM     39  C   UNL A   1      40.443  29.878  29.939  1.00  0.00     0.031 A 
ATOM     40  C   UNL A   1      41.626  30.793  29.770  1.00  0.00     0.074 A 
ATOM     41  C   UNL A   1      40.526  28.590  29.562  1.00  0.00     0.049 A 
ATOM     42  N   UNL A   1      42.754  30.587  29.144  1.00  0.00    -0.248 NA
ATOM     43  C   UNL A   1      41.504  32.130  30.376  1.00  0.00     0.031 C 
ATOM     44  C   UNL A   1      39.484  27.581  29.732  1.00  0.00     0.029 A 
ATOM     45  N   UNL A   1      41.543  27.921  28.920  1.00  0.00    -0.354 N 
ATOM     46  C   UNL A   1      43.472  31.770  29.272  1.00  0.00     0.074 A 
ATOM     47  C   UNL A   1      42.647  32.693  30.018  1.00  0.00     0.031 C 
ATOM     48  C   UNL A   1      39.905  26.425  29.182  1.00  0.00     0.029 A 
ATOM     49  C   UNL A   1      41.218  26.632  28.570  1.00  0.00     0.049 A 
ATOM     50  H   UNL A   1      42.419  28.328  28.730  1.00  0.00     0.167 HD
ATOM     51  C   UNL A   1      44.705  32.068  28.804  1.00  0.00     0.031 A 
ATOM     52  C   UNL A   1      41.887  25.744  27.805  1.00  0.00     0.031 A 
ATOM     53  C   UNL A   1      45.503  31.173  28.014  1.00  0.00     0.049 A 
ATOM     54  C   UNL A   1      43.202  26.146  27.175  1.00  0.00     0.074 A 
ATOM     55  C   UNL A   1      46.749  31.394  27.456  1.00  0.00     0.029 A 
ATOM     56  N   UNL A   1      45.125  29.887  27.665  1.00  0.00    -0.354 N 
ATOM     57  N   UNL A   1      43.871  27.269  27.294  1.00  0.00    -0.248 NA
ATOM     58  C   UNL A   1      43.851  25.159  26.298  1.00  0.00     0.031 C 
ATOM     59  C   UNL A   1      47.103  30.259  26.723  1.00  0.00     0.029 A 
ATOM     60  C   UNL A   1      46.109  29.306  26.886  1.00  0.00     0.049 A 
ATOM     61  H   UNL A   1      44.284  29.452  27.931  1.00  0.00     0.167 HD
ATOM     62  C   UNL A   1      45.036  27.100  26.553  1.00  0.00     0.074 A 
ATOM     63  C   UNL A   1      44.985  25.770  25.986  1.00  0.00     0.031 C 
ATOM     64  C   UNL A   1      46.060  27.967  26.363  1.00  0.00     0.031 A 
BRANCH  51  65
ATOM     65  C   UNL A   1      45.241  33.439  29.100  1.00  0.00    -0.014 A 
ATOM     66  C   UNL A   1      44.990  34.517  28.237  1.00  0.00     0.009 A 
ATOM     67  C   UNL A   1      45.991  33.660  30.266  1.00  0.00     0.009 A 
ATOM     68  C   UNL A   1      45.507  35.783  28.520  1.00  0.00     0.001 A 
ATOM     69  C   UNL A   1      46.481  34.933  30.561  1.00  0.00     0.001 A 
ATOM     70  C   UNL A   1      46.248  35.991  29.683  1.00  0.00     0.000 A 
ENDBRANCH  51  65
BRANCH  52  71
ATOM     71  C   UNL A   1      41.325  24.389  27.536  1.00  0.00    -0.014 A 
ATOM     72  C   UNL A   1      40.259  24.226  26.636  1.00  0.00     0.009 A 
ATOM     73  C   UNL A   1      41.797  23.263  28.228  1.00  0.00     0.009 A 
ATOM     74  C   UNL A   1      39.653  22.978  26.466  1.00  0.00     0.001 A 
ATOM     75  C   UNL A   1      41.212  22.008  28.030  1.00  0.00     0.001 A 
ATOM     76  C   UNL A   1      40.132  21.870  27.162  1.00  0.00     0.000 A 
ENDBRANCH  52  71
BRANCH  64  77
ATOM     77  C   UNL A   1      47.258  27.492  25.585  1.00  0.00    -0.014 A 
ATOM     78  C   UNL A   1      48.302  26.784  26.195  1.00  0.00     0.009 A 
ATOM     79  C   UNL A   1      47.282  27.676  24.192  1.00  0.00     0.009 A 
ATOM     80  C   UNL A   1      49.356  26.283  25.426  1.00  0.00     0.001 A 
ATOM     81  C   UNL A   1      48.319  27.148  23.424  1.00  0.00     0.001 A 
ATOM     82  C   UNL A   1      49.359  26.456  24.042  1.00  0.00     0.000 A 
ENDBRANCH  64  77
ENDBRANCH  38  39
ENDBRANCH  31  33
ENDBRANCH  30  31
ENDBRANCH  29  30
ENDBRANCH  28  29
ENDBRANCH  27  28
ENDBRANCH  26  27
ENDBRANCH   1  26
TORSDOF 20
ENDMDL
