MODEL 1
REMARK VINA RESULT:     -10.8      0.000      0.000
REMARK SMILES Cc1ccc(C(=O)NC2CC2)cc1NC(=O)[C@@H]1[C@@H](C(=O)OCCOCCOCCOC(=O)c2ccc(-c3c4nc(c(-c5ccccc5)c5ccc([nH]5)c(-c5ccccc5)c5nc(c(-c6ccccc6)c6ccc3[nH]6)C=C5)C=C4)cc2)[C@H]2C=C[C@@H]1C2
REMARK SMILES IDX 25 1 24 2 23 3 22 4 21 5 19 6 20 7 18 8 17 9 84 10 81 11
REMARK SMILES IDX 83 12 85 13 82 14 15 15 14 16 16 18 13 19 1 20 2 21 3 22
REMARK SMILES IDX 4 23 12 24 5 25 6 26 7 27 8 28 9 30 10 31 11 32 26 33 27 34
REMARK SMILES IDX 28 35 29 36 30 37 31 38 32 39 33 40 34 41 80 42 35 43 79 44
REMARK SMILES IDX 36 45 37 46 38 47 73 48 39 49 78 50 72 51 74 52 40 53 77 54
REMARK SMILES IDX 71 55 70 56 41 58 63 59 48 60 62 61 49 62 52 63 61 64 75 65
REMARK SMILES IDX 50 66 51 67 60 69 76 70 53 71 42 72 43 73 47 74 44 75 46 76
REMARK SMILES IDX 45 77 64 78 65 79 69 80 66 81 68 82 67 83 54 84 55 85 59 86
REMARK SMILES IDX 56 87 58 88 57 89
REMARK H PARENT 14 17 8 29 74 57 52 68
REMARK Flexibility Score: inf
ROOT
ATOM      1  C   UNL A   1      34.832  31.787  27.969  1.00  0.00     0.188 C 
ENDROOT
BRANCH   1   2
ATOM      2  O   UNL A   1      33.611  31.097  27.770  1.00  0.00    -0.376 OA
BRANCH   2   3
ATOM      3  C   UNL A   1      33.706  30.123  26.735  1.00  0.00     0.202 C 
BRANCH   3   4
ATOM      4  C   UNL A   1      33.909  28.648  27.163  1.00  0.00     0.261 C 
BRANCH   4   5
ATOM      5  O   UNL A   1      32.854  27.559  26.687  1.00  0.00    -0.463 OA
BRANCH   5   6
ATOM      6  C   UNL A   1      31.709  26.893  26.381  1.00  0.00     0.310 C 
ATOM      7  O   UNL A   1      30.851  27.036  27.267  1.00  0.00    -0.252 OA
BRANCH   6   8
ATOM      8  C   UNL A   1      31.174  26.028  25.112  1.00  0.00     0.119 C 
ATOM      9  C   UNL A   1      31.680  24.527  25.126  1.00  0.00     0.100 C 
ATOM     10  C   UNL A   1      31.095  23.879  23.819  1.00  0.00     0.025 C 
ATOM     11  C   UNL A   1      30.889  26.088  23.529  1.00  0.00     0.027 C 
ATOM     12  C   UNL A   1      31.962  24.240  22.653  1.00  0.00    -0.027 C 
ATOM     13  C   UNL A   1      29.966  24.832  23.443  1.00  0.00     0.017 C 
ATOM     14  C   UNL A   1      31.893  25.569  22.531  1.00  0.00    -0.027 C 
BRANCH   9  15
ATOM     15  C   UNL A   1      31.239  23.718  26.311  1.00  0.00     0.228 C 
ATOM     16  N   UNL A   1      31.681  22.444  26.522  1.00  0.00    -0.326 N 
ATOM     17  H   UNL A   1      31.297  22.046  27.336  1.00  0.00     0.169 HD
ATOM     18  O   UNL A   1      30.343  24.138  27.053  1.00  0.00    -0.274 OA
BRANCH  16  19
ATOM     19  C   UNL A   1      32.558  21.555  25.855  1.00  0.00     0.044 A 
ATOM     20  C   UNL A   1      34.548  22.791  26.921  1.00  0.00     0.046 C 
ATOM     21  C   UNL A   1      33.941  21.697  26.081  1.00  0.00    -0.027 A 
ATOM     22  C   UNL A   1      34.841  20.804  25.470  1.00  0.00     0.006 A 
ATOM     23  C   UNL A   1      34.390  19.755  24.672  1.00  0.00     0.014 A 
ATOM     24  C   UNL A   1      32.145  20.552  24.963  1.00  0.00     0.040 A 
ATOM     25  C   UNL A   1      33.030  19.606  24.417  1.00  0.00     0.041 A 
BRANCH  25  26
ATOM     26  C   UNL A   1      32.637  18.455  23.538  1.00  0.00     0.251 C 
ATOM     27  O   UNL A   1      32.198  18.674  22.409  1.00  0.00    -0.269 OA
ATOM     28  N   UNL A   1      32.808  17.146  23.923  1.00  0.00    -0.349 N 
ATOM     29  H   UNL A   1      32.626  16.472  23.229  1.00  0.00     0.164 HD
BRANCH  28  30
ATOM     30  C   UNL A   1      33.210  16.634  25.178  1.00  0.00     0.082 C 
ATOM     31  C   UNL A   1      32.286  15.653  25.816  1.00  0.00     0.027 C 
ATOM     32  C   UNL A   1      33.618  15.202  25.369  1.00  0.00     0.027 C 
ENDBRANCH  28  30
ENDBRANCH  25  26
ENDBRANCH  16  19
ENDBRANCH   9  15
ENDBRANCH   6   8
ENDBRANCH   5   6
ENDBRANCH   4   5
ENDBRANCH   3   4
ENDBRANCH   2   3
ENDBRANCH   1   2
BRANCH   1  33
ATOM     33  C   UNL A   1      35.310  31.705  29.422  1.00  0.00     0.188 C 
BRANCH  33  34
ATOM     34  O   UNL A   1      36.634  31.226  29.581  1.00  0.00    -0.376 OA
BRANCH  34  35
ATOM     35  C   UNL A   1      36.845  30.157  30.500  1.00  0.00     0.202 C 
BRANCH  35  36
ATOM     36  C   UNL A   1      36.262  30.596  31.843  1.00  0.00     0.261 C 
BRANCH  36  37
ATOM     37  O   UNL A   1      37.327  31.107  32.679  1.00  0.00    -0.460 OA
BRANCH  37  38
ATOM     38  C   UNL A   1      37.096  32.352  33.159  1.00  0.00     0.338 C 
ATOM     39  O   UNL A   1      36.108  32.692  33.806  1.00  0.00    -0.246 OA
BRANCH  38  40
ATOM     40  C   UNL A   1      38.081  33.301  32.560  1.00  0.00     0.060 A 
ATOM     41  C   UNL A   1      37.808  33.760  31.301  1.00  0.00     0.016 A 
ATOM     42  C   UNL A   1      39.363  33.554  33.069  1.00  0.00     0.016 A 
ATOM     43  C   UNL A   1      38.857  34.279  30.532  1.00  0.00     0.010 A 
ATOM     44  C   UNL A   1      40.422  34.007  32.226  1.00  0.00     0.010 A 
ATOM     45  C   UNL A   1      40.230  34.257  30.856  1.00  0.00    -0.014 A 
BRANCH  45  46
ATOM     46  C   UNL A   1      41.498  34.443  29.931  1.00  0.00     0.031 A 
ATOM     47  C   UNL A   1      42.336  33.229  29.686  1.00  0.00     0.074 A 
ATOM     48  C   UNL A   1      42.034  35.479  29.147  1.00  0.00     0.049 A 
ATOM     49  N   UNL A   1      43.468  33.246  29.042  1.00  0.00    -0.248 NA
ATOM     50  C   UNL A   1      42.026  31.926  30.266  1.00  0.00     0.031 C 
ATOM     51  C   UNL A   1      42.326  35.207  27.715  1.00  0.00     0.029 A 
ATOM     52  N   UNL A   1      42.148  36.887  29.113  1.00  0.00    -0.354 N 
ATOM     53  C   UNL A   1      43.752  31.950  28.751  1.00  0.00     0.074 A 
ATOM     54  C   UNL A   1      43.042  31.210  29.772  1.00  0.00     0.031 C 
ATOM     55  C   UNL A   1      42.720  36.316  27.077  1.00  0.00     0.029 A 
ATOM     56  C   UNL A   1      42.781  37.424  27.999  1.00  0.00     0.049 A 
ATOM     57  H   UNL A   1      41.799  37.456  29.838  1.00  0.00     0.167 HD
ATOM     58  C   UNL A   1      44.291  31.620  27.543  1.00  0.00     0.031 A 
ATOM     59  C   UNL A   1      43.415  38.626  27.814  1.00  0.00     0.031 A 
ATOM     60  C   UNL A   1      44.699  32.769  26.698  1.00  0.00     0.049 A 
ATOM     61  C   UNL A   1      44.748  38.392  27.086  1.00  0.00     0.074 A 
ATOM     62  C   UNL A   1      44.238  33.253  25.482  1.00  0.00     0.029 A 
ATOM     63  N   UNL A   1      45.643  33.702  27.127  1.00  0.00    -0.354 N 
ATOM     64  N   UNL A   1      45.008  37.312  26.398  1.00  0.00    -0.248 NA
ATOM     65  C   UNL A   1      45.962  39.196  27.280  1.00  0.00     0.031 C 
ATOM     66  C   UNL A   1      44.930  34.456  25.169  1.00  0.00     0.029 A 
ATOM     67  C   UNL A   1      45.836  34.717  26.179  1.00  0.00     0.049 A 
ATOM     68  H   UNL A   1      46.117  33.655  27.988  1.00  0.00     0.167 HD
ATOM     69  C   UNL A   1      46.360  37.066  26.453  1.00  0.00     0.074 A 
ATOM     70  C   UNL A   1      46.921  38.350  26.850  1.00  0.00     0.031 C 
ATOM     71  C   UNL A   1      46.851  35.780  26.386  1.00  0.00     0.031 A 
BRANCH  58  72
ATOM     72  C   UNL A   1      44.183  30.208  26.979  1.00  0.00    -0.014 A 
ATOM     73  C   UNL A   1      42.915  29.634  26.787  1.00  0.00     0.009 A 
ATOM     74  C   UNL A   1      45.273  29.358  26.701  1.00  0.00     0.009 A 
ATOM     75  C   UNL A   1      42.757  28.305  26.361  1.00  0.00     0.001 A 
ATOM     76  C   UNL A   1      45.128  28.045  26.241  1.00  0.00     0.001 A 
ATOM     77  C   UNL A   1      43.864  27.513  26.081  1.00  0.00     0.000 A 
ENDBRANCH  58  72
BRANCH  59  78
ATOM     78  C   UNL A   1      43.089  39.758  28.756  1.00  0.00    -0.014 A 
ATOM     79  C   UNL A   1      41.776  40.269  28.730  1.00  0.00     0.009 A 
ATOM     80  C   UNL A   1      43.899  40.201  29.815  1.00  0.00     0.009 A 
ATOM     81  C   UNL A   1      41.256  41.035  29.787  1.00  0.00     0.001 A 
ATOM     82  C   UNL A   1      43.372  40.931  30.894  1.00  0.00     0.001 A 
ATOM     83  C   UNL A   1      42.038  41.314  30.899  1.00  0.00     0.000 A 
ENDBRANCH  59  78
BRANCH  71  84
ATOM     84  C   UNL A   1      48.292  35.336  26.636  1.00  0.00    -0.014 A 
ATOM     85  C   UNL A   1      49.029  35.510  27.816  1.00  0.00     0.009 A 
ATOM     86  C   UNL A   1      48.946  34.605  25.613  1.00  0.00     0.009 A 
ATOM     87  C   UNL A   1      50.332  34.998  27.958  1.00  0.00     0.001 A 
ATOM     88  C   UNL A   1      50.224  34.057  25.762  1.00  0.00     0.001 A 
ATOM     89  C   UNL A   1      50.925  34.264  26.937  1.00  0.00     0.000 A 
ENDBRANCH  71  84
ENDBRANCH  45  46
ENDBRANCH  38  40
ENDBRANCH  37  38
ENDBRANCH  36  37
ENDBRANCH  35  36
ENDBRANCH  34  35
ENDBRANCH  33  34
ENDBRANCH   1  33
TORSDOF 21
ENDMDL
MODEL 2
REMARK VINA RESULT:     -10.8      5.070      8.463
REMARK SMILES Cc1ccc(C(=O)NC2CC2)cc1NC(=O)[C@@H]1[C@@H](C(=O)OCCOCCOCCOC(=O)c2ccc(-c3c4nc(c(-c5ccccc5)c5ccc([nH]5)c(-c5ccccc5)c5nc(c(-c6ccccc6)c6ccc3[nH]6)C=C5)C=C4)cc2)[C@H]2C=C[C@@H]1C2
REMARK SMILES IDX 25 1 24 2 23 3 22 4 21 5 19 6 20 7 18 8 17 9 84 10 81 11
REMARK SMILES IDX 83 12 85 13 82 14 15 15 14 16 16 18 13 19 1 20 2 21 3 22
REMARK SMILES IDX 4 23 12 24 5 25 6 26 7 27 8 28 9 30 10 31 11 32 26 33 27 34
REMARK SMILES IDX 28 35 29 36 30 37 31 38 32 39 33 40 34 41 80 42 35 43 79 44
REMARK SMILES IDX 36 45 37 46 38 47 73 48 39 49 78 50 72 51 74 52 40 53 77 54
REMARK SMILES IDX 71 55 70 56 41 58 63 59 48 60 62 61 49 62 52 63 61 64 75 65
REMARK SMILES IDX 50 66 51 67 60 69 76 70 53 71 42 72 43 73 47 74 44 75 46 76
REMARK SMILES IDX 45 77 64 78 65 79 69 80 66 81 68 82 67 83 54 84 55 85 59 86
REMARK SMILES IDX 56 87 58 88 57 89
REMARK H PARENT 14 17 8 29 74 57 52 68
REMARK Flexibility Score: inf
ROOT
ATOM      1  C   UNL A   1      39.662  21.489  26.564  1.00  0.00     0.188 C 
ENDROOT
BRANCH   1   2
ATOM      2  O   UNL A   1      38.843  22.225  25.673  1.00  0.00    -0.376 OA
BRANCH   2   3
ATOM      3  C   UNL A   1      37.943  21.387  24.954  1.00  0.00     0.202 C 
BRANCH   3   4
ATOM      4  C   UNL A   1      36.738  22.070  24.260  1.00  0.00     0.261 C 
BRANCH   4   5
ATOM      5  O   UNL A   1      35.903  23.157  25.064  1.00  0.00    -0.463 OA
BRANCH   5   6
ATOM      6  C   UNL A   1      35.015  23.781  25.882  1.00  0.00     0.310 C 
ATOM      7  O   UNL A   1      34.919  23.200  26.975  1.00  0.00    -0.252 OA
BRANCH   6   8
ATOM      8  C   UNL A   1      34.117  25.135  25.801  1.00  0.00     0.119 C 
ATOM      9  C   UNL A   1      32.606  24.855  25.414  1.00  0.00     0.100 C 
ATOM     10  C   UNL A   1      31.925  26.270  25.352  1.00  0.00     0.025 C 
ATOM     11  C   UNL A   1      34.126  26.671  25.320  1.00  0.00     0.027 C 
ATOM     12  C   UNL A   1      32.223  26.910  24.032  1.00  0.00    -0.027 C 
ATOM     13  C   UNL A   1      32.889  27.147  26.143  1.00  0.00     0.017 C 
ATOM     14  C   UNL A   1      33.548  27.078  23.988  1.00  0.00    -0.027 C 
BRANCH   9  15
ATOM     15  C   UNL A   1      31.851  23.992  26.383  1.00  0.00     0.228 C 
ATOM     16  N   UNL A   1      31.736  22.643  26.211  1.00  0.00    -0.326 N 
ATOM     17  H   UNL A   1      31.207  22.221  26.925  1.00  0.00     0.169 HD
ATOM     18  O   UNL A   1      31.186  24.509  27.289  1.00  0.00    -0.274 OA
BRANCH  16  19
ATOM     19  C   UNL A   1      32.192  21.703  25.256  1.00  0.00     0.044 A 
ATOM     20  C   UNL A   1      30.808  22.925  23.463  1.00  0.00     0.046 C 
ATOM     21  C   UNL A   1      31.776  21.864  23.920  1.00  0.00    -0.027 A 
ATOM     22  C   UNL A   1      32.244  20.975  22.934  1.00  0.00     0.006 A 
ATOM     23  C   UNL A   1      33.142  19.958  23.245  1.00  0.00     0.014 A 
ATOM     24  C   UNL A   1      33.014  20.604  25.552  1.00  0.00     0.040 A 
ATOM     25  C   UNL A   1      33.552  19.764  24.561  1.00  0.00     0.041 A 
BRANCH  25  26
ATOM     26  C   UNL A   1      34.511  18.637  24.804  1.00  0.00     0.251 C 
ATOM     27  O   UNL A   1      35.697  18.772  24.502  1.00  0.00    -0.269 OA
ATOM     28  N   UNL A   1      34.128  17.467  25.416  1.00  0.00    -0.349 N 
ATOM     29  H   UNL A   1      34.858  16.842  25.631  1.00  0.00     0.164 HD
BRANCH  28  30
ATOM     30  C   UNL A   1      32.832  17.037  25.780  1.00  0.00     0.082 C 
ATOM     31  C   UNL A   1      31.994  16.468  24.686  1.00  0.00     0.027 C 
ATOM     32  C   UNL A   1      32.437  15.589  25.784  1.00  0.00     0.027 C 
ENDBRANCH  28  30
ENDBRANCH  25  26
ENDBRANCH  16  19
ENDBRANCH   9  15
ENDBRANCH   6   8
ENDBRANCH   5   6
ENDBRANCH   4   5
ENDBRANCH   3   4
ENDBRANCH   2   3
ENDBRANCH   1   2
BRANCH   1  33
ATOM     33  C   UNL A   1      41.124  21.452  26.106  1.00  0.00     0.188 C 
BRANCH  33  34
ATOM     34  O   UNL A   1      42.072  21.464  27.159  1.00  0.00    -0.376 OA
BRANCH  34  35
ATOM     35  C   UNL A   1      42.429  22.728  27.713  1.00  0.00     0.202 C 
BRANCH  35  36
ATOM     36  C   UNL A   1      42.548  23.712  26.550  1.00  0.00     0.261 C 
BRANCH  36  37
ATOM     37  O   UNL A   1      41.388  24.575  26.538  1.00  0.00    -0.460 OA
BRANCH  37  38
ATOM     38  C   UNL A   1      41.564  25.719  25.834  1.00  0.00     0.338 C 
ATOM     39  O   UNL A   1      42.400  25.888  24.951  1.00  0.00    -0.246 OA
BRANCH  38  40
ATOM     40  C   UNL A   1      40.776  26.815  26.474  1.00  0.00     0.060 A 
ATOM     41  C   UNL A   1      41.197  28.096  26.238  1.00  0.00     0.016 A 
ATOM     42  C   UNL A   1      39.817  26.633  27.480  1.00  0.00     0.016 A 
ATOM     43  C   UNL A   1      40.799  29.107  27.120  1.00  0.00     0.010 A 
ATOM     44  C   UNL A   1      39.504  27.673  28.407  1.00  0.00     0.010 A 
ATOM     45  C   UNL A   1      40.110  28.939  28.339  1.00  0.00    -0.014 A 
BRANCH  45  46
ATOM     46  C   UNL A   1      39.960  29.921  29.569  1.00  0.00     0.031 A 
ATOM     47  C   UNL A   1      40.870  29.687  30.731  1.00  0.00     0.074 A 
ATOM     48  C   UNL A   1      39.228  31.088  29.847  1.00  0.00     0.049 A 
ATOM     49  N   UNL A   1      40.791  30.336  31.858  1.00  0.00    -0.248 NA
ATOM     50  C   UNL A   1      41.853  28.608  30.760  1.00  0.00     0.031 C 
ATOM     51  C   UNL A   1      39.962  32.294  30.311  1.00  0.00     0.029 A 
ATOM     52  N   UNL A   1      37.988  31.703  29.560  1.00  0.00    -0.354 N 
ATOM     53  C   UNL A   1      41.952  30.082  32.518  1.00  0.00     0.074 A 
ATOM     54  C   UNL A   1      42.381  28.814  31.971  1.00  0.00     0.031 C 
ATOM     55  C   UNL A   1      39.148  33.350  30.422  1.00  0.00     0.029 A 
ATOM     56  C   UNL A   1      37.794  32.970  30.097  1.00  0.00     0.049 A 
ATOM     57  H   UNL A   1      37.300  31.261  29.012  1.00  0.00     0.167 HD
ATOM     58  C   UNL A   1      42.574  31.074  33.217  1.00  0.00     0.031 A 
ATOM     59  C   UNL A   1      36.645  33.664  30.378  1.00  0.00     0.031 A 
ATOM     60  C   UNL A   1      41.805  32.336  33.346  1.00  0.00     0.049 A 
ATOM     61  C   UNL A   1      36.761  34.298  31.773  1.00  0.00     0.074 A 
ATOM     62  C   UNL A   1      42.014  33.618  32.859  1.00  0.00     0.029 A 
ATOM     63  N   UNL A   1      40.550  32.377  33.953  1.00  0.00    -0.354 N 
ATOM     64  N   UNL A   1      37.902  34.493  32.379  1.00  0.00    -0.248 NA
ATOM     65  C   UNL A   1      35.634  34.512  32.693  1.00  0.00     0.031 C 
ATOM     66  C   UNL A   1      40.899  34.432  33.204  1.00  0.00     0.029 A 
ATOM     67  C   UNL A   1      40.000  33.666  33.921  1.00  0.00     0.049 A 
ATOM     68  H   UNL A   1      40.104  31.597  34.354  1.00  0.00     0.167 HD
ATOM     69  C   UNL A   1      37.702  34.409  33.738  1.00  0.00     0.074 A 
ATOM     70  C   UNL A   1      36.267  34.603  33.881  1.00  0.00     0.031 C 
ATOM     71  C   UNL A   1      38.702  33.966  34.576  1.00  0.00     0.031 A 
BRANCH  58  72
ATOM     72  C   UNL A   1      44.059  31.001  33.555  1.00  0.00    -0.014 A 
ATOM     73  C   UNL A   1      44.464  30.423  34.770  1.00  0.00     0.009 A 
ATOM     74  C   UNL A   1      45.097  31.554  32.779  1.00  0.00     0.009 A 
ATOM     75  C   UNL A   1      45.809  30.414  35.176  1.00  0.00     0.001 A 
ATOM     76  C   UNL A   1      46.444  31.518  33.156  1.00  0.00     0.001 A 
ATOM     77  C   UNL A   1      46.800  30.955  34.365  1.00  0.00     0.000 A 
ENDBRANCH  58  72
BRANCH  59  78
ATOM     78  C   UNL A   1      35.374  33.256  29.676  1.00  0.00    -0.014 A 
ATOM     79  C   UNL A   1      34.500  34.282  29.264  1.00  0.00     0.009 A 
ATOM     80  C   UNL A   1      35.085  31.971  29.189  1.00  0.00     0.009 A 
ATOM     81  C   UNL A   1      33.506  34.066  28.294  1.00  0.00     0.001 A 
ATOM     82  C   UNL A   1      34.120  31.759  28.188  1.00  0.00     0.001 A 
ATOM     83  C   UNL A   1      33.358  32.816  27.711  1.00  0.00     0.000 A 
ENDBRANCH  59  78
BRANCH  71  84
ATOM     84  C   UNL A   1      38.571  33.627  36.061  1.00  0.00    -0.014 A 
ATOM     85  C   UNL A   1      38.901  34.459  37.140  1.00  0.00     0.009 A 
ATOM     86  C   UNL A   1      37.990  32.383  36.407  1.00  0.00     0.009 A 
ATOM     87  C   UNL A   1      38.674  34.068  38.473  1.00  0.00     0.001 A 
ATOM     88  C   UNL A   1      37.722  32.004  37.727  1.00  0.00     0.001 A 
ATOM     89  C   UNL A   1      38.077  32.846  38.765  1.00  0.00     0.000 A 
ENDBRANCH  71  84
ENDBRANCH  45  46
ENDBRANCH  38  40
ENDBRANCH  37  38
ENDBRANCH  36  37
ENDBRANCH  35  36
ENDBRANCH  34  35
ENDBRANCH  33  34
ENDBRANCH   1  33
TORSDOF 21
ENDMDL
MODEL 3
REMARK VINA RESULT:     -10.7      7.091     12.261
REMARK SMILES Cc1ccc(C(=O)NC2CC2)cc1NC(=O)[C@@H]1[C@@H](C(=O)OCCOCCOCCOC(=O)c2ccc(-c3c4nc(c(-c5ccccc5)c5ccc([nH]5)c(-c5ccccc5)c5nc(c(-c6ccccc6)c6ccc3[nH]6)C=C5)C=C4)cc2)[C@H]2C=C[C@@H]1C2
REMARK SMILES IDX 25 1 24 2 23 3 22 4 21 5 19 6 20 7 18 8 17 9 84 10 81 11
REMARK SMILES IDX 83 12 85 13 82 14 15 15 14 16 16 18 13 19 1 20 2 21 3 22
REMARK SMILES IDX 4 23 12 24 5 25 6 26 7 27 8 28 9 30 10 31 11 32 26 33 27 34
REMARK SMILES IDX 28 35 29 36 30 37 31 38 32 39 33 40 34 41 80 42 35 43 79 44
REMARK SMILES IDX 36 45 37 46 38 47 73 48 39 49 78 50 72 51 74 52 40 53 77 54
REMARK SMILES IDX 71 55 70 56 41 58 63 59 48 60 62 61 49 62 52 63 61 64 75 65
REMARK SMILES IDX 50 66 51 67 60 69 76 70 53 71 42 72 43 73 47 74 44 75 46 76
REMARK SMILES IDX 45 77 64 78 65 79 69 80 66 81 68 82 67 83 54 84 55 85 59 86
REMARK SMILES IDX 56 87 58 88 57 89
REMARK H PARENT 14 17 8 29 74 57 52 68
REMARK Flexibility Score: inf
ROOT
ATOM      1  C   UNL A   1      39.700  25.214  27.825  1.00  0.00     0.188 C 
ENDROOT
BRANCH   1   2
ATOM      2  O   UNL A   1      38.934  24.061  27.527  1.00  0.00    -0.376 OA
BRANCH   2   3
ATOM      3  C   UNL A   1      38.299  24.151  26.255  1.00  0.00     0.202 C 
BRANCH   3   4
ATOM      4  C   UNL A   1      37.770  22.837  25.629  1.00  0.00     0.261 C 
BRANCH   4   5
ATOM      5  O   UNL A   1      36.358  22.277  26.097  1.00  0.00    -0.463 OA
BRANCH   5   6
ATOM      6  C   UNL A   1      35.055  21.896  26.149  1.00  0.00     0.310 C 
ATOM      7  O   UNL A   1      34.747  21.487  27.281  1.00  0.00    -0.252 OA
BRANCH   6   8
ATOM      8  C   UNL A   1      33.796  21.920  25.118  1.00  0.00     0.119 C 
ATOM      9  C   UNL A   1      33.399  23.384  24.659  1.00  0.00     0.100 C 
ATOM     10  C   UNL A   1      32.159  23.199  23.711  1.00  0.00     0.025 C 
ATOM     11  C   UNL A   1      32.364  21.257  24.804  1.00  0.00     0.027 C 
ATOM     12  C   UNL A   1      30.920  23.039  24.536  1.00  0.00    -0.027 C 
ATOM     13  C   UNL A   1      32.246  21.728  23.321  1.00  0.00     0.017 C 
ATOM     14  C   UNL A   1      31.082  21.917  25.242  1.00  0.00    -0.027 C 
BRANCH   9  15
ATOM     15  C   UNL A   1      34.470  24.132  23.920  1.00  0.00     0.228 C 
ATOM     16  N   UNL A   1      34.436  25.488  23.774  1.00  0.00    -0.326 N 
ATOM     17  H   UNL A   1      35.203  25.828  23.261  1.00  0.00     0.169 HD
ATOM     18  O   UNL A   1      35.342  23.515  23.295  1.00  0.00    -0.274 OA
BRANCH  16  19
ATOM     19  C   UNL A   1      33.563  26.527  24.180  1.00  0.00     0.044 A 
ATOM     20  C   UNL A   1      32.807  26.785  21.733  1.00  0.00     0.046 C 
ATOM     21  C   UNL A   1      32.747  27.125  23.200  1.00  0.00    -0.027 A 
ATOM     22  C   UNL A   1      31.835  28.130  23.574  1.00  0.00     0.006 A 
ATOM     23  C   UNL A   1      31.696  28.523  24.903  1.00  0.00     0.014 A 
ATOM     24  C   UNL A   1      33.472  27.020  25.492  1.00  0.00     0.040 A 
ATOM     25  C   UNL A   1      32.506  27.963  25.886  1.00  0.00     0.041 A 
BRANCH  25  26
ATOM     26  C   UNL A   1      32.294  28.455  27.287  1.00  0.00     0.251 C 
ATOM     27  O   UNL A   1      31.458  27.906  28.005  1.00  0.00    -0.269 OA
ATOM     28  N   UNL A   1      33.049  29.466  27.832  1.00  0.00    -0.349 N 
ATOM     29  H   UNL A   1      32.907  29.632  28.792  1.00  0.00     0.164 HD
BRANCH  28  30
ATOM     30  C   UNL A   1      34.002  30.301  27.204  1.00  0.00     0.082 C 
ATOM     31  C   UNL A   1      34.579  31.390  28.043  1.00  0.00     0.027 C 
ATOM     32  C   UNL A   1      35.453  30.293  27.586  1.00  0.00     0.027 C 
ENDBRANCH  28  30
ENDBRANCH  25  26
ENDBRANCH  16  19
ENDBRANCH   9  15
ENDBRANCH   6   8
ENDBRANCH   5   6
ENDBRANCH   4   5
ENDBRANCH   3   4
ENDBRANCH   2   3
ENDBRANCH   1   2
BRANCH   1  33
ATOM     33  C   UNL A   1      40.426  25.758  26.590  1.00  0.00     0.188 C 
BRANCH  33  34
ATOM     34  O   UNL A   1      41.738  26.233  26.838  1.00  0.00    -0.376 OA
BRANCH  34  35
ATOM     35  C   UNL A   1      42.208  27.322  26.048  1.00  0.00     0.202 C 
BRANCH  35  36
ATOM     36  C   UNL A   1      43.198  26.750  25.035  1.00  0.00     0.261 C 
BRANCH  36  37
ATOM     37  O   UNL A   1      43.614  25.434  25.467  1.00  0.00    -0.460 OA
BRANCH  37  38
ATOM     38  C   UNL A   1      44.949  25.319  25.667  1.00  0.00     0.338 C 
ATOM     39  O   UNL A   1      45.807  25.397  24.792  1.00  0.00    -0.246 OA
BRANCH  38  40
ATOM     40  C   UNL A   1      45.198  24.822  27.053  1.00  0.00     0.060 A 
ATOM     41  C   UNL A   1      44.212  24.064  27.623  1.00  0.00     0.016 A 
ATOM     42  C   UNL A   1      46.226  25.270  27.894  1.00  0.00     0.016 A 
ATOM     43  C   UNL A   1      44.180  23.939  29.017  1.00  0.00     0.010 A 
ATOM     44  C   UNL A   1      46.111  25.194  29.315  1.00  0.00     0.010 A 
ATOM     45  C   UNL A   1      44.985  24.634  29.943  1.00  0.00    -0.014 A 
BRANCH  45  46
ATOM     46  C   UNL A   1      44.782  24.871  31.493  1.00  0.00     0.031 A 
ATOM     47  C   UNL A   1      44.185  26.178  31.903  1.00  0.00     0.074 A 
ATOM     48  C   UNL A   1      44.929  24.100  32.660  1.00  0.00     0.049 A 
ATOM     49  N   UNL A   1      44.061  26.564  33.141  1.00  0.00    -0.248 NA
ATOM     50  C   UNL A   1      43.805  27.208  30.941  1.00  0.00     0.031 C 
ATOM     51  C   UNL A   1      43.772  23.990  33.587  1.00  0.00     0.029 A 
ATOM     52  N   UNL A   1      45.723  23.066  33.203  1.00  0.00    -0.354 N 
ATOM     53  C   UNL A   1      43.206  27.620  33.119  1.00  0.00     0.074 A 
ATOM     54  C   UNL A   1      43.352  28.146  31.779  1.00  0.00     0.031 C 
ATOM     55  C   UNL A   1      44.025  23.135  34.586  1.00  0.00     0.029 A 
ATOM     56  C   UNL A   1      45.369  22.623  34.471  1.00  0.00     0.049 A 
ATOM     57  H   UNL A   1      46.485  22.681  32.712  1.00  0.00     0.167 HD
ATOM     58  C   UNL A   1      42.268  27.763  34.098  1.00  0.00     0.031 A 
ATOM     59  C   UNL A   1      46.099  21.979  35.438  1.00  0.00     0.031 A 
ATOM     60  C   UNL A   1      42.389  26.816  35.234  1.00  0.00     0.049 A 
ATOM     61  C   UNL A   1      45.834  22.639  36.800  1.00  0.00     0.074 A 
ATOM     62  C   UNL A   1      41.580  25.786  35.690  1.00  0.00     0.029 A 
ATOM     63  N   UNL A   1      43.538  26.753  36.022  1.00  0.00    -0.354 N 
ATOM     64  N   UNL A   1      44.788  23.382  37.045  1.00  0.00    -0.248 NA
ATOM     65  C   UNL A   1      46.818  22.743  37.887  1.00  0.00     0.031 C 
ATOM     66  C   UNL A   1      42.230  25.130  36.772  1.00  0.00     0.029 A 
ATOM     67  C   UNL A   1      43.439  25.758  37.005  1.00  0.00     0.049 A 
ATOM     68  H   UNL A   1      44.323  27.334  35.903  1.00  0.00     0.167 HD
ATOM     69  C   UNL A   1      45.124  24.324  37.989  1.00  0.00     0.074 A 
ATOM     70  C   UNL A   1      46.322  23.772  38.605  1.00  0.00     0.031 C 
ATOM     71  C   UNL A   1      44.513  25.559  38.010  1.00  0.00     0.031 A 
BRANCH  58  72
ATOM     72  C   UNL A   1      41.014  28.603  33.885  1.00  0.00    -0.014 A 
ATOM     73  C   UNL A   1      39.973  28.104  33.084  1.00  0.00     0.009 A 
ATOM     74  C   UNL A   1      40.826  29.916  34.362  1.00  0.00     0.009 A 
ATOM     75  C   UNL A   1      38.838  28.873  32.776  1.00  0.00     0.001 A 
ATOM     76  C   UNL A   1      39.684  30.677  34.092  1.00  0.00     0.001 A 
ATOM     77  C   UNL A   1      38.690  30.157  33.287  1.00  0.00     0.000 A 
ENDBRANCH  58  72
BRANCH  59  78
ATOM     78  C   UNL A   1      47.348  21.245  35.020  1.00  0.00    -0.014 A 
ATOM     79  C   UNL A   1      47.187  20.014  34.353  1.00  0.00     0.009 A 
ATOM     80  C   UNL A   1      48.649  21.774  35.026  1.00  0.00     0.009 A 
ATOM     81  C   UNL A   1      48.222  19.438  33.597  1.00  0.00     0.001 A 
ATOM     82  C   UNL A   1      49.675  21.224  34.237  1.00  0.00     0.001 A 
ATOM     83  C   UNL A   1      49.449  20.077  33.489  1.00  0.00     0.000 A 
ENDBRANCH  59  78
BRANCH  71  84
ATOM     84  C   UNL A   1      44.915  26.767  38.855  1.00  0.00    -0.014 A 
ATOM     85  C   UNL A   1      45.327  28.020  38.381  1.00  0.00     0.009 A 
ATOM     86  C   UNL A   1      44.798  26.658  40.263  1.00  0.00     0.009 A 
ATOM     87  C   UNL A   1      45.610  29.087  39.254  1.00  0.00     0.001 A 
ATOM     88  C   UNL A   1      45.037  27.725  41.135  1.00  0.00     0.001 A 
ATOM     89  C   UNL A   1      45.456  28.942  40.629  1.00  0.00     0.000 A 
ENDBRANCH  71  84
ENDBRANCH  45  46
ENDBRANCH  38  40
ENDBRANCH  37  38
ENDBRANCH  36  37
ENDBRANCH  35  36
ENDBRANCH  34  35
ENDBRANCH  33  34
ENDBRANCH   1  33
TORSDOF 21
ENDMDL
