MODEL 1
REMARK VINA RESULT:     -10.1      0.000      0.000
REMARK SMILES CC(C)Cc1cc2c(cc1Cl)C=C(C(=O)OCCOCCOCCOC(=O)c1ccc(-c3c4nc(c(-c5ccccc5)c5ccc([nH]5)c(-c5ccccc5)c5nc(c(-c6ccccc6)c6ccc3[nH]6)C=C5)C=C4)cc1)[C@@H](C(F)(F)F)O2
REMARK SMILES IDX 20 1 19 2 18 3 17 4 16 5 14 6 15 7 13 8 5 9 6 10 10 11 7 12
REMARK SMILES IDX 9 13 11 14 8 15 81 16 12 17 76 18 4 19 2 20 1 21 3 22 77 23
REMARK SMILES IDX 78 24 79 25 80 26 21 27 22 28 23 29 24 30 25 31 26 32 27 33
REMARK SMILES IDX 28 34 29 35 75 36 30 37 74 38 31 39 32 40 33 41 68 42 34 43
REMARK SMILES IDX 73 44 67 45 69 46 35 47 72 48 66 49 65 50 36 52 58 53 43 54
REMARK SMILES IDX 57 55 44 56 47 57 56 58 70 59 45 60 46 61 55 63 71 64 48 65
REMARK SMILES IDX 37 66 38 67 42 68 39 69 41 70 40 71 59 72 60 73 64 74 61 75
REMARK SMILES IDX 63 76 62 77 49 78 50 79 54 80 51 81 53 82 52 83
REMARK H PARENT 69 51 47 62
REMARK Flexibility Score: inf
ROOT
ATOM      1  C   UNL A   1      39.763  21.524  26.351  1.00  0.00     0.188 C 
ENDROOT
BRANCH   1   2
ATOM      2  O   UNL A   1      39.005  20.491  25.768  1.00  0.00    -0.376 OA
BRANCH   2   3
ATOM      3  C   UNL A   1      37.841  20.757  25.006  1.00  0.00     0.202 C 
BRANCH   3   4
ATOM      4  C   UNL A   1      36.826  21.881  25.282  1.00  0.00     0.261 C 
BRANCH   4   5
ATOM      5  O   UNL A   1      35.963  22.255  24.206  1.00  0.00    -0.460 OA
BRANCH   5   6
ATOM      6  C   UNL A   1      34.679  21.842  24.334  1.00  0.00     0.338 C 
ATOM      7  O   UNL A   1      34.294  20.697  24.503  1.00  0.00    -0.246 OA
BRANCH   6   8
ATOM      8  C   UNL A   1      33.788  23.014  24.408  1.00  0.00     0.087 C 
ATOM      9  C   UNL A   1      31.853  27.640  24.033  1.00  0.00    -0.025 A 
ATOM     10  C   UNL A   1      31.482  26.466  24.720  1.00  0.00     0.052 A 
ATOM     11  C   UNL A   1      32.952  27.580  23.162  1.00  0.00     0.045 A 
ATOM     12  C   UNL A   1      32.209  25.282  24.571  1.00  0.00     0.128 A 
ATOM     13  C   UNL A   1      33.659  26.387  22.990  1.00  0.00     0.032 A 
ATOM     14  Cl  UNL A   1      33.534  28.964  22.309  1.00  0.00    -0.084 Cl
ATOM     15  C   UNL A   1      33.305  25.246  23.713  1.00  0.00     0.019 A 
ATOM     16  O   UNL A   1      31.788  24.211  25.308  1.00  0.00    -0.475 OA
ATOM     17  C   UNL A   1      34.114  24.046  23.619  1.00  0.00     0.027 C 
ATOM     18  C   UNL A   1      32.601  23.003  25.334  1.00  0.00     0.316 C 
BRANCH   9  19
ATOM     19  C   UNL A   1      31.083  28.917  24.300  1.00  0.00     0.040 C 
BRANCH  19  20
ATOM     20  C   UNL A   1      29.810  29.109  23.452  1.00  0.00    -0.013 C 
ATOM     21  C   UNL A   1      30.110  29.740  22.092  1.00  0.00     0.008 C 
ATOM     22  C   UNL A   1      29.110  27.760  23.259  1.00  0.00     0.008 C 
ENDBRANCH  19  20
ENDBRANCH   9  19
BRANCH  18  23
ATOM     23  C   UNL A   1      33.008  22.706  26.783  1.00  0.00     0.430 C 
ATOM     24  F   UNL A   1      34.233  23.208  27.067  1.00  0.00    -0.167 F 
ATOM     25  F   UNL A   1      32.145  23.263  27.667  1.00  0.00    -0.167 F 
ATOM     26  F   UNL A   1      33.044  21.378  27.037  1.00  0.00    -0.167 F 
ENDBRANCH  18  23
ENDBRANCH   6   8
ENDBRANCH   5   6
ENDBRANCH   4   5
ENDBRANCH   3   4
ENDBRANCH   2   3
ENDBRANCH   1   2
BRANCH   1  27
ATOM     27  C   UNL A   1      41.300  21.393  26.393  1.00  0.00     0.188 C 
BRANCH  27  28
ATOM     28  O   UNL A   1      42.099  21.946  25.366  1.00  0.00    -0.376 OA
BRANCH  28  29
ATOM     29  C   UNL A   1      43.499  21.705  25.368  1.00  0.00     0.202 C 
BRANCH  29  30
ATOM     30  C   UNL A   1      44.490  22.654  24.675  1.00  0.00     0.261 C 
BRANCH  30  31
ATOM     31  O   UNL A   1      44.071  24.023  24.582  1.00  0.00    -0.460 OA
BRANCH  31  32
ATOM     32  C   UNL A   1      44.933  24.935  25.111  1.00  0.00     0.338 C 
ATOM     33  O   UNL A   1      46.023  25.253  24.694  1.00  0.00    -0.246 OA
BRANCH  32  34
ATOM     34  C   UNL A   1      44.233  25.657  26.195  1.00  0.00     0.060 A 
ATOM     35  C   UNL A   1      43.446  24.967  27.116  1.00  0.00     0.016 A 
ATOM     36  C   UNL A   1      44.365  27.050  26.268  1.00  0.00     0.016 A 
ATOM     37  C   UNL A   1      42.789  25.681  28.122  1.00  0.00     0.010 A 
ATOM     38  C   UNL A   1      43.688  27.763  27.259  1.00  0.00     0.010 A 
ATOM     39  C   UNL A   1      42.904  27.080  28.200  1.00  0.00    -0.014 A 
BRANCH  39  40
ATOM     40  C   UNL A   1      42.313  27.817  29.342  1.00  0.00     0.031 A 
ATOM     41  C   UNL A   1      42.990  27.869  30.679  1.00  0.00     0.074 A 
ATOM     42  C   UNL A   1      41.130  28.433  29.159  1.00  0.00     0.049 A 
ATOM     43  N   UNL A   1      42.614  28.506  31.759  1.00  0.00    -0.248 NA
ATOM     44  C   UNL A   1      44.242  27.115  30.826  1.00  0.00     0.031 C 
ATOM     45  C   UNL A   1      40.381  28.445  27.902  1.00  0.00     0.029 A 
ATOM     46  N   UNL A   1      40.355  29.168  30.020  1.00  0.00    -0.354 N 
ATOM     47  C   UNL A   1      43.592  28.251  32.710  1.00  0.00     0.074 A 
ATOM     48  C   UNL A   1      44.556  27.363  32.093  1.00  0.00     0.031 C 
ATOM     49  C   UNL A   1      39.264  29.168  28.068  1.00  0.00     0.029 A 
ATOM     50  C   UNL A   1      39.199  29.641  29.448  1.00  0.00     0.049 A 
ATOM     51  H   UNL A   1      40.603  29.339  30.958  1.00  0.00     0.167 HD
ATOM     52  C   UNL A   1      43.679  28.729  33.973  1.00  0.00     0.031 A 
ATOM     53  C   UNL A   1      38.194  30.369  29.972  1.00  0.00     0.031 A 
ATOM     54  C   UNL A   1      42.702  29.597  34.583  1.00  0.00     0.049 A 
ATOM     55  C   UNL A   1      38.278  30.823  31.403  1.00  0.00     0.074 A 
ATOM     56  C   UNL A   1      42.734  30.164  35.846  1.00  0.00     0.029 A 
ATOM     57  N   UNL A   1      41.519  30.009  33.991  1.00  0.00    -0.354 N 
ATOM     58  N   UNL A   1      39.247  30.638  32.266  1.00  0.00    -0.248 NA
ATOM     59  C   UNL A   1      37.141  31.590  31.933  1.00  0.00     0.031 C 
ATOM     60  C   UNL A   1      41.536  30.849  36.048  1.00  0.00     0.029 A 
ATOM     61  C   UNL A   1      40.793  30.784  34.880  1.00  0.00     0.049 A 
ATOM     62  H   UNL A   1      41.237  29.784  33.074  1.00  0.00     0.167 HD
ATOM     63  C   UNL A   1      38.850  31.286  33.429  1.00  0.00     0.074 A 
ATOM     64  C   UNL A   1      37.558  31.878  33.160  1.00  0.00     0.031 C 
ATOM     65  C   UNL A   1      39.507  31.377  34.610  1.00  0.00     0.031 A 
BRANCH  52  66
ATOM     66  C   UNL A   1      44.873  28.344  34.806  1.00  0.00    -0.014 A 
ATOM     67  C   UNL A   1      46.065  29.080  34.702  1.00  0.00     0.009 A 
ATOM     68  C   UNL A   1      44.864  27.173  35.579  1.00  0.00     0.009 A 
ATOM     69  C   UNL A   1      47.229  28.639  35.336  1.00  0.00     0.001 A 
ATOM     70  C   UNL A   1      46.023  26.752  36.237  1.00  0.00     0.001 A 
ATOM     71  C   UNL A   1      47.206  27.477  36.104  1.00  0.00     0.000 A 
ENDBRANCH  52  66
BRANCH  53  72
ATOM     72  C   UNL A   1      37.038  30.733  29.110  1.00  0.00    -0.014 A 
ATOM     73  C   UNL A   1      36.860  32.059  28.678  1.00  0.00     0.009 A 
ATOM     74  C   UNL A   1      36.072  29.776  28.770  1.00  0.00     0.009 A 
ATOM     75  C   UNL A   1      35.724  32.424  27.953  1.00  0.00     0.001 A 
ATOM     76  C   UNL A   1      34.952  30.137  28.016  1.00  0.00     0.001 A 
ATOM     77  C   UNL A   1      34.772  31.462  27.620  1.00  0.00     0.000 A 
ENDBRANCH  53  72
BRANCH  65  78
ATOM     78  C   UNL A   1      38.869  32.155  35.729  1.00  0.00    -0.014 A 
ATOM     79  C   UNL A   1      39.193  33.511  35.907  1.00  0.00     0.009 A 
ATOM     80  C   UNL A   1      38.081  31.514  36.697  1.00  0.00     0.009 A 
ATOM     81  C   UNL A   1      38.773  34.198  37.047  1.00  0.00     0.001 A 
ATOM     82  C   UNL A   1      37.637  32.213  37.821  1.00  0.00     0.001 A 
ATOM     83  C   UNL A   1      37.997  33.548  38.004  1.00  0.00     0.000 A 
ENDBRANCH  65  78
ENDBRANCH  39  40
ENDBRANCH  32  34
ENDBRANCH  31  32
ENDBRANCH  30  31
ENDBRANCH  29  30
ENDBRANCH  28  29
ENDBRANCH  27  28
ENDBRANCH   1  27
TORSDOF 20
ENDMDL
MODEL 2
REMARK VINA RESULT:      -9.7      3.519      8.746
REMARK SMILES CC(C)Cc1cc2c(cc1Cl)C=C(C(=O)OCCOCCOCCOC(=O)c1ccc(-c3c4nc(c(-c5ccccc5)c5ccc([nH]5)c(-c5ccccc5)c5nc(c(-c6ccccc6)c6ccc3[nH]6)C=C5)C=C4)cc1)[C@@H](C(F)(F)F)O2
REMARK SMILES IDX 20 1 19 2 18 3 17 4 16 5 14 6 15 7 13 8 5 9 6 10 10 11 7 12
REMARK SMILES IDX 9 13 11 14 8 15 81 16 12 17 76 18 4 19 2 20 1 21 3 22 77 23
REMARK SMILES IDX 78 24 79 25 80 26 21 27 22 28 23 29 24 30 25 31 26 32 27 33
REMARK SMILES IDX 28 34 29 35 75 36 30 37 74 38 31 39 32 40 33 41 68 42 34 43
REMARK SMILES IDX 73 44 67 45 69 46 35 47 72 48 66 49 65 50 36 52 58 53 43 54
REMARK SMILES IDX 57 55 44 56 47 57 56 58 70 59 45 60 46 61 55 63 71 64 48 65
REMARK SMILES IDX 37 66 38 67 42 68 39 69 41 70 40 71 59 72 60 73 64 74 61 75
REMARK SMILES IDX 63 76 62 77 49 78 50 79 54 80 51 81 53 82 52 83
REMARK H PARENT 69 51 47 62
REMARK Flexibility Score: inf
ROOT
ATOM      1  C   UNL A   1      30.730  29.875  24.546  1.00  0.00     0.188 C 
ENDROOT
BRANCH   1   2
ATOM      2  O   UNL A   1      30.472  28.727  23.773  1.00  0.00    -0.376 OA
BRANCH   2   3
ATOM      3  C   UNL A   1      31.516  27.906  23.282  1.00  0.00     0.202 C 
BRANCH   3   4
ATOM      4  C   UNL A   1      31.455  26.377  23.120  1.00  0.00     0.261 C 
BRANCH   4   5
ATOM      5  O   UNL A   1      30.571  25.666  23.990  1.00  0.00    -0.460 OA
BRANCH   5   6
ATOM      6  C   UNL A   1      31.129  25.246  25.150  1.00  0.00     0.338 C 
ATOM      7  O   UNL A   1      30.848  25.626  26.275  1.00  0.00    -0.246 OA
BRANCH   6   8
ATOM      8  C   UNL A   1      32.034  24.113  24.882  1.00  0.00     0.087 C 
ATOM      9  C   UNL A   1      34.154  19.556  24.733  1.00  0.00    -0.025 A 
ATOM     10  C   UNL A   1      34.578  20.856  24.389  1.00  0.00     0.052 A 
ATOM     11  C   UNL A   1      32.822  19.380  25.141  1.00  0.00     0.045 A 
ATOM     12  C   UNL A   1      33.712  21.948  24.486  1.00  0.00     0.128 A 
ATOM     13  C   UNL A   1      31.948  20.468  25.209  1.00  0.00     0.032 A 
ATOM     14  Cl  UNL A   1      32.202  17.847  25.641  1.00  0.00    -0.084 Cl
ATOM     15  C   UNL A   1      32.399  21.755  24.906  1.00  0.00     0.019 A 
ATOM     16  O   UNL A   1      34.232  23.169  24.162  1.00  0.00    -0.475 OA
ATOM     17  C   UNL A   1      31.521  22.894  25.091  1.00  0.00     0.027 C 
ATOM     18  C   UNL A   1      33.440  24.366  24.407  1.00  0.00     0.316 C 
BRANCH   9  19
ATOM     19  C   UNL A   1      35.159  18.424  24.694  1.00  0.00     0.040 C 
BRANCH  19  20
ATOM     20  C   UNL A   1      34.560  17.017  24.494  1.00  0.00    -0.013 C 
ATOM     21  C   UNL A   1      34.442  16.644  23.016  1.00  0.00     0.008 C 
ATOM     22  C   UNL A   1      35.418  15.982  25.228  1.00  0.00     0.008 C 
ENDBRANCH  19  20
ENDBRANCH   9  19
BRANCH  18  23
ATOM     23  C   UNL A   1      34.210  25.287  25.363  1.00  0.00     0.430 C 
ATOM     24  F   UNL A   1      35.488  24.872  25.530  1.00  0.00    -0.167 F 
ATOM     25  F   UNL A   1      34.272  26.556  24.891  1.00  0.00    -0.167 F 
ATOM     26  F   UNL A   1      33.635  25.340  26.586  1.00  0.00    -0.167 F 
ENDBRANCH  18  23
ENDBRANCH   6   8
ENDBRANCH   5   6
ENDBRANCH   4   5
ENDBRANCH   3   4
ENDBRANCH   2   3
ENDBRANCH   1   2
BRANCH   1  27
ATOM     27  C   UNL A   1      31.878  29.840  25.577  1.00  0.00     0.188 C 
BRANCH  27  28
ATOM     28  O   UNL A   1      31.716  30.419  26.856  1.00  0.00    -0.376 OA
BRANCH  28  29
ATOM     29  C   UNL A   1      31.729  31.833  26.987  1.00  0.00     0.202 C 
BRANCH  29  30
ATOM     30  C   UNL A   1      32.932  32.586  27.576  1.00  0.00     0.261 C 
BRANCH  30  31
ATOM     31  O   UNL A   1      32.719  33.980  27.839  1.00  0.00    -0.460 OA
BRANCH  31  32
ATOM     32  C   UNL A   1      33.177  34.426  29.042  1.00  0.00     0.338 C 
ATOM     33  O   UNL A   1      32.579  35.078  29.866  1.00  0.00    -0.246 OA
BRANCH  32  34
ATOM     34  C   UNL A   1      34.493  33.801  29.294  1.00  0.00     0.060 A 
ATOM     35  C   UNL A   1      35.620  34.202  28.578  1.00  0.00     0.016 A 
ATOM     36  C   UNL A   1      34.582  32.789  30.259  1.00  0.00     0.016 A 
ATOM     37  C   UNL A   1      36.847  33.584  28.834  1.00  0.00     0.010 A 
ATOM     38  C   UNL A   1      35.804  32.157  30.495  1.00  0.00     0.010 A 
ATOM     39  C   UNL A   1      36.947  32.559  29.791  1.00  0.00    -0.014 A 
BRANCH  39  40
ATOM     40  C   UNL A   1      38.271  31.998  30.151  1.00  0.00     0.031 A 
ATOM     41  C   UNL A   1      39.222  32.738  31.042  1.00  0.00     0.074 A 
ATOM     42  C   UNL A   1      38.616  30.801  29.640  1.00  0.00     0.049 A 
ATOM     43  N   UNL A   1      40.397  32.357  31.477  1.00  0.00    -0.248 NA
ATOM     44  C   UNL A   1      38.809  34.070  31.505  1.00  0.00     0.031 C 
ATOM     45  C   UNL A   1      37.769  29.995  28.760  1.00  0.00     0.029 A 
ATOM     46  N   UNL A   1      39.756  30.054  29.788  1.00  0.00    -0.354 N 
ATOM     47  C   UNL A   1      40.857  33.389  32.282  1.00  0.00     0.074 A 
ATOM     48  C   UNL A   1      39.854  34.433  32.240  1.00  0.00     0.031 C 
ATOM     49  C   UNL A   1      38.413  28.856  28.461  1.00  0.00     0.029 A 
ATOM     50  C   UNL A   1      39.727  28.866  29.098  1.00  0.00     0.049 A 
ATOM     51  H   UNL A   1      40.523  30.341  30.336  1.00  0.00     0.167 HD
ATOM     52  C   UNL A   1      42.004  33.446  33.000  1.00  0.00     0.031 A 
ATOM     53  C   UNL A   1      40.653  27.894  28.983  1.00  0.00     0.031 A 
ATOM     54  C   UNL A   1      43.004  32.408  33.017  1.00  0.00     0.049 A 
ATOM     55  C   UNL A   1      41.952  28.018  29.728  1.00  0.00     0.074 A 
ATOM     56  C   UNL A   1      44.178  32.366  33.750  1.00  0.00     0.029 A 
ATOM     57  N   UNL A   1      42.963  31.246  32.263  1.00  0.00    -0.354 N 
ATOM     58  N   UNL A   1      42.339  28.965  30.548  1.00  0.00    -0.248 NA
ATOM     59  C   UNL A   1      42.938  26.943  29.544  1.00  0.00     0.031 C 
ATOM     60  C   UNL A   1      44.884  31.222  33.380  1.00  0.00     0.029 A 
ATOM     61  C   UNL A   1      44.112  30.504  32.480  1.00  0.00     0.049 A 
ATOM     62  H   UNL A   1      42.227  30.987  31.662  1.00  0.00     0.167 HD
ATOM     63  C   UNL A   1      43.599  28.588  30.997  1.00  0.00     0.074 A 
ATOM     64  C   UNL A   1      43.907  27.322  30.368  1.00  0.00     0.031 C 
ATOM     65  C   UNL A   1      44.418  29.241  31.856  1.00  0.00     0.031 A 
BRANCH  52  66
ATOM     66  C   UNL A   1      42.262  34.664  33.845  1.00  0.00    -0.014 A 
ATOM     67  C   UNL A   1      41.757  34.727  35.155  1.00  0.00     0.009 A 
ATOM     68  C   UNL A   1      42.873  35.804  33.300  1.00  0.00     0.009 A 
ATOM     69  C   UNL A   1      41.840  35.910  35.892  1.00  0.00     0.001 A 
ATOM     70  C   UNL A   1      42.981  36.977  34.051  1.00  0.00     0.001 A 
ATOM     71  C   UNL A   1      42.454  37.032  35.341  1.00  0.00     0.000 A 
ENDBRANCH  52  66
BRANCH  53  72
ATOM     72  C   UNL A   1      40.351  26.704  28.143  1.00  0.00    -0.014 A 
ATOM     73  C   UNL A   1      40.783  26.645  26.807  1.00  0.00     0.009 A 
ATOM     74  C   UNL A   1      39.574  25.652  28.649  1.00  0.00     0.009 A 
ATOM     75  C   UNL A   1      40.416  25.576  25.987  1.00  0.00     0.001 A 
ATOM     76  C   UNL A   1      39.237  24.567  27.836  1.00  0.00     0.001 A 
ATOM     77  C   UNL A   1      39.646  24.536  26.504  1.00  0.00     0.000 A 
ENDBRANCH  53  72
BRANCH  65  78
ATOM     78  C   UNL A   1      45.743  28.615  32.201  1.00  0.00    -0.014 A 
ATOM     79  C   UNL A   1      46.869  28.885  31.405  1.00  0.00     0.009 A 
ATOM     80  C   UNL A   1      45.841  27.640  33.205  1.00  0.00     0.009 A 
ATOM     81  C   UNL A   1      48.052  28.166  31.581  1.00  0.00     0.001 A 
ATOM     82  C   UNL A   1      47.036  26.944  33.399  1.00  0.00     0.001 A 
ATOM     83  C   UNL A   1      48.135  27.196  32.577  1.00  0.00     0.000 A 
ENDBRANCH  65  78
ENDBRANCH  39  40
ENDBRANCH  32  34
ENDBRANCH  31  32
ENDBRANCH  30  31
ENDBRANCH  29  30
ENDBRANCH  28  29
ENDBRANCH  27  28
ENDBRANCH   1  27
TORSDOF 20
ENDMDL
MODEL 3
REMARK VINA RESULT:      -9.7      1.361      5.921
REMARK SMILES CC(C)Cc1cc2c(cc1Cl)C=C(C(=O)OCCOCCOCCOC(=O)c1ccc(-c3c4nc(c(-c5ccccc5)c5ccc([nH]5)c(-c5ccccc5)c5nc(c(-c6ccccc6)c6ccc3[nH]6)C=C5)C=C4)cc1)[C@@H](C(F)(F)F)O2
REMARK SMILES IDX 20 1 19 2 18 3 17 4 16 5 14 6 15 7 13 8 5 9 6 10 10 11 7 12
REMARK SMILES IDX 9 13 11 14 8 15 81 16 12 17 76 18 4 19 2 20 1 21 3 22 77 23
REMARK SMILES IDX 78 24 79 25 80 26 21 27 22 28 23 29 24 30 25 31 26 32 27 33
REMARK SMILES IDX 28 34 29 35 75 36 30 37 74 38 31 39 32 40 33 41 68 42 34 43
REMARK SMILES IDX 73 44 67 45 69 46 35 47 72 48 66 49 65 50 36 52 58 53 43 54
REMARK SMILES IDX 57 55 44 56 47 57 56 58 70 59 45 60 46 61 55 63 71 64 48 65
REMARK SMILES IDX 37 66 38 67 42 68 39 69 41 70 40 71 59 72 60 73 64 74 61 75
REMARK SMILES IDX 63 76 62 77 49 78 50 79 54 80 51 81 53 82 52 83
REMARK H PARENT 69 51 47 62
REMARK Flexibility Score: inf
ROOT
ATOM      1  C   UNL A   1      40.404  22.512  27.493  1.00  0.00     0.188 C 
ENDROOT
BRANCH   1   2
ATOM      2  O   UNL A   1      39.897  23.736  27.018  1.00  0.00    -0.376 OA
BRANCH   2   3
ATOM      3  C   UNL A   1      38.517  23.921  26.755  1.00  0.00     0.202 C 
BRANCH   3   4
ATOM      4  C   UNL A   1      37.669  23.085  25.780  1.00  0.00     0.261 C 
BRANCH   4   5
ATOM      5  O   UNL A   1      36.354  23.562  25.489  1.00  0.00    -0.460 OA
BRANCH   5   6
ATOM      6  C   UNL A   1      35.944  23.364  24.213  1.00  0.00     0.338 C 
ATOM      7  O   UNL A   1      36.435  22.601  23.399  1.00  0.00    -0.246 OA
BRANCH   6   8
ATOM      8  C   UNL A   1      34.684  24.095  23.980  1.00  0.00     0.087 C 
ATOM      9  C   UNL A   1      30.977  27.490  24.107  1.00  0.00    -0.025 A 
ATOM     10  C   UNL A   1      31.104  26.183  23.593  1.00  0.00     0.052 A 
ATOM     11  C   UNL A   1      32.117  28.102  24.651  1.00  0.00     0.045 A 
ATOM     12  C   UNL A   1      32.320  25.497  23.657  1.00  0.00     0.128 A 
ATOM     13  C   UNL A   1      33.339  27.426  24.686  1.00  0.00     0.032 A 
ATOM     14  Cl  UNL A   1      32.073  29.677  25.360  1.00  0.00    -0.084 Cl
ATOM     15  C   UNL A   1      33.436  26.116  24.213  1.00  0.00     0.019 A 
ATOM     16  O   UNL A   1      32.327  24.223  23.163  1.00  0.00    -0.475 OA
ATOM     17  C   UNL A   1      34.676  25.380  24.360  1.00  0.00     0.027 C 
ATOM     18  C   UNL A   1      33.509  23.393  23.355  1.00  0.00     0.316 C 
BRANCH   9  19
ATOM     19  C   UNL A   1      29.615  28.152  24.092  1.00  0.00     0.040 C 
BRANCH  19  20
ATOM     20  C   UNL A   1      29.138  28.646  22.711  1.00  0.00    -0.013 C 
ATOM     21  C   UNL A   1      27.866  29.490  22.807  1.00  0.00     0.008 C 
ATOM     22  C   UNL A   1      30.252  29.454  22.038  1.00  0.00     0.008 C 
ENDBRANCH  19  20
ENDBRANCH   9  19
BRANCH  18  23
ATOM     23  C   UNL A   1      33.112  22.134  24.138  1.00  0.00     0.430 C 
ATOM     24  F   UNL A   1      31.861  21.725  23.820  1.00  0.00    -0.167 F 
ATOM     25  F   UNL A   1      33.941  21.096  23.865  1.00  0.00    -0.167 F 
ATOM     26  F   UNL A   1      33.148  22.337  25.474  1.00  0.00    -0.167 F 
ENDBRANCH  18  23
ENDBRANCH   6   8
ENDBRANCH   5   6
ENDBRANCH   4   5
ENDBRANCH   3   4
ENDBRANCH   2   3
ENDBRANCH   1   2
BRANCH   1  27
ATOM     27  C   UNL A   1      41.011  21.512  26.487  1.00  0.00     0.188 C 
BRANCH  27  28
ATOM     28  O   UNL A   1      42.402  21.262  26.469  1.00  0.00    -0.376 OA
BRANCH  28  29
ATOM     29  C   UNL A   1      43.185  21.762  25.395  1.00  0.00     0.202 C 
BRANCH  29  30
ATOM     30  C   UNL A   1      43.141  23.240  24.974  1.00  0.00     0.261 C 
BRANCH  30  31
ATOM     31  O   UNL A   1      44.395  23.935  25.033  1.00  0.00    -0.460 OA
BRANCH  31  32
ATOM     32  C   UNL A   1      45.124  23.734  26.165  1.00  0.00     0.338 C 
ATOM     33  O   UNL A   1      46.132  23.077  26.291  1.00  0.00    -0.246 OA
BRANCH  32  34
ATOM     34  C   UNL A   1      44.600  24.633  27.216  1.00  0.00     0.060 A 
ATOM     35  C   UNL A   1      44.925  25.988  27.220  1.00  0.00     0.016 A 
ATOM     36  C   UNL A   1      43.781  24.091  28.215  1.00  0.00     0.016 A 
ATOM     37  C   UNL A   1      44.422  26.809  28.234  1.00  0.00     0.010 A 
ATOM     38  C   UNL A   1      43.300  24.907  29.241  1.00  0.00     0.010 A 
ATOM     39  C   UNL A   1      43.608  26.275  29.249  1.00  0.00    -0.014 A 
BRANCH  39  40
ATOM     40  C   UNL A   1      42.972  27.169  30.246  1.00  0.00     0.031 A 
ATOM     41  C   UNL A   1      41.717  27.926  29.934  1.00  0.00     0.074 A 
ATOM     42  C   UNL A   1      43.562  27.305  31.448  1.00  0.00     0.049 A 
ATOM     43  N   UNL A   1      41.024  28.713  30.717  1.00  0.00    -0.248 NA
ATOM     44  C   UNL A   1      41.168  27.784  28.579  1.00  0.00     0.031 C 
ATOM     45  C   UNL A   1      44.789  26.618  31.858  1.00  0.00     0.029 A 
ATOM     46  N   UNL A   1      43.214  28.054  32.543  1.00  0.00    -0.354 N 
ATOM     47  C   UNL A   1      39.944  29.147  29.960  1.00  0.00     0.074 A 
ATOM     48  C   UNL A   1      40.098  28.570  28.641  1.00  0.00     0.031 C 
ATOM     49  C   UNL A   1      45.079  26.964  33.121  1.00  0.00     0.029 A 
ATOM     50  C   UNL A   1      44.083  27.921  33.598  1.00  0.00     0.049 A 
ATOM     51  H   UNL A   1      42.418  28.633  32.569  1.00  0.00     0.167 HD
ATOM     52  C   UNL A   1      38.915  29.939  30.343  1.00  0.00     0.031 A 
ATOM     53  C   UNL A   1      44.087  28.503  34.813  1.00  0.00     0.031 A 
ATOM     54  C   UNL A   1      38.784  30.524  31.655  1.00  0.00     0.049 A 
ATOM     55  C   UNL A   1      42.974  29.442  35.185  1.00  0.00     0.074 A 
ATOM     56  C   UNL A   1      37.750  31.306  32.141  1.00  0.00     0.029 A 
ATOM     57  N   UNL A   1      39.712  30.410  32.677  1.00  0.00    -0.354 N 
ATOM     58  N   UNL A   1      41.918  29.780  34.486  1.00  0.00    -0.248 NA
ATOM     59  C   UNL A   1      43.042  30.072  36.511  1.00  0.00     0.031 C 
ATOM     60  C   UNL A   1      38.090  31.732  33.425  1.00  0.00     0.029 A 
ATOM     61  C   UNL A   1      39.296  31.144  33.775  1.00  0.00     0.049 A 
ATOM     62  H   UNL A   1      40.544  29.884  32.630  1.00  0.00     0.167 HD
ATOM     63  C   UNL A   1      41.185  30.640  35.294  1.00  0.00     0.074 A 
ATOM     64  C   UNL A   1      41.909  30.764  36.541  1.00  0.00     0.031 C 
ATOM     65  C   UNL A   1      40.015  31.265  35.018  1.00  0.00     0.031 A 
BRANCH  52  66
ATOM     66  C   UNL A   1      37.826  30.233  29.347  1.00  0.00    -0.014 A 
ATOM     67  C   UNL A   1      37.694  31.526  28.814  1.00  0.00     0.009 A 
ATOM     68  C   UNL A   1      36.845  29.274  29.048  1.00  0.00     0.009 A 
ATOM     69  C   UNL A   1      36.593  31.859  28.023  1.00  0.00     0.001 A 
ATOM     70  C   UNL A   1      35.761  29.603  28.231  1.00  0.00     0.001 A 
ATOM     71  C   UNL A   1      35.629  30.897  27.730  1.00  0.00     0.000 A 
ENDBRANCH  52  66
BRANCH  53  72
ATOM     72  C   UNL A   1      45.179  28.178  35.768  1.00  0.00    -0.014 A 
ATOM     73  C   UNL A   1      46.372  28.921  35.769  1.00  0.00     0.009 A 
ATOM     74  C   UNL A   1      45.064  27.083  36.637  1.00  0.00     0.009 A 
ATOM     75  C   UNL A   1      47.437  28.555  36.594  1.00  0.00     0.001 A 
ATOM     76  C   UNL A   1      46.119  26.739  37.486  1.00  0.00     0.001 A 
ATOM     77  C   UNL A   1      47.309  27.466  37.455  1.00  0.00     0.000 A 
ENDBRANCH  53  72
BRANCH  65  78
ATOM     78  C   UNL A   1      39.405  32.146  36.075  1.00  0.00    -0.014 A 
ATOM     79  C   UNL A   1      38.432  31.619  36.942  1.00  0.00     0.009 A 
ATOM     80  C   UNL A   1      39.667  33.523  36.108  1.00  0.00     0.009 A 
ATOM     81  C   UNL A   1      37.710  32.458  37.793  1.00  0.00     0.001 A 
ATOM     82  C   UNL A   1      38.965  34.355  36.982  1.00  0.00     0.001 A 
ATOM     83  C   UNL A   1      37.976  33.825  37.811  1.00  0.00     0.000 A 
ENDBRANCH  65  78
ENDBRANCH  39  40
ENDBRANCH  32  34
ENDBRANCH  31  32
ENDBRANCH  30  31
ENDBRANCH  29  30
ENDBRANCH  28  29
ENDBRANCH  27  28
ENDBRANCH   1  27
TORSDOF 20
ENDMDL
