MODEL 1
REMARK VINA RESULT:     -10.4      0.000      0.000
REMARK SMILES COc1cc([C@H]2CC(=O)Nc3c(C(=O)OCCOCCOCCOC(=O)c4ccc(-c5c6nc(c(-c7ccccc7)c7ccc([nH]7)c(-c7ccccc7)c7nc(c(-c8ccccc8)c8ccc5[nH]8)C=C7)C=C6)cc4)cn(-c4cccc(Cl)c4)c32)c(OC)c(O)c1O
REMARK SMILES IDX 19 1 18 2 17 3 16 4 15 5 13 6 14 7 12 8 6 9 7 10 84 11 8 12
REMARK SMILES IDX 11 13 76 14 9 15 10 16 75 17 5 19 3 20 4 21 90 22 88 23
REMARK SMILES IDX 85 24 2 25 1 26 91 27 89 29 86 31 87 32 77 33 78 34 83 35
REMARK SMILES IDX 79 36 81 37 80 38 82 39 20 40 21 41 22 42 23 43 24 44 25 45
REMARK SMILES IDX 26 46 27 47 28 48 74 49 29 50 73 51 30 52 31 53 32 54 67 55
REMARK SMILES IDX 33 56 72 57 66 58 68 59 34 60 71 61 65 62 64 63 35 65 57 66
REMARK SMILES IDX 42 67 56 68 43 69 46 70 55 71 69 72 44 73 45 74 54 76 70 77
REMARK SMILES IDX 47 78 36 79 37 80 41 81 38 82 40 83 39 84 58 85 59 86 63 87
REMARK SMILES IDX 60 88 62 89 61 90 48 91 49 92 53 93 50 94 52 95 51 96
REMARK H PARENT 10 18 91 28 89 30 68 64 46 75
REMARK Flexibility Score: inf
ROOT
ATOM      1  C   UNL A   1      35.131  17.940  24.258  1.00  0.00     0.188 C 
ENDROOT
BRANCH   1   2
ATOM      2  O   UNL A   1      33.827  17.367  24.220  1.00  0.00    -0.376 OA
BRANCH   2   3
ATOM      3  C   UNL A   1      32.956  17.648  23.142  1.00  0.00     0.202 C 
BRANCH   3   4
ATOM      4  C   UNL A   1      32.146  18.950  23.260  1.00  0.00     0.261 C 
BRANCH   4   5
ATOM      5  O   UNL A   1      32.862  20.150  22.915  1.00  0.00    -0.460 OA
BRANCH   5   6
ATOM      6  C   UNL A   1      32.091  21.202  22.502  1.00  0.00     0.341 C 
ATOM      7  O   UNL A   1      31.106  21.101  21.784  1.00  0.00    -0.246 OA
BRANCH   6   8
ATOM      8  C   UNL A   1      32.506  22.475  23.097  1.00  0.00     0.102 A 
ATOM      9  C   UNL A   1      33.846  24.829  25.670  1.00  0.00     0.082 C 
ATOM     10  C   UNL A   1      33.909  23.845  26.859  1.00  0.00     0.115 C 
ATOM     11  C   UNL A   1      33.255  24.149  24.462  1.00  0.00     0.055 A 
ATOM     12  C   UNL A   1      34.084  22.380  26.509  1.00  0.00     0.225 C 
ATOM     13  C   UNL A   1      33.113  22.780  24.341  1.00  0.00     0.078 A 
ATOM     14  N   UNL A   1      32.822  24.713  23.273  1.00  0.00    -0.317 N 
ATOM     15  O   UNL A   1      34.585  21.590  27.308  1.00  0.00    -0.275 OA
ATOM     16  N   UNL A   1      33.553  21.933  25.329  1.00  0.00    -0.324 N 
ATOM     17  C   UNL A   1      32.302  23.703  22.489  1.00  0.00     0.109 A 
ATOM     18  H   UNL A   1      33.485  20.963  25.182  1.00  0.00     0.170 HD
BRANCH   9  19
ATOM     19  C   UNL A   1      33.262  26.150  26.194  1.00  0.00     0.012 A 
ATOM     20  C   UNL A   1      33.698  28.565  26.475  1.00  0.00     0.165 A 
ATOM     21  C   UNL A   1      34.086  27.298  26.025  1.00  0.00     0.059 A 
ATOM     22  C   UNL A   1      32.440  28.725  27.051  1.00  0.00     0.204 A 
ATOM     23  C   UNL A   1      31.614  27.625  27.236  1.00  0.00     0.204 A 
ATOM     24  C   UNL A   1      32.033  26.337  26.856  1.00  0.00     0.168 A 
BRANCH  20  25
ATOM     25  O   UNL A   1      34.445  29.710  26.367  1.00  0.00    -0.493 OA
ATOM     26  C   UNL A   1      35.555  29.823  27.253  1.00  0.00     0.278 C 
ENDBRANCH  20  25
BRANCH  22  27
ATOM     27  O   UNL A   1      32.026  29.975  27.431  1.00  0.00    -0.502 OA
ATOM     28  H   UNL A   1      31.326  30.397  26.971  1.00  0.00     0.293 HD
ENDBRANCH  22  27
BRANCH  23  29
ATOM     29  O   UNL A   1      30.368  27.802  27.782  1.00  0.00    -0.502 OA
ATOM     30  H   UNL A   1      30.181  28.572  28.282  1.00  0.00     0.293 HD
ENDBRANCH  23  29
BRANCH  24  31
ATOM     31  O   UNL A   1      31.104  25.347  27.033  1.00  0.00    -0.492 OA
ATOM     32  C   UNL A   1      30.207  25.198  25.941  1.00  0.00     0.278 C 
ENDBRANCH  24  31
ENDBRANCH   9  19
BRANCH  14  33
ATOM     33  C   UNL A   1      32.815  26.079  22.913  1.00  0.00     0.047 A 
ATOM     34  C   UNL A   1      33.976  26.686  22.427  1.00  0.00     0.027 A 
ATOM     35  C   UNL A   1      31.664  26.833  23.171  1.00  0.00     0.047 A 
ATOM     36  C   UNL A   1      33.999  28.068  22.242  1.00  0.00     0.004 A 
ATOM     37  C   UNL A   1      31.722  28.217  23.040  1.00  0.00     0.043 A 
ATOM     38  C   UNL A   1      32.881  28.837  22.575  1.00  0.00     0.020 A 
ATOM     39  Cl  UNL A   1      30.376  29.172  23.529  1.00  0.00    -0.084 Cl
ENDBRANCH  14  33
ENDBRANCH   6   8
ENDBRANCH   5   6
ENDBRANCH   4   5
ENDBRANCH   3   4
ENDBRANCH   2   3
ENDBRANCH   1   2
BRANCH   1  40
ATOM     40  C   UNL A   1      35.445  19.299  24.924  1.00  0.00     0.188 C 
BRANCH  40  41
ATOM     41  O   UNL A   1      36.818  19.653  25.011  1.00  0.00    -0.376 OA
BRANCH  41  42
ATOM     42  C   UNL A   1      37.082  20.938  25.556  1.00  0.00     0.202 C 
BRANCH  42  43
ATOM     43  C   UNL A   1      38.554  21.304  25.460  1.00  0.00     0.261 C 
BRANCH  43  44
ATOM     44  O   UNL A   1      38.891  22.528  26.107  1.00  0.00    -0.460 OA
BRANCH  44  45
ATOM     45  C   UNL A   1      39.899  22.481  27.001  1.00  0.00     0.338 C 
ATOM     46  O   UNL A   1      40.229  21.538  27.696  1.00  0.00    -0.246 OA
BRANCH  45  47
ATOM     47  C   UNL A   1      40.463  23.833  27.110  1.00  0.00     0.060 A 
ATOM     48  C   UNL A   1      41.537  24.027  27.981  1.00  0.00     0.016 A 
ATOM     49  C   UNL A   1      39.755  24.912  26.557  1.00  0.00     0.016 A 
ATOM     50  C   UNL A   1      41.795  25.306  28.435  1.00  0.00     0.010 A 
ATOM     51  C   UNL A   1      39.995  26.180  27.030  1.00  0.00     0.010 A 
ATOM     52  C   UNL A   1      40.962  26.349  28.017  1.00  0.00    -0.014 A 
BRANCH  52  53
ATOM     53  C   UNL A   1      41.076  27.633  28.677  1.00  0.00     0.031 A 
ATOM     54  C   UNL A   1      42.078  28.564  28.126  1.00  0.00     0.074 A 
ATOM     55  C   UNL A   1      40.200  28.012  29.625  1.00  0.00     0.049 A 
ATOM     56  N   UNL A   1      43.077  29.098  28.744  1.00  0.00    -0.248 NA
ATOM     57  C   UNL A   1      41.988  28.902  26.697  1.00  0.00     0.031 C 
ATOM     58  C   UNL A   1      38.969  27.327  30.027  1.00  0.00     0.029 A 
ATOM     59  N   UNL A   1      40.162  29.175  30.335  1.00  0.00    -0.354 N 
ATOM     60  C   UNL A   1      43.655  29.971  27.833  1.00  0.00     0.074 A 
ATOM     61  C   UNL A   1      43.032  29.718  26.557  1.00  0.00     0.031 C 
ATOM     62  C   UNL A   1      38.202  28.183  30.736  1.00  0.00     0.029 A 
ATOM     63  C   UNL A   1      38.933  29.426  30.925  1.00  0.00     0.049 A 
ATOM     64  H   UNL A   1      40.934  29.779  30.421  1.00  0.00     0.167 HD
ATOM     65  C   UNL A   1      44.444  31.004  28.229  1.00  0.00     0.031 A 
ATOM     66  C   UNL A   1      38.518  30.598  31.461  1.00  0.00     0.031 A 
ATOM     67  C   UNL A   1      44.921  30.855  29.576  1.00  0.00     0.049 A 
ATOM     68  C   UNL A   1      39.708  31.439  31.720  1.00  0.00     0.074 A 
ATOM     69  C   UNL A   1      45.659  29.901  30.248  1.00  0.00     0.029 A 
ATOM     70  N   UNL A   1      44.344  31.636  30.548  1.00  0.00    -0.354 N 
ATOM     71  N   UNL A   1      40.571  31.202  32.663  1.00  0.00    -0.248 NA
ATOM     72  C   UNL A   1      40.157  32.361  30.688  1.00  0.00     0.031 C 
ATOM     73  C   UNL A   1      45.128  29.877  31.571  1.00  0.00     0.029 A 
ATOM     74  C   UNL A   1      44.112  30.832  31.635  1.00  0.00     0.049 A 
ATOM     75  H   UNL A   1      44.135  32.596  30.477  1.00  0.00     0.167 HD
ATOM     76  C   UNL A   1      41.794  31.578  32.127  1.00  0.00     0.074 A 
ATOM     77  C   UNL A   1      41.460  32.414  30.980  1.00  0.00     0.031 C 
ATOM     78  C   UNL A   1      42.947  30.936  32.486  1.00  0.00     0.031 A 
BRANCH  65  79
ATOM     79  C   UNL A   1      44.465  32.322  27.506  1.00  0.00    -0.014 A 
ATOM     80  C   UNL A   1      43.952  33.462  28.143  1.00  0.00     0.009 A 
ATOM     81  C   UNL A   1      44.732  32.424  26.125  1.00  0.00     0.009 A 
ATOM     82  C   UNL A   1      43.688  34.634  27.423  1.00  0.00     0.001 A 
ATOM     83  C   UNL A   1      44.515  33.605  25.415  1.00  0.00     0.001 A 
ATOM     84  C   UNL A   1      43.970  34.705  26.062  1.00  0.00     0.000 A 
ENDBRANCH  65  79
BRANCH  66  85
ATOM     85  C   UNL A   1      37.142  31.117  31.588  1.00  0.00    -0.014 A 
ATOM     86  C   UNL A   1      36.662  31.578  32.823  1.00  0.00     0.009 A 
ATOM     87  C   UNL A   1      36.365  31.382  30.444  1.00  0.00     0.009 A 
ATOM     88  C   UNL A   1      35.465  32.301  32.904  1.00  0.00     0.001 A 
ATOM     89  C   UNL A   1      35.165  32.092  30.527  1.00  0.00     0.001 A 
ATOM     90  C   UNL A   1      34.722  32.566  31.756  1.00  0.00     0.000 A 
ENDBRANCH  66  85
BRANCH  78  91
ATOM     91  C   UNL A   1      42.894  30.023  33.688  1.00  0.00    -0.014 A 
ATOM     92  C   UNL A   1      43.283  30.436  34.976  1.00  0.00     0.009 A 
ATOM     93  C   UNL A   1      42.329  28.747  33.545  1.00  0.00     0.009 A 
ATOM     94  C   UNL A   1      43.165  29.579  36.073  1.00  0.00     0.001 A 
ATOM     95  C   UNL A   1      42.186  27.899  34.648  1.00  0.00     0.001 A 
ATOM     96  C   UNL A   1      42.614  28.311  35.908  1.00  0.00     0.000 A 
ENDBRANCH  78  91
ENDBRANCH  52  53
ENDBRANCH  45  47
ENDBRANCH  44  45
ENDBRANCH  43  44
ENDBRANCH  42  43
ENDBRANCH  41  42
ENDBRANCH  40  41
ENDBRANCH   1  40
TORSDOF 23
ENDMDL
MODEL 2
REMARK VINA RESULT:      -9.5      6.133     11.412
REMARK SMILES COc1cc([C@H]2CC(=O)Nc3c(C(=O)OCCOCCOCCOC(=O)c4ccc(-c5c6nc(c(-c7ccccc7)c7ccc([nH]7)c(-c7ccccc7)c7nc(c(-c8ccccc8)c8ccc5[nH]8)C=C7)C=C6)cc4)cn(-c4cccc(Cl)c4)c32)c(OC)c(O)c1O
REMARK SMILES IDX 19 1 18 2 17 3 16 4 15 5 13 6 14 7 12 8 6 9 7 10 84 11 8 12
REMARK SMILES IDX 11 13 76 14 9 15 10 16 75 17 5 19 3 20 4 21 90 22 88 23
REMARK SMILES IDX 85 24 2 25 1 26 91 27 89 29 86 31 87 32 77 33 78 34 83 35
REMARK SMILES IDX 79 36 81 37 80 38 82 39 20 40 21 41 22 42 23 43 24 44 25 45
REMARK SMILES IDX 26 46 27 47 28 48 74 49 29 50 73 51 30 52 31 53 32 54 67 55
REMARK SMILES IDX 33 56 72 57 66 58 68 59 34 60 71 61 65 62 64 63 35 65 57 66
REMARK SMILES IDX 42 67 56 68 43 69 46 70 55 71 69 72 44 73 45 74 54 76 70 77
REMARK SMILES IDX 47 78 36 79 37 80 41 81 38 82 40 83 39 84 58 85 59 86 63 87
REMARK SMILES IDX 60 88 62 89 61 90 48 91 49 92 53 93 50 94 52 95 51 96
REMARK H PARENT 10 18 91 28 89 30 68 64 46 75
REMARK Flexibility Score: inf
ROOT
ATOM      1  C   UNL A   1      44.945  34.031  35.389  1.00  0.00     0.188 C 
ENDROOT
BRANCH   1   2
ATOM      2  O   UNL A   1      44.707  32.692  35.813  1.00  0.00    -0.376 OA
BRANCH   2   3
ATOM      3  C   UNL A   1      43.804  31.868  35.101  1.00  0.00     0.202 C 
BRANCH   3   4
ATOM      4  C   UNL A   1      43.025  30.847  35.947  1.00  0.00     0.261 C 
BRANCH   4   5
ATOM      5  O   UNL A   1      42.432  29.764  35.207  1.00  0.00    -0.460 OA
BRANCH   5   6
ATOM      6  C   UNL A   1      41.065  29.711  35.227  1.00  0.00     0.341 C 
ATOM      7  O   UNL A   1      40.403  29.251  36.146  1.00  0.00    -0.246 OA
BRANCH   6   8
ATOM      8  C   UNL A   1      40.457  30.360  34.064  1.00  0.00     0.102 A 
ATOM      9  C   UNL A   1      39.048  33.116  31.970  1.00  0.00     0.082 C 
ATOM     10  C   UNL A   1      39.016  34.220  33.049  1.00  0.00     0.115 C 
ATOM     11  C   UNL A   1      39.527  31.818  32.567  1.00  0.00     0.055 A 
ATOM     12  C   UNL A   1      40.034  34.096  34.167  1.00  0.00     0.225 C 
ATOM     13  C   UNL A   1      40.158  31.719  33.792  1.00  0.00     0.078 A 
ATOM     14  N   UNL A   1      39.497  30.546  32.018  1.00  0.00    -0.317 N 
ATOM     15  O   UNL A   1      40.411  35.083  34.798  1.00  0.00    -0.275 OA
ATOM     16  N   UNL A   1      40.428  32.839  34.540  1.00  0.00    -0.324 N 
ATOM     17  C   UNL A   1      39.989  29.665  32.959  1.00  0.00     0.109 A 
ATOM     18  H   UNL A   1      40.928  32.734  35.381  1.00  0.00     0.170 HD
BRANCH   9  19
ATOM     19  C   UNL A   1      37.720  33.185  31.199  1.00  0.00     0.012 A 
ATOM     20  C   UNL A   1      35.266  33.018  31.413  1.00  0.00     0.165 A 
ATOM     21  C   UNL A   1      36.544  33.004  31.980  1.00  0.00     0.059 A 
ATOM     22  C   UNL A   1      35.130  33.277  30.051  1.00  0.00     0.204 A 
ATOM     23  C   UNL A   1      36.257  33.453  29.259  1.00  0.00     0.204 A 
ATOM     24  C   UNL A   1      37.546  33.362  29.813  1.00  0.00     0.168 A 
BRANCH  20  25
ATOM     25  O   UNL A   1      34.091  32.830  32.095  1.00  0.00    -0.493 OA
ATOM     26  C   UNL A   1      34.053  33.322  33.431  1.00  0.00     0.278 C 
ENDBRANCH  20  25
BRANCH  22  27
ATOM     27  O   UNL A   1      33.876  33.360  29.501  1.00  0.00    -0.502 OA
ATOM     28  H   UNL A   1      33.771  33.338  28.570  1.00  0.00     0.293 HD
ENDBRANCH  22  27
BRANCH  23  29
ATOM     29  O   UNL A   1      36.106  33.732  27.925  1.00  0.00    -0.502 OA
ATOM     30  H   UNL A   1      36.026  34.620  27.638  1.00  0.00     0.293 HD
ENDBRANCH  23  29
BRANCH  24  31
ATOM     31  O   UNL A   1      38.573  33.615  28.942  1.00  0.00    -0.492 OA
ATOM     32  C   UNL A   1      39.325  34.777  29.263  1.00  0.00     0.278 C 
ENDBRANCH  24  31
ENDBRANCH   9  19
BRANCH  14  33
ATOM     33  C   UNL A   1      38.987  30.157  30.760  1.00  0.00     0.047 A 
ATOM     34  C   UNL A   1      37.650  29.774  30.628  1.00  0.00     0.027 A 
ATOM     35  C   UNL A   1      39.876  30.045  29.683  1.00  0.00     0.047 A 
ATOM     36  C   UNL A   1      37.210  29.230  29.422  1.00  0.00     0.004 A 
ATOM     37  C   UNL A   1      39.437  29.444  28.507  1.00  0.00     0.043 A 
ATOM     38  C   UNL A   1      38.110  29.039  28.371  1.00  0.00     0.020 A 
ATOM     39  Cl  UNL A   1      40.564  29.132  27.244  1.00  0.00    -0.084 Cl
ENDBRANCH  14  33
ENDBRANCH   6   8
ENDBRANCH   5   6
ENDBRANCH   4   5
ENDBRANCH   3   4
ENDBRANCH   2   3
ENDBRANCH   1   2
BRANCH   1  40
ATOM     40  C   UNL A   1      43.971  35.199  35.669  1.00  0.00     0.188 C 
BRANCH  40  41
ATOM     41  O   UNL A   1      43.892  36.204  34.668  1.00  0.00    -0.376 OA
BRANCH  41  42
ATOM     42  C   UNL A   1      43.592  35.738  33.360  1.00  0.00     0.202 C 
BRANCH  42  43
ATOM     43  C   UNL A   1      44.615  36.211  32.340  1.00  0.00     0.261 C 
BRANCH  43  44
ATOM     44  O   UNL A   1      45.070  35.190  31.458  1.00  0.00    -0.460 OA
BRANCH  44  45
ATOM     45  C   UNL A   1      44.291  34.920  30.391  1.00  0.00     0.338 C 
ATOM     46  O   UNL A   1      43.841  35.711  29.585  1.00  0.00    -0.246 OA
BRANCH  45  47
ATOM     47  C   UNL A   1      43.945  33.493  30.440  1.00  0.00     0.060 A 
ATOM     48  C   UNL A   1      44.625  32.684  31.353  1.00  0.00     0.016 A 
ATOM     49  C   UNL A   1      43.157  32.947  29.414  1.00  0.00     0.016 A 
ATOM     50  C   UNL A   1      44.655  31.321  31.132  1.00  0.00     0.010 A 
ATOM     51  C   UNL A   1      43.209  31.595  29.180  1.00  0.00     0.010 A 
ATOM     52  C   UNL A   1      44.017  30.809  29.998  1.00  0.00    -0.014 A 
BRANCH  52  53
ATOM     53  C   UNL A   1      44.252  29.427  29.635  1.00  0.00     0.031 A 
ATOM     54  C   UNL A   1      45.088  29.199  28.442  1.00  0.00     0.074 A 
ATOM     55  C   UNL A   1      43.872  28.418  30.439  1.00  0.00     0.049 A 
ATOM     56  N   UNL A   1      44.769  28.552  27.372  1.00  0.00    -0.248 NA
ATOM     57  C   UNL A   1      46.426  29.810  28.414  1.00  0.00     0.031 C 
ATOM     58  C   UNL A   1      43.335  28.516  31.800  1.00  0.00     0.029 A 
ATOM     59  N   UNL A   1      44.018  27.076  30.251  1.00  0.00    -0.354 N 
ATOM     60  C   UNL A   1      45.918  28.528  26.594  1.00  0.00     0.074 A 
ATOM     61  C   UNL A   1      46.864  29.422  27.218  1.00  0.00     0.031 C 
ATOM     62  C   UNL A   1      43.412  27.303  32.389  1.00  0.00     0.029 A 
ATOM     63  C   UNL A   1      43.896  26.336  31.417  1.00  0.00     0.049 A 
ATOM     64  H   UNL A   1      44.194  26.671  29.372  1.00  0.00     0.167 HD
ATOM     65  C   UNL A   1      46.105  27.603  25.617  1.00  0.00     0.031 A 
ATOM     66  C   UNL A   1      44.243  25.039  31.590  1.00  0.00     0.031 A 
ATOM     67  C   UNL A   1      44.885  26.954  25.224  1.00  0.00     0.049 A 
ATOM     68  C   UNL A   1      44.361  24.406  30.258  1.00  0.00     0.074 A 
ATOM     69  C   UNL A   1      43.671  27.383  24.725  1.00  0.00     0.029 A 
ATOM     70  N   UNL A   1      44.681  25.665  25.652  1.00  0.00    -0.354 N 
ATOM     71  N   UNL A   1      43.345  24.132  29.493  1.00  0.00    -0.248 NA
ATOM     72  C   UNL A   1      45.655  24.401  29.592  1.00  0.00     0.031 C 
ATOM     73  C   UNL A   1      42.702  26.504  25.290  1.00  0.00     0.029 A 
ATOM     74  C   UNL A   1      43.382  25.578  26.082  1.00  0.00     0.049 A 
ATOM     75  H   UNL A   1      45.345  24.938  25.650  1.00  0.00     0.167 HD
ATOM     76  C   UNL A   1      43.802  24.355  28.203  1.00  0.00     0.074 A 
ATOM     77  C   UNL A   1      45.256  24.371  28.317  1.00  0.00     0.031 C 
ATOM     78  C   UNL A   1      42.957  24.798  27.224  1.00  0.00     0.031 A 
BRANCH  65  79
ATOM     79  C   UNL A   1      47.461  27.038  25.295  1.00  0.00    -0.014 A 
ATOM     80  C   UNL A   1      48.073  26.164  26.205  1.00  0.00     0.009 A 
ATOM     81  C   UNL A   1      48.264  27.543  24.251  1.00  0.00     0.009 A 
ATOM     82  C   UNL A   1      49.431  25.839  26.094  1.00  0.00     0.001 A 
ATOM     83  C   UNL A   1      49.604  27.185  24.110  1.00  0.00     0.001 A 
ATOM     84  C   UNL A   1      50.194  26.349  25.047  1.00  0.00     0.000 A 
ENDBRANCH  65  79
BRANCH  66  85
ATOM     85  C   UNL A   1      44.669  24.356  32.828  1.00  0.00    -0.014 A 
ATOM     86  C   UNL A   1      45.568  24.972  33.712  1.00  0.00     0.009 A 
ATOM     87  C   UNL A   1      44.014  23.190  33.268  1.00  0.00     0.009 A 
ATOM     88  C   UNL A   1      45.780  24.455  34.997  1.00  0.00     0.001 A 
ATOM     89  C   UNL A   1      44.235  22.667  34.545  1.00  0.00     0.001 A 
ATOM     90  C   UNL A   1      45.107  23.309  35.415  1.00  0.00     0.000 A 
ENDBRANCH  66  85
BRANCH  78  91
ATOM     91  C   UNL A   1      41.473  24.750  27.506  1.00  0.00    -0.014 A 
ATOM     92  C   UNL A   1      40.822  25.692  28.323  1.00  0.00     0.009 A 
ATOM     93  C   UNL A   1      40.688  23.800  26.836  1.00  0.00     0.009 A 
ATOM     94  C   UNL A   1      39.439  25.647  28.512  1.00  0.00     0.001 A 
ATOM     95  C   UNL A   1      39.300  23.772  27.004  1.00  0.00     0.001 A 
ATOM     96  C   UNL A   1      38.678  24.688  27.851  1.00  0.00     0.000 A 
ENDBRANCH  78  91
ENDBRANCH  52  53
ENDBRANCH  45  47
ENDBRANCH  44  45
ENDBRANCH  43  44
ENDBRANCH  42  43
ENDBRANCH  41  42
ENDBRANCH  40  41
ENDBRANCH   1  40
TORSDOF 23
ENDMDL
MODEL 3
REMARK VINA RESULT:      -9.0      3.033      6.701
REMARK SMILES COc1cc([C@H]2CC(=O)Nc3c(C(=O)OCCOCCOCCOC(=O)c4ccc(-c5c6nc(c(-c7ccccc7)c7ccc([nH]7)c(-c7ccccc7)c7nc(c(-c8ccccc8)c8ccc5[nH]8)C=C7)C=C6)cc4)cn(-c4cccc(Cl)c4)c32)c(OC)c(O)c1O
REMARK SMILES IDX 19 1 18 2 17 3 16 4 15 5 13 6 14 7 12 8 6 9 7 10 84 11 8 12
REMARK SMILES IDX 11 13 76 14 9 15 10 16 75 17 5 19 3 20 4 21 90 22 88 23
REMARK SMILES IDX 85 24 2 25 1 26 91 27 89 29 86 31 87 32 77 33 78 34 83 35
REMARK SMILES IDX 79 36 81 37 80 38 82 39 20 40 21 41 22 42 23 43 24 44 25 45
REMARK SMILES IDX 26 46 27 47 28 48 74 49 29 50 73 51 30 52 31 53 32 54 67 55
REMARK SMILES IDX 33 56 72 57 66 58 68 59 34 60 71 61 65 62 64 63 35 65 57 66
REMARK SMILES IDX 42 67 56 68 43 69 46 70 55 71 69 72 44 73 45 74 54 76 70 77
REMARK SMILES IDX 47 78 36 79 37 80 41 81 38 82 40 83 39 84 58 85 59 86 63 87
REMARK SMILES IDX 60 88 62 89 61 90 48 91 49 92 53 93 50 94 52 95 51 96
REMARK H PARENT 10 18 91 28 89 30 68 64 46 75
REMARK Flexibility Score: inf
ROOT
ATOM      1  C   UNL A   1      34.841  17.588  24.408  1.00  0.00     0.188 C 
ENDROOT
BRANCH   1   2
ATOM      2  O   UNL A   1      33.431  17.417  24.514  1.00  0.00    -0.376 OA
BRANCH   2   3
ATOM      3  C   UNL A   1      32.592  17.714  23.414  1.00  0.00     0.202 C 
BRANCH   3   4
ATOM      4  C   UNL A   1      31.985  19.126  23.401  1.00  0.00     0.261 C 
BRANCH   4   5
ATOM      5  O   UNL A   1      32.861  20.165  22.929  1.00  0.00    -0.460 OA
BRANCH   5   6
ATOM      6  C   UNL A   1      32.247  21.238  22.342  1.00  0.00     0.341 C 
ATOM      7  O   UNL A   1      31.388  21.156  21.475  1.00  0.00    -0.246 OA
BRANCH   6   8
ATOM      8  C   UNL A   1      32.652  22.515  22.934  1.00  0.00     0.102 A 
ATOM      9  C   UNL A   1      34.101  24.871  25.445  1.00  0.00     0.082 C 
ATOM     10  C   UNL A   1      34.318  23.863  26.595  1.00  0.00     0.115 C 
ATOM     11  C   UNL A   1      33.438  24.192  24.275  1.00  0.00     0.055 A 
ATOM     12  C   UNL A   1      34.532  22.418  26.189  1.00  0.00     0.225 C 
ATOM     13  C   UNL A   1      33.353  22.821  24.127  1.00  0.00     0.078 A 
ATOM     14  N   UNL A   1      32.874  24.761  23.145  1.00  0.00    -0.317 N 
ATOM     15  O   UNL A   1      35.140  21.635  26.918  1.00  0.00    -0.275 OA
ATOM     16  N   UNL A   1      33.920  21.973  25.048  1.00  0.00    -0.324 N 
ATOM     17  C   UNL A   1      32.335  23.746  22.381  1.00  0.00     0.109 A 
ATOM     18  H   UNL A   1      33.885  21.005  24.880  1.00  0.00     0.170 HD
BRANCH   9  19
ATOM     19  C   UNL A   1      33.503  26.148  26.056  1.00  0.00     0.012 A 
ATOM     20  C   UNL A   1      33.913  28.544  26.495  1.00  0.00     0.165 A 
ATOM     21  C   UNL A   1      34.314  27.314  25.962  1.00  0.00     0.059 A 
ATOM     22  C   UNL A   1      32.654  28.651  27.082  1.00  0.00     0.204 A 
ATOM     23  C   UNL A   1      31.841  27.532  27.195  1.00  0.00     0.204 A 
ATOM     24  C   UNL A   1      32.274  26.277  26.731  1.00  0.00     0.168 A 
BRANCH  20  25
ATOM     25  O   UNL A   1      34.646  29.702  26.463  1.00  0.00    -0.493 OA
ATOM     26  C   UNL A   1      35.747  29.776  27.365  1.00  0.00     0.278 C 
ENDBRANCH  20  25
BRANCH  22  27
ATOM     27  O   UNL A   1      32.227  29.869  27.545  1.00  0.00    -0.502 OA
ATOM     28  H   UNL A   1      32.778  30.622  27.458  1.00  0.00     0.293 HD
ENDBRANCH  22  27
BRANCH  23  29
ATOM     29  O   UNL A   1      30.595  27.658  27.754  1.00  0.00    -0.502 OA
ATOM     30  H   UNL A   1      30.295  27.028  28.380  1.00  0.00     0.293 HD
ENDBRANCH  23  29
BRANCH  24  31
ATOM     31  O   UNL A   1      31.357  25.266  26.843  1.00  0.00    -0.492 OA
ATOM     32  C   UNL A   1      30.365  25.274  25.826  1.00  0.00     0.278 C 
ENDBRANCH  24  31
ENDBRANCH   9  19
BRANCH  14  33
ATOM     33  C   UNL A   1      32.769  26.134  22.827  1.00  0.00     0.047 A 
ATOM     34  C   UNL A   1      33.896  26.851  22.418  1.00  0.00     0.027 A 
ATOM     35  C   UNL A   1      31.546  26.780  23.048  1.00  0.00     0.047 A 
ATOM     36  C   UNL A   1      33.810  28.236  22.277  1.00  0.00     0.004 A 
ATOM     37  C   UNL A   1      31.493  28.169  22.962  1.00  0.00     0.043 A 
ATOM     38  C   UNL A   1      32.617  28.897  22.575  1.00  0.00     0.020 A 
ATOM     39  Cl  UNL A   1      30.049  28.990  23.410  1.00  0.00    -0.084 Cl
ENDBRANCH  14  33
ENDBRANCH   6   8
ENDBRANCH   5   6
ENDBRANCH   4   5
ENDBRANCH   3   4
ENDBRANCH   2   3
ENDBRANCH   1   2
BRANCH   1  40
ATOM     40  C   UNL A   1      35.571  18.896  24.788  1.00  0.00     0.188 C 
BRANCH  40  41
ATOM     41  O   UNL A   1      36.987  18.824  24.870  1.00  0.00    -0.376 OA
BRANCH  41  42
ATOM     42  C   UNL A   1      37.663  20.074  24.852  1.00  0.00     0.202 C 
BRANCH  42  43
ATOM     43  C   UNL A   1      39.083  19.959  25.381  1.00  0.00     0.261 C 
BRANCH  43  44
ATOM     44  O   UNL A   1      39.661  21.203  25.765  1.00  0.00    -0.460 OA
BRANCH  44  45
ATOM     45  C   UNL A   1      40.457  21.190  26.854  1.00  0.00     0.338 C 
ATOM     46  O   UNL A   1      40.494  20.350  27.733  1.00  0.00    -0.246 OA
BRANCH  45  47
ATOM     47  C   UNL A   1      41.193  22.460  26.884  1.00  0.00     0.060 A 
ATOM     48  C   UNL A   1      42.368  22.556  26.135  1.00  0.00     0.016 A 
ATOM     49  C   UNL A   1      40.852  23.423  27.848  1.00  0.00     0.016 A 
ATOM     50  C   UNL A   1      43.289  23.528  26.473  1.00  0.00     0.010 A 
ATOM     51  C   UNL A   1      41.779  24.372  28.202  1.00  0.00     0.010 A 
ATOM     52  C   UNL A   1      43.015  24.366  27.560  1.00  0.00    -0.014 A 
BRANCH  52  53
ATOM     53  C   UNL A   1      44.075  25.212  28.066  1.00  0.00     0.031 A 
ATOM     54  C   UNL A   1      44.248  25.237  29.529  1.00  0.00     0.074 A 
ATOM     55  C   UNL A   1      44.954  25.804  27.236  1.00  0.00     0.049 A 
ATOM     56  N   UNL A   1      44.195  26.264  30.309  1.00  0.00    -0.248 NA
ATOM     57  C   UNL A   1      44.457  23.954  30.218  1.00  0.00     0.031 C 
ATOM     58  C   UNL A   1      45.097  25.595  25.793  1.00  0.00     0.029 A 
ATOM     59  N   UNL A   1      46.000  26.621  27.544  1.00  0.00    -0.354 N 
ATOM     60  C   UNL A   1      44.523  25.791  31.572  1.00  0.00     0.074 A 
ATOM     61  C   UNL A   1      44.546  24.351  31.486  1.00  0.00     0.031 C 
ATOM     62  C   UNL A   1      46.291  26.086  25.395  1.00  0.00     0.029 A 
ATOM     63  C   UNL A   1      46.936  26.732  26.528  1.00  0.00     0.049 A 
ATOM     64  H   UNL A   1      46.084  27.088  28.407  1.00  0.00     0.167 HD
ATOM     65  C   UNL A   1      44.980  26.614  32.551  1.00  0.00     0.031 A 
ATOM     66  C   UNL A   1      48.183  27.248  26.630  1.00  0.00     0.031 A 
ATOM     67  C   UNL A   1      44.709  28.000  32.285  1.00  0.00     0.049 A 
ATOM     68  C   UNL A   1      48.248  28.067  27.861  1.00  0.00     0.074 A 
ATOM     69  C   UNL A   1      43.568  28.742  32.054  1.00  0.00     0.029 A 
ATOM     70  N   UNL A   1      45.759  28.790  31.883  1.00  0.00    -0.354 N 
ATOM     71  N   UNL A   1      47.657  29.218  27.996  1.00  0.00    -0.248 NA
ATOM     72  C   UNL A   1      48.678  27.442  29.102  1.00  0.00     0.031 C 
ATOM     73  C   UNL A   1      43.954  29.742  31.115  1.00  0.00     0.029 A 
ATOM     74  C   UNL A   1      45.312  29.566  30.844  1.00  0.00     0.049 A 
ATOM     75  H   UNL A   1      46.665  28.797  32.270  1.00  0.00     0.167 HD
ATOM     76  C   UNL A   1      47.250  29.252  29.322  1.00  0.00     0.074 A 
ATOM     77  C   UNL A   1      48.030  28.212  29.982  1.00  0.00     0.031 C 
ATOM     78  C   UNL A   1      46.113  29.916  29.691  1.00  0.00     0.031 A 
BRANCH  65  79
ATOM     79  C   UNL A   1      46.000  26.170  33.563  1.00  0.00    -0.014 A 
ATOM     80  C   UNL A   1      45.566  25.640  34.787  1.00  0.00     0.009 A 
ATOM     81  C   UNL A   1      47.367  26.499  33.455  1.00  0.00     0.009 A 
ATOM     82  C   UNL A   1      46.452  25.480  35.859  1.00  0.00     0.001 A 
ATOM     83  C   UNL A   1      48.261  26.298  34.506  1.00  0.00     0.001 A 
ATOM     84  C   UNL A   1      47.797  25.808  35.718  1.00  0.00     0.000 A 
ENDBRANCH  65  79
BRANCH  66  85
ATOM     85  C   UNL A   1      49.384  26.923  25.834  1.00  0.00    -0.014 A 
ATOM     86  C   UNL A   1      49.584  27.503  24.572  1.00  0.00     0.009 A 
ATOM     87  C   UNL A   1      50.459  26.219  26.409  1.00  0.00     0.009 A 
ATOM     88  C   UNL A   1      50.823  27.406  23.926  1.00  0.00     0.001 A 
ATOM     89  C   UNL A   1      51.691  26.111  25.758  1.00  0.00     0.001 A 
ATOM     90  C   UNL A   1      51.878  26.718  24.523  1.00  0.00     0.000 A 
ENDBRANCH  66  85
BRANCH  78  91
ATOM     91  C   UNL A   1      45.486  30.848  28.681  1.00  0.00    -0.014 A 
ATOM     92  C   UNL A   1      45.869  32.195  28.548  1.00  0.00     0.009 A 
ATOM     93  C   UNL A   1      44.568  30.327  27.757  1.00  0.00     0.009 A 
ATOM     94  C   UNL A   1      45.307  33.010  27.562  1.00  0.00     0.001 A 
ATOM     95  C   UNL A   1      44.025  31.135  26.754  1.00  0.00     0.001 A 
ATOM     96  C   UNL A   1      44.385  32.478  26.664  1.00  0.00     0.000 A 
ENDBRANCH  78  91
ENDBRANCH  52  53
ENDBRANCH  45  47
ENDBRANCH  44  45
ENDBRANCH  43  44
ENDBRANCH  42  43
ENDBRANCH  41  42
ENDBRANCH  40  41
ENDBRANCH   1  40
TORSDOF 23
ENDMDL
