MODEL 1
REMARK VINA RESULT:     -10.0      0.000      0.000
REMARK SMILES O=C(CSc1ccc(NC(=O)c2cccc3ccccc23)cc1)OCCOCCOCCOC(=O)c1ccc(-c2c3nc(c(-c4ccccc4)c4ccc([nH]4)c(-c4ccccc4)c4nc(c(-c5ccccc5)c5ccc2[nH]5)C=C4)C=C3)cc1
REMARK SMILES IDX 28 1 27 2 26 3 25 4 24 5 2 6 1 7 3 8 4 9 5 10 6 11 23 12
REMARK SMILES IDX 7 13 22 14 8 15 9 16 10 17 11 19 12 20 13 21 21 22 14 23
REMARK SMILES IDX 16 24 20 25 15 26 17 27 19 28 18 29 29 30 30 31 31 32 32 33
REMARK SMILES IDX 33 34 34 35 35 36 36 37 37 38 83 39 38 40 82 41 39 42 40 43
REMARK SMILES IDX 41 44 76 45 42 46 81 47 75 48 77 49 43 50 80 51 74 52 73 53
REMARK SMILES IDX 44 55 66 56 51 57 65 58 52 59 55 60 64 61 78 62 53 63 54 64
REMARK SMILES IDX 63 66 79 67 56 68 45 69 46 70 50 71 47 72 49 73 48 74 67 75
REMARK SMILES IDX 68 76 72 77 69 78 71 79 70 80 57 81 58 82 62 83 59 84 61 85
REMARK SMILES IDX 60 86
REMARK H PARENT 9 18 77 54 55 65
REMARK Flexibility Score: inf
ROOT
ATOM      1  C   UNL A   1      39.301  23.103  26.418  1.00  0.00     0.188 C 
ENDROOT
BRANCH   1   2
ATOM      2  O   UNL A   1      37.927  22.969  26.140  1.00  0.00    -0.376 OA
BRANCH   2   3
ATOM      3  C   UNL A   1      37.416  21.695  25.825  1.00  0.00     0.202 C 
BRANCH   3   4
ATOM      4  C   UNL A   1      36.124  21.695  25.009  1.00  0.00     0.261 C 
BRANCH   4   5
ATOM      5  O   UNL A   1      34.972  21.027  25.583  1.00  0.00    -0.463 OA
BRANCH   5   6
ATOM      6  C   UNL A   1      33.840  20.573  25.004  1.00  0.00     0.316 C 
ATOM      7  O   UNL A   1      33.918  19.626  24.220  1.00  0.00    -0.251 OA
BRANCH   6   8
ATOM      8  C   UNL A   1      32.516  21.274  25.206  1.00  0.00     0.197 C 
BRANCH   8   9
ATOM      9  S   UNL A   1      32.576  22.759  26.260  1.00  0.00    -0.114 SA
BRANCH   9  10
ATOM     10  C   UNL A   1      31.269  23.672  25.515  1.00  0.00     0.008 A 
ATOM     11  C   UNL A   1      30.601  24.582  26.320  1.00  0.00     0.017 A 
ATOM     12  C   UNL A   1      30.997  23.615  24.148  1.00  0.00     0.017 A 
ATOM     13  C   UNL A   1      29.809  25.552  25.729  1.00  0.00     0.027 A 
ATOM     14  C   UNL A   1      30.263  24.631  23.552  1.00  0.00     0.027 A 
ATOM     15  C   UNL A   1      29.770  25.668  24.341  1.00  0.00     0.041 A 
BRANCH  15  16
ATOM     16  N   UNL A   1      29.372  26.830  23.670  1.00  0.00    -0.322 N 
ATOM     17  C   UNL A   1      30.099  27.938  23.300  1.00  0.00     0.256 C 
ATOM     18  H   UNL A   1      28.420  26.859  23.423  1.00  0.00     0.170 HD
ATOM     19  O   UNL A   1      29.539  28.866  22.717  1.00  0.00    -0.269 OA
BRANCH  17  20
ATOM     20  C   UNL A   1      31.546  28.063  23.578  1.00  0.00     0.048 A 
ATOM     21  C   UNL A   1      32.368  27.937  22.445  1.00  0.00     0.014 A 
ATOM     22  C   UNL A   1      32.094  28.317  24.869  1.00  0.00    -0.006 A 
ATOM     23  C   UNL A   1      33.745  28.048  22.566  1.00  0.00     0.001 A 
ATOM     24  C   UNL A   1      33.505  28.395  24.962  1.00  0.00    -0.018 A 
ATOM     25  C   UNL A   1      31.350  28.542  26.060  1.00  0.00     0.009 A 
ATOM     26  C   UNL A   1      34.309  28.252  23.821  1.00  0.00     0.009 A 
ATOM     27  C   UNL A   1      34.113  28.642  26.196  1.00  0.00     0.009 A 
ATOM     28  C   UNL A   1      31.976  28.844  27.274  1.00  0.00     0.001 A 
ATOM     29  C   UNL A   1      33.360  28.869  27.342  1.00  0.00     0.001 A 
ENDBRANCH  17  20
ENDBRANCH  15  16
ENDBRANCH   9  10
ENDBRANCH   8   9
ENDBRANCH   6   8
ENDBRANCH   5   6
ENDBRANCH   4   5
ENDBRANCH   3   4
ENDBRANCH   2   3
ENDBRANCH   1   2
BRANCH   1  30
ATOM     30  C   UNL A   1      40.033  21.760  26.543  1.00  0.00     0.188 C 
BRANCH  30  31
ATOM     31  O   UNL A   1      41.116  21.459  25.675  1.00  0.00    -0.376 OA
BRANCH  31  32
ATOM     32  C   UNL A   1      42.446  21.757  26.075  1.00  0.00     0.202 C 
BRANCH  32  33
ATOM     33  C   UNL A   1      43.324  22.619  25.150  1.00  0.00     0.261 C 
BRANCH  33  34
ATOM     34  O   UNL A   1      42.879  23.973  24.910  1.00  0.00    -0.460 OA
BRANCH  34  35
ATOM     35  C   UNL A   1      43.690  24.966  25.343  1.00  0.00     0.338 C 
ATOM     36  O   UNL A   1      44.784  25.279  24.877  1.00  0.00    -0.246 OA
BRANCH  35  37
ATOM     37  C   UNL A   1      43.039  25.767  26.407  1.00  0.00     0.060 A 
ATOM     38  C   UNL A   1      43.324  27.138  26.498  1.00  0.00     0.016 A 
ATOM     39  C   UNL A   1      42.212  25.169  27.358  1.00  0.00     0.016 A 
ATOM     40  C   UNL A   1      42.793  27.911  27.540  1.00  0.00     0.010 A 
ATOM     41  C   UNL A   1      41.703  25.938  28.418  1.00  0.00     0.010 A 
ATOM     42  C   UNL A   1      42.003  27.309  28.529  1.00  0.00    -0.014 A 
BRANCH  42  43
ATOM     43  C   UNL A   1      41.569  28.076  29.731  1.00  0.00     0.031 A 
ATOM     44  C   UNL A   1      40.375  28.990  29.638  1.00  0.00     0.074 A 
ATOM     45  C   UNL A   1      42.247  28.000  30.892  1.00  0.00     0.049 A 
ATOM     46  N   UNL A   1      39.905  29.831  30.524  1.00  0.00    -0.248 NA
ATOM     47  C   UNL A   1      39.620  28.958  28.376  1.00  0.00     0.031 C 
ATOM     48  C   UNL A   1      43.409  27.150  31.134  1.00  0.00     0.029 A 
ATOM     49  N   UNL A   1      42.073  28.677  32.077  1.00  0.00    -0.354 N 
ATOM     50  C   UNL A   1      38.813  30.443  29.923  1.00  0.00     0.074 A 
ATOM     51  C   UNL A   1      38.695  29.884  28.594  1.00  0.00     0.031 C 
ATOM     52  C   UNL A   1      43.867  27.386  32.377  1.00  0.00     0.029 A 
ATOM     53  C   UNL A   1      43.042  28.409  33.015  1.00  0.00     0.049 A 
ATOM     54  H   UNL A   1      41.325  29.296  32.239  1.00  0.00     0.167 HD
ATOM     55  C   UNL A   1      37.986  31.392  30.427  1.00  0.00     0.031 A 
ATOM     56  C   UNL A   1      43.263  28.951  34.231  1.00  0.00     0.031 A 
ATOM     57  C   UNL A   1      38.095  31.964  31.743  1.00  0.00     0.049 A 
ATOM     58  C   UNL A   1      42.364  30.054  34.736  1.00  0.00     0.074 A 
ATOM     59  C   UNL A   1      37.272  32.904  32.342  1.00  0.00     0.029 A 
ATOM     60  N   UNL A   1      39.091  31.667  32.656  1.00  0.00    -0.354 N 
ATOM     61  N   UNL A   1      41.303  30.581  34.178  1.00  0.00    -0.248 NA
ATOM     62  C   UNL A   1      42.706  30.645  36.042  1.00  0.00     0.031 C 
ATOM     63  C   UNL A   1      37.810  33.228  33.591  1.00  0.00     0.029 A 
ATOM     64  C   UNL A   1      38.929  32.439  33.796  1.00  0.00     0.049 A 
ATOM     65  H   UNL A   1      39.807  31.005  32.518  1.00  0.00     0.167 HD
ATOM     66  C   UNL A   1      40.846  31.547  35.068  1.00  0.00     0.074 A 
ATOM     67  C   UNL A   1      41.719  31.511  36.218  1.00  0.00     0.031 C 
ATOM     68  C   UNL A   1      39.801  32.399  34.938  1.00  0.00     0.031 A 
BRANCH  55  69
ATOM     69  C   UNL A   1      36.895  31.915  29.536  1.00  0.00    -0.014 A 
ATOM     70  C   UNL A   1      35.642  31.288  29.470  1.00  0.00     0.009 A 
ATOM     71  C   UNL A   1      37.100  33.107  28.822  1.00  0.00     0.009 A 
ATOM     72  C   UNL A   1      34.621  31.835  28.689  1.00  0.00     0.001 A 
ATOM     73  C   UNL A   1      36.068  33.666  28.065  1.00  0.00     0.001 A 
ATOM     74  C   UNL A   1      34.832  33.027  27.996  1.00  0.00     0.000 A 
ENDBRANCH  55  69
BRANCH  56  75
ATOM     75  C   UNL A   1      44.429  28.534  35.061  1.00  0.00    -0.014 A 
ATOM     76  C   UNL A   1      45.676  29.162  34.910  1.00  0.00     0.009 A 
ATOM     77  C   UNL A   1      44.329  27.427  35.918  1.00  0.00     0.009 A 
ATOM     78  C   UNL A   1      46.810  28.646  35.541  1.00  0.00     0.001 A 
ATOM     79  C   UNL A   1      45.457  26.940  36.582  1.00  0.00     0.001 A 
ATOM     80  C   UNL A   1      46.701  27.529  36.368  1.00  0.00     0.000 A 
ENDBRANCH  56  75
BRANCH  68  81
ATOM     81  C   UNL A   1      39.529  33.345  36.076  1.00  0.00    -0.014 A 
ATOM     82  C   UNL A   1      38.615  33.021  37.091  1.00  0.00     0.009 A 
ATOM     83  C   UNL A   1      40.227  34.561  36.155  1.00  0.00     0.009 A 
ATOM     84  C   UNL A   1      38.383  33.909  38.145  1.00  0.00     0.001 A 
ATOM     85  C   UNL A   1      40.016  35.432  37.225  1.00  0.00     0.001 A 
ATOM     86  C   UNL A   1      39.088  35.110  38.213  1.00  0.00     0.000 A 
ENDBRANCH  68  81
ENDBRANCH  42  43
ENDBRANCH  35  37
ENDBRANCH  34  35
ENDBRANCH  33  34
ENDBRANCH  32  33
ENDBRANCH  31  32
ENDBRANCH  30  31
ENDBRANCH   1  30
TORSDOF 21
ENDMDL
MODEL 2
REMARK VINA RESULT:      -9.9      4.452      7.940
REMARK SMILES O=C(CSc1ccc(NC(=O)c2cccc3ccccc23)cc1)OCCOCCOCCOC(=O)c1ccc(-c2c3nc(c(-c4ccccc4)c4ccc([nH]4)c(-c4ccccc4)c4nc(c(-c5ccccc5)c5ccc2[nH]5)C=C4)C=C3)cc1
REMARK SMILES IDX 28 1 27 2 26 3 25 4 24 5 2 6 1 7 3 8 4 9 5 10 6 11 23 12
REMARK SMILES IDX 7 13 22 14 8 15 9 16 10 17 11 19 12 20 13 21 21 22 14 23
REMARK SMILES IDX 16 24 20 25 15 26 17 27 19 28 18 29 29 30 30 31 31 32 32 33
REMARK SMILES IDX 33 34 34 35 35 36 36 37 37 38 83 39 38 40 82 41 39 42 40 43
REMARK SMILES IDX 41 44 76 45 42 46 81 47 75 48 77 49 43 50 80 51 74 52 73 53
REMARK SMILES IDX 44 55 66 56 51 57 65 58 52 59 55 60 64 61 78 62 53 63 54 64
REMARK SMILES IDX 63 66 79 67 56 68 45 69 46 70 50 71 47 72 49 73 48 74 67 75
REMARK SMILES IDX 68 76 72 77 69 78 71 79 70 80 57 81 58 82 62 83 59 84 61 85
REMARK SMILES IDX 60 86
REMARK H PARENT 9 18 77 54 55 65
REMARK Flexibility Score: inf
ROOT
ATOM      1  C   UNL A   1      39.301  22.167  26.035  1.00  0.00     0.188 C 
ENDROOT
BRANCH   1   2
ATOM      2  O   UNL A   1      38.276  21.457  25.379  1.00  0.00    -0.376 OA
BRANCH   2   3
ATOM      3  C   UNL A   1      36.940  21.867  25.558  1.00  0.00     0.202 C 
BRANCH   3   4
ATOM      4  C   UNL A   1      35.886  20.911  25.001  1.00  0.00     0.261 C 
BRANCH   4   5
ATOM      5  O   UNL A   1      34.521  21.082  25.460  1.00  0.00    -0.463 OA
BRANCH   5   6
ATOM      6  C   UNL A   1      33.363  20.578  24.983  1.00  0.00     0.316 C 
ATOM      7  O   UNL A   1      33.408  19.574  24.269  1.00  0.00    -0.251 OA
BRANCH   6   8
ATOM      8  C   UNL A   1      32.045  21.282  25.207  1.00  0.00     0.197 C 
BRANCH   8   9
ATOM      9  S   UNL A   1      32.113  22.720  26.323  1.00  0.00    -0.114 SA
BRANCH   9  10
ATOM     10  C   UNL A   1      31.071  23.814  25.418  1.00  0.00     0.008 A 
ATOM     11  C   UNL A   1      30.452  24.826  26.134  1.00  0.00     0.017 A 
ATOM     12  C   UNL A   1      30.977  23.780  24.027  1.00  0.00     0.017 A 
ATOM     13  C   UNL A   1      29.904  25.898  25.450  1.00  0.00     0.027 A 
ATOM     14  C   UNL A   1      30.493  24.889  23.347  1.00  0.00     0.027 A 
ATOM     15  C   UNL A   1      30.066  26.000  24.070  1.00  0.00     0.041 A 
BRANCH  15  16
ATOM     16  N   UNL A   1      29.944  27.200  23.361  1.00  0.00    -0.322 N 
ATOM     17  C   UNL A   1      30.704  28.346  23.412  1.00  0.00     0.256 C 
ATOM     18  H   UNL A   1      29.194  27.229  22.723  1.00  0.00     0.170 HD
ATOM     19  O   UNL A   1      30.409  29.303  22.696  1.00  0.00    -0.269 OA
BRANCH  17  20
ATOM     20  C   UNL A   1      31.877  28.478  24.302  1.00  0.00     0.048 A 
ATOM     21  C   UNL A   1      32.878  27.515  24.090  1.00  0.00     0.014 A 
ATOM     22  C   UNL A   1      32.024  29.500  25.285  1.00  0.00    -0.006 A 
ATOM     23  C   UNL A   1      34.038  27.535  24.851  1.00  0.00     0.001 A 
ATOM     24  C   UNL A   1      33.206  29.474  26.064  1.00  0.00    -0.018 A 
ATOM     25  C   UNL A   1      31.112  30.565  25.523  1.00  0.00     0.009 A 
ATOM     26  C   UNL A   1      34.189  28.495  25.846  1.00  0.00     0.009 A 
ATOM     27  C   UNL A   1      33.420  30.444  27.047  1.00  0.00     0.009 A 
ATOM     28  C   UNL A   1      31.371  31.559  26.472  1.00  0.00     0.001 A 
ATOM     29  C   UNL A   1      32.516  31.480  27.249  1.00  0.00     0.001 A 
ENDBRANCH  17  20
ENDBRANCH  15  16
ENDBRANCH   9  10
ENDBRANCH   8   9
ENDBRANCH   6   8
ENDBRANCH   5   6
ENDBRANCH   4   5
ENDBRANCH   3   4
ENDBRANCH   2   3
ENDBRANCH   1   2
BRANCH   1  30
ATOM     30  C   UNL A   1      40.112  21.305  27.012  1.00  0.00     0.188 C 
BRANCH  30  31
ATOM     31  O   UNL A   1      40.822  20.171  26.535  1.00  0.00    -0.376 OA
BRANCH  31  32
ATOM     32  C   UNL A   1      42.173  20.307  26.116  1.00  0.00     0.202 C 
BRANCH  32  33
ATOM     33  C   UNL A   1      42.911  19.070  25.574  1.00  0.00     0.261 C 
BRANCH  33  34
ATOM     34  O   UNL A   1      43.502  19.192  24.261  1.00  0.00    -0.460 OA
BRANCH  34  35
ATOM     35  C   UNL A   1      44.824  19.479  24.213  1.00  0.00     0.338 C 
ATOM     36  O   UNL A   1      45.729  18.726  23.859  1.00  0.00    -0.246 OA
BRANCH  35  37
ATOM     37  C   UNL A   1      45.074  20.908  24.518  1.00  0.00     0.060 A 
ATOM     38  C   UNL A   1      45.635  21.252  25.759  1.00  0.00     0.016 A 
ATOM     39  C   UNL A   1      44.695  21.914  23.630  1.00  0.00     0.016 A 
ATOM     40  C   UNL A   1      45.810  22.596  26.116  1.00  0.00     0.010 A 
ATOM     41  C   UNL A   1      44.845  23.261  24.001  1.00  0.00     0.010 A 
ATOM     42  C   UNL A   1      45.385  23.614  25.252  1.00  0.00    -0.014 A 
BRANCH  42  43
ATOM     43  C   UNL A   1      45.408  25.041  25.682  1.00  0.00     0.031 A 
ATOM     44  C   UNL A   1      46.718  25.783  25.721  1.00  0.00     0.074 A 
ATOM     45  C   UNL A   1      44.286  25.670  26.078  1.00  0.00     0.049 A 
ATOM     46  N   UNL A   1      46.976  26.984  26.174  1.00  0.00    -0.248 NA
ATOM     47  C   UNL A   1      47.892  25.074  25.188  1.00  0.00     0.031 C 
ATOM     48  C   UNL A   1      42.949  25.085  26.082  1.00  0.00     0.029 A 
ATOM     49  N   UNL A   1      44.100  26.935  26.588  1.00  0.00    -0.354 N 
ATOM     50  C   UNL A   1      48.342  27.169  26.001  1.00  0.00     0.074 A 
ATOM     51  C   UNL A   1      48.859  25.954  25.409  1.00  0.00     0.031 C 
ATOM     52  C   UNL A   1      42.087  25.975  26.605  1.00  0.00     0.029 A 
ATOM     53  C   UNL A   1      42.809  27.187  26.986  1.00  0.00     0.049 A 
ATOM     54  H   UNL A   1      44.825  27.598  26.660  1.00  0.00     0.167 HD
ATOM     55  C   UNL A   1      49.100  28.248  26.313  1.00  0.00     0.031 A 
ATOM     56  C   UNL A   1      42.275  28.253  27.617  1.00  0.00     0.031 A 
ATOM     57  C   UNL A   1      48.601  29.460  26.909  1.00  0.00     0.049 A 
ATOM     58  C   UNL A   1      43.160  29.412  28.012  1.00  0.00     0.074 A 
ATOM     59  C   UNL A   1      49.301  30.615  27.221  1.00  0.00     0.029 A 
ATOM     60  N   UNL A   1      47.291  29.671  27.298  1.00  0.00    -0.354 N 
ATOM     61  N   UNL A   1      44.438  29.594  27.790  1.00  0.00    -0.248 NA
ATOM     62  C   UNL A   1      42.523  30.511  28.759  1.00  0.00     0.031 C 
ATOM     63  C   UNL A   1      48.428  31.497  27.863  1.00  0.00     0.029 A 
ATOM     64  C   UNL A   1      47.170  30.919  27.889  1.00  0.00     0.049 A 
ATOM     65  H   UNL A   1      46.553  29.031  27.173  1.00  0.00     0.167 HD
ATOM     66  C   UNL A   1      44.749  30.828  28.352  1.00  0.00     0.074 A 
ATOM     67  C   UNL A   1      43.524  31.368  28.894  1.00  0.00     0.031 C 
ATOM     68  C   UNL A   1      45.949  31.452  28.425  1.00  0.00     0.031 A 
BRANCH  55  69
ATOM     69  C   UNL A   1      50.578  28.166  26.052  1.00  0.00    -0.014 A 
ATOM     70  C   UNL A   1      51.128  28.576  24.829  1.00  0.00     0.009 A 
ATOM     71  C   UNL A   1      51.438  27.753  27.083  1.00  0.00     0.009 A 
ATOM     72  C   UNL A   1      52.512  28.557  24.638  1.00  0.00     0.001 A 
ATOM     73  C   UNL A   1      52.821  27.761  26.898  1.00  0.00     0.001 A 
ATOM     74  C   UNL A   1      53.356  28.159  25.675  1.00  0.00     0.000 A 
ENDBRANCH  55  69
BRANCH  56  75
ATOM     75  C   UNL A   1      40.836  28.281  28.004  1.00  0.00    -0.014 A 
ATOM     76  C   UNL A   1      39.896  28.964  27.215  1.00  0.00     0.009 A 
ATOM     77  C   UNL A   1      40.419  27.728  29.224  1.00  0.00     0.009 A 
ATOM     78  C   UNL A   1      38.592  29.156  27.675  1.00  0.00     0.001 A 
ATOM     79  C   UNL A   1      39.102  27.884  29.662  1.00  0.00     0.001 A 
ATOM     80  C   UNL A   1      38.199  28.625  28.902  1.00  0.00     0.000 A 
ENDBRANCH  56  75
BRANCH  68  81
ATOM     81  C   UNL A   1      45.992  32.800  29.093  1.00  0.00    -0.014 A 
ATOM     82  C   UNL A   1      46.199  32.920  30.477  1.00  0.00     0.009 A 
ATOM     83  C   UNL A   1      45.866  33.966  28.324  1.00  0.00     0.009 A 
ATOM     84  C   UNL A   1      46.246  34.180  31.079  1.00  0.00     0.001 A 
ATOM     85  C   UNL A   1      45.944  35.225  28.922  1.00  0.00     0.001 A 
ATOM     86  C   UNL A   1      46.124  35.330  30.300  1.00  0.00     0.000 A 
ENDBRANCH  68  81
ENDBRANCH  42  43
ENDBRANCH  35  37
ENDBRANCH  34  35
ENDBRANCH  33  34
ENDBRANCH  32  33
ENDBRANCH  31  32
ENDBRANCH  30  31
ENDBRANCH   1  30
TORSDOF 21
ENDMDL
MODEL 3
REMARK VINA RESULT:      -9.6      2.682      8.420
REMARK SMILES O=C(CSc1ccc(NC(=O)c2cccc3ccccc23)cc1)OCCOCCOCCOC(=O)c1ccc(-c2c3nc(c(-c4ccccc4)c4ccc([nH]4)c(-c4ccccc4)c4nc(c(-c5ccccc5)c5ccc2[nH]5)C=C4)C=C3)cc1
REMARK SMILES IDX 28 1 27 2 26 3 25 4 24 5 2 6 1 7 3 8 4 9 5 10 6 11 23 12
REMARK SMILES IDX 7 13 22 14 8 15 9 16 10 17 11 19 12 20 13 21 21 22 14 23
REMARK SMILES IDX 16 24 20 25 15 26 17 27 19 28 18 29 29 30 30 31 31 32 32 33
REMARK SMILES IDX 33 34 34 35 35 36 36 37 37 38 83 39 38 40 82 41 39 42 40 43
REMARK SMILES IDX 41 44 76 45 42 46 81 47 75 48 77 49 43 50 80 51 74 52 73 53
REMARK SMILES IDX 44 55 66 56 51 57 65 58 52 59 55 60 64 61 78 62 53 63 54 64
REMARK SMILES IDX 63 66 79 67 56 68 45 69 46 70 50 71 47 72 49 73 48 74 67 75
REMARK SMILES IDX 68 76 72 77 69 78 71 79 70 80 57 81 58 82 62 83 59 84 61 85
REMARK SMILES IDX 60 86
REMARK H PARENT 9 18 77 54 55 65
REMARK Flexibility Score: inf
ROOT
ATOM      1  C   UNL A   1      32.404  28.787  24.697  1.00  0.00     0.188 C 
ENDROOT
BRANCH   1   2
ATOM      2  O   UNL A   1      33.571  28.679  23.915  1.00  0.00    -0.376 OA
BRANCH   2   3
ATOM      3  C   UNL A   1      33.461  28.230  22.585  1.00  0.00     0.202 C 
BRANCH   3   4
ATOM      4  C   UNL A   1      33.265  26.723  22.420  1.00  0.00     0.261 C 
BRANCH   4   5
ATOM      5  O   UNL A   1      31.926  26.252  22.125  1.00  0.00    -0.463 OA
BRANCH   5   6
ATOM      6  C   UNL A   1      30.820  26.203  22.897  1.00  0.00     0.316 C 
ATOM      7  O   UNL A   1      30.046  27.163  22.879  1.00  0.00    -0.251 OA
BRANCH   6   8
ATOM      8  C   UNL A   1      30.581  25.064  23.861  1.00  0.00     0.197 C 
BRANCH   8   9
ATOM      9  S   UNL A   1      30.425  25.546  25.610  1.00  0.00    -0.114 SA
BRANCH   9  10
ATOM     10  C   UNL A   1      31.927  24.857  26.216  1.00  0.00     0.008 A 
ATOM     11  C   UNL A   1      31.830  23.680  26.941  1.00  0.00     0.017 A 
ATOM     12  C   UNL A   1      33.179  25.366  25.870  1.00  0.00     0.017 A 
ATOM     13  C   UNL A   1      32.969  22.922  27.152  1.00  0.00     0.027 A 
ATOM     14  C   UNL A   1      34.306  24.570  26.018  1.00  0.00     0.027 A 
ATOM     15  C   UNL A   1      34.172  23.292  26.555  1.00  0.00     0.041 A 
BRANCH  15  16
ATOM     16  N   UNL A   1      35.238  22.409  26.344  1.00  0.00    -0.322 N 
ATOM     17  C   UNL A   1      35.351  21.336  25.490  1.00  0.00     0.256 C 
ATOM     18  H   UNL A   1      36.035  22.584  26.895  1.00  0.00     0.170 HD
ATOM     19  O   UNL A   1      36.391  20.680  25.473  1.00  0.00    -0.269 OA
BRANCH  17  20
ATOM     20  C   UNL A   1      34.258  20.933  24.578  1.00  0.00     0.048 A 
ATOM     21  C   UNL A   1      33.561  22.007  23.998  1.00  0.00     0.014 A 
ATOM     22  C   UNL A   1      33.931  19.581  24.272  1.00  0.00    -0.006 A 
ATOM     23  C   UNL A   1      32.521  21.765  23.112  1.00  0.00     0.001 A 
ATOM     24  C   UNL A   1      32.845  19.369  23.388  1.00  0.00    -0.018 A 
ATOM     25  C   UNL A   1      34.622  18.429  24.739  1.00  0.00     0.009 A 
ATOM     26  C   UNL A   1      32.152  20.454  22.829  1.00  0.00     0.009 A 
ATOM     27  C   UNL A   1      32.467  18.069  23.040  1.00  0.00     0.009 A 
ATOM     28  C   UNL A   1      34.263  17.139  24.335  1.00  0.00     0.001 A 
ATOM     29  C   UNL A   1      33.168  16.963  23.504  1.00  0.00     0.001 A 
ENDBRANCH  17  20
ENDBRANCH  15  16
ENDBRANCH   9  10
ENDBRANCH   8   9
ENDBRANCH   6   8
ENDBRANCH   5   6
ENDBRANCH   4   5
ENDBRANCH   3   4
ENDBRANCH   2   3
ENDBRANCH   1   2
BRANCH   1  30
ATOM     30  C   UNL A   1      32.640  29.457  26.057  1.00  0.00     0.188 C 
BRANCH  30  31
ATOM     31  O   UNL A   1      32.894  30.853  26.125  1.00  0.00    -0.376 OA
BRANCH  31  32
ATOM     32  C   UNL A   1      32.819  31.526  27.374  1.00  0.00     0.202 C 
BRANCH  32  33
ATOM     33  C   UNL A   1      31.947  32.790  27.486  1.00  0.00     0.261 C 
BRANCH  33  34
ATOM     34  O   UNL A   1      32.645  34.048  27.619  1.00  0.00    -0.460 OA
BRANCH  34  35
ATOM     35  C   UNL A   1      33.139  34.343  28.845  1.00  0.00     0.338 C 
ATOM     36  O   UNL A   1      32.576  34.983  29.731  1.00  0.00    -0.246 OA
BRANCH  35  37
ATOM     37  C   UNL A   1      34.438  33.669  29.078  1.00  0.00     0.060 A 
ATOM     38  C   UNL A   1      34.591  32.854  30.210  1.00  0.00     0.016 A 
ATOM     39  C   UNL A   1      35.528  33.892  28.235  1.00  0.00     0.016 A 
ATOM     40  C   UNL A   1      35.830  32.268  30.507  1.00  0.00     0.010 A 
ATOM     41  C   UNL A   1      36.776  33.326  28.549  1.00  0.00     0.010 A 
ATOM     42  C   UNL A   1      36.942  32.527  29.696  1.00  0.00    -0.014 A 
BRANCH  42  43
ATOM     43  C   UNL A   1      38.300  32.051  30.087  1.00  0.00     0.031 A 
ATOM     44  C   UNL A   1      38.820  30.751  29.531  1.00  0.00     0.074 A 
ATOM     45  C   UNL A   1      39.057  32.740  30.961  1.00  0.00     0.049 A 
ATOM     46  N   UNL A   1      39.916  30.101  29.831  1.00  0.00    -0.248 NA
ATOM     47  C   UNL A   1      37.989  30.094  28.510  1.00  0.00     0.031 C 
ATOM     48  C   UNL A   1      38.692  34.016  31.569  1.00  0.00     0.029 A 
ATOM     49  N   UNL A   1      40.281  32.441  31.516  1.00  0.00    -0.354 N 
ATOM     50  C   UNL A   1      39.899  28.951  29.054  1.00  0.00     0.074 A 
ATOM     51  C   UNL A   1      38.680  28.987  28.274  1.00  0.00     0.031 C 
ATOM     52  C   UNL A   1      39.653  34.371  32.441  1.00  0.00     0.029 A 
ATOM     53  C   UNL A   1      40.694  33.346  32.465  1.00  0.00     0.049 A 
ATOM     54  H   UNL A   1      40.811  31.653  31.257  1.00  0.00     0.167 HD
ATOM     55  C   UNL A   1      40.810  27.949  28.998  1.00  0.00     0.031 A 
ATOM     56  C   UNL A   1      41.765  33.333  33.285  1.00  0.00     0.031 A 
ATOM     57  C   UNL A   1      42.023  27.895  29.772  1.00  0.00     0.049 A 
ATOM     58  C   UNL A   1      42.727  32.170  33.246  1.00  0.00     0.074 A 
ATOM     59  C   UNL A   1      43.017  26.930  29.745  1.00  0.00     0.029 A 
ATOM     60  N   UNL A   1      42.399  28.829  30.721  1.00  0.00    -0.354 N 
ATOM     61  N   UNL A   1      42.726  31.118  32.465  1.00  0.00    -0.248 NA
ATOM     62  C   UNL A   1      43.836  32.190  34.216  1.00  0.00     0.031 C 
ATOM     63  C   UNL A   1      43.961  27.245  30.727  1.00  0.00     0.029 A 
ATOM     64  C   UNL A   1      43.588  28.439  31.318  1.00  0.00     0.049 A 
ATOM     65  H   UNL A   1      41.898  29.648  30.940  1.00  0.00     0.167 HD
ATOM     66  C   UNL A   1      43.835  30.367  32.839  1.00  0.00     0.074 A 
ATOM     67  C   UNL A   1      44.508  31.096  33.889  1.00  0.00     0.031 C 
ATOM     68  C   UNL A   1      44.254  29.170  32.362  1.00  0.00     0.031 A 
BRANCH  55  69
ATOM     69  C   UNL A   1      40.522  26.788  28.088  1.00  0.00    -0.014 A 
ATOM     70  C   UNL A   1      41.012  26.750  26.775  1.00  0.00     0.009 A 
ATOM     71  C   UNL A   1      39.822  25.678  28.588  1.00  0.00     0.009 A 
ATOM     72  C   UNL A   1      40.790  25.627  25.974  1.00  0.00     0.001 A 
ATOM     73  C   UNL A   1      39.626  24.547  27.794  1.00  0.00     0.001 A 
ATOM     74  C   UNL A   1      40.106  24.525  26.486  1.00  0.00     0.000 A 
ENDBRANCH  55  69
BRANCH  56  75
ATOM     75  C   UNL A   1      41.982  34.414  34.288  1.00  0.00    -0.014 A 
ATOM     76  C   UNL A   1      41.440  34.310  35.580  1.00  0.00     0.009 A 
ATOM     77  C   UNL A   1      42.627  35.604  33.920  1.00  0.00     0.009 A 
ATOM     78  C   UNL A   1      41.474  35.400  36.452  1.00  0.00     0.001 A 
ATOM     79  C   UNL A   1      42.698  36.678  34.810  1.00  0.00     0.001 A 
ATOM     80  C   UNL A   1      42.094  36.586  36.062  1.00  0.00     0.000 A 
ENDBRANCH  56  75
BRANCH  68  81
ATOM     81  C   UNL A   1      45.507  28.584  32.954  1.00  0.00    -0.014 A 
ATOM     82  C   UNL A   1      45.453  27.695  34.040  1.00  0.00     0.009 A 
ATOM     83  C   UNL A   1      46.755  28.894  32.393  1.00  0.00     0.009 A 
ATOM     84  C   UNL A   1      46.627  27.154  34.570  1.00  0.00     0.001 A 
ATOM     85  C   UNL A   1      47.924  28.328  32.904  1.00  0.00     0.001 A 
ATOM     86  C   UNL A   1      47.860  27.466  33.998  1.00  0.00     0.000 A 
ENDBRANCH  68  81
ENDBRANCH  42  43
ENDBRANCH  35  37
ENDBRANCH  34  35
ENDBRANCH  33  34
ENDBRANCH  32  33
ENDBRANCH  31  32
ENDBRANCH  30  31
ENDBRANCH   1  30
TORSDOF 21
ENDMDL
