MODEL 1
REMARK VINA RESULT:      -9.5      0.000      0.000
REMARK SMILES Cc1cc(N(C)C(C)C)cc(C(=O)OCCOCCOCCOC(=O)c2ccc(-c3c4nc(c(-c5ccccc5)c5ccc([nH]5)c(-c5ccccc5)c5nc(c(-c6ccccc6)c6ccc3[nH]6)C=C5)C=C4)cc2)c1N
REMARK SMILES IDX 18 1 17 2 16 3 15 4 14 5 12 6 13 7 11 8 1 9 2 10 3 11 74 12
REMARK SMILES IDX 4 13 10 14 75 15 5 18 6 19 7 20 8 21 9 22 19 23 20 24 21 25
REMARK SMILES IDX 22 26 23 27 24 28 25 29 26 30 27 31 73 32 28 33 72 34 29 35
REMARK SMILES IDX 30 36 31 37 66 38 32 39 71 40 65 41 67 42 33 43 70 44 64 45
REMARK SMILES IDX 63 46 34 48 56 49 41 50 55 51 42 52 45 53 54 54 68 55 43 56
REMARK SMILES IDX 44 57 53 59 69 60 46 61 35 62 36 63 40 64 37 65 39 66 38 67
REMARK SMILES IDX 57 68 58 69 62 70 59 71 61 72 60 73 47 74 48 75 52 76 49 77
REMARK SMILES IDX 51 78 50 79
REMARK H PARENT 75 16 75 17 67 47 45 58
REMARK Flexibility Score: inf
ROOT
ATOM      1  C   UNL A   1      34.733  33.851  29.173  1.00  0.00     0.188 C 
ENDROOT
BRANCH   1   2
ATOM      2  O   UNL A   1      34.379  32.488  29.170  1.00  0.00    -0.376 OA
BRANCH   2   3
ATOM      3  C   UNL A   1      34.484  31.720  27.988  1.00  0.00     0.202 C 
BRANCH   3   4
ATOM      4  C   UNL A   1      34.927  30.244  27.930  1.00  0.00     0.261 C 
BRANCH   4   5
ATOM      5  O   UNL A   1      34.607  29.488  26.760  1.00  0.00    -0.460 OA
BRANCH   5   6
ATOM      6  C   UNL A   1      33.524  28.676  26.832  1.00  0.00     0.340 C 
ATOM      7  O   UNL A   1      32.576  28.805  27.590  1.00  0.00    -0.246 OA
BRANCH   6   8
ATOM      8  C   UNL A   1      33.572  27.702  25.708  1.00  0.00     0.085 A 
ATOM      9  C   UNL A   1      33.593  27.639  21.904  1.00  0.00     0.047 C 
ATOM     10  C   UNL A   1      33.609  27.237  23.354  1.00  0.00    -0.025 A 
ATOM     11  C   UNL A   1      33.768  25.867  23.667  1.00  0.00     0.031 A 
ATOM     12  C   UNL A   1      33.498  28.178  24.386  1.00  0.00     0.049 A 
ATOM     13  C   UNL A   1      33.834  25.361  24.973  1.00  0.00     0.038 A 
ATOM     14  C   UNL A   1      33.723  26.326  25.988  1.00  0.00     0.043 A 
BRANCH  12  15
ATOM     15  N   UNL A   1      33.516  29.546  24.098  1.00  0.00    -0.398 N 
ATOM     16  H   UNL A   1      32.762  30.117  24.373  1.00  0.00     0.156 HD
ATOM     17  H   UNL A   1      34.283  29.939  23.621  1.00  0.00     0.156 HD
ENDBRANCH  12  15
BRANCH  13  18
ATOM     18  N   UNL A   1      34.024  24.010  25.243  1.00  0.00    -0.372 N 
ATOM     19  C   UNL A   1      32.894  23.083  25.117  1.00  0.00     0.144 C 
BRANCH  18  20
ATOM     20  C   UNL A   1      35.327  23.360  25.531  1.00  0.00     0.075 C 
ATOM     21  C   UNL A   1      35.185  21.990  26.191  1.00  0.00     0.030 C 
ATOM     22  C   UNL A   1      36.272  23.378  24.330  1.00  0.00     0.030 C 
ENDBRANCH  18  20
ENDBRANCH  13  18
ENDBRANCH   6   8
ENDBRANCH   5   6
ENDBRANCH   4   5
ENDBRANCH   3   4
ENDBRANCH   2   3
ENDBRANCH   1   2
BRANCH   1  23
ATOM     23  C   UNL A   1      33.692  34.771  29.844  1.00  0.00     0.188 C 
BRANCH  23  24
ATOM     24  O   UNL A   1      33.293  34.535  31.191  1.00  0.00    -0.376 OA
BRANCH  24  25
ATOM     25  C   UNL A   1      34.243  34.677  32.238  1.00  0.00     0.202 C 
BRANCH  25  26
ATOM     26  C   UNL A   1      34.557  33.478  33.144  1.00  0.00     0.261 C 
BRANCH  26  27
ATOM     27  O   UNL A   1      35.366  32.457  32.536  1.00  0.00    -0.460 OA
BRANCH  27  28
ATOM     28  C   UNL A   1      36.462  32.089  33.245  1.00  0.00     0.338 C 
ATOM     29  O   UNL A   1      36.635  32.169  34.446  1.00  0.00    -0.246 OA
BRANCH  28  30
ATOM     30  C   UNL A   1      37.422  31.413  32.351  1.00  0.00     0.060 A 
ATOM     31  C   UNL A   1      38.529  30.774  32.925  1.00  0.00     0.016 A 
ATOM     32  C   UNL A   1      37.280  31.477  30.964  1.00  0.00     0.016 A 
ATOM     33  C   UNL A   1      39.515  30.216  32.112  1.00  0.00     0.010 A 
ATOM     34  C   UNL A   1      38.280  30.936  30.150  1.00  0.00     0.010 A 
ATOM     35  C   UNL A   1      39.416  30.331  30.720  1.00  0.00    -0.014 A 
BRANCH  35  36
ATOM     36  C   UNL A   1      40.573  29.972  29.867  1.00  0.00     0.031 A 
ATOM     37  C   UNL A   1      40.621  28.599  29.253  1.00  0.00     0.074 A 
ATOM     38  C   UNL A   1      41.561  30.852  29.625  1.00  0.00     0.049 A 
ATOM     39  N   UNL A   1      41.556  28.050  28.522  1.00  0.00    -0.248 NA
ATOM     40  C   UNL A   1      39.458  27.731  29.500  1.00  0.00     0.031 C 
ATOM     41  C   UNL A   1      41.612  32.227  30.117  1.00  0.00     0.029 A 
ATOM     42  N   UNL A   1      42.722  30.705  28.907  1.00  0.00    -0.354 N 
ATOM     43  C   UNL A   1      41.096  26.772  28.223  1.00  0.00     0.074 A 
ATOM     44  C   UNL A   1      39.814  26.619  28.875  1.00  0.00     0.031 C 
ATOM     45  C   UNL A   1      42.759  32.794  29.701  1.00  0.00     0.029 A 
ATOM     46  C   UNL A   1      43.532  31.814  28.940  1.00  0.00     0.049 A 
ATOM     47  H   UNL A   1      42.951  29.884  28.414  1.00  0.00     0.167 HD
ATOM     48  C   UNL A   1      41.686  25.813  27.471  1.00  0.00     0.031 A 
ATOM     49  C   UNL A   1      44.767  32.002  28.438  1.00  0.00     0.031 A 
ATOM     50  C   UNL A   1      42.970  25.951  26.840  1.00  0.00     0.049 A 
ATOM     51  C   UNL A   1      45.443  30.887  27.682  1.00  0.00     0.074 A 
ATOM     52  C   UNL A   1      43.649  25.034  26.056  1.00  0.00     0.029 A 
ATOM     53  N   UNL A   1      43.774  27.077  26.927  1.00  0.00    -0.354 N 
ATOM     54  N   UNL A   1      44.989  29.692  27.387  1.00  0.00    -0.248 NA
ATOM     55  C   UNL A   1      46.801  31.151  27.184  1.00  0.00     0.031 C 
ATOM     56  C   UNL A   1      44.887  25.585  25.711  1.00  0.00     0.029 A 
ATOM     57  C   UNL A   1      44.952  26.869  26.232  1.00  0.00     0.049 A 
ATOM     58  H   UNL A   1      43.541  27.902  27.411  1.00  0.00     0.167 HD
ATOM     59  C   UNL A   1      45.991  29.077  26.645  1.00  0.00     0.074 A 
ATOM     60  C   UNL A   1      47.070  30.035  26.522  1.00  0.00     0.031 C 
ATOM     61  C   UNL A   1      46.015  27.831  26.111  1.00  0.00     0.031 A 
BRANCH  48  62
ATOM     62  C   UNL A   1      40.955  24.510  27.317  1.00  0.00    -0.014 A 
ATOM     63  C   UNL A   1      39.780  24.422  26.555  1.00  0.00     0.009 A 
ATOM     64  C   UNL A   1      41.471  23.347  27.910  1.00  0.00     0.009 A 
ATOM     65  C   UNL A   1      39.121  23.199  26.414  1.00  0.00     0.001 A 
ATOM     66  C   UNL A   1      40.824  22.121  27.745  1.00  0.00     0.001 A 
ATOM     67  C   UNL A   1      39.646  22.050  27.004  1.00  0.00     0.000 A 
ENDBRANCH  48  62
BRANCH  49  68
ATOM     68  C   UNL A   1      45.475  33.292  28.654  1.00  0.00    -0.014 A 
ATOM     69  C   UNL A   1      45.363  34.338  27.725  1.00  0.00     0.009 A 
ATOM     70  C   UNL A   1      46.305  33.466  29.774  1.00  0.00     0.009 A 
ATOM     71  C   UNL A   1      46.090  35.518  27.897  1.00  0.00     0.001 A 
ATOM     72  C   UNL A   1      47.008  34.658  29.957  1.00  0.00     0.001 A 
ATOM     73  C   UNL A   1      46.909  35.678  29.013  1.00  0.00     0.000 A 
ENDBRANCH  49  68
BRANCH  61  74
ATOM     74  C   UNL A   1      47.225  27.446  25.307  1.00  0.00    -0.014 A 
ATOM     75  C   UNL A   1      48.289  26.734  25.880  1.00  0.00     0.009 A 
ATOM     76  C   UNL A   1      47.277  27.760  23.939  1.00  0.00     0.009 A 
ATOM     77  C   UNL A   1      49.395  26.373  25.107  1.00  0.00     0.001 A 
ATOM     78  C   UNL A   1      48.369  27.373  23.163  1.00  0.00     0.001 A 
ATOM     79  C   UNL A   1      49.432  26.688  23.749  1.00  0.00     0.000 A 
ENDBRANCH  61  74
ENDBRANCH  35  36
ENDBRANCH  28  30
ENDBRANCH  27  28
ENDBRANCH  26  27
ENDBRANCH  25  26
ENDBRANCH  24  25
ENDBRANCH  23  24
ENDBRANCH   1  23
TORSDOF 20
ENDMDL
MODEL 2
REMARK VINA RESULT:      -9.1      1.299      6.117
REMARK SMILES Cc1cc(N(C)C(C)C)cc(C(=O)OCCOCCOCCOC(=O)c2ccc(-c3c4nc(c(-c5ccccc5)c5ccc([nH]5)c(-c5ccccc5)c5nc(c(-c6ccccc6)c6ccc3[nH]6)C=C5)C=C4)cc2)c1N
REMARK SMILES IDX 18 1 17 2 16 3 15 4 14 5 12 6 13 7 11 8 1 9 2 10 3 11 74 12
REMARK SMILES IDX 4 13 10 14 75 15 5 18 6 19 7 20 8 21 9 22 19 23 20 24 21 25
REMARK SMILES IDX 22 26 23 27 24 28 25 29 26 30 27 31 73 32 28 33 72 34 29 35
REMARK SMILES IDX 30 36 31 37 66 38 32 39 71 40 65 41 67 42 33 43 70 44 64 45
REMARK SMILES IDX 63 46 34 48 56 49 41 50 55 51 42 52 45 53 54 54 68 55 43 56
REMARK SMILES IDX 44 57 53 59 69 60 46 61 35 62 36 63 40 64 37 65 39 66 38 67
REMARK SMILES IDX 57 68 58 69 62 70 59 71 61 72 60 73 47 74 48 75 52 76 49 77
REMARK SMILES IDX 51 78 50 79
REMARK H PARENT 75 16 75 17 67 47 45 58
REMARK Flexibility Score: inf
ROOT
ATOM      1  C   UNL A   1      34.170  33.177  28.087  1.00  0.00     0.188 C 
ENDROOT
BRANCH   1   2
ATOM      2  O   UNL A   1      34.533  31.818  28.127  1.00  0.00    -0.376 OA
BRANCH   2   3
ATOM      3  C   UNL A   1      33.844  30.866  27.339  1.00  0.00     0.202 C 
BRANCH   3   4
ATOM      4  C   UNL A   1      34.419  29.506  26.893  1.00  0.00     0.261 C 
BRANCH   4   5
ATOM      5  O   UNL A   1      33.506  28.496  26.461  1.00  0.00    -0.460 OA
BRANCH   5   6
ATOM      6  C   UNL A   1      33.272  28.410  25.128  1.00  0.00     0.340 C 
ATOM      7  O   UNL A   1      33.858  29.028  24.253  1.00  0.00    -0.246 OA
BRANCH   6   8
ATOM      8  C   UNL A   1      32.315  27.301  24.873  1.00  0.00     0.085 A 
ATOM      9  C   UNL A   1      28.719  26.751  23.758  1.00  0.00     0.047 C 
ATOM     10  C   UNL A   1      30.138  26.537  24.211  1.00  0.00    -0.025 A 
ATOM     11  C   UNL A   1      30.615  25.209  24.315  1.00  0.00     0.031 A 
ATOM     12  C   UNL A   1      30.993  27.608  24.503  1.00  0.00     0.049 A 
ATOM     13  C   UNL A   1      31.923  24.871  24.691  1.00  0.00     0.038 A 
ATOM     14  C   UNL A   1      32.759  25.963  24.976  1.00  0.00     0.043 A 
BRANCH  12  15
ATOM     15  N   UNL A   1      30.593  28.921  24.239  1.00  0.00    -0.398 N 
ATOM     16  H   UNL A   1      31.054  29.446  23.544  1.00  0.00     0.156 HD
ATOM     17  H   UNL A   1      29.850  29.322  24.746  1.00  0.00     0.156 HD
ENDBRANCH  12  15
BRANCH  13  18
ATOM     18  N   UNL A   1      32.366  23.554  24.751  1.00  0.00    -0.372 N 
ATOM     19  C   UNL A   1      33.665  23.202  24.169  1.00  0.00     0.144 C 
BRANCH  18  20
ATOM     20  C   UNL A   1      31.698  22.450  25.484  1.00  0.00     0.075 C 
ATOM     21  C   UNL A   1      32.612  21.252  25.734  1.00  0.00     0.030 C 
ATOM     22  C   UNL A   1      30.952  22.934  26.727  1.00  0.00     0.030 C 
ENDBRANCH  18  20
ENDBRANCH  13  18
ENDBRANCH   6   8
ENDBRANCH   5   6
ENDBRANCH   4   5
ENDBRANCH   3   4
ENDBRANCH   2   3
ENDBRANCH   1   2
BRANCH   1  23
ATOM     23  C   UNL A   1      34.569  33.972  29.349  1.00  0.00     0.188 C 
BRANCH  23  24
ATOM     24  O   UNL A   1      33.658  34.086  30.438  1.00  0.00    -0.376 OA
BRANCH  24  25
ATOM     25  C   UNL A   1      34.082  34.711  31.643  1.00  0.00     0.202 C 
BRANCH  25  26
ATOM     26  C   UNL A   1      34.275  33.863  32.908  1.00  0.00     0.261 C 
BRANCH  26  27
ATOM     27  O   UNL A   1      34.886  32.581  32.689  1.00  0.00    -0.460 OA
BRANCH  27  28
ATOM     28  C   UNL A   1      36.052  32.375  33.351  1.00  0.00     0.338 C 
ATOM     29  O   UNL A   1      36.313  32.654  34.506  1.00  0.00    -0.246 OA
BRANCH  28  30
ATOM     30  C   UNL A   1      36.973  31.600  32.497  1.00  0.00     0.060 A 
ATOM     31  C   UNL A   1      37.950  30.811  33.118  1.00  0.00     0.016 A 
ATOM     32  C   UNL A   1      36.929  31.712  31.107  1.00  0.00     0.016 A 
ATOM     33  C   UNL A   1      38.906  30.148  32.350  1.00  0.00     0.010 A 
ATOM     34  C   UNL A   1      37.902  31.065  30.339  1.00  0.00     0.010 A 
ATOM     35  C   UNL A   1      38.912  30.306  30.958  1.00  0.00    -0.014 A 
BRANCH  35  36
ATOM     36  C   UNL A   1      40.067  29.819  30.166  1.00  0.00     0.031 A 
ATOM     37  C   UNL A   1      41.221  30.753  29.921  1.00  0.00     0.074 A 
ATOM     38  C   UNL A   1      40.102  28.565  29.683  1.00  0.00     0.049 A 
ATOM     39  N   UNL A   1      42.306  30.563  29.215  1.00  0.00    -0.248 NA
ATOM     40  C   UNL A   1      41.139  32.077  30.558  1.00  0.00     0.031 C 
ATOM     41  C   UNL A   1      39.073  27.548  29.888  1.00  0.00     0.029 A 
ATOM     42  N   UNL A   1      41.045  27.942  28.904  1.00  0.00    -0.354 N 
ATOM     43  C   UNL A   1      43.033  31.743  29.320  1.00  0.00     0.074 A 
ATOM     44  C   UNL A   1      42.255  32.651  30.134  1.00  0.00     0.031 C 
ATOM     45  C   UNL A   1      39.434  26.429  29.235  1.00  0.00     0.029 A 
ATOM     46  C   UNL A   1      40.700  26.662  28.542  1.00  0.00     0.049 A 
ATOM     47  H   UNL A   1      41.888  28.370  28.632  1.00  0.00     0.167 HD
ATOM     48  C   UNL A   1      44.242  32.045  28.791  1.00  0.00     0.031 A 
ATOM     49  C   UNL A   1      41.323  25.793  27.724  1.00  0.00     0.031 A 
ATOM     50  C   UNL A   1      45.011  31.154  27.963  1.00  0.00     0.049 A 
ATOM     51  C   UNL A   1      42.624  26.185  27.072  1.00  0.00     0.074 A 
ATOM     52  C   UNL A   1      46.248  31.370  27.383  1.00  0.00     0.029 A 
ATOM     53  N   UNL A   1      44.610  29.880  27.592  1.00  0.00    -0.354 N 
ATOM     54  N   UNL A   1      43.312  27.294  27.197  1.00  0.00    -0.248 NA
ATOM     55  C   UNL A   1      43.237  25.199  26.169  1.00  0.00     0.031 C 
ATOM     56  C   UNL A   1      46.574  30.246  26.616  1.00  0.00     0.029 A 
ATOM     57  C   UNL A   1      45.565  29.308  26.770  1.00  0.00     0.049 A 
ATOM     58  H   UNL A   1      43.771  29.448  27.872  1.00  0.00     0.167 HD
ATOM     59  C   UNL A   1      44.450  27.126  26.416  1.00  0.00     0.074 A 
ATOM     60  C   UNL A   1      44.367  25.804  25.833  1.00  0.00     0.031 C 
ATOM     61  C   UNL A   1      45.474  27.989  26.202  1.00  0.00     0.031 A 
BRANCH  48  62
ATOM     62  C   UNL A   1      44.796  33.413  29.068  1.00  0.00    -0.014 A 
ATOM     63  C   UNL A   1      45.637  33.647  30.167  1.00  0.00     0.009 A 
ATOM     64  C   UNL A   1      44.503  34.472  28.195  1.00  0.00     0.009 A 
ATOM     65  C   UNL A   1      46.151  34.924  30.401  1.00  0.00     0.001 A 
ATOM     66  C   UNL A   1      45.041  35.742  28.418  1.00  0.00     0.001 A 
ATOM     67  C   UNL A   1      45.858  35.968  29.524  1.00  0.00     0.000 A 
ENDBRANCH  48  62
BRANCH  49  68
ATOM     68  C   UNL A   1      40.716  24.466  27.439  1.00  0.00    -0.014 A 
ATOM     69  C   UNL A   1      41.248  23.296  28.003  1.00  0.00     0.009 A 
ATOM     70  C   UNL A   1      39.625  24.360  26.562  1.00  0.00     0.009 A 
ATOM     71  C   UNL A   1      40.720  22.047  27.671  1.00  0.00     0.001 A 
ATOM     72  C   UNL A   1      39.080  23.110  26.255  1.00  0.00     0.001 A 
ATOM     73  C   UNL A   1      39.636  21.955  26.800  1.00  0.00     0.000 A 
ENDBRANCH  49  68
BRANCH  61  74
ATOM     74  C   UNL A   1      46.609  27.516  25.338  1.00  0.00    -0.014 A 
ATOM     75  C   UNL A   1      47.516  26.545  25.787  1.00  0.00     0.009 A 
ATOM     76  C   UNL A   1      46.743  28.018  24.033  1.00  0.00     0.009 A 
ATOM     77  C   UNL A   1      48.553  26.110  24.959  1.00  0.00     0.001 A 
ATOM     78  C   UNL A   1      47.763  27.561  23.198  1.00  0.00     0.001 A 
ATOM     79  C   UNL A   1      48.673  26.614  23.664  1.00  0.00     0.000 A 
ENDBRANCH  61  74
ENDBRANCH  35  36
ENDBRANCH  28  30
ENDBRANCH  27  28
ENDBRANCH  26  27
ENDBRANCH  25  26
ENDBRANCH  24  25
ENDBRANCH  23  24
ENDBRANCH   1  23
TORSDOF 20
ENDMDL
MODEL 3
REMARK VINA RESULT:      -8.8      4.724     10.489
REMARK SMILES Cc1cc(N(C)C(C)C)cc(C(=O)OCCOCCOCCOC(=O)c2ccc(-c3c4nc(c(-c5ccccc5)c5ccc([nH]5)c(-c5ccccc5)c5nc(c(-c6ccccc6)c6ccc3[nH]6)C=C5)C=C4)cc2)c1N
REMARK SMILES IDX 18 1 17 2 16 3 15 4 14 5 12 6 13 7 11 8 1 9 2 10 3 11 74 12
REMARK SMILES IDX 4 13 10 14 75 15 5 18 6 19 7 20 8 21 9 22 19 23 20 24 21 25
REMARK SMILES IDX 22 26 23 27 24 28 25 29 26 30 27 31 73 32 28 33 72 34 29 35
REMARK SMILES IDX 30 36 31 37 66 38 32 39 71 40 65 41 67 42 33 43 70 44 64 45
REMARK SMILES IDX 63 46 34 48 56 49 41 50 55 51 42 52 45 53 54 54 68 55 43 56
REMARK SMILES IDX 44 57 53 59 69 60 46 61 35 62 36 63 40 64 37 65 39 66 38 67
REMARK SMILES IDX 57 68 58 69 62 70 59 71 61 72 60 73 47 74 48 75 52 76 49 77
REMARK SMILES IDX 51 78 50 79
REMARK H PARENT 75 16 75 17 67 47 45 58
REMARK Flexibility Score: inf
ROOT
ATOM      1  C   UNL A   1      41.167  19.406  26.183  1.00  0.00     0.188 C 
ENDROOT
BRANCH   1   2
ATOM      2  O   UNL A   1      41.012  19.833  27.516  1.00  0.00    -0.376 OA
BRANCH   2   3
ATOM      3  C   UNL A   1      41.058  21.209  27.841  1.00  0.00     0.202 C 
BRANCH   3   4
ATOM      4  C   UNL A   1      40.223  22.308  27.152  1.00  0.00     0.261 C 
BRANCH   4   5
ATOM      5  O   UNL A   1      40.270  23.630  27.691  1.00  0.00    -0.460 OA
BRANCH   5   6
ATOM      6  C   UNL A   1      39.320  24.499  27.269  1.00  0.00     0.340 C 
ATOM      7  O   UNL A   1      38.151  24.232  27.039  1.00  0.00    -0.246 OA
BRANCH   6   8
ATOM      8  C   UNL A   1      39.872  25.880  27.310  1.00  0.00     0.085 A 
ATOM      9  C   UNL A   1      42.249  28.129  25.369  1.00  0.00     0.047 C 
ATOM     10  C   UNL A   1      41.271  27.594  26.381  1.00  0.00    -0.025 A 
ATOM     11  C   UNL A   1      40.781  28.476  27.371  1.00  0.00     0.031 A 
ATOM     12  C   UNL A   1      40.821  26.267  26.347  1.00  0.00     0.049 A 
ATOM     13  C   UNL A   1      39.843  28.117  28.350  1.00  0.00     0.038 A 
ATOM     14  C   UNL A   1      39.408  26.783  28.292  1.00  0.00     0.043 A 
BRANCH  12  15
ATOM     15  N   UNL A   1      41.160  25.435  25.276  1.00  0.00    -0.398 N 
ATOM     16  H   UNL A   1      42.068  25.060  25.212  1.00  0.00     0.156 HD
ATOM     17  H   UNL A   1      40.490  25.222  24.586  1.00  0.00     0.156 HD
ENDBRANCH  12  15
BRANCH  13  18
ATOM     18  N   UNL A   1      39.360  29.022  29.289  1.00  0.00    -0.372 N 
ATOM     19  C   UNL A   1      40.114  29.252  30.526  1.00  0.00     0.144 C 
BRANCH  18  20
ATOM     20  C   UNL A   1      38.184  29.910  29.110  1.00  0.00     0.075 C 
ATOM     21  C   UNL A   1      38.468  31.367  29.468  1.00  0.00     0.030 C 
ATOM     22  C   UNL A   1      37.507  29.723  27.752  1.00  0.00     0.030 C 
ENDBRANCH  18  20
ENDBRANCH  13  18
ENDBRANCH   6   8
ENDBRANCH   5   6
ENDBRANCH   4   5
ENDBRANCH   3   4
ENDBRANCH   2   3
ENDBRANCH   1   2
BRANCH   1  23
ATOM     23  C   UNL A   1      42.556  18.813  25.870  1.00  0.00     0.188 C 
BRANCH  23  24
ATOM     24  O   UNL A   1      43.395  19.433  24.900  1.00  0.00    -0.376 OA
BRANCH  24  25
ATOM     25  C   UNL A   1      44.147  20.585  25.258  1.00  0.00     0.202 C 
BRANCH  25  26
ATOM     26  C   UNL A   1      43.459  21.957  25.295  1.00  0.00     0.261 C 
BRANCH  26  27
ATOM     27  O   UNL A   1      44.343  23.071  25.498  1.00  0.00    -0.460 OA
BRANCH  27  28
ATOM     28  C   UNL A   1      44.330  23.601  26.747  1.00  0.00     0.338 C 
ATOM     29  O   UNL A   1      44.020  23.050  27.787  1.00  0.00    -0.246 OA
BRANCH  28  30
ATOM     30  C   UNL A   1      44.901  24.960  26.712  1.00  0.00     0.060 A 
ATOM     31  C   UNL A   1      45.044  25.591  25.469  1.00  0.00     0.016 A 
ATOM     32  C   UNL A   1      45.365  25.575  27.876  1.00  0.00     0.016 A 
ATOM     33  C   UNL A   1      45.676  26.830  25.380  1.00  0.00     0.010 A 
ATOM     34  C   UNL A   1      46.019  26.807  27.784  1.00  0.00     0.010 A 
ATOM     35  C   UNL A   1      46.205  27.425  26.533  1.00  0.00    -0.014 A 
BRANCH  35  36
ATOM     36  C   UNL A   1      47.094  28.605  26.412  1.00  0.00     0.031 A 
ATOM     37  C   UNL A   1      46.485  29.979  26.481  1.00  0.00     0.074 A 
ATOM     38  C   UNL A   1      48.422  28.464  26.258  1.00  0.00     0.049 A 
ATOM     39  N   UNL A   1      47.058  31.147  26.345  1.00  0.00    -0.248 NA
ATOM     40  C   UNL A   1      45.037  30.042  26.738  1.00  0.00     0.031 C 
ATOM     41  C   UNL A   1      49.142  27.193  26.223  1.00  0.00     0.029 A 
ATOM     42  N   UNL A   1      49.400  29.413  26.088  1.00  0.00    -0.354 N 
ATOM     43  C   UNL A   1      46.042  32.083  26.496  1.00  0.00     0.074 A 
ATOM     44  C   UNL A   1      44.814  31.347  26.706  1.00  0.00     0.031 C 
ATOM     45  C   UNL A   1      50.450  27.440  26.025  1.00  0.00     0.029 A 
ATOM     46  C   UNL A   1      50.651  28.882  25.889  1.00  0.00     0.049 A 
ATOM     47  H   UNL A   1      49.222  30.380  26.109  1.00  0.00     0.167 HD
ATOM     48  C   UNL A   1      46.121  33.435  26.467  1.00  0.00     0.031 A 
ATOM     49  C   UNL A   1      51.817  29.491  25.602  1.00  0.00     0.031 A 
ATOM     50  C   UNL A   1      47.335  34.171  26.237  1.00  0.00     0.049 A 
ATOM     51  C   UNL A   1      51.864  30.993  25.484  1.00  0.00     0.074 A 
ATOM     52  C   UNL A   1      47.515  35.542  26.191  1.00  0.00     0.029 A 
ATOM     53  N   UNL A   1      48.574  33.596  26.005  1.00  0.00    -0.354 N 
ATOM     54  N   UNL A   1      50.902  31.868  25.651  1.00  0.00    -0.248 NA
ATOM     55  C   UNL A   1      53.164  31.591  25.142  1.00  0.00     0.031 C 
ATOM     56  C   UNL A   1      48.855  35.797  25.880  1.00  0.00     0.029 A 
ATOM     57  C   UNL A   1      49.519  34.584  25.792  1.00  0.00     0.049 A 
ATOM     58  H   UNL A   1      48.755  32.628  25.994  1.00  0.00     0.167 HD
ATOM     59  C   UNL A   1      51.486  33.116  25.466  1.00  0.00     0.074 A 
ATOM     60  C   UNL A   1      52.888  32.887  25.189  1.00  0.00     0.031 C 
ATOM     61  C   UNL A   1      50.912  34.343  25.523  1.00  0.00     0.031 A 
BRANCH  48  62
ATOM     62  C   UNL A   1      44.847  34.206  26.660  1.00  0.00    -0.014 A 
ATOM     63  C   UNL A   1      43.993  34.478  25.580  1.00  0.00     0.009 A 
ATOM     64  C   UNL A   1      44.479  34.632  27.945  1.00  0.00     0.009 A 
ATOM     65  C   UNL A   1      42.807  35.187  25.781  1.00  0.00     0.001 A 
ATOM     66  C   UNL A   1      43.279  35.317  28.147  1.00  0.00     0.001 A 
ATOM     67  C   UNL A   1      42.448  35.601  27.064  1.00  0.00     0.000 A 
ENDBRANCH  48  62
BRANCH  49  68
ATOM     68  C   UNL A   1      53.046  28.686  25.373  1.00  0.00    -0.014 A 
ATOM     69  C   UNL A   1      53.924  28.397  26.429  1.00  0.00     0.009 A 
ATOM     70  C   UNL A   1      53.370  28.240  24.081  1.00  0.00     0.009 A 
ATOM     71  C   UNL A   1      55.114  27.706  26.191  1.00  0.00     0.001 A 
ATOM     72  C   UNL A   1      54.546  27.524  23.852  1.00  0.00     0.001 A 
ATOM     73  C   UNL A   1      55.423  27.268  24.904  1.00  0.00     0.000 A 
ENDBRANCH  49  68
BRANCH  61  74
ATOM     74  C   UNL A   1      51.807  35.535  25.327  1.00  0.00    -0.014 A 
ATOM     75  C   UNL A   1      52.448  36.155  26.409  1.00  0.00     0.009 A 
ATOM     76  C   UNL A   1      52.048  36.015  24.029  1.00  0.00     0.009 A 
ATOM     77  C   UNL A   1      53.287  37.252  26.199  1.00  0.00     0.001 A 
ATOM     78  C   UNL A   1      52.909  37.092  23.819  1.00  0.00     0.001 A 
ATOM     79  C   UNL A   1      53.521  37.716  24.905  1.00  0.00     0.000 A 
ENDBRANCH  61  74
ENDBRANCH  35  36
ENDBRANCH  28  30
ENDBRANCH  27  28
ENDBRANCH  26  27
ENDBRANCH  25  26
ENDBRANCH  24  25
ENDBRANCH  23  24
ENDBRANCH   1  23
TORSDOF 20
ENDMDL
