MODEL 1
REMARK VINA RESULT:     -10.4      0.000      0.000
REMARK SMILES C[C@@H]1CCc2sc(NC(=O)/C=C/C(=O)OCCOCCOCCOC(=O)c3ccc(-c4c5nc(c(-c6ccccc6)c6ccc([nH]6)c(-c6ccccc6)c6nc(c(-c7ccccc7)c7ccc4[nH]7)C=C6)C=C5)cc3)c(C#N)c2C1
REMARK SMILES IDX 19 1 18 2 17 3 16 4 15 5 13 6 14 7 12 8 11 9 9 10 8 11 10 13
REMARK SMILES IDX 7 14 1 15 2 16 3 17 79 18 4 19 78 20 5 21 75 22 6 23 76 24
REMARK SMILES IDX 77 25 20 26 21 27 22 28 23 29 24 30 25 31 26 32 27 33 28 34
REMARK SMILES IDX 74 35 29 36 73 37 30 38 31 39 32 40 67 41 33 42 72 43 66 44
REMARK SMILES IDX 68 45 34 46 71 47 65 48 64 49 35 51 57 52 42 53 56 54 43 55
REMARK SMILES IDX 46 56 55 57 69 58 44 59 45 60 54 62 70 63 47 64 36 65 37 66
REMARK SMILES IDX 41 67 38 68 40 69 39 70 58 71 59 72 63 73 60 74 62 75 61 76
REMARK SMILES IDX 48 77 49 78 53 79 50 80 52 81 51 82
REMARK H PARENT 8 12 68 50 46 61
REMARK Flexibility Score: inf
ROOT
ATOM      1  C   UNL A   1      34.513  20.765  25.060  1.00  0.00     0.188 C 
ENDROOT
BRANCH   1   2
ATOM      2  O   UNL A   1      33.142  20.454  25.161  1.00  0.00    -0.376 OA
BRANCH   2   3
ATOM      3  C   UNL A   1      32.245  20.706  24.088  1.00  0.00     0.202 C 
BRANCH   3   4
ATOM      4  C   UNL A   1      32.068  22.077  23.396  1.00  0.00     0.261 C 
BRANCH   4   5
ATOM      5  O   UNL A   1      33.016  22.331  22.359  1.00  0.00    -0.460 OA
BRANCH   5   6
ATOM      6  C   UNL A   1      33.246  23.625  22.047  1.00  0.00     0.331 C 
ATOM      7  O   UNL A   1      33.265  24.121  20.936  1.00  0.00    -0.247 OA
BRANCH   6   8
ATOM      8  C   UNL A   1      33.221  24.400  23.298  1.00  0.00     0.099 C 
ATOM      9  C   UNL A   1      33.692  25.632  23.457  1.00  0.00     0.079 C 
BRANCH   9  10
ATOM     10  C   UNL A   1      33.619  26.381  24.730  1.00  0.00     0.249 C 
ATOM     11  N   UNL A   1      32.748  27.376  25.046  1.00  0.00    -0.313 N 
ATOM     12  H   UNL A   1      32.901  27.708  25.960  1.00  0.00     0.171 HD
ATOM     13  O   UNL A   1      34.443  26.065  25.596  1.00  0.00    -0.270 OA
BRANCH  11  14
ATOM     14  C   UNL A   1      31.710  28.047  24.439  1.00  0.00     0.114 A 
ATOM     15  C   UNL A   1      28.522  30.478  21.133  1.00  0.00     0.008 C 
ATOM     16  C   UNL A   1      27.861  30.135  22.469  1.00  0.00    -0.009 C 
ATOM     17  C   UNL A   1      28.093  31.210  23.559  1.00  0.00     0.009 C 
ATOM     18  C   UNL A   1      28.336  28.752  22.946  1.00  0.00     0.041 C 
ATOM     19  C   UNL A   1      29.538  31.297  24.077  1.00  0.00     0.047 C 
ATOM     20  C   UNL A   1      29.701  28.808  23.572  1.00  0.00    -0.014 A 
ATOM     21  C   UNL A   1      30.140  29.936  24.231  1.00  0.00     0.011 A 
ATOM     22  C   UNL A   1      30.820  27.929  23.389  1.00  0.00     0.090 A 
ATOM     23  S   UNL A   1      31.519  29.609  25.162  1.00  0.00    -0.121 S 
BRANCH  22  24
ATOM     24  C   UNL A   1      30.959  27.129  22.208  1.00  0.00     0.103 C 
ATOM     25  N   UNL A   1      31.094  26.581  21.202  1.00  0.00    -0.192 NA
ENDBRANCH  22  24
ENDBRANCH  11  14
ENDBRANCH   9  10
ENDBRANCH   6   8
ENDBRANCH   5   6
ENDBRANCH   4   5
ENDBRANCH   3   4
ENDBRANCH   2   3
ENDBRANCH   1   2
BRANCH   1  26
ATOM     26  C   UNL A   1      35.141  21.901  25.907  1.00  0.00     0.188 C 
BRANCH  26  27
ATOM     27  O   UNL A   1      36.236  22.700  25.505  1.00  0.00    -0.376 OA
BRANCH  27  28
ATOM     28  C   UNL A   1      37.434  22.203  24.935  1.00  0.00     0.202 C 
BRANCH  28  29
ATOM     29  C   UNL A   1      38.350  21.210  25.644  1.00  0.00     0.261 C 
BRANCH  29  30
ATOM     30  O   UNL A   1      39.656  21.690  25.866  1.00  0.00    -0.460 OA
BRANCH  30  31
ATOM     31  C   UNL A   1      40.568  20.701  25.968  1.00  0.00     0.338 C 
ATOM     32  O   UNL A   1      40.421  19.520  25.707  1.00  0.00    -0.246 OA
BRANCH  31  33
ATOM     33  C   UNL A   1      41.811  21.280  26.491  1.00  0.00     0.060 A 
ATOM     34  C   UNL A   1      42.007  21.115  27.863  1.00  0.00     0.016 A 
ATOM     35  C   UNL A   1      42.312  22.369  25.779  1.00  0.00     0.016 A 
ATOM     36  C   UNL A   1      42.307  22.243  28.585  1.00  0.00     0.010 A 
ATOM     37  C   UNL A   1      42.577  23.495  26.499  1.00  0.00     0.010 A 
ATOM     38  C   UNL A   1      42.433  23.445  27.886  1.00  0.00    -0.014 A 
BRANCH  38  39
ATOM     39  C   UNL A   1      42.563  24.685  28.615  1.00  0.00     0.031 A 
ATOM     40  C   UNL A   1      41.485  25.608  28.208  1.00  0.00     0.074 A 
ATOM     41  C   UNL A   1      43.448  24.840  29.620  1.00  0.00     0.049 A 
ATOM     42  N   UNL A   1      41.582  26.572  27.352  1.00  0.00    -0.248 NA
ATOM     43  C   UNL A   1      40.092  25.218  28.514  1.00  0.00     0.031 C 
ATOM     44  C   UNL A   1      44.372  23.860  30.203  1.00  0.00     0.029 A 
ATOM     45  N   UNL A   1      43.642  25.921  30.419  1.00  0.00    -0.354 N 
ATOM     46  C   UNL A   1      40.292  27.078  27.260  1.00  0.00     0.074 A 
ATOM     47  C   UNL A   1      39.424  26.013  27.679  1.00  0.00     0.031 C 
ATOM     48  C   UNL A   1      44.818  24.315  31.401  1.00  0.00     0.029 A 
ATOM     49  C   UNL A   1      44.314  25.661  31.611  1.00  0.00     0.049 A 
ATOM     50  H   UNL A   1      43.331  26.822  30.174  1.00  0.00     0.167 HD
ATOM     51  C   UNL A   1      40.083  28.422  27.338  1.00  0.00     0.031 A 
ATOM     52  C   UNL A   1      44.370  26.483  32.696  1.00  0.00     0.031 A 
ATOM     53  C   UNL A   1      41.310  29.145  27.099  1.00  0.00     0.049 A 
ATOM     54  C   UNL A   1      43.979  27.838  32.236  1.00  0.00     0.074 A 
ATOM     55  C   UNL A   1      42.229  29.219  26.071  1.00  0.00     0.029 A 
ATOM     56  N   UNL A   1      41.946  29.625  28.219  1.00  0.00    -0.354 N 
ATOM     57  N   UNL A   1      44.707  28.548  31.424  1.00  0.00    -0.248 NA
ATOM     58  C   UNL A   1      42.561  28.167  32.258  1.00  0.00     0.031 C 
ATOM     59  C   UNL A   1      43.497  29.345  26.713  1.00  0.00     0.029 A 
ATOM     60  C   UNL A   1      43.293  29.436  28.090  1.00  0.00     0.049 A 
ATOM     61  H   UNL A   1      41.501  30.039  28.993  1.00  0.00     0.167 HD
ATOM     62  C   UNL A   1      43.803  29.065  30.507  1.00  0.00     0.074 A 
ATOM     63  C   UNL A   1      42.486  28.860  31.116  1.00  0.00     0.031 C 
ATOM     64  C   UNL A   1      44.187  29.308  29.218  1.00  0.00     0.031 A 
BRANCH  51  65
ATOM     65  C   UNL A   1      38.969  29.022  28.183  1.00  0.00    -0.014 A 
ATOM     66  C   UNL A   1      38.968  28.728  29.556  1.00  0.00     0.009 A 
ATOM     67  C   UNL A   1      37.781  29.580  27.665  1.00  0.00     0.009 A 
ATOM     68  C   UNL A   1      37.809  28.864  30.329  1.00  0.00     0.001 A 
ATOM     69  C   UNL A   1      36.633  29.750  28.440  1.00  0.00     0.001 A 
ATOM     70  C   UNL A   1      36.637  29.356  29.766  1.00  0.00     0.000 A 
ENDBRANCH  51  65
BRANCH  52  71
ATOM     71  C   UNL A   1      44.374  26.140  34.144  1.00  0.00    -0.014 A 
ATOM     72  C   UNL A   1      43.315  25.413  34.721  1.00  0.00     0.009 A 
ATOM     73  C   UNL A   1      45.556  26.260  34.895  1.00  0.00     0.009 A 
ATOM     74  C   UNL A   1      43.451  24.804  35.980  1.00  0.00     0.001 A 
ATOM     75  C   UNL A   1      45.692  25.652  36.150  1.00  0.00     0.001 A 
ATOM     76  C   UNL A   1      44.645  24.911  36.687  1.00  0.00     0.000 A 
ENDBRANCH  52  71
BRANCH  64  77
ATOM     77  C   UNL A   1      45.659  29.256  28.897  1.00  0.00    -0.014 A 
ATOM     78  C   UNL A   1      46.508  30.378  28.905  1.00  0.00     0.009 A 
ATOM     79  C   UNL A   1      46.232  27.989  28.725  1.00  0.00     0.009 A 
ATOM     80  C   UNL A   1      47.889  30.228  28.722  1.00  0.00     0.001 A 
ATOM     81  C   UNL A   1      47.608  27.837  28.564  1.00  0.00     0.001 A 
ATOM     82  C   UNL A   1      48.437  28.957  28.556  1.00  0.00     0.000 A 
ENDBRANCH  64  77
ENDBRANCH  38  39
ENDBRANCH  31  33
ENDBRANCH  30  31
ENDBRANCH  29  30
ENDBRANCH  28  29
ENDBRANCH  27  28
ENDBRANCH  26  27
ENDBRANCH   1  26
TORSDOF 20
ENDMDL
MODEL 2
REMARK VINA RESULT:     -10.0      3.128      7.954
REMARK SMILES C[C@@H]1CCc2sc(NC(=O)/C=C/C(=O)OCCOCCOCCOC(=O)c3ccc(-c4c5nc(c(-c6ccccc6)c6ccc([nH]6)c(-c6ccccc6)c6nc(c(-c7ccccc7)c7ccc4[nH]7)C=C6)C=C5)cc3)c(C#N)c2C1
REMARK SMILES IDX 19 1 18 2 17 3 16 4 15 5 13 6 14 7 12 8 11 9 9 10 8 11 10 13
REMARK SMILES IDX 7 14 1 15 2 16 3 17 79 18 4 19 78 20 5 21 75 22 6 23 76 24
REMARK SMILES IDX 77 25 20 26 21 27 22 28 23 29 24 30 25 31 26 32 27 33 28 34
REMARK SMILES IDX 74 35 29 36 73 37 30 38 31 39 32 40 67 41 33 42 72 43 66 44
REMARK SMILES IDX 68 45 34 46 71 47 65 48 64 49 35 51 57 52 42 53 56 54 43 55
REMARK SMILES IDX 46 56 55 57 69 58 44 59 45 60 54 62 70 63 47 64 36 65 37 66
REMARK SMILES IDX 41 67 38 68 40 69 39 70 58 71 59 72 63 73 60 74 62 75 61 76
REMARK SMILES IDX 48 77 49 78 53 79 50 80 52 81 51 82
REMARK H PARENT 8 12 68 50 46 61
REMARK Flexibility Score: inf
ROOT
ATOM      1  C   UNL A   1      34.925  32.189  27.823  1.00  0.00     0.188 C 
ENDROOT
BRANCH   1   2
ATOM      2  O   UNL A   1      34.112  31.050  27.657  1.00  0.00    -0.376 OA
BRANCH   2   3
ATOM      3  C   UNL A   1      32.770  31.158  27.202  1.00  0.00     0.202 C 
BRANCH   3   4
ATOM      4  C   UNL A   1      32.185  30.376  26.003  1.00  0.00     0.261 C 
BRANCH   4   5
ATOM      5  O   UNL A   1      33.147  29.594  25.295  1.00  0.00    -0.460 OA
BRANCH   5   6
ATOM      6  C   UNL A   1      32.734  29.009  24.150  1.00  0.00     0.331 C 
ATOM      7  O   UNL A   1      33.108  29.259  23.020  1.00  0.00    -0.247 OA
BRANCH   6   8
ATOM      8  C   UNL A   1      31.934  27.828  24.514  1.00  0.00     0.099 C 
ATOM      9  C   UNL A   1      31.141  27.147  23.694  1.00  0.00     0.079 C 
BRANCH   9  10
ATOM     10  C   UNL A   1      30.375  25.948  24.099  1.00  0.00     0.249 C 
ATOM     11  N   UNL A   1      30.878  24.726  24.420  1.00  0.00    -0.313 N 
ATOM     12  H   UNL A   1      30.159  24.098  24.664  1.00  0.00     0.171 HD
ATOM     13  O   UNL A   1      29.147  26.077  24.150  1.00  0.00    -0.270 OA
BRANCH  11  14
ATOM     14  C   UNL A   1      32.114  24.125  24.497  1.00  0.00     0.114 A 
ATOM     15  C   UNL A   1      36.100  20.803  24.791  1.00  0.00     0.008 C 
ATOM     16  C   UNL A   1      36.529  22.237  24.477  1.00  0.00    -0.009 C 
ATOM     17  C   UNL A   1      36.727  23.108  25.743  1.00  0.00     0.009 C 
ATOM     18  C   UNL A   1      35.520  22.884  23.513  1.00  0.00     0.041 C 
ATOM     19  C   UNL A   1      35.429  23.456  26.491  1.00  0.00     0.047 C 
ATOM     20  C   UNL A   1      34.281  23.352  24.222  1.00  0.00    -0.014 A 
ATOM     21  C   UNL A   1      34.322  23.770  25.535  1.00  0.00     0.011 A 
ATOM     22  C   UNL A   1      32.906  23.204  23.839  1.00  0.00     0.090 A 
ATOM     23  S   UNL A   1      32.905  24.598  25.964  1.00  0.00    -0.121 S 
BRANCH  22  24
ATOM     24  C   UNL A   1      32.484  22.162  22.950  1.00  0.00     0.103 C 
ATOM     25  N   UNL A   1      32.160  21.251  22.321  1.00  0.00    -0.192 NA
ENDBRANCH  22  24
ENDBRANCH  11  14
ENDBRANCH   9  10
ENDBRANCH   6   8
ENDBRANCH   5   6
ENDBRANCH   4   5
ENDBRANCH   3   4
ENDBRANCH   2   3
ENDBRANCH   1   2
BRANCH   1  26
ATOM     26  C   UNL A   1      34.334  33.527  28.337  1.00  0.00     0.188 C 
BRANCH  26  27
ATOM     27  O   UNL A   1      33.863  33.753  29.650  1.00  0.00    -0.376 OA
BRANCH  27  28
ATOM     28  C   UNL A   1      34.690  33.892  30.792  1.00  0.00     0.202 C 
BRANCH  28  29
ATOM     29  C   UNL A   1      34.918  32.772  31.803  1.00  0.00     0.261 C 
BRANCH  29  30
ATOM     30  O   UNL A   1      35.504  31.614  31.256  1.00  0.00    -0.460 OA
BRANCH  30  31
ATOM     31  C   UNL A   1      36.852  31.645  31.283  1.00  0.00     0.338 C 
ATOM     32  O   UNL A   1      37.570  32.266  32.047  1.00  0.00    -0.246 OA
BRANCH  31  33
ATOM     33  C   UNL A   1      37.348  30.803  30.188  1.00  0.00     0.060 A 
ATOM     34  C   UNL A   1      36.977  29.460  30.262  1.00  0.00     0.016 A 
ATOM     35  C   UNL A   1      38.534  31.231  29.591  1.00  0.00     0.016 A 
ATOM     36  C   UNL A   1      37.984  28.533  30.148  1.00  0.00     0.010 A 
ATOM     37  C   UNL A   1      39.539  30.313  29.511  1.00  0.00     0.010 A 
ATOM     38  C   UNL A   1      39.278  29.007  29.926  1.00  0.00    -0.014 A 
BRANCH  38  39
ATOM     39  C   UNL A   1      40.393  28.091  29.983  1.00  0.00     0.031 A 
ATOM     40  C   UNL A   1      41.028  28.174  31.314  1.00  0.00     0.074 A 
ATOM     41  C   UNL A   1      40.649  27.204  29.000  1.00  0.00     0.049 A 
ATOM     42  N   UNL A   1      42.088  28.847  31.618  1.00  0.00    -0.248 NA
ATOM     43  C   UNL A   1      40.227  27.756  32.484  1.00  0.00     0.031 C 
ATOM     44  C   UNL A   1      39.894  26.939  27.769  1.00  0.00     0.029 A 
ATOM     45  N   UNL A   1      41.621  26.257  28.944  1.00  0.00    -0.354 N 
ATOM     46  C   UNL A   1      42.223  28.669  32.988  1.00  0.00     0.074 A 
ATOM     47  C   UNL A   1      40.912  28.334  33.471  1.00  0.00     0.031 C 
ATOM     48  C   UNL A   1      40.286  25.751  27.244  1.00  0.00     0.029 A 
ATOM     49  C   UNL A   1      41.397  25.235  28.025  1.00  0.00     0.049 A 
ATOM     50  H   UNL A   1      42.425  26.291  29.511  1.00  0.00     0.167 HD
ATOM     51  C   UNL A   1      43.432  28.322  33.512  1.00  0.00     0.031 A 
ATOM     52  C   UNL A   1      42.045  24.037  27.983  1.00  0.00     0.031 A 
ATOM     53  C   UNL A   1      44.494  28.592  32.570  1.00  0.00     0.049 A 
ATOM     54  C   UNL A   1      43.288  24.188  28.780  1.00  0.00     0.074 A 
ATOM     55  C   UNL A   1      44.960  29.705  31.900  1.00  0.00     0.029 A 
ATOM     56  N   UNL A   1      44.973  27.501  31.885  1.00  0.00    -0.354 N 
ATOM     57  N   UNL A   1      44.276  24.950  28.412  1.00  0.00    -0.248 NA
ATOM     58  C   UNL A   1      43.204  23.914  30.207  1.00  0.00     0.031 C 
ATOM     59  C   UNL A   1      45.344  29.230  30.611  1.00  0.00     0.029 A 
ATOM     60  C   UNL A   1      45.185  27.844  30.580  1.00  0.00     0.049 A 
ATOM     61  H   UNL A   1      45.137  26.612  32.273  1.00  0.00     0.167 HD
ATOM     62  C   UNL A   1      44.643  25.627  29.567  1.00  0.00     0.074 A 
ATOM     63  C   UNL A   1      43.998  24.891  30.658  1.00  0.00     0.031 C 
ATOM     64  C   UNL A   1      45.157  26.891  29.495  1.00  0.00     0.031 A 
BRANCH  51  65
ATOM     65  C   UNL A   1      43.578  27.239  34.571  1.00  0.00    -0.014 A 
ATOM     66  C   UNL A   1      43.376  25.908  34.168  1.00  0.00     0.009 A 
ATOM     67  C   UNL A   1      43.588  27.473  35.962  1.00  0.00     0.009 A 
ATOM     68  C   UNL A   1      43.074  24.905  35.095  1.00  0.00     0.001 A 
ATOM     69  C   UNL A   1      43.322  26.468  36.893  1.00  0.00     0.001 A 
ATOM     70  C   UNL A   1      43.029  25.188  36.455  1.00  0.00     0.000 A 
ENDBRANCH  51  65
BRANCH  52  71
ATOM     71  C   UNL A   1      41.521  22.689  27.633  1.00  0.00    -0.014 A 
ATOM     72  C   UNL A   1      40.333  22.542  26.892  1.00  0.00     0.009 A 
ATOM     73  C   UNL A   1      42.343  21.557  27.761  1.00  0.00     0.009 A 
ATOM     74  C   UNL A   1      40.004  21.322  26.278  1.00  0.00     0.001 A 
ATOM     75  C   UNL A   1      42.016  20.340  27.148  1.00  0.00     0.001 A 
ATOM     76  C   UNL A   1      40.853  20.226  26.394  1.00  0.00     0.000 A 
ENDBRANCH  52  71
BRANCH  64  77
ATOM     77  C   UNL A   1      45.561  27.413  28.139  1.00  0.00    -0.014 A 
ATOM     78  C   UNL A   1      46.800  27.145  27.528  1.00  0.00     0.009 A 
ATOM     79  C   UNL A   1      44.581  28.082  27.394  1.00  0.00     0.009 A 
ATOM     80  C   UNL A   1      47.049  27.560  26.213  1.00  0.00     0.001 A 
ATOM     81  C   UNL A   1      44.822  28.476  26.079  1.00  0.00     0.001 A 
ATOM     82  C   UNL A   1      46.058  28.222  25.490  1.00  0.00     0.000 A 
ENDBRANCH  64  77
ENDBRANCH  38  39
ENDBRANCH  31  33
ENDBRANCH  30  31
ENDBRANCH  29  30
ENDBRANCH  28  29
ENDBRANCH  27  28
ENDBRANCH  26  27
ENDBRANCH   1  26
TORSDOF 20
ENDMDL
MODEL 3
REMARK VINA RESULT:      -9.6      4.189      8.585
REMARK SMILES C[C@@H]1CCc2sc(NC(=O)/C=C/C(=O)OCCOCCOCCOC(=O)c3ccc(-c4c5nc(c(-c6ccccc6)c6ccc([nH]6)c(-c6ccccc6)c6nc(c(-c7ccccc7)c7ccc4[nH]7)C=C6)C=C5)cc3)c(C#N)c2C1
REMARK SMILES IDX 19 1 18 2 17 3 16 4 15 5 13 6 14 7 12 8 11 9 9 10 8 11 10 13
REMARK SMILES IDX 7 14 1 15 2 16 3 17 79 18 4 19 78 20 5 21 75 22 6 23 76 24
REMARK SMILES IDX 77 25 20 26 21 27 22 28 23 29 24 30 25 31 26 32 27 33 28 34
REMARK SMILES IDX 74 35 29 36 73 37 30 38 31 39 32 40 67 41 33 42 72 43 66 44
REMARK SMILES IDX 68 45 34 46 71 47 65 48 64 49 35 51 57 52 42 53 56 54 43 55
REMARK SMILES IDX 46 56 55 57 69 58 44 59 45 60 54 62 70 63 47 64 36 65 37 66
REMARK SMILES IDX 41 67 38 68 40 69 39 70 58 71 59 72 63 73 60 74 62 75 61 76
REMARK SMILES IDX 48 77 49 78 53 79 50 80 52 81 51 82
REMARK H PARENT 8 12 68 50 46 61
REMARK Flexibility Score: inf
ROOT
ATOM      1  C   UNL A   1      44.907  26.167  25.475  1.00  0.00     0.188 C 
ENDROOT
BRANCH   1   2
ATOM      2  O   UNL A   1      43.801  25.535  24.870  1.00  0.00    -0.376 OA
BRANCH   2   3
ATOM      3  C   UNL A   1      42.468  25.862  25.241  1.00  0.00     0.202 C 
BRANCH   3   4
ATOM      4  C   UNL A   1      41.698  25.207  26.411  1.00  0.00     0.261 C 
BRANCH   4   5
ATOM      5  O   UNL A   1      40.300  25.495  26.419  1.00  0.00    -0.460 OA
BRANCH   5   6
ATOM      6  C   UNL A   1      39.572  24.960  27.423  1.00  0.00     0.331 C 
ATOM      7  O   UNL A   1      39.422  25.410  28.543  1.00  0.00    -0.247 OA
BRANCH   6   8
ATOM      8  C   UNL A   1      38.773  23.859  26.860  1.00  0.00     0.099 C 
ATOM      9  C   UNL A   1      37.795  23.988  25.970  1.00  0.00     0.079 C 
BRANCH   9  10
ATOM     10  C   UNL A   1      37.037  22.847  25.413  1.00  0.00     0.249 C 
ATOM     11  N   UNL A   1      35.708  22.811  25.126  1.00  0.00    -0.313 N 
ATOM     12  H   UNL A   1      35.447  21.936  24.756  1.00  0.00     0.171 HD
ATOM     13  O   UNL A   1      37.685  21.820  25.187  1.00  0.00    -0.270 OA
BRANCH  11  14
ATOM     14  C   UNL A   1      34.627  23.660  25.209  1.00  0.00     0.114 A 
ATOM     15  C   UNL A   1      29.912  25.794  25.671  1.00  0.00     0.008 C 
ATOM     16  C   UNL A   1      31.048  26.814  25.756  1.00  0.00    -0.009 C 
ATOM     17  C   UNL A   1      31.513  27.329  24.371  1.00  0.00     0.009 C 
ATOM     18  C   UNL A   1      32.225  26.219  26.548  1.00  0.00     0.041 C 
ATOM     19  C   UNL A   1      32.253  26.288  23.515  1.00  0.00     0.047 C 
ATOM     20  C   UNL A   1      33.053  25.283  25.712  1.00  0.00    -0.014 A 
ATOM     21  C   UNL A   1      33.176  25.459  24.351  1.00  0.00     0.011 A 
ATOM     22  C   UNL A   1      33.584  23.994  26.051  1.00  0.00     0.090 A 
ATOM     23  S   UNL A   1      34.449  24.530  23.722  1.00  0.00    -0.121 S 
BRANCH  22  24
ATOM     24  C   UNL A   1      32.999  23.190  27.084  1.00  0.00     0.103 C 
ATOM     25  N   UNL A   1      32.511  22.640  27.972  1.00  0.00    -0.192 NA
ENDBRANCH  22  24
ENDBRANCH  11  14
ENDBRANCH   9  10
ENDBRANCH   6   8
ENDBRANCH   5   6
ENDBRANCH   4   5
ENDBRANCH   3   4
ENDBRANCH   2   3
ENDBRANCH   1   2
BRANCH   1  26
ATOM     26  C   UNL A   1      45.867  25.382  26.404  1.00  0.00     0.188 C 
BRANCH  26  27
ATOM     27  O   UNL A   1      45.797  23.992  26.653  1.00  0.00    -0.376 OA
BRANCH  27  28
ATOM     28  C   UNL A   1      45.224  23.406  27.808  1.00  0.00     0.202 C 
BRANCH  28  29
ATOM     29  C   UNL A   1      45.270  24.056  29.189  1.00  0.00     0.261 C 
BRANCH  29  30
ATOM     30  O   UNL A   1      44.059  24.658  29.582  1.00  0.00    -0.460 OA
BRANCH  30  31
ATOM     31  C   UNL A   1      44.214  25.530  30.599  1.00  0.00     0.338 C 
ATOM     32  O   UNL A   1      44.227  25.290  31.793  1.00  0.00    -0.246 OA
BRANCH  31  33
ATOM     33  C   UNL A   1      44.340  26.877  30.028  1.00  0.00     0.060 A 
ATOM     34  C   UNL A   1      44.665  27.878  30.945  1.00  0.00     0.016 A 
ATOM     35  C   UNL A   1      43.587  27.115  28.879  1.00  0.00     0.016 A 
ATOM     36  C   UNL A   1      43.869  28.996  30.947  1.00  0.00     0.010 A 
ATOM     37  C   UNL A   1      42.775  28.210  28.902  1.00  0.00     0.010 A 
ATOM     38  C   UNL A   1      42.836  29.057  30.009  1.00  0.00    -0.014 A 
BRANCH  38  39
ATOM     39  C   UNL A   1      41.862  30.120  30.089  1.00  0.00     0.031 A 
ATOM     40  C   UNL A   1      42.540  31.420  29.914  1.00  0.00     0.074 A 
ATOM     41  C   UNL A   1      40.536  29.881  30.140  1.00  0.00     0.049 A 
ATOM     42  N   UNL A   1      42.901  32.229  30.855  1.00  0.00    -0.248 NA
ATOM     43  C   UNL A   1      43.183  31.691  28.611  1.00  0.00     0.031 C 
ATOM     44  C   UNL A   1      39.821  28.600  30.077  1.00  0.00     0.029 A 
ATOM     45  N   UNL A   1      39.513  30.774  30.164  1.00  0.00    -0.354 N 
ATOM     46  C   UNL A   1      43.561  33.254  30.188  1.00  0.00     0.074 A 
ATOM     47  C   UNL A   1      44.002  32.690  28.942  1.00  0.00     0.031 C 
ATOM     48  C   UNL A   1      38.510  28.826  29.810  1.00  0.00     0.029 A 
ATOM     49  C   UNL A   1      38.270  30.259  29.804  1.00  0.00     0.049 A 
ATOM     50  H   UNL A   1      39.641  31.717  30.419  1.00  0.00     0.167 HD
ATOM     51  C   UNL A   1      43.261  34.552  30.470  1.00  0.00     0.031 A 
ATOM     52  C   UNL A   1      37.169  30.984  29.463  1.00  0.00     0.031 A 
ATOM     53  C   UNL A   1      42.569  34.653  31.734  1.00  0.00     0.049 A 
ATOM     54  C   UNL A   1      37.390  32.367  29.955  1.00  0.00     0.074 A 
ATOM     55  C   UNL A   1      42.841  34.299  33.041  1.00  0.00     0.029 A 
ATOM     56  N   UNL A   1      41.207  34.816  31.656  1.00  0.00    -0.354 N 
ATOM     57  N   UNL A   1      37.431  32.670  31.220  1.00  0.00    -0.248 NA
ATOM     58  C   UNL A   1      38.080  33.291  29.066  1.00  0.00     0.031 C 
ATOM     59  C   UNL A   1      41.595  33.858  33.575  1.00  0.00     0.029 A 
ATOM     60  C   UNL A   1      40.604  34.049  32.611  1.00  0.00     0.049 A 
ATOM     61  H   UNL A   1      40.738  35.395  31.012  1.00  0.00     0.167 HD
ATOM     62  C   UNL A   1      38.519  33.522  31.339  1.00  0.00     0.074 A 
ATOM     63  C   UNL A   1      38.834  33.929  29.967  1.00  0.00     0.031 C 
ATOM     64  C   UNL A   1      39.252  33.553  32.493  1.00  0.00     0.031 A 
BRANCH  51  65
ATOM     65  C   UNL A   1      43.063  35.595  29.380  1.00  0.00    -0.014 A 
ATOM     66  C   UNL A   1      41.976  35.421  28.508  1.00  0.00     0.009 A 
ATOM     67  C   UNL A   1      44.037  36.533  28.980  1.00  0.00     0.009 A 
ATOM     68  C   UNL A   1      41.938  36.048  27.257  1.00  0.00     0.001 A 
ATOM     69  C   UNL A   1      43.987  37.188  27.750  1.00  0.00     0.001 A 
ATOM     70  C   UNL A   1      42.952  36.917  26.871  1.00  0.00     0.000 A 
ENDBRANCH  51  65
BRANCH  52  71
ATOM     71  C   UNL A   1      36.122  30.694  28.447  1.00  0.00    -0.014 A 
ATOM     72  C   UNL A   1      36.019  29.422  27.852  1.00  0.00     0.009 A 
ATOM     73  C   UNL A   1      35.035  31.570  28.282  1.00  0.00     0.009 A 
ATOM     74  C   UNL A   1      34.862  29.034  27.156  1.00  0.00     0.001 A 
ATOM     75  C   UNL A   1      33.880  31.183  27.588  1.00  0.00     0.001 A 
ATOM     76  C   UNL A   1      33.787  29.910  27.037  1.00  0.00     0.000 A 
ENDBRANCH  52  71
BRANCH  64  77
ATOM     77  C   UNL A   1      38.692  32.850  33.704  1.00  0.00    -0.014 A 
ATOM     78  C   UNL A   1      38.883  31.483  33.980  1.00  0.00     0.009 A 
ATOM     79  C   UNL A   1      38.073  33.647  34.676  1.00  0.00     0.009 A 
ATOM     80  C   UNL A   1      38.441  30.933  35.191  1.00  0.00     0.001 A 
ATOM     81  C   UNL A   1      37.652  33.104  35.889  1.00  0.00     0.001 A 
ATOM     82  C   UNL A   1      37.829  31.746  36.145  1.00  0.00     0.000 A 
ENDBRANCH  64  77
ENDBRANCH  38  39
ENDBRANCH  31  33
ENDBRANCH  30  31
ENDBRANCH  29  30
ENDBRANCH  28  29
ENDBRANCH  27  28
ENDBRANCH  26  27
ENDBRANCH   1  26
TORSDOF 20
ENDMDL
