MODEL 1
REMARK VINA RESULT:     -10.0      0.000      0.000
REMARK SMILES Cc1nn(C)c2c1nc(SCC(=O)OCCOCCOCCOC(=O)c1ccc(-c3c4nc(c(-c5ccccc5)c5ccc([nH]5)c(-c5ccccc5)c5nc(c(-c6ccccc6)c6ccc3[nH]6)C=C5)C=C4)cc1)n2[C@H]1CC[N@@H+](C)C1
REMARK SMILES IDX 18 1 17 2 16 3 15 4 14 5 12 6 13 7 11 8 10 9 9 10 1 11 2 12
REMARK SMILES IDX 3 13 7 14 4 15 6 16 8 17 5 18 74 19 75 20 76 21 80 22 77 23
REMARK SMILES IDX 78 24 79 25 19 27 20 28 21 29 22 30 23 31 24 32 25 33 26 34
REMARK SMILES IDX 27 35 73 36 28 37 72 38 29 39 30 40 31 41 66 42 32 43 71 44
REMARK SMILES IDX 65 45 67 46 33 47 70 48 64 49 63 50 34 52 56 53 41 54 55 55
REMARK SMILES IDX 42 56 45 57 54 58 68 59 43 60 44 61 53 63 69 64 46 65 35 66
REMARK SMILES IDX 36 67 40 68 37 69 39 70 38 71 57 72 58 73 62 74 59 75 61 76
REMARK SMILES IDX 60 77 47 78 48 79 52 80 49 81 51 82 50 83
REMARK H PARENT 78 26 67 51 45 62
REMARK Flexibility Score: inf
ROOT
ATOM      1  C   UNL A   1      34.040  31.697  27.620  1.00  0.00     0.188 C 
ENDROOT
BRANCH   1   2
ATOM      2  O   UNL A   1      33.032  30.697  27.581  1.00  0.00    -0.376 OA
BRANCH   2   3
ATOM      3  C   UNL A   1      32.163  30.662  26.457  1.00  0.00     0.202 C 
BRANCH   3   4
ATOM      4  C   UNL A   1      32.164  29.363  25.633  1.00  0.00     0.261 C 
BRANCH   4   5
ATOM      5  O   UNL A   1      32.666  28.207  26.350  1.00  0.00    -0.463 OA
BRANCH   5   6
ATOM      6  C   UNL A   1      31.783  27.400  26.998  1.00  0.00     0.316 C 
ATOM      7  O   UNL A   1      31.025  27.809  27.874  1.00  0.00    -0.251 OA
BRANCH   6   8
ATOM      8  C   UNL A   1      31.662  25.965  26.437  1.00  0.00     0.200 C 
BRANCH   8   9
ATOM      9  S   UNL A   1      32.013  25.746  24.666  1.00  0.00    -0.076 SA
BRANCH   9  10
ATOM     10  C   UNL A   1      33.512  24.811  24.519  1.00  0.00     0.171 A 
ATOM     11  C   UNL A   1      37.712  23.701  26.026  1.00  0.00     0.071 C 
ATOM     12  C   UNL A   1      36.824  23.621  24.837  1.00  0.00     0.087 A 
ATOM     13  N   UNL A   1      36.942  22.479  24.131  1.00  0.00    -0.174 NA
ATOM     14  C   UNL A   1      35.527  24.120  24.570  1.00  0.00     0.132 A 
ATOM     15  N   UNL A   1      35.701  21.970  24.315  1.00  0.00    -0.250 N 
ATOM     16  C   UNL A   1      34.788  23.005  24.304  1.00  0.00     0.159 A 
ATOM     17  N   UNL A   1      34.749  25.229  24.765  1.00  0.00    -0.219 NA
ATOM     18  C   UNL A   1      35.704  20.738  25.078  1.00  0.00     0.176 C 
ATOM     19  N   UNL A   1      33.481  23.413  24.381  1.00  0.00    -0.295 N 
BRANCH  19  20
ATOM     20  C   UNL A   1      32.259  22.623  24.364  1.00  0.00     0.152 C 
ATOM     21  C   UNL A   1      32.087  21.867  23.051  1.00  0.00     0.093 C 
ATOM     22  C   UNL A   1      32.105  21.540  25.433  1.00  0.00     0.288 C 
ATOM     23  C   UNL A   1      32.598  20.479  23.381  1.00  0.00     0.264 C 
ATOM     24  N   UNL A   1      32.089  20.251  24.736  1.00  0.00    -0.336 N 
ATOM     25  C   UNL A   1      32.824  19.198  25.420  1.00  0.00     0.332 C 
ATOM     26  H   UNL A   1      31.130  19.905  24.711  1.00  0.00     0.347 HD
ENDBRANCH  19  20
ENDBRANCH   9  10
ENDBRANCH   8   9
ENDBRANCH   6   8
ENDBRANCH   5   6
ENDBRANCH   4   5
ENDBRANCH   3   4
ENDBRANCH   2   3
ENDBRANCH   1   2
BRANCH   1  27
ATOM     27  C   UNL A   1      33.785  33.016  28.368  1.00  0.00     0.188 C 
BRANCH  27  28
ATOM     28  O   UNL A   1      34.857  33.467  29.181  1.00  0.00    -0.376 OA
BRANCH  28  29
ATOM     29  C   UNL A   1      36.087  32.811  28.937  1.00  0.00     0.202 C 
BRANCH  29  30
ATOM     30  C   UNL A   1      36.699  32.426  30.286  1.00  0.00     0.261 C 
BRANCH  30  31
ATOM     31  O   UNL A   1      38.031  31.894  30.185  1.00  0.00    -0.460 OA
BRANCH  31  32
ATOM     32  C   UNL A   1      38.085  30.598  30.526  1.00  0.00     0.338 C 
ATOM     33  O   UNL A   1      38.268  30.182  31.669  1.00  0.00    -0.246 OA
BRANCH  32  34
ATOM     34  C   UNL A   1      38.045  29.712  29.352  1.00  0.00     0.060 A 
ATOM     35  C   UNL A   1      37.996  28.342  29.647  1.00  0.00     0.016 A 
ATOM     36  C   UNL A   1      38.891  30.210  28.364  1.00  0.00     0.016 A 
ATOM     37  C   UNL A   1      39.092  27.575  29.301  1.00  0.00     0.010 A 
ATOM     38  C   UNL A   1      40.012  29.470  28.073  1.00  0.00     0.010 A 
ATOM     39  C   UNL A   1      40.165  28.213  28.665  1.00  0.00    -0.014 A 
BRANCH  39  40
ATOM     40  C   UNL A   1      41.442  27.514  28.551  1.00  0.00     0.031 A 
ATOM     41  C   UNL A   1      42.316  27.706  29.734  1.00  0.00     0.074 A 
ATOM     42  C   UNL A   1      41.681  26.629  27.557  1.00  0.00     0.049 A 
ATOM     43  N   UNL A   1      43.597  27.860  29.788  1.00  0.00    -0.248 NA
ATOM     44  C   UNL A   1      41.632  27.828  31.040  1.00  0.00     0.031 C 
ATOM     45  C   UNL A   1      40.765  26.255  26.469  1.00  0.00     0.029 A 
ATOM     46  N   UNL A   1      42.715  25.744  27.400  1.00  0.00    -0.354 N 
ATOM     47  C   UNL A   1      43.894  27.930  31.144  1.00  0.00     0.074 A 
ATOM     48  C   UNL A   1      42.651  28.063  31.855  1.00  0.00     0.031 C 
ATOM     49  C   UNL A   1      41.150  25.070  25.952  1.00  0.00     0.029 A 
ATOM     50  C   UNL A   1      42.368  24.642  26.617  1.00  0.00     0.049 A 
ATOM     51  H   UNL A   1      43.607  25.871  27.797  1.00  0.00     0.167 HD
ATOM     52  C   UNL A   1      45.103  27.569  31.639  1.00  0.00     0.031 A 
ATOM     53  C   UNL A   1      42.955  23.418  26.604  1.00  0.00     0.031 A 
ATOM     54  C   UNL A   1      46.160  27.698  30.682  1.00  0.00     0.049 A 
ATOM     55  C   UNL A   1      44.262  23.523  27.286  1.00  0.00     0.074 A 
ATOM     56  C   UNL A   1      46.674  28.748  29.950  1.00  0.00     0.029 A 
ATOM     57  N   UNL A   1      46.651  26.551  30.111  1.00  0.00    -0.354 N 
ATOM     58  N   UNL A   1      45.309  24.105  26.781  1.00  0.00    -0.248 NA
ATOM     59  C   UNL A   1      44.314  23.279  28.719  1.00  0.00     0.031 C 
ATOM     60  C   UNL A   1      47.109  28.177  28.723  1.00  0.00     0.029 A 
ATOM     61  C   UNL A   1      46.859  26.805  28.780  1.00  0.00     0.049 A 
ATOM     62  H   UNL A   1      46.823  25.700  30.573  1.00  0.00     0.167 HD
ATOM     63  C   UNL A   1      45.944  24.684  27.868  1.00  0.00     0.074 A 
ATOM     64  C   UNL A   1      45.368  24.033  29.039  1.00  0.00     0.031 C 
ATOM     65  C   UNL A   1      46.662  25.835  27.726  1.00  0.00     0.031 A 
BRANCH  52  66
ATOM     66  C   UNL A   1      45.190  26.704  32.866  1.00  0.00    -0.014 A 
ATOM     67  C   UNL A   1      45.968  27.120  33.952  1.00  0.00     0.009 A 
ATOM     68  C   UNL A   1      44.735  25.365  32.876  1.00  0.00     0.009 A 
ATOM     69  C   UNL A   1      46.291  26.230  34.985  1.00  0.00     0.001 A 
ATOM     70  C   UNL A   1      45.015  24.491  33.925  1.00  0.00     0.001 A 
ATOM     71  C   UNL A   1      45.813  24.921  34.972  1.00  0.00     0.000 A 
ENDBRANCH  52  66
BRANCH  53  72
ATOM     72  C   UNL A   1      42.361  22.099  26.274  1.00  0.00    -0.014 A 
ATOM     73  C   UNL A   1      43.174  21.026  25.871  1.00  0.00     0.009 A 
ATOM     74  C   UNL A   1      41.017  21.811  26.578  1.00  0.00     0.009 A 
ATOM     75  C   UNL A   1      42.671  19.719  25.805  1.00  0.00     0.001 A 
ATOM     76  C   UNL A   1      40.509  20.510  26.498  1.00  0.00     0.001 A 
ATOM     77  C   UNL A   1      41.341  19.461  26.126  1.00  0.00     0.000 A 
ENDBRANCH  53  72
BRANCH  65  78
ATOM     78  C   UNL A   1      47.008  26.280  26.328  1.00  0.00    -0.014 A 
ATOM     79  C   UNL A   1      46.159  27.090  25.554  1.00  0.00     0.009 A 
ATOM     80  C   UNL A   1      48.291  25.997  25.836  1.00  0.00     0.009 A 
ATOM     81  C   UNL A   1      46.569  27.571  24.308  1.00  0.00     0.001 A 
ATOM     82  C   UNL A   1      48.710  26.499  24.603  1.00  0.00     0.001 A 
ATOM     83  C   UNL A   1      47.847  27.280  23.836  1.00  0.00     0.000 A 
ENDBRANCH  65  78
ENDBRANCH  39  40
ENDBRANCH  32  34
ENDBRANCH  31  32
ENDBRANCH  30  31
ENDBRANCH  29  30
ENDBRANCH  28  29
ENDBRANCH  27  28
ENDBRANCH   1  27
TORSDOF 20
ENDMDL
MODEL 2
REMARK VINA RESULT:      -9.9      4.269      9.867
REMARK SMILES Cc1nn(C)c2c1nc(SCC(=O)OCCOCCOCCOC(=O)c1ccc(-c3c4nc(c(-c5ccccc5)c5ccc([nH]5)c(-c5ccccc5)c5nc(c(-c6ccccc6)c6ccc3[nH]6)C=C5)C=C4)cc1)n2[C@H]1CC[N@@H+](C)C1
REMARK SMILES IDX 18 1 17 2 16 3 15 4 14 5 12 6 13 7 11 8 10 9 9 10 1 11 2 12
REMARK SMILES IDX 3 13 7 14 4 15 6 16 8 17 5 18 74 19 75 20 76 21 80 22 77 23
REMARK SMILES IDX 78 24 79 25 19 27 20 28 21 29 22 30 23 31 24 32 25 33 26 34
REMARK SMILES IDX 27 35 73 36 28 37 72 38 29 39 30 40 31 41 66 42 32 43 71 44
REMARK SMILES IDX 65 45 67 46 33 47 70 48 64 49 63 50 34 52 56 53 41 54 55 55
REMARK SMILES IDX 42 56 45 57 54 58 68 59 43 60 44 61 53 63 69 64 46 65 35 66
REMARK SMILES IDX 36 67 40 68 37 69 39 70 38 71 57 72 58 73 62 74 59 75 61 76
REMARK SMILES IDX 60 77 47 78 48 79 52 80 49 81 51 82 50 83
REMARK H PARENT 78 26 67 51 45 62
REMARK Flexibility Score: inf
ROOT
ATOM      1  C   UNL A   1      38.225  21.946  25.756  1.00  0.00     0.188 C 
ENDROOT
BRANCH   1   2
ATOM      2  O   UNL A   1      37.405  21.017  25.060  1.00  0.00    -0.376 OA
BRANCH   2   3
ATOM      3  C   UNL A   1      36.149  21.464  24.570  1.00  0.00     0.202 C 
BRANCH   3   4
ATOM      4  C   UNL A   1      34.943  21.272  25.506  1.00  0.00     0.261 C 
BRANCH   4   5
ATOM      5  O   UNL A   1      33.670  21.634  24.914  1.00  0.00    -0.463 OA
BRANCH   5   6
ATOM      6  C   UNL A   1      33.121  22.840  25.222  1.00  0.00     0.316 C 
ATOM      7  O   UNL A   1      33.775  23.880  25.265  1.00  0.00    -0.251 OA
BRANCH   6   8
ATOM      8  C   UNL A   1      31.580  22.856  25.337  1.00  0.00     0.200 C 
BRANCH   8   9
ATOM      9  S   UNL A   1      30.845  24.212  26.299  1.00  0.00    -0.076 SA
BRANCH   9  10
ATOM     10  C   UNL A   1      30.682  25.615  25.228  1.00  0.00     0.171 A 
ATOM     11  C   UNL A   1      28.078  28.645  22.952  1.00  0.00     0.071 C 
ATOM     12  C   UNL A   1      29.453  28.086  23.022  1.00  0.00     0.087 A 
ATOM     13  N   UNL A   1      30.430  28.985  22.793  1.00  0.00    -0.174 NA
ATOM     14  C   UNL A   1      30.035  27.056  23.799  1.00  0.00     0.132 A 
ATOM     15  N   UNL A   1      31.037  28.973  24.002  1.00  0.00    -0.250 N 
ATOM     16  C   UNL A   1      31.027  27.683  24.494  1.00  0.00     0.159 A 
ATOM     17  N   UNL A   1      29.771  25.803  24.280  1.00  0.00    -0.219 NA
ATOM     18  C   UNL A   1      30.925  30.238  24.702  1.00  0.00     0.176 C 
ATOM     19  N   UNL A   1      31.375  26.809  25.491  1.00  0.00    -0.295 N 
BRANCH  19  20
ATOM     20  C   UNL A   1      32.248  27.008  26.638  1.00  0.00     0.152 C 
ATOM     21  C   UNL A   1      33.709  27.149  26.226  1.00  0.00     0.093 C 
ATOM     22  C   UNL A   1      31.994  28.238  27.512  1.00  0.00     0.288 C 
ATOM     23  C   UNL A   1      33.922  28.649  26.210  1.00  0.00     0.264 C 
ATOM     24  N   UNL A   1      33.170  29.103  27.382  1.00  0.00    -0.336 N 
ATOM     25  C   UNL A   1      32.856  30.522  27.307  1.00  0.00     0.332 C 
ATOM     26  H   UNL A   1      33.732  29.021  28.230  1.00  0.00     0.347 HD
ENDBRANCH  19  20
ENDBRANCH   9  10
ENDBRANCH   8   9
ENDBRANCH   6   8
ENDBRANCH   5   6
ENDBRANCH   4   5
ENDBRANCH   3   4
ENDBRANCH   2   3
ENDBRANCH   1   2
BRANCH   1  27
ATOM     27  C   UNL A   1      39.641  21.542  26.196  1.00  0.00     0.188 C 
BRANCH  27  28
ATOM     28  O   UNL A   1      40.483  22.615  26.585  1.00  0.00    -0.376 OA
BRANCH  28  29
ATOM     29  C   UNL A   1      41.840  22.450  26.220  1.00  0.00     0.202 C 
BRANCH  29  30
ATOM     30  C   UNL A   1      42.615  23.685  26.687  1.00  0.00     0.261 C 
BRANCH  30  31
ATOM     31  O   UNL A   1      41.934  24.924  26.430  1.00  0.00    -0.460 OA
BRANCH  31  32
ATOM     32  C   UNL A   1      41.692  25.611  27.557  1.00  0.00     0.338 C 
ATOM     33  O   UNL A   1      42.475  25.707  28.500  1.00  0.00    -0.246 OA
BRANCH  32  34
ATOM     34  C   UNL A   1      40.315  26.127  27.608  1.00  0.00     0.060 A 
ATOM     35  C   UNL A   1      40.104  27.319  26.899  1.00  0.00     0.016 A 
ATOM     36  C   UNL A   1      39.797  25.944  28.888  1.00  0.00     0.016 A 
ATOM     37  C   UNL A   1      39.800  28.451  27.632  1.00  0.00     0.010 A 
ATOM     38  C   UNL A   1      39.558  27.076  29.631  1.00  0.00     0.010 A 
ATOM     39  C   UNL A   1      39.705  28.327  29.024  1.00  0.00    -0.014 A 
BRANCH  39  40
ATOM     40  C   UNL A   1      39.679  29.534  29.845  1.00  0.00     0.031 A 
ATOM     41  C   UNL A   1      41.002  30.196  29.945  1.00  0.00     0.074 A 
ATOM     42  C   UNL A   1      38.517  30.073  30.279  1.00  0.00     0.049 A 
ATOM     43  N   UNL A   1      41.551  30.780  30.959  1.00  0.00    -0.248 NA
ATOM     44  C   UNL A   1      41.867  30.112  28.748  1.00  0.00     0.031 C 
ATOM     45  C   UNL A   1      37.161  29.559  30.037  1.00  0.00     0.029 A 
ATOM     46  N   UNL A   1      38.280  31.283  30.875  1.00  0.00    -0.354 N 
ATOM     47  C   UNL A   1      42.756  31.279  30.477  1.00  0.00     0.074 A 
ATOM     48  C   UNL A   1      42.971  30.712  29.173  1.00  0.00     0.031 C 
ATOM     49  C   UNL A   1      36.269  30.553  30.227  1.00  0.00     0.029 A 
ATOM     50  C   UNL A   1      36.978  31.740  30.670  1.00  0.00     0.049 A 
ATOM     51  H   UNL A   1      38.956  31.778  31.393  1.00  0.00     0.167 HD
ATOM     52  C   UNL A   1      43.362  32.359  31.027  1.00  0.00     0.031 A 
ATOM     53  C   UNL A   1      36.530  33.020  30.731  1.00  0.00     0.031 A 
ATOM     54  C   UNL A   1      43.025  32.546  32.406  1.00  0.00     0.049 A 
ATOM     55  C   UNL A   1      37.557  33.839  31.409  1.00  0.00     0.074 A 
ATOM     56  C   UNL A   1      43.162  31.779  33.544  1.00  0.00     0.029 A 
ATOM     57  N   UNL A   1      42.146  33.551  32.720  1.00  0.00    -0.354 N 
ATOM     58  N   UNL A   1      37.808  33.794  32.683  1.00  0.00    -0.248 NA
ATOM     59  C   UNL A   1      38.579  34.478  30.593  1.00  0.00     0.031 C 
ATOM     60  C   UNL A   1      42.044  32.108  34.358  1.00  0.00     0.029 A 
ATOM     61  C   UNL A   1      41.297  33.074  33.685  1.00  0.00     0.049 A 
ATOM     62  H   UNL A   1      42.128  34.452  32.324  1.00  0.00     0.167 HD
ATOM     63  C   UNL A   1      39.177  33.995  32.776  1.00  0.00     0.074 A 
ATOM     64  C   UNL A   1      39.572  34.542  31.483  1.00  0.00     0.031 C 
ATOM     65  C   UNL A   1      39.899  33.429  33.786  1.00  0.00     0.031 A 
BRANCH  52  66
ATOM     66  C   UNL A   1      43.911  33.447  30.147  1.00  0.00    -0.014 A 
ATOM     67  C   UNL A   1      45.274  33.761  30.204  1.00  0.00     0.009 A 
ATOM     68  C   UNL A   1      43.072  34.349  29.453  1.00  0.00     0.009 A 
ATOM     69  C   UNL A   1      45.764  34.933  29.614  1.00  0.00     0.001 A 
ATOM     70  C   UNL A   1      43.564  35.491  28.823  1.00  0.00     0.001 A 
ATOM     71  C   UNL A   1      44.911  35.793  28.924  1.00  0.00     0.000 A 
ENDBRANCH  52  66
BRANCH  53  72
ATOM     72  C   UNL A   1      35.390  33.648  30.018  1.00  0.00    -0.014 A 
ATOM     73  C   UNL A   1      34.446  34.422  30.714  1.00  0.00     0.009 A 
ATOM     74  C   UNL A   1      35.349  33.690  28.611  1.00  0.00     0.009 A 
ATOM     75  C   UNL A   1      33.522  35.225  30.032  1.00  0.00     0.001 A 
ATOM     76  C   UNL A   1      34.417  34.480  27.929  1.00  0.00     0.001 A 
ATOM     77  C   UNL A   1      33.512  35.260  28.640  1.00  0.00     0.000 A 
ENDBRANCH  53  72
BRANCH  65  78
ATOM     78  C   UNL A   1      39.141  32.856  34.956  1.00  0.00    -0.014 A 
ATOM     79  C   UNL A   1      38.688  31.525  34.993  1.00  0.00     0.009 A 
ATOM     80  C   UNL A   1      39.011  33.637  36.114  1.00  0.00     0.009 A 
ATOM     81  C   UNL A   1      38.091  31.005  36.144  1.00  0.00     0.001 A 
ATOM     82  C   UNL A   1      38.437  33.109  37.271  1.00  0.00     0.001 A 
ATOM     83  C   UNL A   1      37.971  31.796  37.284  1.00  0.00     0.000 A 
ENDBRANCH  65  78
ENDBRANCH  39  40
ENDBRANCH  32  34
ENDBRANCH  31  32
ENDBRANCH  30  31
ENDBRANCH  29  30
ENDBRANCH  28  29
ENDBRANCH  27  28
ENDBRANCH   1  27
TORSDOF 20
ENDMDL
MODEL 3
REMARK VINA RESULT:      -9.8      4.370      9.596
REMARK SMILES Cc1nn(C)c2c1nc(SCC(=O)OCCOCCOCCOC(=O)c1ccc(-c3c4nc(c(-c5ccccc5)c5ccc([nH]5)c(-c5ccccc5)c5nc(c(-c6ccccc6)c6ccc3[nH]6)C=C5)C=C4)cc1)n2[C@H]1CC[N@@H+](C)C1
REMARK SMILES IDX 18 1 17 2 16 3 15 4 14 5 12 6 13 7 11 8 10 9 9 10 1 11 2 12
REMARK SMILES IDX 3 13 7 14 4 15 6 16 8 17 5 18 74 19 75 20 76 21 80 22 77 23
REMARK SMILES IDX 78 24 79 25 19 27 20 28 21 29 22 30 23 31 24 32 25 33 26 34
REMARK SMILES IDX 27 35 73 36 28 37 72 38 29 39 30 40 31 41 66 42 32 43 71 44
REMARK SMILES IDX 65 45 67 46 33 47 70 48 64 49 63 50 34 52 56 53 41 54 55 55
REMARK SMILES IDX 42 56 45 57 54 58 68 59 43 60 44 61 53 63 69 64 46 65 35 66
REMARK SMILES IDX 36 67 40 68 37 69 39 70 38 71 57 72 58 73 62 74 59 75 61 76
REMARK SMILES IDX 60 77 47 78 48 79 52 80 49 81 51 82 50 83
REMARK H PARENT 78 26 67 51 45 62
REMARK Flexibility Score: inf
ROOT
ATOM      1  C   UNL A   1      37.101  21.394  25.502  1.00  0.00     0.188 C 
ENDROOT
BRANCH   1   2
ATOM      2  O   UNL A   1      35.726  21.587  25.196  1.00  0.00    -0.376 OA
BRANCH   2   3
ATOM      3  C   UNL A   1      34.912  20.438  25.009  1.00  0.00     0.202 C 
BRANCH   3   4
ATOM      4  C   UNL A   1      33.534  20.459  25.693  1.00  0.00     0.261 C 
BRANCH   4   5
ATOM      5  O   UNL A   1      33.373  21.520  26.667  1.00  0.00    -0.463 OA
BRANCH   5   6
ATOM      6  C   UNL A   1      32.344  22.399  26.519  1.00  0.00     0.316 C 
ATOM      7  O   UNL A   1      31.822  22.981  27.468  1.00  0.00    -0.251 OA
BRANCH   6   8
ATOM      8  C   UNL A   1      31.987  22.761  25.061  1.00  0.00     0.200 C 
BRANCH   8   9
ATOM      9  S   UNL A   1      33.013  24.029  24.257  1.00  0.00    -0.076 SA
BRANCH   9  10
ATOM     10  C   UNL A   1      32.804  25.546  25.151  1.00  0.00     0.171 A 
ATOM     11  C   UNL A   1      34.546  29.337  27.084  1.00  0.00     0.071 C 
ATOM     12  C   UNL A   1      33.338  28.472  27.059  1.00  0.00     0.087 A 
ATOM     13  N   UNL A   1      32.173  29.141  27.158  1.00  0.00    -0.174 NA
ATOM     14  C   UNL A   1      33.041  27.252  26.404  1.00  0.00     0.132 A 
ATOM     15  N   UNL A   1      31.641  28.850  25.949  1.00  0.00    -0.250 N 
ATOM     16  C   UNL A   1      31.966  27.549  25.619  1.00  0.00     0.159 A 
ATOM     17  N   UNL A   1      33.605  26.047  26.085  1.00  0.00    -0.219 NA
ATOM     18  C   UNL A   1      31.494  30.017  25.101  1.00  0.00     0.176 C 
ATOM     19  N   UNL A   1      31.870  26.509  24.731  1.00  0.00    -0.295 N 
BRANCH  19  20
ATOM     20  C   UNL A   1      31.029  26.368  23.553  1.00  0.00     0.152 C 
ATOM     21  C   UNL A   1      29.556  26.217  23.919  1.00  0.00     0.093 C 
ATOM     22  C   UNL A   1      31.038  27.513  22.538  1.00  0.00     0.288 C 
ATOM     23  C   UNL A   1      29.011  27.620  23.745  1.00  0.00     0.264 C 
ATOM     24  N   UNL A   1      29.693  28.094  22.538  1.00  0.00    -0.336 N 
ATOM     25  C   UNL A   1      29.675  29.546  22.443  1.00  0.00     0.332 C 
ATOM     26  H   UNL A   1      29.204  27.787  21.698  1.00  0.00     0.347 HD
ENDBRANCH  19  20
ENDBRANCH   9  10
ENDBRANCH   8   9
ENDBRANCH   6   8
ENDBRANCH   5   6
ENDBRANCH   4   5
ENDBRANCH   3   4
ENDBRANCH   2   3
ENDBRANCH   1   2
BRANCH   1  27
ATOM     27  C   UNL A   1      38.078  22.578  25.425  1.00  0.00     0.188 C 
BRANCH  27  28
ATOM     28  O   UNL A   1      38.786  22.858  26.622  1.00  0.00    -0.376 OA
BRANCH  28  29
ATOM     29  C   UNL A   1      40.023  22.180  26.736  1.00  0.00     0.202 C 
BRANCH  29  30
ATOM     30  C   UNL A   1      40.958  23.034  27.596  1.00  0.00     0.261 C 
BRANCH  30  31
ATOM     31  O   UNL A   1      41.281  24.306  27.008  1.00  0.00    -0.460 OA
BRANCH  31  32
ATOM     32  C   UNL A   1      41.198  25.309  27.895  1.00  0.00     0.338 C 
ATOM     33  O   UNL A   1      42.073  25.597  28.710  1.00  0.00    -0.246 OA
BRANCH  32  34
ATOM     34  C   UNL A   1      39.873  25.949  27.887  1.00  0.00     0.060 A 
ATOM     35  C   UNL A   1      39.791  27.127  27.130  1.00  0.00     0.016 A 
ATOM     36  C   UNL A   1      39.308  25.863  29.157  1.00  0.00     0.016 A 
ATOM     37  C   UNL A   1      39.572  28.309  27.812  1.00  0.00     0.010 A 
ATOM     38  C   UNL A   1      39.154  27.039  29.851  1.00  0.00     0.010 A 
ATOM     39  C   UNL A   1      39.430  28.247  29.204  1.00  0.00    -0.014 A 
BRANCH  39  40
ATOM     40  C   UNL A   1      39.493  29.482  29.981  1.00  0.00     0.031 A 
ATOM     41  C   UNL A   1      40.863  30.043  30.069  1.00  0.00     0.074 A 
ATOM     42  C   UNL A   1      38.374  30.126  30.384  1.00  0.00     0.049 A 
ATOM     43  N   UNL A   1      41.449  30.619  31.066  1.00  0.00    -0.248 NA
ATOM     44  C   UNL A   1      41.727  29.847  28.885  1.00  0.00     0.031 C 
ATOM     45  C   UNL A   1      36.983  29.711  30.147  1.00  0.00     0.029 A 
ATOM     46  N   UNL A   1      38.228  31.373  30.933  1.00  0.00    -0.354 N 
ATOM     47  C   UNL A   1      42.692  31.004  30.578  1.00  0.00     0.074 A 
ATOM     48  C   UNL A   1      42.872  30.375  29.298  1.00  0.00     0.031 C 
ATOM     49  C   UNL A   1      36.170  30.778  30.293  1.00  0.00     0.029 A 
ATOM     50  C   UNL A   1      36.967  31.922  30.699  1.00  0.00     0.049 A 
ATOM     51  H   UNL A   1      38.937  31.832  31.439  1.00  0.00     0.167 HD
ATOM     52  C   UNL A   1      43.377  32.054  31.095  1.00  0.00     0.031 A 
ATOM     53  C   UNL A   1      36.620  33.234  30.709  1.00  0.00     0.031 A 
ATOM     54  C   UNL A   1      43.047  32.318  32.462  1.00  0.00     0.049 A 
ATOM     55  C   UNL A   1      37.704  33.995  31.366  1.00  0.00     0.074 A 
ATOM     56  C   UNL A   1      43.116  31.585  33.629  1.00  0.00     0.029 A 
ATOM     57  N   UNL A   1      42.247  33.399  32.731  1.00  0.00    -0.354 N 
ATOM     58  N   UNL A   1      37.942  33.978  32.644  1.00  0.00    -0.248 NA
ATOM     59  C   UNL A   1      38.778  34.521  30.537  1.00  0.00     0.031 C 
ATOM     60  C   UNL A   1      42.022  32.030  34.420  1.00  0.00     0.029 A 
ATOM     61  C   UNL A   1      41.357  33.026  33.705  1.00  0.00     0.049 A 
ATOM     62  H   UNL A   1      42.302  34.283  32.303  1.00  0.00     0.167 HD
ATOM     63  C   UNL A   1      39.321  34.075  32.743  1.00  0.00     0.074 A 
ATOM     64  C   UNL A   1      39.767  34.541  31.434  1.00  0.00     0.031 C 
ATOM     65  C   UNL A   1      39.990  33.492  33.779  1.00  0.00     0.031 A 
BRANCH  52  66
ATOM     66  C   UNL A   1      44.016  33.063  30.181  1.00  0.00    -0.014 A 
ATOM     67  C   UNL A   1      45.407  33.076  30.030  1.00  0.00     0.009 A 
ATOM     68  C   UNL A   1      43.303  34.170  29.667  1.00  0.00     0.009 A 
ATOM     69  C   UNL A   1      46.050  34.158  29.414  1.00  0.00     0.001 A 
ATOM     70  C   UNL A   1      43.935  35.225  29.011  1.00  0.00     0.001 A 
ATOM     71  C   UNL A   1      45.316  35.227  28.905  1.00  0.00     0.000 A 
ENDBRANCH  52  66
BRANCH  53  72
ATOM     72  C   UNL A   1      35.538  33.922  29.962  1.00  0.00    -0.014 A 
ATOM     73  C   UNL A   1      35.474  33.848  28.561  1.00  0.00     0.009 A 
ATOM     74  C   UNL A   1      34.424  34.463  30.632  1.00  0.00     0.009 A 
ATOM     75  C   UNL A   1      34.333  34.268  27.864  1.00  0.00     0.001 A 
ATOM     76  C   UNL A   1      33.290  34.897  29.936  1.00  0.00     0.001 A 
ATOM     77  C   UNL A   1      33.238  34.785  28.552  1.00  0.00     0.000 A 
ENDBRANCH  53  72
BRANCH  65  78
ATOM     78  C   UNL A   1      39.182  33.023  34.962  1.00  0.00    -0.014 A 
ATOM     79  C   UNL A   1      38.771  31.689  35.124  1.00  0.00     0.009 A 
ATOM     80  C   UNL A   1      38.957  33.923  36.015  1.00  0.00     0.009 A 
ATOM     81  C   UNL A   1      38.122  31.277  36.291  1.00  0.00     0.001 A 
ATOM     82  C   UNL A   1      38.331  33.505  37.190  1.00  0.00     0.001 A 
ATOM     83  C   UNL A   1      37.908  32.185  37.326  1.00  0.00     0.000 A 
ENDBRANCH  65  78
ENDBRANCH  39  40
ENDBRANCH  32  34
ENDBRANCH  31  32
ENDBRANCH  30  31
ENDBRANCH  29  30
ENDBRANCH  28  29
ENDBRANCH  27  28
ENDBRANCH   1  27
TORSDOF 20
ENDMDL
