MODEL 1
REMARK VINA RESULT:     -11.2      0.000      0.000
REMARK SMILES Cc1ccccc1NC(=O)c1ccccc1NC(=O)CCC(=O)OCCOCCOCCOC(=O)c1ccc(-c2c3nc(c(-c4ccccc4)c4ccc([nH]4)c(-c4ccccc4)c4nc(c(-c5ccccc5)c5ccc2[nH]5)C=C4)C=C3)cc1
REMARK SMILES IDX 27 1 26 2 25 3 24 4 22 5 23 6 21 7 20 8 18 9 17 10 19 12
REMARK SMILES IDX 16 13 11 14 12 15 13 16 15 17 14 18 9 19 8 20 10 22 7 23
REMARK SMILES IDX 1 24 2 25 3 26 4 27 6 28 5 29 28 30 29 31 30 32 31 33 32 34
REMARK SMILES IDX 33 35 34 36 35 37 36 38 37 39 83 40 38 41 82 42 39 43 40 44
REMARK SMILES IDX 41 45 76 46 42 47 81 48 75 49 77 50 43 51 80 52 74 53 73 54
REMARK SMILES IDX 44 56 66 57 51 58 65 59 52 60 55 61 64 62 78 63 53 64 54 65
REMARK SMILES IDX 63 67 79 68 56 69 45 70 46 71 50 72 47 73 49 74 48 75 67 76
REMARK SMILES IDX 68 77 72 78 69 79 71 80 70 81 57 82 58 83 62 84 59 85 61 86
REMARK SMILES IDX 60 87
REMARK H PARENT 17 11 8 21 77 55 55 66
REMARK Flexibility Score: inf
ROOT
ATOM      1  O   UNL A   1      41.936  20.602  27.226  1.00  0.00    -0.376 OA
ENDROOT
BRANCH   1   2
ATOM      2  C   UNL A   1      40.629  21.473  27.498  1.00  0.00     0.202 C 
BRANCH   2   3
ATOM      3  C   UNL A   1      38.965  22.044  26.149  1.00  0.00     0.261 C 
BRANCH   3   4
ATOM      4  O   UNL A   1      38.313  21.150  25.017  1.00  0.00    -0.463 OA
BRANCH   4   5
ATOM      5  C   UNL A   1      36.986  20.975  25.050  1.00  0.00     0.306 C 
ATOM      6  O   UNL A   1      36.472  19.867  25.023  1.00  0.00    -0.252 OA
BRANCH   5   7
ATOM      7  C   UNL A   1      36.180  22.215  25.352  1.00  0.00     0.132 C 
BRANCH   7   8
ATOM      8  C   UNL A   1      35.140  22.489  26.391  1.00  0.00     0.112 C 
BRANCH   8   9
ATOM      9  C   UNL A   1      33.814  22.114  25.955  1.00  0.00     0.224 C 
ATOM     10  N   UNL A   1      32.972  22.916  25.269  1.00  0.00    -0.325 N 
ATOM     11  H   UNL A   1      32.079  22.972  25.679  1.00  0.00     0.169 HD
ATOM     12  O   UNL A   1      33.468  20.975  26.271  1.00  0.00    -0.275 OA
BRANCH  10  13
ATOM     13  C   UNL A   1      33.084  23.691  24.094  1.00  0.00     0.054 A 
ATOM     14  C   UNL A   1      32.111  25.216  24.125  1.00  0.00     0.063 A 
ATOM     15  C   UNL A   1      31.766  26.106  22.573  1.00  0.00     0.016 A 
ATOM     16  C   UNL A   1      32.388  25.483  21.008  1.00  0.00     0.001 A 
ATOM     17  C   UNL A   1      33.713  23.090  22.504  1.00  0.00     0.027 A 
ATOM     18  C   UNL A   1      33.362  23.968  20.959  1.00  0.00     0.002 A 
BRANCH  14  19
ATOM     19  C   UNL A   1      31.276  25.704  25.278  1.00  0.00     0.257 C 
ATOM     20  N   UNL A   1      31.653  26.619  26.246  1.00  0.00    -0.322 N 
ATOM     21  H   UNL A   1      31.434  26.311  27.155  1.00  0.00     0.170 HD
ATOM     22  O   UNL A   1      30.234  25.073  25.477  1.00  0.00    -0.269 OA
BRANCH  20  23
ATOM     23  C   UNL A   1      32.277  27.889  26.247  1.00  0.00     0.044 A 
ATOM     24  C   UNL A   1      30.519  28.715  24.539  1.00  0.00     0.046 C 
ATOM     25  C   UNL A   1      31.713  28.921  25.453  1.00  0.00    -0.027 A 
ATOM     26  C   UNL A   1      32.111  30.256  25.679  1.00  0.00     0.005 A 
ATOM     27  C   UNL A   1      33.028  30.566  26.680  1.00  0.00     0.000 A 
ATOM     28  C   UNL A   1      33.262  28.208  27.194  1.00  0.00     0.026 A 
ATOM     29  C   UNL A   1      33.612  29.546  27.425  1.00  0.00     0.002 A 
ENDBRANCH  20  23
ENDBRANCH  14  19
ENDBRANCH  10  13
ENDBRANCH   8   9
ENDBRANCH   7   8
ENDBRANCH   5   7
ENDBRANCH   4   5
ENDBRANCH   3   4
ENDBRANCH   2   3
ENDBRANCH   1   2
BRANCH   1  30
ATOM     30  C   UNL A   1      41.855  19.430  26.381  1.00  0.00     0.188 C 
BRANCH  30  31
ATOM     31  C   UNL A   1      42.686  18.204  26.777  1.00  0.00     0.188 C 
BRANCH  31  32
ATOM     32  O   UNL A   1      43.827  18.066  25.946  1.00  0.00    -0.376 OA
BRANCH  32  33
ATOM     33  C   UNL A   1      43.969  19.091  24.967  1.00  0.00     0.202 C 
BRANCH  33  34
ATOM     34  C   UNL A   1      45.356  19.065  24.314  1.00  0.00     0.261 C 
BRANCH  34  35
ATOM     35  O   UNL A   1      45.936  20.385  24.422  1.00  0.00    -0.460 OA
BRANCH  35  36
ATOM     36  C   UNL A   1      45.125  21.440  24.128  1.00  0.00     0.338 C 
ATOM     37  O   UNL A   1      44.471  21.572  23.108  1.00  0.00    -0.246 OA
BRANCH  36  38
ATOM     38  C   UNL A   1      45.309  22.533  25.141  1.00  0.00     0.060 A 
ATOM     39  C   UNL A   1      44.635  22.561  26.378  1.00  0.00     0.016 A 
ATOM     40  C   UNL A   1      45.956  23.684  24.748  1.00  0.00     0.016 A 
ATOM     41  C   UNL A   1      44.544  23.761  27.163  1.00  0.00     0.010 A 
ATOM     42  C   UNL A   1      45.796  24.841  25.500  1.00  0.00     0.010 A 
ATOM     43  C   UNL A   1      45.102  24.960  26.708  1.00  0.00    -0.014 A 
BRANCH  43  44
ATOM     44  C   UNL A   1      44.691  26.374  27.053  1.00  0.00     0.031 A 
ATOM     45  C   UNL A   1      43.393  27.126  26.724  1.00  0.00     0.074 A 
ATOM     46  C   UNL A   1      45.338  26.807  28.171  1.00  0.00     0.049 A 
ATOM     47  N   UNL A   1      43.070  28.276  27.255  1.00  0.00    -0.248 NA
ATOM     48  C   UNL A   1      42.293  26.648  25.876  1.00  0.00     0.031 C 
ATOM     49  C   UNL A   1      44.855  27.695  29.230  1.00  0.00     0.029 A 
ATOM     50  N   UNL A   1      46.607  26.499  28.620  1.00  0.00    -0.354 N 
ATOM     51  C   UNL A   1      41.684  28.419  27.236  1.00  0.00     0.074 A 
ATOM     52  C   UNL A   1      41.274  27.467  26.225  1.00  0.00     0.031 C 
ATOM     53  C   UNL A   1      45.869  28.025  30.041  1.00  0.00     0.029 A 
ATOM     54  C   UNL A   1      47.078  27.531  29.435  1.00  0.00     0.049 A 
ATOM     55  H   UNL A   1      47.103  25.678  28.399  1.00  0.00     0.167 HD
ATOM     56  C   UNL A   1      41.045  29.168  28.211  1.00  0.00     0.031 A 
ATOM     57  C   UNL A   1      48.089  28.339  28.986  1.00  0.00     0.031 A 
ATOM     58  C   UNL A   1      41.987  30.004  28.959  1.00  0.00     0.049 A 
ATOM     59  C   UNL A   1      47.631  29.762  28.663  1.00  0.00     0.074 A 
ATOM     60  C   UNL A   1      42.355  30.207  30.280  1.00  0.00     0.029 A 
ATOM     61  N   UNL A   1      42.854  30.761  28.207  1.00  0.00    -0.354 N 
ATOM     62  N   UNL A   1      46.419  30.190  28.912  1.00  0.00    -0.248 NA
ATOM     63  C   UNL A   1      48.424  30.821  28.037  1.00  0.00     0.031 C 
ATOM     64  C   UNL A   1      43.577  30.952  30.279  1.00  0.00     0.029 A 
ATOM     65  C   UNL A   1      43.886  31.253  28.965  1.00  0.00     0.049 A 
ATOM     66  H   UNL A   1      42.746  30.930  27.243  1.00  0.00     0.167 HD
ATOM     67  C   UNL A   1      46.201  31.412  28.347  1.00  0.00     0.074 A 
ATOM     68  C   UNL A   1      47.511  31.802  27.872  1.00  0.00     0.031 C 
ATOM     69  C   UNL A   1      44.946  31.939  28.244  1.00  0.00     0.031 A 
BRANCH  56  70
ATOM     70  C   UNL A   1      39.571  29.124  28.657  1.00  0.00    -0.014 A 
ATOM     71  C   UNL A   1      38.557  29.579  27.774  1.00  0.00     0.009 A 
ATOM     72  C   UNL A   1      39.125  28.799  29.950  1.00  0.00     0.009 A 
ATOM     73  C   UNL A   1      37.205  29.698  28.149  1.00  0.00     0.001 A 
ATOM     74  C   UNL A   1      37.770  28.916  30.333  1.00  0.00     0.001 A 
ATOM     75  C   UNL A   1      36.808  29.362  29.433  1.00  0.00     0.000 A 
ENDBRANCH  56  70
BRANCH  57  76
ATOM     76  C   UNL A   1      49.192  27.489  28.430  1.00  0.00    -0.014 A 
ATOM     77  C   UNL A   1      49.696  26.535  29.348  1.00  0.00     0.009 A 
ATOM     78  C   UNL A   1      49.247  27.166  27.061  1.00  0.00     0.009 A 
ATOM     79  C   UNL A   1      50.029  25.237  28.939  1.00  0.00     0.001 A 
ATOM     80  C   UNL A   1      49.612  25.868  26.654  1.00  0.00     0.001 A 
ATOM     81  C   UNL A   1      49.945  24.892  27.595  1.00  0.00     0.000 A 
ENDBRANCH  57  76
BRANCH  69  82
ATOM     82  C   UNL A   1      44.518  33.043  27.299  1.00  0.00    -0.014 A 
ATOM     83  C   UNL A   1      44.382  32.851  25.921  1.00  0.00     0.009 A 
ATOM     84  C   UNL A   1      43.961  34.233  27.836  1.00  0.00     0.009 A 
ATOM     85  C   UNL A   1      43.732  33.798  25.117  1.00  0.00     0.001 A 
ATOM     86  C   UNL A   1      43.261  35.148  27.047  1.00  0.00     0.001 A 
ATOM     87  C   UNL A   1      43.156  34.934  25.681  1.00  0.00     0.000 A 
ENDBRANCH  69  82
ENDBRANCH  43  44
ENDBRANCH  36  38
ENDBRANCH  35  36
ENDBRANCH  34  35
ENDBRANCH  33  34
ENDBRANCH  32  33
ENDBRANCH  31  32
ENDBRANCH  30  31
ENDBRANCH   1  30
TORSDOF 22
ENDMDL
MODEL 2
REMARK VINA RESULT:      -9.6      3.961      9.163
REMARK SMILES Cc1ccccc1NC(=O)c1ccccc1NC(=O)CCC(=O)OCCOCCOCCOC(=O)c1ccc(-c2c3nc(c(-c4ccccc4)c4ccc([nH]4)c(-c4ccccc4)c4nc(c(-c5ccccc5)c5ccc2[nH]5)C=C4)C=C3)cc1
REMARK SMILES IDX 27 1 26 2 25 3 24 4 22 5 23 6 21 7 20 8 18 9 17 10 19 12
REMARK SMILES IDX 16 13 11 14 12 15 13 16 15 17 14 18 9 19 8 20 10 22 7 23
REMARK SMILES IDX 1 24 2 25 3 26 4 27 6 28 5 29 28 30 29 31 30 32 31 33 32 34
REMARK SMILES IDX 33 35 34 36 35 37 36 38 37 39 83 40 38 41 82 42 39 43 40 44
REMARK SMILES IDX 41 45 76 46 42 47 81 48 75 49 77 50 43 51 80 52 74 53 73 54
REMARK SMILES IDX 44 56 66 57 51 58 65 59 52 60 55 61 64 62 78 63 53 64 54 65
REMARK SMILES IDX 63 67 79 68 56 69 45 70 46 71 50 72 47 73 49 74 48 75 67 76
REMARK SMILES IDX 68 77 72 78 69 79 71 80 70 81 57 82 58 83 62 84 59 85 61 86
REMARK SMILES IDX 60 87
REMARK H PARENT 17 11 8 21 77 55 55 66
REMARK Flexibility Score: inf
ROOT
ATOM      1  O   UNL A   1      38.148  29.520  29.378  1.00  0.00    -0.376 OA
ENDROOT
BRANCH   1   2
ATOM      2  C   UNL A   1      36.664  30.088  29.250  1.00  0.00     0.202 C 
BRANCH   2   3
ATOM      3  C   UNL A   1      35.138  29.802  27.668  1.00  0.00     0.261 C 
BRANCH   3   4
ATOM      4  O   UNL A   1      34.010  30.828  27.241  1.00  0.00    -0.463 OA
BRANCH   4   5
ATOM      5  C   UNL A   1      32.891  30.330  26.697  1.00  0.00     0.306 C 
ATOM      6  O   UNL A   1      31.779  30.720  27.021  1.00  0.00    -0.252 OA
BRANCH   5   7
ATOM      7  C   UNL A   1      33.100  29.430  25.504  1.00  0.00     0.132 C 
BRANCH   7   8
ATOM      8  C   UNL A   1      33.960  28.222  25.314  1.00  0.00     0.112 C 
BRANCH   8   9
ATOM      9  C   UNL A   1      33.346  27.021  25.833  1.00  0.00     0.224 C 
ATOM     10  N   UNL A   1      33.473  25.793  25.289  1.00  0.00    -0.325 N 
ATOM     11  H   UNL A   1      32.607  25.351  25.137  1.00  0.00     0.169 HD
ATOM     12  O   UNL A   1      32.653  27.188  26.838  1.00  0.00    -0.275 OA
BRANCH  10  13
ATOM     13  C   UNL A   1      34.569  24.998  24.889  1.00  0.00     0.054 A 
ATOM     14  C   UNL A   1      34.322  24.144  23.314  1.00  0.00     0.063 A 
ATOM     15  C   UNL A   1      35.400  22.748  22.857  1.00  0.00     0.016 A 
ATOM     16  C   UNL A   1      36.714  22.214  23.958  1.00  0.00     0.001 A 
ATOM     17  C   UNL A   1      35.911  24.449  25.978  1.00  0.00     0.027 A 
ATOM     18  C   UNL A   1      36.978  23.056  25.530  1.00  0.00     0.002 A 
BRANCH  14  19
ATOM     19  C   UNL A   1      33.108  24.259  22.431  1.00  0.00     0.257 C 
ATOM     20  N   UNL A   1      31.803  23.953  22.773  1.00  0.00    -0.322 N 
ATOM     21  H   UNL A   1      31.358  23.402  22.090  1.00  0.00     0.170 HD
ATOM     22  O   UNL A   1      33.345  24.456  21.236  1.00  0.00    -0.269 OA
BRANCH  20  23
ATOM     23  C   UNL A   1      30.952  24.238  23.868  1.00  0.00     0.044 A 
ATOM     24  C   UNL A   1      31.851  22.132  25.070  1.00  0.00     0.046 C 
ATOM     25  C   UNL A   1      30.996  23.383  25.000  1.00  0.00    -0.027 A 
ATOM     26  C   UNL A   1      30.412  23.817  26.209  1.00  0.00     0.005 A 
ATOM     27  C   UNL A   1      29.817  25.072  26.304  1.00  0.00     0.000 A 
ATOM     28  C   UNL A   1      30.275  25.464  23.955  1.00  0.00     0.026 A 
ATOM     29  C   UNL A   1      29.737  25.887  25.178  1.00  0.00     0.002 A 
ENDBRANCH  20  23
ENDBRANCH  14  19
ENDBRANCH  10  13
ENDBRANCH   8   9
ENDBRANCH   7   8
ENDBRANCH   5   7
ENDBRANCH   4   5
ENDBRANCH   3   4
ENDBRANCH   2   3
ENDBRANCH   1   2
BRANCH   1  30
ATOM     30  C   UNL A   1      38.657  28.609  28.375  1.00  0.00     0.188 C 
BRANCH  30  31
ATOM     31  C   UNL A   1      40.177  28.436  28.271  1.00  0.00     0.188 C 
BRANCH  31  32
ATOM     32  O   UNL A   1      40.526  27.081  28.046  1.00  0.00    -0.376 OA
BRANCH  32  33
ATOM     33  C   UNL A   1      39.455  26.266  27.578  1.00  0.00     0.202 C 
BRANCH  33  34
ATOM     34  C   UNL A   1      39.965  25.030  26.831  1.00  0.00     0.261 C 
BRANCH  34  35
ATOM     35  O   UNL A   1      41.076  25.427  25.995  1.00  0.00    -0.460 OA
BRANCH  35  36
ATOM     36  C   UNL A   1      42.204  24.665  26.067  1.00  0.00     0.338 C 
ATOM     37  O   UNL A   1      42.382  23.602  25.497  1.00  0.00    -0.246 OA
BRANCH  36  38
ATOM     38  C   UNL A   1      43.128  25.204  27.120  1.00  0.00     0.060 A 
ATOM     39  C   UNL A   1      43.922  26.354  26.937  1.00  0.00     0.016 A 
ATOM     40  C   UNL A   1      43.411  24.408  28.208  1.00  0.00     0.016 A 
ATOM     41  C   UNL A   1      45.039  26.646  27.790  1.00  0.00     0.010 A 
ATOM     42  C   UNL A   1      44.535  24.686  28.976  1.00  0.00     0.010 A 
ATOM     43  C   UNL A   1      45.398  25.776  28.825  1.00  0.00    -0.014 A 
BRANCH  43  44
ATOM     44  C   UNL A   1      46.759  25.584  29.458  1.00  0.00     0.031 A 
ATOM     45  C   UNL A   1      48.113  25.287  28.798  1.00  0.00     0.074 A 
ATOM     46  C   UNL A   1      46.832  26.231  30.654  1.00  0.00     0.049 A 
ATOM     47  N   UNL A   1      49.255  25.349  29.433  1.00  0.00    -0.248 NA
ATOM     48  C   UNL A   1      48.354  25.003  27.377  1.00  0.00     0.031 C 
ATOM     49  C   UNL A   1      47.977  26.903  31.270  1.00  0.00     0.029 A 
ATOM     50  N   UNL A   1      45.840  26.455  31.588  1.00  0.00    -0.354 N 
ATOM     51  C   UNL A   1      50.277  25.599  28.520  1.00  0.00     0.074 A 
ATOM     52  C   UNL A   1      49.686  25.207  27.257  1.00  0.00     0.031 C 
ATOM     53  C   UNL A   1      47.680  27.237  32.533  1.00  0.00     0.029 A 
ATOM     54  C   UNL A   1      46.415  26.627  32.849  1.00  0.00     0.049 A 
ATOM     55  H   UNL A   1      44.875  26.487  31.394  1.00  0.00     0.167 HD
ATOM     56  C   UNL A   1      51.411  26.292  28.911  1.00  0.00     0.031 A 
ATOM     57  C   UNL A   1      46.256  25.657  33.803  1.00  0.00     0.031 A 
ATOM     58  C   UNL A   1      51.519  26.376  30.369  1.00  0.00     0.049 A 
ATOM     59  C   UNL A   1      47.542  24.887  34.106  1.00  0.00     0.074 A 
ATOM     60  C   UNL A   1      51.645  27.363  31.335  1.00  0.00     0.029 A 
ATOM     61  N   UNL A   1      51.368  25.196  31.058  1.00  0.00    -0.354 N 
ATOM     62  N   UNL A   1      48.701  25.212  33.591  1.00  0.00    -0.248 NA
ATOM     63  C   UNL A   1      47.680  23.708  34.963  1.00  0.00     0.031 C 
ATOM     64  C   UNL A   1      51.375  26.763  32.606  1.00  0.00     0.029 A 
ATOM     65  C   UNL A   1      51.167  25.412  32.398  1.00  0.00     0.049 A 
ATOM     66  H   UNL A   1      51.400  24.305  30.640  1.00  0.00     0.167 HD
ATOM     67  C   UNL A   1      49.640  24.257  33.847  1.00  0.00     0.074 A 
ATOM     68  C   UNL A   1      48.974  23.368  34.775  1.00  0.00     0.031 C 
ATOM     69  C   UNL A   1      50.841  24.242  33.197  1.00  0.00     0.031 A 
BRANCH  56  70
ATOM     70  C   UNL A   1      52.433  27.049  28.043  1.00  0.00    -0.014 A 
ATOM     71  C   UNL A   1      52.270  28.442  27.822  1.00  0.00     0.009 A 
ATOM     72  C   UNL A   1      53.470  26.452  27.305  1.00  0.00     0.009 A 
ATOM     73  C   UNL A   1      53.078  29.182  26.937  1.00  0.00     0.001 A 
ATOM     74  C   UNL A   1      54.285  27.188  26.416  1.00  0.00     0.001 A 
ATOM     75  C   UNL A   1      54.093  28.553  26.234  1.00  0.00     0.000 A 
ENDBRANCH  56  70
BRANCH  57  76
ATOM     76  C   UNL A   1      44.810  25.265  33.873  1.00  0.00    -0.014 A 
ATOM     77  C   UNL A   1      44.521  24.033  33.239  1.00  0.00     0.009 A 
ATOM     78  C   UNL A   1      44.004  25.639  34.965  1.00  0.00     0.009 A 
ATOM     79  C   UNL A   1      43.622  23.117  33.802  1.00  0.00     0.001 A 
ATOM     80  C   UNL A   1      43.080  24.725  35.509  1.00  0.00     0.001 A 
ATOM     81  C   UNL A   1      42.934  23.449  34.964  1.00  0.00     0.000 A 
ENDBRANCH  57  76
BRANCH  69  82
ATOM     82  C   UNL A   1      51.770  23.053  33.069  1.00  0.00    -0.014 A 
ATOM     83  C   UNL A   1      53.142  23.131  33.328  1.00  0.00     0.009 A 
ATOM     84  C   UNL A   1      51.213  21.752  32.963  1.00  0.00     0.009 A 
ATOM     85  C   UNL A   1      53.921  21.974  33.465  1.00  0.00     0.001 A 
ATOM     86  C   UNL A   1      51.976  20.598  33.159  1.00  0.00     0.001 A 
ATOM     87  C   UNL A   1      53.337  20.711  33.401  1.00  0.00     0.000 A 
ENDBRANCH  69  82
ENDBRANCH  43  44
ENDBRANCH  36  38
ENDBRANCH  35  36
ENDBRANCH  34  35
ENDBRANCH  33  34
ENDBRANCH  32  33
ENDBRANCH  31  32
ENDBRANCH  30  31
ENDBRANCH   1  30
TORSDOF 22
ENDMDL
MODEL 3
REMARK VINA RESULT:      -9.5     10.083     16.400
REMARK SMILES Cc1ccccc1NC(=O)c1ccccc1NC(=O)CCC(=O)OCCOCCOCCOC(=O)c1ccc(-c2c3nc(c(-c4ccccc4)c4ccc([nH]4)c(-c4ccccc4)c4nc(c(-c5ccccc5)c5ccc2[nH]5)C=C4)C=C3)cc1
REMARK SMILES IDX 27 1 26 2 25 3 24 4 22 5 23 6 21 7 20 8 18 9 17 10 19 12
REMARK SMILES IDX 16 13 11 14 12 15 13 16 15 17 14 18 9 19 8 20 10 22 7 23
REMARK SMILES IDX 1 24 2 25 3 26 4 27 6 28 5 29 28 30 29 31 30 32 31 33 32 34
REMARK SMILES IDX 33 35 34 36 35 37 36 38 37 39 83 40 38 41 82 42 39 43 40 44
REMARK SMILES IDX 41 45 76 46 42 47 81 48 75 49 77 50 43 51 80 52 74 53 73 54
REMARK SMILES IDX 44 56 66 57 51 58 65 59 52 60 55 61 64 62 78 63 53 64 54 65
REMARK SMILES IDX 63 67 79 68 56 69 45 70 46 71 50 72 47 73 49 74 48 75 67 76
REMARK SMILES IDX 68 77 72 78 69 79 71 80 70 81 57 82 58 83 62 84 59 85 61 86
REMARK SMILES IDX 60 87
REMARK H PARENT 17 11 8 21 77 55 55 66
REMARK Flexibility Score: inf
ROOT
ATOM      1  O   UNL A   1      47.317  42.380  24.018  1.00  0.00    -0.376 OA
ENDROOT
BRANCH   1   2
ATOM      2  C   UNL A   1      47.434  43.932  24.365  1.00  0.00     0.202 C 
BRANCH   2   3
ATOM      3  C   UNL A   1      48.321  45.607  23.215  1.00  0.00     0.261 C 
BRANCH   3   4
ATOM      4  O   UNL A   1      48.500  45.690  21.645  1.00  0.00    -0.463 OA
BRANCH   4   5
ATOM      5  C   UNL A   1      49.221  46.706  21.154  1.00  0.00     0.306 C 
ATOM      6  O   UNL A   1      50.424  46.802  21.341  1.00  0.00    -0.252 OA
BRANCH   5   7
ATOM      7  C   UNL A   1      48.498  47.594  20.171  1.00  0.00     0.132 C 
BRANCH   7   8
ATOM      8  C   UNL A   1      47.245  48.401  20.301  1.00  0.00     0.112 C 
BRANCH   8   9
ATOM      9  C   UNL A   1      46.957  49.166  19.110  1.00  0.00     0.224 C 
ATOM     10  N   UNL A   1      46.131  48.768  18.119  1.00  0.00    -0.325 N 
ATOM     11  H   UNL A   1      46.548  48.824  17.229  1.00  0.00     0.169 HD
ATOM     12  O   UNL A   1      47.544  50.246  19.033  1.00  0.00    -0.275 OA
BRANCH  10  13
ATOM     13  C   UNL A   1      44.804  48.288  18.071  1.00  0.00     0.054 A 
ATOM     14  C   UNL A   1      44.649  46.518  18.411  1.00  0.00     0.063 A 
ATOM     15  C   UNL A   1      43.120  45.637  17.962  1.00  0.00     0.016 A 
ATOM     16  C   UNL A   1      41.758  46.512  17.185  1.00  0.00     0.001 A 
ATOM     17  C   UNL A   1      43.411  49.154  17.299  1.00  0.00     0.027 A 
ATOM     18  C   UNL A   1      41.894  48.277  16.842  1.00  0.00     0.002 A 
BRANCH  14  19
ATOM     19  C   UNL A   1      45.777  45.588  18.768  1.00  0.00     0.257 C 
ATOM     20  N   UNL A   1      45.956  44.925  19.970  1.00  0.00    -0.322 N 
ATOM     21  H   UNL A   1      46.876  45.010  20.309  1.00  0.00     0.170 HD
ATOM     22  O   UNL A   1      46.725  45.583  17.977  1.00  0.00    -0.269 OA
BRANCH  20  23
ATOM     23  C   UNL A   1      45.137  44.155  20.831  1.00  0.00     0.044 A 
ATOM     24  C   UNL A   1      45.050  46.152  22.473  1.00  0.00     0.046 C 
ATOM     25  C   UNL A   1      44.662  44.754  22.026  1.00  0.00    -0.027 A 
ATOM     26  C   UNL A   1      43.605  44.138  22.728  1.00  0.00     0.005 A 
ATOM     27  C   UNL A   1      43.016  42.971  22.249  1.00  0.00     0.000 A 
ATOM     28  C   UNL A   1      44.590  42.935  20.406  1.00  0.00     0.026 A 
ATOM     29  C   UNL A   1      43.515  42.364  21.100  1.00  0.00     0.002 A 
ENDBRANCH  20  23
ENDBRANCH  14  19
ENDBRANCH  10  13
ENDBRANCH   8   9
ENDBRANCH   7   8
ENDBRANCH   5   7
ENDBRANCH   4   5
ENDBRANCH   3   4
ENDBRANCH   2   3
ENDBRANCH   1   2
BRANCH   1  30
ATOM     30  C   UNL A   1      46.727  41.472  24.978  1.00  0.00     0.188 C 
BRANCH  30  31
ATOM     31  C   UNL A   1      46.744  39.974  24.650  1.00  0.00     0.188 C 
BRANCH  31  32
ATOM     32  O   UNL A   1      45.864  39.253  25.495  1.00  0.00    -0.376 OA
BRANCH  32  33
ATOM     33  C   UNL A   1      46.472  38.737  26.676  1.00  0.00     0.202 C 
BRANCH  33  34
ATOM     34  C   UNL A   1      45.866  37.390  27.087  1.00  0.00     0.261 C 
BRANCH  34  35
ATOM     35  O   UNL A   1      46.274  36.393  26.124  1.00  0.00    -0.460 OA
BRANCH  35  36
ATOM     36  C   UNL A   1      47.150  35.442  26.557  1.00  0.00     0.338 C 
ATOM     37  O   UNL A   1      48.289  35.646  26.941  1.00  0.00    -0.246 OA
BRANCH  36  38
ATOM     38  C   UNL A   1      46.598  34.070  26.295  1.00  0.00     0.060 A 
ATOM     39  C   UNL A   1      45.289  33.840  25.829  1.00  0.00     0.016 A 
ATOM     40  C   UNL A   1      47.299  32.984  26.771  1.00  0.00     0.016 A 
ATOM     41  C   UNL A   1      44.668  32.549  25.924  1.00  0.00     0.010 A 
ATOM     42  C   UNL A   1      46.648  31.764  26.905  1.00  0.00     0.010 A 
ATOM     43  C   UNL A   1      45.338  31.472  26.514  1.00  0.00    -0.014 A 
BRANCH  43  44
ATOM     44  C   UNL A   1      44.744  30.255  27.188  1.00  0.00     0.031 A 
ATOM     45  C   UNL A   1      43.727  30.170  28.336  1.00  0.00     0.074 A 
ATOM     46  C   UNL A   1      44.755  29.183  26.349  1.00  0.00     0.049 A 
ATOM     47  N   UNL A   1      43.133  29.060  28.692  1.00  0.00    -0.248 NA
ATOM     48  C   UNL A   1      43.191  31.290  29.120  1.00  0.00     0.031 C 
ATOM     49  C   UNL A   1      43.782  28.096  26.228  1.00  0.00     0.029 A 
ATOM     50  N   UNL A   1      45.667  28.852  25.367  1.00  0.00    -0.354 N 
ATOM     51  C   UNL A   1      41.920  29.365  29.307  1.00  0.00     0.074 A 
ATOM     52  C   UNL A   1      42.091  30.750  29.693  1.00  0.00     0.031 C 
ATOM     53  C   UNL A   1      44.266  27.141  25.423  1.00  0.00     0.029 A 
ATOM     54  C   UNL A   1      45.640  27.473  25.149  1.00  0.00     0.049 A 
ATOM     55  H   UNL A   1      46.248  29.491  24.893  1.00  0.00     0.167 HD
ATOM     56  C   UNL A   1      40.856  28.480  29.233  1.00  0.00     0.031 A 
ATOM     57  C   UNL A   1      46.702  26.705  25.547  1.00  0.00     0.031 A 
ATOM     58  C   UNL A   1      41.284  27.154  28.779  1.00  0.00     0.049 A 
ATOM     59  C   UNL A   1      46.386  25.804  26.742  1.00  0.00     0.074 A 
ATOM     60  C   UNL A   1      40.965  26.262  27.767  1.00  0.00     0.029 A 
ATOM     61  N   UNL A   1      42.367  26.611  29.429  1.00  0.00    -0.354 N 
ATOM     62  N   UNL A   1      45.183  25.695  27.247  1.00  0.00    -0.248 NA
ATOM     63  C   UNL A   1      47.329  24.973  27.491  1.00  0.00     0.031 C 
ATOM     64  C   UNL A   1      42.000  25.276  27.717  1.00  0.00     0.029 A 
ATOM     65  C   UNL A   1      42.886  25.541  28.745  1.00  0.00     0.049 A 
ATOM     66  H   UNL A   1      42.726  26.949  30.282  1.00  0.00     0.167 HD
ATOM     67  C   UNL A   1      45.203  25.002  28.422  1.00  0.00     0.074 A 
ATOM     68  C   UNL A   1      46.560  24.504  28.498  1.00  0.00     0.031 C 
ATOM     69  C   UNL A   1      44.126  24.986  29.262  1.00  0.00     0.031 A 
BRANCH  56  70
ATOM     70  C   UNL A   1      39.354  28.751  29.430  1.00  0.00    -0.014 A 
ATOM     71  C   UNL A   1      38.622  29.420  28.414  1.00  0.00     0.009 A 
ATOM     72  C   UNL A   1      38.638  28.520  30.618  1.00  0.00     0.009 A 
ATOM     73  C   UNL A   1      37.282  29.825  28.568  1.00  0.00     0.001 A 
ATOM     74  C   UNL A   1      37.293  28.924  30.780  1.00  0.00     0.001 A 
ATOM     75  C   UNL A   1      36.613  29.573  29.755  1.00  0.00     0.000 A 
ENDBRANCH  56  70
BRANCH  57  76
ATOM     76  C   UNL A   1      47.977  27.341  25.078  1.00  0.00    -0.014 A 
ATOM     77  C   UNL A   1      48.678  28.031  26.097  1.00  0.00     0.009 A 
ATOM     78  C   UNL A   1      48.734  26.777  24.035  1.00  0.00     0.009 A 
ATOM     79  C   UNL A   1      50.075  27.970  26.188  1.00  0.00     0.001 A 
ATOM     80  C   UNL A   1      50.140  26.745  24.118  1.00  0.00     0.001 A 
ATOM     81  C   UNL A   1      50.802  27.288  25.220  1.00  0.00     0.000 A 
ENDBRANCH  57  76
BRANCH  69  82
ATOM     82  C   UNL A   1      44.149  24.631  30.734  1.00  0.00    -0.014 A 
ATOM     83  C   UNL A   1      43.823  23.358  31.212  1.00  0.00     0.009 A 
ATOM     84  C   UNL A   1      44.789  25.511  31.645  1.00  0.00     0.009 A 
ATOM     85  C   UNL A   1      44.111  22.983  32.531  1.00  0.00     0.001 A 
ATOM     86  C   UNL A   1      45.131  25.118  32.941  1.00  0.00     0.001 A 
ATOM     87  C   UNL A   1      44.781  23.854  33.388  1.00  0.00     0.000 A 
ENDBRANCH  69  82
ENDBRANCH  43  44
ENDBRANCH  36  38
ENDBRANCH  35  36
ENDBRANCH  34  35
ENDBRANCH  33  34
ENDBRANCH  32  33
ENDBRANCH  31  32
ENDBRANCH  30  31
ENDBRANCH   1  30
TORSDOF 22
ENDMDL
