MODEL 1
REMARK VINA RESULT:     -11.1      0.000      0.000
REMARK SMILES C[C@H](C(=O)OCCOCCOCCOC(=O)c1ccc(-c2c3nc(c(-c4ccccc4)c4ccc([nH]4)c(-c4ccccc4)c4nc(c(-c5ccccc5)c5ccc2[nH]5)C=C4)C=C3)cc1)c1ccc2c3cc(Cl)ccc3n(C(=O)c3ccc(Cl)cc3)c2c1
REMARK SMILES IDX 9 1 8 2 7 3 6 4 5 5 3 6 4 7 2 8 1 9 65 10 66 11 87 12 67 13
REMARK SMILES IDX 86 14 68 15 76 16 69 17 75 18 70 19 74 20 71 21 73 22 72 23
REMARK SMILES IDX 77 24 78 25 79 26 80 27 85 28 81 29 84 30 82 31 83 32 10 33
REMARK SMILES IDX 11 34 12 35 13 36 14 37 15 38 16 39 17 40 18 41 64 42 19 43
REMARK SMILES IDX 63 44 20 45 21 46 22 47 57 48 23 49 62 50 56 51 58 52 24 53
REMARK SMILES IDX 61 54 55 55 54 56 25 58 47 59 32 60 46 61 33 62 36 63 45 64
REMARK SMILES IDX 59 65 34 66 35 67 44 69 60 70 37 71 26 72 27 73 31 74 28 75
REMARK SMILES IDX 30 76 29 77 48 78 49 79 53 80 50 81 52 82 51 83 38 84 39 85
REMARK SMILES IDX 43 86 40 87 42 88 41 89
REMARK H PARENT 58 57 36 68
REMARK Flexibility Score: inf
ROOT
ATOM      1  C   UNL A   1      37.574  22.781  25.514  1.00  0.00     0.188 C 
ENDROOT
BRANCH   1   2
ATOM      2  O   UNL A   1      36.649  23.678  24.905  1.00  0.00    -0.376 OA
BRANCH   2   3
ATOM      3  C   UNL A   1      36.201  23.363  23.593  1.00  0.00     0.202 C 
BRANCH   3   4
ATOM      4  C   UNL A   1      34.732  22.936  23.459  1.00  0.00     0.261 C 
BRANCH   4   5
ATOM      5  O   UNL A   1      34.098  22.685  24.729  1.00  0.00    -0.463 OA
BRANCH   5   6
ATOM      6  C   UNL A   1      32.884  22.061  24.702  1.00  0.00     0.313 C 
ATOM      7  O   UNL A   1      32.672  20.977  24.172  1.00  0.00    -0.252 OA
BRANCH   6   8
ATOM      8  C   UNL A   1      31.789  22.878  25.393  1.00  0.00     0.126 C 
ATOM      9  C   UNL A   1      32.045  23.109  26.884  1.00  0.00     0.025 C 
BRANCH   8  10
ATOM     10  C   UNL A   1      31.509  24.239  24.787  1.00  0.00    -0.032 A 
ATOM     11  C   UNL A   1      31.096  24.301  23.450  1.00  0.00     0.005 A 
ATOM     12  C   UNL A   1      31.518  25.405  25.558  1.00  0.00     0.032 A 
ATOM     13  C   UNL A   1      30.561  25.473  22.917  1.00  0.00     0.011 A 
ATOM     14  C   UNL A   1      31.081  26.609  24.978  1.00  0.00     0.057 A 
ATOM     15  C   UNL A   1      30.525  26.635  23.709  1.00  0.00     0.008 A 
ATOM     16  N   UNL A   1      31.087  27.913  25.493  1.00  0.00    -0.276 N 
ATOM     17  C   UNL A   1      30.014  27.939  23.503  1.00  0.00     0.009 A 
ATOM     18  C   UNL A   1      30.445  28.747  24.567  1.00  0.00     0.057 A 
ATOM     19  C   UNL A   1      29.268  28.496  22.444  1.00  0.00     0.031 A 
ATOM     20  C   UNL A   1      30.277  30.143  24.496  1.00  0.00     0.029 A 
ATOM     21  C   UNL A   1      29.040  29.865  22.421  1.00  0.00     0.041 A 
ATOM     22  C   UNL A   1      29.562  30.683  23.415  1.00  0.00     0.023 A 
ATOM     23  Cl  UNL A   1      28.146  30.549  21.117  1.00  0.00    -0.084 Cl
BRANCH  16  24
ATOM     24  C   UNL A   1      31.758  28.229  26.704  1.00  0.00     0.262 C 
ATOM     25  O   UNL A   1      31.378  27.593  27.691  1.00  0.00    -0.268 OA
BRANCH  24  26
ATOM     26  C   UNL A   1      32.809  29.250  26.980  1.00  0.00     0.040 A 
ATOM     27  C   UNL A   1      34.133  28.769  27.088  1.00  0.00     0.015 A 
ATOM     28  C   UNL A   1      32.571  30.598  27.251  1.00  0.00     0.015 A 
ATOM     29  C   UNL A   1      35.195  29.613  27.415  1.00  0.00     0.021 A 
ATOM     30  C   UNL A   1      33.644  31.456  27.543  1.00  0.00     0.021 A 
ATOM     31  C   UNL A   1      34.947  30.962  27.625  1.00  0.00     0.041 A 
ATOM     32  Cl  UNL A   1      36.251  32.015  28.007  1.00  0.00    -0.084 Cl
ENDBRANCH  24  26
ENDBRANCH  16  24
ENDBRANCH   8  10
ENDBRANCH   6   8
ENDBRANCH   5   6
ENDBRANCH   4   5
ENDBRANCH   3   4
ENDBRANCH   2   3
ENDBRANCH   1   2
BRANCH   1  33
ATOM     33  C   UNL A   1      37.184  21.290  25.609  1.00  0.00     0.188 C 
BRANCH  33  34
ATOM     34  O   UNL A   1      37.796  20.412  24.674  1.00  0.00    -0.376 OA
BRANCH  34  35
ATOM     35  C   UNL A   1      38.453  19.267  25.207  1.00  0.00     0.202 C 
BRANCH  35  36
ATOM     36  C   UNL A   1      39.617  19.559  26.165  1.00  0.00     0.261 C 
BRANCH  36  37
ATOM     37  O   UNL A   1      40.873  19.028  25.675  1.00  0.00    -0.460 OA
BRANCH  37  38
ATOM     38  C   UNL A   1      41.989  19.420  26.337  1.00  0.00     0.338 C 
ATOM     39  O   UNL A   1      43.003  18.767  26.508  1.00  0.00    -0.246 OA
BRANCH  38  40
ATOM     40  C   UNL A   1      41.900  20.848  26.731  1.00  0.00     0.060 A 
ATOM     41  C   UNL A   1      41.508  21.770  25.751  1.00  0.00     0.016 A 
ATOM     42  C   UNL A   1      42.286  21.302  27.993  1.00  0.00     0.016 A 
ATOM     43  C   UNL A   1      41.515  23.142  26.016  1.00  0.00     0.010 A 
ATOM     44  C   UNL A   1      42.326  22.682  28.250  1.00  0.00     0.010 A 
ATOM     45  C   UNL A   1      41.967  23.611  27.255  1.00  0.00    -0.014 A 
BRANCH  45  46
ATOM     46  C   UNL A   1      42.232  25.062  27.444  1.00  0.00     0.031 A 
ATOM     47  C   UNL A   1      43.468  25.662  26.826  1.00  0.00     0.074 A 
ATOM     48  C   UNL A   1      41.379  25.855  28.117  1.00  0.00     0.049 A 
ATOM     49  N   UNL A   1      43.938  26.881  26.920  1.00  0.00    -0.248 NA
ATOM     50  C   UNL A   1      44.276  24.768  25.983  1.00  0.00     0.031 C 
ATOM     51  C   UNL A   1      40.104  25.436  28.695  1.00  0.00     0.029 A 
ATOM     52  N   UNL A   1      41.467  27.192  28.428  1.00  0.00    -0.354 N 
ATOM     53  C   UNL A   1      45.105  26.896  26.165  1.00  0.00     0.074 A 
ATOM     54  C   UNL A   1      45.277  25.563  25.628  1.00  0.00     0.031 C 
ATOM     55  C   UNL A   1      39.532  26.494  29.298  1.00  0.00     0.029 A 
ATOM     56  C   UNL A   1      40.418  27.651  29.187  1.00  0.00     0.049 A 
ATOM     57  H   UNL A   1      42.212  27.766  28.134  1.00  0.00     0.167 HD
ATOM     58  C   UNL A   1      45.962  27.921  25.941  1.00  0.00     0.031 A 
ATOM     59  C   UNL A   1      40.211  28.857  29.754  1.00  0.00     0.031 A 
ATOM     60  C   UNL A   1      45.809  29.246  26.480  1.00  0.00     0.049 A 
ATOM     61  C   UNL A   1      41.233  29.951  29.579  1.00  0.00     0.074 A 
ATOM     62  C   UNL A   1      46.634  30.345  26.312  1.00  0.00     0.029 A 
ATOM     63  N   UNL A   1      44.765  29.649  27.296  1.00  0.00    -0.354 N 
ATOM     64  N   UNL A   1      42.338  29.949  28.875  1.00  0.00    -0.248 NA
ATOM     65  C   UNL A   1      40.977  31.218  30.286  1.00  0.00     0.031 C 
ATOM     66  C   UNL A   1      46.117  31.400  27.071  1.00  0.00     0.029 A 
ATOM     67  C   UNL A   1      44.939  30.974  27.664  1.00  0.00     0.049 A 
ATOM     68  H   UNL A   1      44.011  29.080  27.574  1.00  0.00     0.167 HD
ATOM     69  C   UNL A   1      42.892  31.216  29.031  1.00  0.00     0.074 A 
ATOM     70  C   UNL A   1      41.995  31.965  29.885  1.00  0.00     0.031 C 
ATOM     71  C   UNL A   1      44.041  31.713  28.511  1.00  0.00     0.031 A 
BRANCH  58  72
ATOM     72  C   UNL A   1      47.181  27.629  25.112  1.00  0.00    -0.014 A 
ATOM     73  C   UNL A   1      47.166  27.761  23.715  1.00  0.00     0.009 A 
ATOM     74  C   UNL A   1      48.371  27.241  25.747  1.00  0.00     0.009 A 
ATOM     75  C   UNL A   1      48.311  27.475  22.969  1.00  0.00     0.001 A 
ATOM     76  C   UNL A   1      49.521  26.981  25.001  1.00  0.00     0.001 A 
ATOM     77  C   UNL A   1      49.487  27.089  23.611  1.00  0.00     0.000 A 
ENDBRANCH  58  72
BRANCH  59  78
ATOM     78  C   UNL A   1      39.002  29.096  30.587  1.00  0.00    -0.014 A 
ATOM     79  C   UNL A   1      39.008  28.802  31.960  1.00  0.00     0.009 A 
ATOM     80  C   UNL A   1      37.820  29.578  30.003  1.00  0.00     0.009 A 
ATOM     81  C   UNL A   1      37.849  28.964  32.723  1.00  0.00     0.001 A 
ATOM     82  C   UNL A   1      36.672  29.766  30.775  1.00  0.00     0.001 A 
ATOM     83  C   UNL A   1      36.684  29.450  32.132  1.00  0.00     0.000 A 
ENDBRANCH  59  78
BRANCH  71  84
ATOM     84  C   UNL A   1      44.378  33.147  28.814  1.00  0.00    -0.014 A 
ATOM     85  C   UNL A   1      45.183  33.493  29.910  1.00  0.00     0.009 A 
ATOM     86  C   UNL A   1      43.919  34.163  27.961  1.00  0.00     0.009 A 
ATOM     87  C   UNL A   1      45.498  34.831  30.161  1.00  0.00     0.001 A 
ATOM     88  C   UNL A   1      44.256  35.497  28.199  1.00  0.00     0.001 A 
ATOM     89  C   UNL A   1      45.038  35.830  29.304  1.00  0.00     0.000 A 
ENDBRANCH  71  84
ENDBRANCH  45  46
ENDBRANCH  38  40
ENDBRANCH  37  38
ENDBRANCH  36  37
ENDBRANCH  35  36
ENDBRANCH  34  35
ENDBRANCH  33  34
ENDBRANCH   1  33
TORSDOF 20
ENDMDL
MODEL 2
REMARK VINA RESULT:     -10.7      1.267      5.598
REMARK SMILES C[C@H](C(=O)OCCOCCOCCOC(=O)c1ccc(-c2c3nc(c(-c4ccccc4)c4ccc([nH]4)c(-c4ccccc4)c4nc(c(-c5ccccc5)c5ccc2[nH]5)C=C4)C=C3)cc1)c1ccc2c3cc(Cl)ccc3n(C(=O)c3ccc(Cl)cc3)c2c1
REMARK SMILES IDX 9 1 8 2 7 3 6 4 5 5 3 6 4 7 2 8 1 9 65 10 66 11 87 12 67 13
REMARK SMILES IDX 86 14 68 15 76 16 69 17 75 18 70 19 74 20 71 21 73 22 72 23
REMARK SMILES IDX 77 24 78 25 79 26 80 27 85 28 81 29 84 30 82 31 83 32 10 33
REMARK SMILES IDX 11 34 12 35 13 36 14 37 15 38 16 39 17 40 18 41 64 42 19 43
REMARK SMILES IDX 63 44 20 45 21 46 22 47 57 48 23 49 62 50 56 51 58 52 24 53
REMARK SMILES IDX 61 54 55 55 54 56 25 58 47 59 32 60 46 61 33 62 36 63 45 64
REMARK SMILES IDX 59 65 34 66 35 67 44 69 60 70 37 71 26 72 27 73 31 74 28 75
REMARK SMILES IDX 30 76 29 77 48 78 49 79 53 80 50 81 52 82 51 83 38 84 39 85
REMARK SMILES IDX 43 86 40 87 42 88 41 89
REMARK H PARENT 58 57 36 68
REMARK Flexibility Score: inf
ROOT
ATOM      1  C   UNL A   1      37.666  22.936  25.421  1.00  0.00     0.188 C 
ENDROOT
BRANCH   1   2
ATOM      2  O   UNL A   1      36.676  23.662  24.696  1.00  0.00    -0.376 OA
BRANCH   2   3
ATOM      3  C   UNL A   1      36.256  23.125  23.448  1.00  0.00     0.202 C 
BRANCH   3   4
ATOM      4  C   UNL A   1      34.750  22.869  23.290  1.00  0.00     0.261 C 
BRANCH   4   5
ATOM      5  O   UNL A   1      34.119  22.440  24.513  1.00  0.00    -0.463 OA
BRANCH   5   6
ATOM      6  C   UNL A   1      32.867  21.903  24.408  1.00  0.00     0.313 C 
ATOM      7  O   UNL A   1      32.597  20.889  23.774  1.00  0.00    -0.252 OA
BRANCH   6   8
ATOM      8  C   UNL A   1      31.812  22.723  25.156  1.00  0.00     0.126 C 
ATOM      9  C   UNL A   1      32.119  22.904  26.644  1.00  0.00     0.025 C 
BRANCH   8  10
ATOM     10  C   UNL A   1      31.543  24.106  24.598  1.00  0.00    -0.032 A 
ATOM     11  C   UNL A   1      31.158  24.221  23.256  1.00  0.00     0.005 A 
ATOM     12  C   UNL A   1      31.537  25.241  25.415  1.00  0.00     0.032 A 
ATOM     13  C   UNL A   1      30.633  25.412  22.760  1.00  0.00     0.011 A 
ATOM     14  C   UNL A   1      31.111  26.467  24.874  1.00  0.00     0.057 A 
ATOM     15  C   UNL A   1      30.580  26.543  23.596  1.00  0.00     0.008 A 
ATOM     16  N   UNL A   1      31.106  27.750  25.439  1.00  0.00    -0.276 N 
ATOM     17  C   UNL A   1      30.073  27.854  23.431  1.00  0.00     0.009 A 
ATOM     18  C   UNL A   1      30.482  28.620  24.534  1.00  0.00     0.057 A 
ATOM     19  C   UNL A   1      29.348  28.452  22.379  1.00  0.00     0.031 A 
ATOM     20  C   UNL A   1      30.315  30.017  24.515  1.00  0.00     0.029 A 
ATOM     21  C   UNL A   1      29.119  29.822  22.406  1.00  0.00     0.041 A 
ATOM     22  C   UNL A   1      29.621  30.599  23.441  1.00  0.00     0.023 A 
ATOM     23  Cl  UNL A   1      28.252  30.556  21.112  1.00  0.00    -0.084 Cl
BRANCH  16  24
ATOM     24  C   UNL A   1      31.752  28.017  26.675  1.00  0.00     0.262 C 
ATOM     25  O   UNL A   1      31.327  27.370  27.636  1.00  0.00    -0.268 OA
BRANCH  24  26
ATOM     26  C   UNL A   1      32.824  29.001  27.003  1.00  0.00     0.040 A 
ATOM     27  C   UNL A   1      32.407  30.338  27.190  1.00  0.00     0.015 A 
ATOM     28  C   UNL A   1      34.191  28.725  27.023  1.00  0.00     0.015 A 
ATOM     29  C   UNL A   1      33.322  31.364  27.432  1.00  0.00     0.021 A 
ATOM     30  C   UNL A   1      35.110  29.750  27.303  1.00  0.00     0.021 A 
ATOM     31  C   UNL A   1      34.674  31.061  27.505  1.00  0.00     0.041 A 
ATOM     32  Cl  UNL A   1      35.809  32.313  27.823  1.00  0.00    -0.084 Cl
ENDBRANCH  24  26
ENDBRANCH  16  24
ENDBRANCH   8  10
ENDBRANCH   6   8
ENDBRANCH   5   6
ENDBRANCH   4   5
ENDBRANCH   3   4
ENDBRANCH   2   3
ENDBRANCH   1   2
BRANCH   1  33
ATOM     33  C   UNL A   1      37.397  21.446  25.722  1.00  0.00     0.188 C 
BRANCH  33  34
ATOM     34  O   UNL A   1      37.916  20.506  24.791  1.00  0.00    -0.376 OA
BRANCH  34  35
ATOM     35  C   UNL A   1      38.547  19.350  25.332  1.00  0.00     0.202 C 
BRANCH  35  36
ATOM     36  C   UNL A   1      39.863  19.604  26.082  1.00  0.00     0.261 C 
BRANCH  36  37
ATOM     37  O   UNL A   1      40.974  18.887  25.491  1.00  0.00    -0.460 OA
BRANCH  37  38
ATOM     38  C   UNL A   1      42.188  19.086  26.063  1.00  0.00     0.338 C 
ATOM     39  O   UNL A   1      43.097  18.279  26.142  1.00  0.00    -0.246 OA
BRANCH  38  40
ATOM     40  C   UNL A   1      42.356  20.501  26.477  1.00  0.00     0.060 A 
ATOM     41  C   UNL A   1      42.600  21.448  25.473  1.00  0.00     0.016 A 
ATOM     42  C   UNL A   1      42.379  20.890  27.817  1.00  0.00     0.016 A 
ATOM     43  C   UNL A   1      42.884  22.777  25.798  1.00  0.00     0.010 A 
ATOM     44  C   UNL A   1      42.697  22.218  28.146  1.00  0.00     0.010 A 
ATOM     45  C   UNL A   1      42.979  23.163  27.141  1.00  0.00    -0.014 A 
BRANCH  45  46
ATOM     46  C   UNL A   1      43.542  24.494  27.489  1.00  0.00     0.031 A 
ATOM     47  C   UNL A   1      42.623  25.551  28.043  1.00  0.00     0.074 A 
ATOM     48  C   UNL A   1      44.854  24.763  27.357  1.00  0.00     0.049 A 
ATOM     49  N   UNL A   1      42.877  26.799  28.346  1.00  0.00    -0.248 NA
ATOM     50  C   UNL A   1      41.233  25.140  28.296  1.00  0.00     0.031 C 
ATOM     51  C   UNL A   1      45.876  23.816  26.918  1.00  0.00     0.029 A 
ATOM     52  N   UNL A   1      45.548  25.928  27.585  1.00  0.00    -0.354 N 
ATOM     53  C   UNL A   1      41.677  27.328  28.807  1.00  0.00     0.074 A 
ATOM     54  C   UNL A   1      40.693  26.268  28.735  1.00  0.00     0.031 C 
ATOM     55  C   UNL A   1      47.068  24.441  26.900  1.00  0.00     0.029 A 
ATOM     56  C   UNL A   1      46.885  25.840  27.283  1.00  0.00     0.049 A 
ATOM     57  H   UNL A   1      45.127  26.748  27.931  1.00  0.00     0.167 HD
ATOM     58  C   UNL A   1      41.411  28.581  29.246  1.00  0.00     0.031 A 
ATOM     59  C   UNL A   1      47.847  26.786  27.286  1.00  0.00     0.031 A 
ATOM     60  C   UNL A   1      42.376  29.646  29.310  1.00  0.00     0.049 A 
ATOM     61  C   UNL A   1      47.503  28.201  27.676  1.00  0.00     0.074 A 
ATOM     62  C   UNL A   1      42.193  30.951  29.734  1.00  0.00     0.029 A 
ATOM     63  N   UNL A   1      43.704  29.530  28.934  1.00  0.00    -0.354 N 
ATOM     64  N   UNL A   1      46.363  28.691  28.097  1.00  0.00    -0.248 NA
ATOM     65  C   UNL A   1      48.585  29.196  27.586  1.00  0.00     0.031 C 
ATOM     66  C   UNL A   1      43.398  31.641  29.564  1.00  0.00     0.029 A 
ATOM     67  C   UNL A   1      44.346  30.748  29.089  1.00  0.00     0.049 A 
ATOM     68  H   UNL A   1      44.129  28.705  28.606  1.00  0.00     0.167 HD
ATOM     69  C   UNL A   1      46.597  30.040  28.347  1.00  0.00     0.074 A 
ATOM     70  C   UNL A   1      47.990  30.288  28.044  1.00  0.00     0.031 C 
ATOM     71  C   UNL A   1      45.733  30.987  28.789  1.00  0.00     0.031 A 
BRANCH  58  72
ATOM     72  C   UNL A   1      39.994  28.885  29.643  1.00  0.00    -0.014 A 
ATOM     73  C   UNL A   1      39.119  29.561  28.779  1.00  0.00     0.009 A 
ATOM     74  C   UNL A   1      39.522  28.461  30.895  1.00  0.00     0.009 A 
ATOM     75  C   UNL A   1      37.809  29.837  29.176  1.00  0.00     0.001 A 
ATOM     76  C   UNL A   1      38.204  28.715  31.279  1.00  0.00     0.001 A 
ATOM     77  C   UNL A   1      37.352  29.412  30.423  1.00  0.00     0.000 A 
ENDBRANCH  58  72
BRANCH  59  78
ATOM     78  C   UNL A   1      49.232  26.448  26.861  1.00  0.00    -0.014 A 
ATOM     79  C   UNL A   1      49.647  26.658  25.537  1.00  0.00     0.009 A 
ATOM     80  C   UNL A   1      50.133  25.871  27.770  1.00  0.00     0.009 A 
ATOM     81  C   UNL A   1      50.927  26.276  25.128  1.00  0.00     0.001 A 
ATOM     82  C   UNL A   1      51.422  25.517  27.365  1.00  0.00     0.001 A 
ATOM     83  C   UNL A   1      51.815  25.710  26.043  1.00  0.00     0.000 A 
ENDBRANCH  59  78
BRANCH  71  84
ATOM     84  C   UNL A   1      46.276  32.371  29.014  1.00  0.00    -0.014 A 
ATOM     85  C   UNL A   1      46.240  33.343  28.002  1.00  0.00     0.009 A 
ATOM     86  C   UNL A   1      46.787  32.720  30.274  1.00  0.00     0.009 A 
ATOM     87  C   UNL A   1      46.734  34.629  28.241  1.00  0.00     0.001 A 
ATOM     88  C   UNL A   1      47.255  34.013  30.517  1.00  0.00     0.001 A 
ATOM     89  C   UNL A   1      47.236  34.963  29.498  1.00  0.00     0.000 A 
ENDBRANCH  71  84
ENDBRANCH  45  46
ENDBRANCH  38  40
ENDBRANCH  37  38
ENDBRANCH  36  37
ENDBRANCH  35  36
ENDBRANCH  34  35
ENDBRANCH  33  34
ENDBRANCH   1  33
TORSDOF 20
ENDMDL
MODEL 3
REMARK VINA RESULT:     -10.3      4.994     10.596
REMARK SMILES C[C@H](C(=O)OCCOCCOCCOC(=O)c1ccc(-c2c3nc(c(-c4ccccc4)c4ccc([nH]4)c(-c4ccccc4)c4nc(c(-c5ccccc5)c5ccc2[nH]5)C=C4)C=C3)cc1)c1ccc2c3cc(Cl)ccc3n(C(=O)c3ccc(Cl)cc3)c2c1
REMARK SMILES IDX 9 1 8 2 7 3 6 4 5 5 3 6 4 7 2 8 1 9 65 10 66 11 87 12 67 13
REMARK SMILES IDX 86 14 68 15 76 16 69 17 75 18 70 19 74 20 71 21 73 22 72 23
REMARK SMILES IDX 77 24 78 25 79 26 80 27 85 28 81 29 84 30 82 31 83 32 10 33
REMARK SMILES IDX 11 34 12 35 13 36 14 37 15 38 16 39 17 40 18 41 64 42 19 43
REMARK SMILES IDX 63 44 20 45 21 46 22 47 57 48 23 49 62 50 56 51 58 52 24 53
REMARK SMILES IDX 61 54 55 55 54 56 25 58 47 59 32 60 46 61 33 62 36 63 45 64
REMARK SMILES IDX 59 65 34 66 35 67 44 69 60 70 37 71 26 72 27 73 31 74 28 75
REMARK SMILES IDX 30 76 29 77 48 78 49 79 53 80 50 81 52 82 51 83 38 84 39 85
REMARK SMILES IDX 43 86 40 87 42 88 41 89
REMARK H PARENT 58 57 36 68
REMARK Flexibility Score: inf
ROOT
ATOM      1  C   UNL A   1      33.270  29.025  27.386  1.00  0.00     0.188 C 
ENDROOT
BRANCH   1   2
ATOM      2  O   UNL A   1      32.651  28.548  26.194  1.00  0.00    -0.376 OA
BRANCH   2   3
ATOM      3  C   UNL A   1      33.110  29.083  24.960  1.00  0.00     0.202 C 
BRANCH   3   4
ATOM      4  C   UNL A   1      33.216  28.097  23.788  1.00  0.00     0.261 C 
BRANCH   4   5
ATOM      5  O   UNL A   1      31.933  27.629  23.325  1.00  0.00    -0.463 OA
BRANCH   5   6
ATOM      6  C   UNL A   1      31.724  26.279  23.345  1.00  0.00     0.313 C 
ATOM      7  O   UNL A   1      31.744  25.559  22.355  1.00  0.00    -0.252 OA
BRANCH   6   8
ATOM      8  C   UNL A   1      31.432  25.752  24.753  1.00  0.00     0.126 C 
ATOM      9  C   UNL A   1      29.960  25.862  25.156  1.00  0.00     0.025 C 
BRANCH   8  10
ATOM     10  C   UNL A   1      31.846  24.317  25.012  1.00  0.00    -0.032 A 
ATOM     11  C   UNL A   1      30.903  23.441  25.566  1.00  0.00     0.005 A 
ATOM     12  C   UNL A   1      33.082  23.820  24.591  1.00  0.00     0.032 A 
ATOM     13  C   UNL A   1      31.120  22.065  25.572  1.00  0.00     0.011 A 
ATOM     14  C   UNL A   1      33.337  22.441  24.705  1.00  0.00     0.057 A 
ATOM     15  C   UNL A   1      32.346  21.558  25.103  1.00  0.00     0.008 A 
ATOM     16  N   UNL A   1      34.511  21.717  24.455  1.00  0.00    -0.276 N 
ATOM     17  C   UNL A   1      32.856  20.249  24.925  1.00  0.00     0.009 A 
ATOM     18  C   UNL A   1      34.221  20.354  24.614  1.00  0.00     0.057 A 
ATOM     19  C   UNL A   1      32.255  18.983  25.074  1.00  0.00     0.031 A 
ATOM     20  C   UNL A   1      35.028  19.201  24.615  1.00  0.00     0.029 A 
ATOM     21  C   UNL A   1      33.046  17.844  24.997  1.00  0.00     0.041 A 
ATOM     22  C   UNL A   1      34.416  17.950  24.802  1.00  0.00     0.023 A 
ATOM     23  Cl  UNL A   1      32.317  16.297  25.200  1.00  0.00    -0.084 Cl
BRANCH  16  24
ATOM     24  C   UNL A   1      35.745  22.370  24.203  1.00  0.00     0.262 C 
ATOM     25  O   UNL A   1      35.808  22.966  23.123  1.00  0.00    -0.268 OA
BRANCH  24  26
ATOM     26  C   UNL A   1      36.998  22.400  25.011  1.00  0.00     0.040 A 
ATOM     27  C   UNL A   1      37.303  23.626  25.644  1.00  0.00     0.015 A 
ATOM     28  C   UNL A   1      37.930  21.365  25.091  1.00  0.00     0.015 A 
ATOM     29  C   UNL A   1      38.483  23.803  26.369  1.00  0.00     0.021 A 
ATOM     30  C   UNL A   1      39.100  21.529  25.851  1.00  0.00     0.021 A 
ATOM     31  C   UNL A   1      39.371  22.743  26.485  1.00  0.00     0.041 A 
ATOM     32  Cl  UNL A   1      40.816  22.943  27.393  1.00  0.00    -0.084 Cl
ENDBRANCH  24  26
ENDBRANCH  16  24
ENDBRANCH   8  10
ENDBRANCH   6   8
ENDBRANCH   5   6
ENDBRANCH   4   5
ENDBRANCH   3   4
ENDBRANCH   2   3
ENDBRANCH   1   2
BRANCH   1  33
ATOM     33  C   UNL A   1      34.010  30.378  27.327  1.00  0.00     0.188 C 
BRANCH  33  34
ATOM     34  O   UNL A   1      33.255  31.530  27.678  1.00  0.00    -0.376 OA
BRANCH  34  35
ATOM     35  C   UNL A   1      33.993  32.682  28.073  1.00  0.00     0.202 C 
BRANCH  35  36
ATOM     36  C   UNL A   1      33.218  34.008  28.038  1.00  0.00     0.261 C 
BRANCH  36  37
ATOM     37  O   UNL A   1      32.539  34.275  29.290  1.00  0.00    -0.460 OA
BRANCH  37  38
ATOM     38  C   UNL A   1      33.112  35.203  30.097  1.00  0.00     0.338 C 
ATOM     39  O   UNL A   1      32.730  36.344  30.282  1.00  0.00    -0.246 OA
BRANCH  38  40
ATOM     40  C   UNL A   1      34.227  34.612  30.879  1.00  0.00     0.060 A 
ATOM     41  C   UNL A   1      35.531  35.008  30.555  1.00  0.00     0.016 A 
ATOM     42  C   UNL A   1      34.022  33.617  31.836  1.00  0.00     0.016 A 
ATOM     43  C   UNL A   1      36.634  34.408  31.168  1.00  0.00     0.010 A 
ATOM     44  C   UNL A   1      35.131  32.989  32.428  1.00  0.00     0.010 A 
ATOM     45  C   UNL A   1      36.442  33.361  32.078  1.00  0.00    -0.014 A 
BRANCH  45  46
ATOM     46  C   UNL A   1      37.604  32.546  32.521  1.00  0.00     0.031 A 
ATOM     47  C   UNL A   1      38.205  32.811  33.877  1.00  0.00     0.074 A 
ATOM     48  C   UNL A   1      38.106  31.556  31.760  1.00  0.00     0.049 A 
ATOM     49  N   UNL A   1      39.261  32.277  34.439  1.00  0.00    -0.248 NA
ATOM     50  C   UNL A   1      37.515  33.806  34.713  1.00  0.00     0.031 C 
ATOM     51  C   UNL A   1      37.577  31.128  30.467  1.00  0.00     0.029 A 
ATOM     52  N   UNL A   1      39.184  30.730  31.974  1.00  0.00    -0.354 N 
ATOM     53  C   UNL A   1      39.373  32.883  35.685  1.00  0.00     0.074 A 
ATOM     54  C   UNL A   1      38.285  33.832  35.792  1.00  0.00     0.031 C 
ATOM     55  C   UNL A   1      38.338  30.122  29.998  1.00  0.00     0.029 A 
ATOM     56  C   UNL A   1      39.431  29.866  30.935  1.00  0.00     0.049 A 
ATOM     57  H   UNL A   1      39.728  30.755  32.795  1.00  0.00     0.167 HD
ATOM     58  C   UNL A   1      40.299  32.678  36.652  1.00  0.00     0.031 A 
ATOM     59  C   UNL A   1      40.439  28.991  30.746  1.00  0.00     0.031 A 
ATOM     60  C   UNL A   1      41.392  31.748  36.551  1.00  0.00     0.049 A 
ATOM     61  C   UNL A   1      41.519  28.857  31.790  1.00  0.00     0.074 A 
ATOM     62  C   UNL A   1      42.384  31.480  37.479  1.00  0.00     0.029 A 
ATOM     63  N   UNL A   1      41.641  30.939  35.454  1.00  0.00    -0.354 N 
ATOM     64  N   UNL A   1      41.622  29.445  32.957  1.00  0.00    -0.248 NA
ATOM     65  C   UNL A   1      42.626  27.936  31.485  1.00  0.00     0.031 C 
ATOM     66  C   UNL A   1      43.265  30.547  36.922  1.00  0.00     0.029 A 
ATOM     67  C   UNL A   1      42.788  30.192  35.671  1.00  0.00     0.049 A 
ATOM     68  H   UNL A   1      41.086  30.901  34.642  1.00  0.00     0.167 HD
ATOM     69  C   UNL A   1      42.785  28.947  33.533  1.00  0.00     0.074 A 
ATOM     70  C   UNL A   1      43.347  27.998  32.595  1.00  0.00     0.031 C 
ATOM     71  C   UNL A   1      43.338  29.248  34.734  1.00  0.00     0.031 A 
BRANCH  58  72
ATOM     72  C   UNL A   1      40.198  33.521  37.891  1.00  0.00    -0.014 A 
ATOM     73  C   UNL A   1      39.399  33.134  38.978  1.00  0.00     0.009 A 
ATOM     74  C   UNL A   1      40.938  34.711  37.979  1.00  0.00     0.009 A 
ATOM     75  C   UNL A   1      39.316  33.942  40.114  1.00  0.00     0.001 A 
ATOM     76  C   UNL A   1      40.874  35.502  39.127  1.00  0.00     0.001 A 
ATOM     77  C   UNL A   1      40.056  35.122  40.189  1.00  0.00     0.000 A 
ENDBRANCH  58  72
BRANCH  59  78
ATOM     78  C   UNL A   1      40.514  28.193  29.493  1.00  0.00    -0.014 A 
ATOM     79  C   UNL A   1      39.937  26.915  29.421  1.00  0.00     0.009 A 
ATOM     80  C   UNL A   1      41.203  28.689  28.375  1.00  0.00     0.009 A 
ATOM     81  C   UNL A   1      40.070  26.143  28.264  1.00  0.00     0.001 A 
ATOM     82  C   UNL A   1      41.309  27.926  27.210  1.00  0.00     0.001 A 
ATOM     83  C   UNL A   1      40.751  26.651  27.158  1.00  0.00     0.000 A 
ENDBRANCH  59  78
BRANCH  71  84
ATOM     84  C   UNL A   1      44.593  28.517  35.125  1.00  0.00    -0.014 A 
ATOM     85  C   UNL A   1      44.544  27.284  35.792  1.00  0.00     0.009 A 
ATOM     86  C   UNL A   1      45.844  29.051  34.776  1.00  0.00     0.009 A 
ATOM     87  C   UNL A   1      45.723  26.614  36.128  1.00  0.00     0.001 A 
ATOM     88  C   UNL A   1      47.020  28.367  35.090  1.00  0.00     0.001 A 
ATOM     89  C   UNL A   1      46.959  27.154  35.773  1.00  0.00     0.000 A 
ENDBRANCH  71  84
ENDBRANCH  45  46
ENDBRANCH  38  40
ENDBRANCH  37  38
ENDBRANCH  36  37
ENDBRANCH  35  36
ENDBRANCH  34  35
ENDBRANCH  33  34
ENDBRANCH   1  33
TORSDOF 20
ENDMDL
