MODEL 1
REMARK VINA RESULT:     -11.5      0.000      0.000
REMARK SMILES Cc1c(NC(=O)c2ccc(Br)cc2N)cccc1C(=O)OCCOCCOCCOC(=O)c1ccc(-c2c3nc(c(-c4ccccc4)c4ccc([nH]4)c(-c4ccccc4)c4nc(c(-c5ccccc5)c5ccc2[nH]5)C=C4)C=C3)cc1
REMARK SMILES IDX 25 1 24 2 23 3 22 4 21 5 19 6 20 7 18 8 1 9 2 10 3 11 15 12
REMARK SMILES IDX 17 13 16 14 4 15 5 16 6 18 7 19 8 20 13 21 9 22 12 23 10 24
REMARK SMILES IDX 11 25 14 26 26 29 27 30 28 31 29 32 30 33 31 34 32 35 33 36
REMARK SMILES IDX 34 37 80 38 35 39 79 40 36 41 37 42 38 43 73 44 39 45 78 46
REMARK SMILES IDX 72 47 74 48 40 49 77 50 71 51 70 52 41 54 63 55 48 56 62 57
REMARK SMILES IDX 49 58 52 59 61 60 75 61 50 62 51 63 60 65 76 66 53 67 42 68
REMARK SMILES IDX 43 69 47 70 44 71 46 72 45 73 64 74 65 75 69 76 66 77 68 78
REMARK SMILES IDX 67 79 54 80 55 81 59 82 56 83 58 84 57 85
REMARK H PARENT 4 17 14 27 14 28 74 53 52 64
REMARK Flexibility Score: inf
ROOT
ATOM      1  C   UNL A   1      41.908  18.777  26.032  1.00  0.00     0.188 C 
ENDROOT
BRANCH   1   2
ATOM      2  O   UNL A   1      41.060  19.775  26.653  1.00  0.00    -0.376 OA
BRANCH   2   3
ATOM      3  C   UNL A   1      40.952  21.149  26.230  1.00  0.00     0.202 C 
BRANCH   3   4
ATOM      4  C   UNL A   1      39.737  22.178  26.759  1.00  0.00     0.261 C 
BRANCH   4   5
ATOM      5  O   UNL A   1      38.240  22.540  26.089  1.00  0.00    -0.460 OA
BRANCH   5   6
ATOM      6  C   UNL A   1      37.128  21.788  25.620  1.00  0.00     0.338 C 
ATOM      7  O   UNL A   1      37.090  20.599  25.309  1.00  0.00    -0.246 OA
BRANCH   6   8
ATOM      8  C   UNL A   1      35.753  22.209  25.321  1.00  0.00     0.065 A 
ATOM      9  C   UNL A   1      36.581  23.365  23.264  1.00  0.00     0.047 C 
ATOM     10  C   UNL A   1      35.490  22.715  24.057  1.00  0.00    -0.013 A 
ATOM     11  C   UNL A   1      34.192  22.523  23.539  1.00  0.00     0.045 A 
ATOM     12  C   UNL A   1      33.223  21.738  24.192  1.00  0.00     0.026 A 
ATOM     13  C   UNL A   1      34.722  21.479  26.012  1.00  0.00     0.016 A 
ATOM     14  C   UNL A   1      33.481  21.217  25.441  1.00  0.00     0.003 A 
BRANCH  11  15
ATOM     15  N   UNL A   1      33.856  23.205  22.370  1.00  0.00    -0.322 N 
ATOM     16  C   UNL A   1      33.142  24.377  22.254  1.00  0.00     0.257 C 
ATOM     17  H   UNL A   1      34.165  22.801  21.527  1.00  0.00     0.170 HD
ATOM     18  O   UNL A   1      32.866  24.794  21.129  1.00  0.00    -0.269 OA
BRANCH  16  19
ATOM     19  C   UNL A   1      32.717  25.166  23.449  1.00  0.00     0.063 A 
ATOM     20  C   UNL A   1      33.716  26.001  23.978  1.00  0.00     0.017 A 
ATOM     21  C   UNL A   1      31.431  25.138  24.039  1.00  0.00     0.045 A 
ATOM     22  C   UNL A   1      33.451  26.815  25.077  1.00  0.00     0.016 A 
ATOM     23  C   UNL A   1      31.185  25.973  25.140  1.00  0.00     0.042 A 
ATOM     24  C   UNL A   1      32.185  26.801  25.648  1.00  0.00     0.020 A 
ATOM     25  Br  UNL A   1      31.823  27.887  27.152  1.00  0.00    -0.051 Br
BRANCH  21  26
ATOM     26  N   UNL A   1      30.423  24.233  23.698  1.00  0.00    -0.398 N 
ATOM     27  H   UNL A   1      29.499  24.549  23.571  1.00  0.00     0.156 HD
ATOM     28  H   UNL A   1      30.636  23.278  23.585  1.00  0.00     0.156 HD
ENDBRANCH  21  26
ENDBRANCH  16  19
ENDBRANCH  11  15
ENDBRANCH   6   8
ENDBRANCH   5   6
ENDBRANCH   4   5
ENDBRANCH   3   4
ENDBRANCH   2   3
ENDBRANCH   1   2
BRANCH   1  29
ATOM     29  C   UNL A   1      43.352  18.490  26.467  1.00  0.00     0.188 C 
BRANCH  29  30
ATOM     30  O   UNL A   1      44.137  18.077  25.362  1.00  0.00    -0.376 OA
BRANCH  30  31
ATOM     31  C   UNL A   1      45.460  18.591  25.314  1.00  0.00     0.202 C 
BRANCH  31  32
ATOM     32  C   UNL A   1      45.729  19.457  24.063  1.00  0.00     0.261 C 
BRANCH  32  33
ATOM     33  O   UNL A   1      44.858  20.616  24.034  1.00  0.00    -0.460 OA
BRANCH  33  34
ATOM     34  C   UNL A   1      45.346  21.795  24.544  1.00  0.00     0.338 C 
ATOM     35  O   UNL A   1      46.532  22.087  24.609  1.00  0.00    -0.246 OA
BRANCH  34  36
ATOM     36  C   UNL A   1      44.245  22.556  25.229  1.00  0.00     0.060 A 
ATOM     37  C   UNL A   1      43.554  23.674  24.736  1.00  0.00     0.016 A 
ATOM     38  C   UNL A   1      44.183  22.391  26.566  1.00  0.00     0.016 A 
ATOM     39  C   UNL A   1      42.978  24.687  25.626  1.00  0.00     0.010 A 
ATOM     40  C   UNL A   1      43.908  23.542  27.298  1.00  0.00     0.010 A 
ATOM     41  C   UNL A   1      43.205  24.706  27.003  1.00  0.00    -0.014 A 
BRANCH  41  42
ATOM     42  C   UNL A   1      42.950  25.901  28.082  1.00  0.00     0.031 A 
ATOM     43  C   UNL A   1      41.678  26.965  28.380  1.00  0.00     0.074 A 
ATOM     44  C   UNL A   1      44.045  26.195  28.817  1.00  0.00     0.049 A 
ATOM     45  N   UNL A   1      41.835  28.243  28.692  1.00  0.00    -0.248 NA
ATOM     46  C   UNL A   1      40.184  26.770  28.241  1.00  0.00     0.031 C 
ATOM     47  C   UNL A   1      44.185  27.164  29.896  1.00  0.00     0.029 A 
ATOM     48  N   UNL A   1      45.360  25.805  28.538  1.00  0.00    -0.354 N 
ATOM     49  C   UNL A   1      40.564  28.818  28.845  1.00  0.00     0.074 A 
ATOM     50  C   UNL A   1      39.664  27.978  28.192  1.00  0.00     0.031 C 
ATOM     51  C   UNL A   1      45.470  27.552  29.941  1.00  0.00     0.029 A 
ATOM     52  C   UNL A   1      46.159  26.915  28.830  1.00  0.00     0.049 A 
ATOM     53  H   UNL A   1      45.660  24.929  28.203  1.00  0.00     0.167 HD
ATOM     54  C   UNL A   1      40.236  29.864  29.649  1.00  0.00     0.031 A 
ATOM     55  C   UNL A   1      46.871  27.533  27.847  1.00  0.00     0.031 A 
ATOM     56  C   UNL A   1      41.435  30.580  29.976  1.00  0.00     0.049 A 
ATOM     57  C   UNL A   1      46.521  28.999  27.703  1.00  0.00     0.074 A 
ATOM     58  C   UNL A   1      42.300  30.545  31.049  1.00  0.00     0.029 A 
ATOM     59  N   UNL A   1      42.122  31.140  28.912  1.00  0.00    -0.354 N 
ATOM     60  N   UNL A   1      45.493  29.578  28.265  1.00  0.00    -0.248 NA
ATOM     61  C   UNL A   1      47.298  29.926  26.883  1.00  0.00     0.031 C 
ATOM     62  C   UNL A   1      43.586  30.918  30.550  1.00  0.00     0.029 A 
ATOM     63  C   UNL A   1      43.463  31.256  29.212  1.00  0.00     0.049 A 
ATOM     64  H   UNL A   1      41.711  31.416  28.061  1.00  0.00     0.167 HD
ATOM     65  C   UNL A   1      45.412  30.878  27.845  1.00  0.00     0.074 A 
ATOM     66  C   UNL A   1      46.590  31.060  27.017  1.00  0.00     0.031 C 
ATOM     67  C   UNL A   1      44.369  31.700  28.162  1.00  0.00     0.031 A 
BRANCH  54  68
ATOM     68  C   UNL A   1      38.825  30.105  30.219  1.00  0.00    -0.014 A 
ATOM     69  C   UNL A   1      38.024  31.126  29.686  1.00  0.00     0.009 A 
ATOM     70  C   UNL A   1      38.256  29.456  31.348  1.00  0.00     0.009 A 
ATOM     71  C   UNL A   1      36.766  31.464  30.238  1.00  0.00     0.001 A 
ATOM     72  C   UNL A   1      36.992  29.755  31.881  1.00  0.00     0.001 A 
ATOM     73  C   UNL A   1      36.246  30.774  31.330  1.00  0.00     0.000 A 
ENDBRANCH  54  68
BRANCH  55  74
ATOM     74  C   UNL A   1      47.388  26.626  26.768  1.00  0.00    -0.014 A 
ATOM     75  C   UNL A   1      46.459  26.122  25.825  1.00  0.00     0.009 A 
ATOM     76  C   UNL A   1      48.751  26.449  26.484  1.00  0.00     0.009 A 
ATOM     77  C   UNL A   1      46.865  25.577  24.602  1.00  0.00     0.001 A 
ATOM     78  C   UNL A   1      49.160  25.878  25.262  1.00  0.00     0.001 A 
ATOM     79  C   UNL A   1      48.219  25.467  24.314  1.00  0.00     0.000 A 
ENDBRANCH  55  74
BRANCH  67  80
ATOM     80  C   UNL A   1      44.071  33.008  27.465  1.00  0.00    -0.014 A 
ATOM     81  C   UNL A   1      43.930  33.134  26.076  1.00  0.00     0.009 A 
ATOM     82  C   UNL A   1      43.736  34.139  28.242  1.00  0.00     0.009 A 
ATOM     83  C   UNL A   1      43.527  34.340  25.490  1.00  0.00     0.001 A 
ATOM     84  C   UNL A   1      43.272  35.323  27.666  1.00  0.00     0.001 A 
ATOM     85  C   UNL A   1      43.185  35.430  26.286  1.00  0.00     0.000 A 
ENDBRANCH  67  80
ENDBRANCH  41  42
ENDBRANCH  34  36
ENDBRANCH  33  34
ENDBRANCH  32  33
ENDBRANCH  31  32
ENDBRANCH  30  31
ENDBRANCH  29  30
ENDBRANCH   1  29
TORSDOF 20
ENDMDL
MODEL 2
REMARK VINA RESULT:     -11.5      2.100      2.896
REMARK SMILES Cc1c(NC(=O)c2ccc(Br)cc2N)cccc1C(=O)OCCOCCOCCOC(=O)c1ccc(-c2c3nc(c(-c4ccccc4)c4ccc([nH]4)c(-c4ccccc4)c4nc(c(-c5ccccc5)c5ccc2[nH]5)C=C4)C=C3)cc1
REMARK SMILES IDX 25 1 24 2 23 3 22 4 21 5 19 6 20 7 18 8 1 9 2 10 3 11 15 12
REMARK SMILES IDX 17 13 16 14 4 15 5 16 6 18 7 19 8 20 13 21 9 22 12 23 10 24
REMARK SMILES IDX 11 25 14 26 26 29 27 30 28 31 29 32 30 33 31 34 32 35 33 36
REMARK SMILES IDX 34 37 80 38 35 39 79 40 36 41 37 42 38 43 73 44 39 45 78 46
REMARK SMILES IDX 72 47 74 48 40 49 77 50 71 51 70 52 41 54 63 55 48 56 62 57
REMARK SMILES IDX 49 58 52 59 61 60 75 61 50 62 51 63 60 65 76 66 53 67 42 68
REMARK SMILES IDX 43 69 47 70 44 71 46 72 45 73 64 74 65 75 69 76 66 77 68 78
REMARK SMILES IDX 67 79 54 80 55 81 59 82 56 83 58 84 57 85
REMARK H PARENT 4 17 14 27 14 28 74 53 52 64
REMARK Flexibility Score: inf
ROOT
ATOM      1  C   UNL A   1      41.056  20.805  26.601  1.00  0.00     0.188 C 
ENDROOT
BRANCH   1   2
ATOM      2  O   UNL A   1      40.715  21.599  27.764  1.00  0.00    -0.376 OA
BRANCH   2   3
ATOM      3  C   UNL A   1      40.692  23.040  27.804  1.00  0.00     0.202 C 
BRANCH   3   4
ATOM      4  C   UNL A   1      39.330  23.947  27.430  1.00  0.00     0.261 C 
BRANCH   4   5
ATOM      5  O   UNL A   1      38.106  23.674  26.313  1.00  0.00    -0.460 OA
BRANCH   5   6
ATOM      6  C   UNL A   1      37.556  22.532  25.667  1.00  0.00     0.338 C 
ATOM      7  O   UNL A   1      37.971  21.375  25.684  1.00  0.00    -0.246 OA
BRANCH   6   8
ATOM      8  C   UNL A   1      36.401  22.412  24.769  1.00  0.00     0.065 A 
ATOM      9  C   UNL A   1      34.880  22.506  26.753  1.00  0.00     0.047 C 
ATOM     10  C   UNL A   1      35.144  22.682  25.290  1.00  0.00    -0.013 A 
ATOM     11  C   UNL A   1      34.171  23.192  24.404  1.00  0.00     0.045 A 
ATOM     12  C   UNL A   1      34.468  23.551  23.075  1.00  0.00     0.026 A 
ATOM     13  C   UNL A   1      36.664  22.708  23.384  1.00  0.00     0.016 A 
ATOM     14  C   UNL A   1      35.720  23.302  22.554  1.00  0.00     0.003 A 
BRANCH  11  15
ATOM     15  N   UNL A   1      32.856  23.267  24.862  1.00  0.00    -0.322 N 
ATOM     16  C   UNL A   1      31.913  22.264  24.882  1.00  0.00     0.257 C 
ATOM     17  H   UNL A   1      32.567  24.141  25.212  1.00  0.00     0.170 HD
ATOM     18  O   UNL A   1      30.768  22.534  25.247  1.00  0.00    -0.269 OA
BRANCH  16  19
ATOM     19  C   UNL A   1      32.243  20.859  24.499  1.00  0.00     0.063 A 
ATOM     20  C   UNL A   1      32.697  20.059  25.562  1.00  0.00     0.017 A 
ATOM     21  C   UNL A   1      32.117  20.309  23.201  1.00  0.00     0.045 A 
ATOM     22  C   UNL A   1      33.016  18.719  25.355  1.00  0.00     0.016 A 
ATOM     23  C   UNL A   1      32.436  18.954  23.019  1.00  0.00     0.042 A 
ATOM     24  C   UNL A   1      32.878  18.172  24.085  1.00  0.00     0.020 A 
ATOM     25  Br  UNL A   1      33.328  16.360  23.791  1.00  0.00    -0.051 Br
BRANCH  21  26
ATOM     26  N   UNL A   1      31.834  21.049  22.051  1.00  0.00    -0.398 N 
ATOM     27  H   UNL A   1      32.536  21.599  21.634  1.00  0.00     0.156 HD
ATOM     28  H   UNL A   1      30.932  21.023  21.658  1.00  0.00     0.156 HD
ENDBRANCH  21  26
ENDBRANCH  16  19
ENDBRANCH  11  15
ENDBRANCH   6   8
ENDBRANCH   5   6
ENDBRANCH   4   5
ENDBRANCH   3   4
ENDBRANCH   2   3
ENDBRANCH   1   2
BRANCH   1  29
ATOM     29  C   UNL A   1      42.002  19.596  26.637  1.00  0.00     0.188 C 
BRANCH  29  30
ATOM     30  O   UNL A   1      42.587  19.378  25.365  1.00  0.00    -0.376 OA
BRANCH  30  31
ATOM     31  C   UNL A   1      43.849  18.724  25.366  1.00  0.00     0.202 C 
BRANCH  31  32
ATOM     32  C   UNL A   1      44.653  18.959  24.067  1.00  0.00     0.261 C 
BRANCH  32  33
ATOM     33  O   UNL A   1      44.689  20.367  23.723  1.00  0.00    -0.460 OA
BRANCH  33  34
ATOM     34  C   UNL A   1      45.755  21.107  24.174  1.00  0.00     0.338 C 
ATOM     35  O   UNL A   1      46.820  20.638  24.548  1.00  0.00    -0.246 OA
BRANCH  34  36
ATOM     36  C   UNL A   1      45.341  22.540  24.373  1.00  0.00     0.060 A 
ATOM     37  C   UNL A   1      46.176  23.633  24.652  1.00  0.00     0.016 A 
ATOM     38  C   UNL A   1      44.042  22.719  24.689  1.00  0.00     0.016 A 
ATOM     39  C   UNL A   1      45.705  24.798  25.405  1.00  0.00     0.010 A 
ATOM     40  C   UNL A   1      43.790  23.684  25.658  1.00  0.00     0.010 A 
ATOM     41  C   UNL A   1      44.460  24.845  26.034  1.00  0.00    -0.014 A 
BRANCH  41  42
ATOM     42  C   UNL A   1      43.908  25.875  27.170  1.00  0.00     0.031 A 
ATOM     43  C   UNL A   1      42.503  26.788  27.348  1.00  0.00     0.074 A 
ATOM     44  C   UNL A   1      44.828  26.165  28.116  1.00  0.00     0.049 A 
ATOM     45  N   UNL A   1      42.476  28.027  27.817  1.00  0.00    -0.248 NA
ATOM     46  C   UNL A   1      41.081  26.491  26.924  1.00  0.00     0.031 C 
ATOM     47  C   UNL A   1      44.686  27.002  29.300  1.00  0.00     0.029 A 
ATOM     48  N   UNL A   1      46.204  25.919  28.037  1.00  0.00    -0.354 N 
ATOM     49  C   UNL A   1      41.145  28.475  27.801  1.00  0.00     0.074 A 
ATOM     50  C   UNL A   1      40.457  27.650  26.912  1.00  0.00     0.031 C 
ATOM     51  C   UNL A   1      45.899  27.485  29.614  1.00  0.00     0.029 A 
ATOM     52  C   UNL A   1      46.827  27.046  28.584  1.00  0.00     0.049 A 
ATOM     53  H   UNL A   1      46.643  25.118  27.670  1.00  0.00     0.167 HD
ATOM     54  C   UNL A   1      40.584  29.384  28.639  1.00  0.00     0.031 A 
ATOM     55  C   UNL A   1      47.627  27.835  27.814  1.00  0.00     0.031 A 
ATOM     56  C   UNL A   1      41.632  30.150  29.250  1.00  0.00     0.049 A 
ATOM     57  C   UNL A   1      47.160  29.275  27.767  1.00  0.00     0.074 A 
ATOM     58  C   UNL A   1      42.303  30.054  30.450  1.00  0.00     0.029 A 
ATOM     59  N   UNL A   1      42.428  30.889  28.392  1.00  0.00    -0.354 N 
ATOM     60  N   UNL A   1      45.999  29.695  28.194  1.00  0.00    -0.248 NA
ATOM     61  C   UNL A   1      47.966  30.354  27.202  1.00  0.00     0.031 C 
ATOM     62  C   UNL A   1      43.610  30.588  30.231  1.00  0.00     0.029 A 
ATOM     63  C   UNL A   1      43.680  31.076  28.936  1.00  0.00     0.049 A 
ATOM     64  H   UNL A   1      42.140  31.233  27.515  1.00  0.00     0.167 HD
ATOM     65  C   UNL A   1      45.860  31.026  27.908  1.00  0.00     0.074 A 
ATOM     66  C   UNL A   1      47.135  31.403  27.327  1.00  0.00     0.031 C 
ATOM     67  C   UNL A   1      44.701  31.716  28.119  1.00  0.00     0.031 A 
BRANCH  54  68
ATOM     68  C   UNL A   1      39.079  29.439  28.971  1.00  0.00    -0.014 A 
ATOM     69  C   UNL A   1      38.167  29.878  27.999  1.00  0.00     0.009 A 
ATOM     70  C   UNL A   1      38.492  29.192  30.241  1.00  0.00     0.009 A 
ATOM     71  C   UNL A   1      36.792  30.051  28.278  1.00  0.00     0.001 A 
ATOM     72  C   UNL A   1      37.122  29.322  30.521  1.00  0.00     0.001 A 
ATOM     73  C   UNL A   1      36.268  29.766  29.535  1.00  0.00     0.000 A 
ENDBRANCH  54  68
BRANCH  55  74
ATOM     74  C   UNL A   1      48.408  27.111  26.755  1.00  0.00    -0.014 A 
ATOM     75  C   UNL A   1      48.143  27.433  25.402  1.00  0.00     0.009 A 
ATOM     76  C   UNL A   1      49.544  26.332  27.019  1.00  0.00     0.009 A 
ATOM     77  C   UNL A   1      49.030  27.099  24.373  1.00  0.00     0.001 A 
ATOM     78  C   UNL A   1      50.425  25.975  25.979  1.00  0.00     0.001 A 
ATOM     79  C   UNL A   1      50.181  26.379  24.664  1.00  0.00     0.000 A 
ENDBRANCH  55  74
BRANCH  67  80
ATOM     80  C   UNL A   1      44.394  33.071  27.522  1.00  0.00    -0.014 A 
ATOM     81  C   UNL A   1      44.173  33.286  26.155  1.00  0.00     0.009 A 
ATOM     82  C   UNL A   1      44.135  34.158  28.386  1.00  0.00     0.009 A 
ATOM     83  C   UNL A   1      43.765  34.535  25.669  1.00  0.00     0.001 A 
ATOM     84  C   UNL A   1      43.667  35.386  27.913  1.00  0.00     0.001 A 
ATOM     85  C   UNL A   1      43.499  35.580  26.550  1.00  0.00     0.000 A 
ENDBRANCH  67  80
ENDBRANCH  41  42
ENDBRANCH  34  36
ENDBRANCH  33  34
ENDBRANCH  32  33
ENDBRANCH  31  32
ENDBRANCH  30  31
ENDBRANCH  29  30
ENDBRANCH   1  29
TORSDOF 20
ENDMDL
MODEL 3
REMARK VINA RESULT:     -11.2      1.633      2.153
REMARK SMILES Cc1c(NC(=O)c2ccc(Br)cc2N)cccc1C(=O)OCCOCCOCCOC(=O)c1ccc(-c2c3nc(c(-c4ccccc4)c4ccc([nH]4)c(-c4ccccc4)c4nc(c(-c5ccccc5)c5ccc2[nH]5)C=C4)C=C3)cc1
REMARK SMILES IDX 25 1 24 2 23 3 22 4 21 5 19 6 20 7 18 8 1 9 2 10 3 11 15 12
REMARK SMILES IDX 17 13 16 14 4 15 5 16 6 18 7 19 8 20 13 21 9 22 12 23 10 24
REMARK SMILES IDX 11 25 14 26 26 29 27 30 28 31 29 32 30 33 31 34 32 35 33 36
REMARK SMILES IDX 34 37 80 38 35 39 79 40 36 41 37 42 38 43 73 44 39 45 78 46
REMARK SMILES IDX 72 47 74 48 40 49 77 50 71 51 70 52 41 54 63 55 48 56 62 57
REMARK SMILES IDX 49 58 52 59 61 60 75 61 50 62 51 63 60 65 76 66 53 67 42 68
REMARK SMILES IDX 43 69 47 70 44 71 46 72 45 73 64 74 65 75 69 76 66 77 68 78
REMARK SMILES IDX 67 79 54 80 55 81 59 82 56 83 58 84 57 85
REMARK H PARENT 4 17 14 27 14 28 74 53 52 64
REMARK Flexibility Score: inf
ROOT
ATOM      1  C   UNL A   1      40.019  20.091  25.963  1.00  0.00     0.188 C 
ENDROOT
BRANCH   1   2
ATOM      2  O   UNL A   1      39.427  21.391  26.209  1.00  0.00    -0.376 OA
BRANCH   2   3
ATOM      3  C   UNL A   1      38.298  21.935  25.496  1.00  0.00     0.202 C 
BRANCH   3   4
ATOM      4  C   UNL A   1      37.235  20.992  24.604  1.00  0.00     0.261 C 
BRANCH   4   5
ATOM      5  O   UNL A   1      35.743  20.339  25.014  1.00  0.00    -0.460 OA
BRANCH   5   6
ATOM      6  C   UNL A   1      34.395  20.792  24.994  1.00  0.00     0.338 C 
ATOM      7  O   UNL A   1      33.372  20.145  25.210  1.00  0.00    -0.246 OA
BRANCH   6   8
ATOM      8  C   UNL A   1      33.840  22.110  24.661  1.00  0.00     0.065 A 
ATOM      9  C   UNL A   1      34.832  23.031  26.764  1.00  0.00     0.047 C 
ATOM     10  C   UNL A   1      34.299  23.206  25.376  1.00  0.00    -0.013 A 
ATOM     11  C   UNL A   1      34.307  24.453  24.715  1.00  0.00     0.045 A 
ATOM     12  C   UNL A   1      33.999  24.591  23.349  1.00  0.00     0.026 A 
ATOM     13  C   UNL A   1      33.448  22.284  23.286  1.00  0.00     0.016 A 
ATOM     14  C   UNL A   1      33.558  23.503  22.626  1.00  0.00     0.003 A 
BRANCH  11  15
ATOM     15  N   UNL A   1      34.563  25.589  25.483  1.00  0.00    -0.322 N 
ATOM     16  C   UNL A   1      33.694  26.612  25.790  1.00  0.00     0.257 C 
ATOM     17  H   UNL A   1      35.474  25.669  25.849  1.00  0.00     0.170 HD
ATOM     18  O   UNL A   1      34.120  27.584  26.415  1.00  0.00    -0.269 OA
BRANCH  16  19
ATOM     19  C   UNL A   1      32.251  26.565  25.408  1.00  0.00     0.063 A 
ATOM     20  C   UNL A   1      31.868  27.535  24.465  1.00  0.00     0.017 A 
ATOM     21  C   UNL A   1      31.299  25.640  25.899  1.00  0.00     0.045 A 
ATOM     22  C   UNL A   1      30.558  27.591  23.997  1.00  0.00     0.016 A 
ATOM     23  C   UNL A   1      29.987  25.710  25.407  1.00  0.00     0.042 A 
ATOM     24  C   UNL A   1      29.625  26.674  24.466  1.00  0.00     0.020 A 
ATOM     25  Br  UNL A   1      27.839  26.755  23.852  1.00  0.00    -0.051 Br
BRANCH  21  26
ATOM     26  N   UNL A   1      31.531  24.748  26.948  1.00  0.00    -0.398 N 
ATOM     27  H   UNL A   1      31.660  23.789  26.761  1.00  0.00     0.156 HD
ATOM     28  H   UNL A   1      31.566  25.076  27.875  1.00  0.00     0.156 HD
ENDBRANCH  21  26
ENDBRANCH  16  19
ENDBRANCH  11  15
ENDBRANCH   6   8
ENDBRANCH   5   6
ENDBRANCH   4   5
ENDBRANCH   3   4
ENDBRANCH   2   3
ENDBRANCH   1   2
BRANCH   1  29
ATOM     29  C   UNL A   1      41.410  19.675  26.459  1.00  0.00     0.188 C 
BRANCH  29  30
ATOM     30  O   UNL A   1      42.286  19.447  25.370  1.00  0.00    -0.376 OA
BRANCH  30  31
ATOM     31  C   UNL A   1      43.393  18.596  25.630  1.00  0.00     0.202 C 
BRANCH  31  32
ATOM     32  C   UNL A   1      44.604  18.879  24.712  1.00  0.00     0.261 C 
BRANCH  32  33
ATOM     33  O   UNL A   1      44.523  20.207  24.137  1.00  0.00    -0.460 OA
BRANCH  33  34
ATOM     34  C   UNL A   1      45.476  21.124  24.511  1.00  0.00     0.338 C 
ATOM     35  O   UNL A   1      46.626  20.846  24.819  1.00  0.00    -0.246 OA
BRANCH  34  36
ATOM     36  C   UNL A   1      44.842  22.471  24.722  1.00  0.00     0.060 A 
ATOM     37  C   UNL A   1      45.493  23.712  24.802  1.00  0.00     0.016 A 
ATOM     38  C   UNL A   1      43.604  22.440  25.258  1.00  0.00     0.016 A 
ATOM     39  C   UNL A   1      44.947  24.827  25.579  1.00  0.00     0.010 A 
ATOM     40  C   UNL A   1      43.344  23.414  26.216  1.00  0.00     0.010 A 
ATOM     41  C   UNL A   1      43.839  24.699  26.419  1.00  0.00    -0.014 A 
BRANCH  41  42
ATOM     42  C   UNL A   1      43.304  25.695  27.592  1.00  0.00     0.031 A 
ATOM     43  C   UNL A   1      42.000  26.752  27.735  1.00  0.00     0.074 A 
ATOM     44  C   UNL A   1      44.161  25.798  28.633  1.00  0.00     0.049 A 
ATOM     45  N   UNL A   1      42.068  27.945  28.307  1.00  0.00    -0.248 NA
ATOM     46  C   UNL A   1      40.598  26.661  27.171  1.00  0.00     0.031 C 
ATOM     47  C   UNL A   1      44.005  26.552  29.870  1.00  0.00     0.029 A 
ATOM     48  N   UNL A   1      45.502  25.398  28.644  1.00  0.00    -0.354 N 
ATOM     49  C   UNL A   1      40.803  28.548  28.222  1.00  0.00     0.074 A 
ATOM     50  C   UNL A   1      40.111  27.883  27.211  1.00  0.00     0.031 C 
ATOM     51  C   UNL A   1      45.231  26.860  30.324  1.00  0.00     0.029 A 
ATOM     52  C   UNL A   1      46.194  26.396  29.338  1.00  0.00     0.049 A 
ATOM     53  H   UNL A   1      45.880  24.581  28.245  1.00  0.00     0.167 HD
ATOM     54  C   UNL A   1      40.273  29.449  29.089  1.00  0.00     0.031 A 
ATOM     55  C   UNL A   1      47.145  27.142  28.709  1.00  0.00     0.031 A 
ATOM     56  C   UNL A   1      41.339  30.035  29.848  1.00  0.00     0.049 A 
ATOM     57  C   UNL A   1      46.848  28.626  28.751  1.00  0.00     0.074 A 
ATOM     58  C   UNL A   1      41.884  29.766  31.086  1.00  0.00     0.029 A 
ATOM     59  N   UNL A   1      42.288  30.739  29.127  1.00  0.00    -0.354 N 
ATOM     60  N   UNL A   1      45.707  29.147  29.117  1.00  0.00    -0.248 NA
ATOM     61  C   UNL A   1      47.818  29.643  28.352  1.00  0.00     0.031 C 
ATOM     62  C   UNL A   1      43.256  30.156  31.023  1.00  0.00     0.029 A 
ATOM     63  C   UNL A   1      43.499  30.732  29.786  1.00  0.00     0.049 A 
ATOM     64  H   UNL A   1      42.122  31.182  28.263  1.00  0.00     0.167 HD
ATOM     65  C   UNL A   1      45.744  30.504  28.939  1.00  0.00     0.074 A 
ATOM     66  C   UNL A   1      47.101  30.770  28.500  1.00  0.00     0.031 C 
ATOM     67  C   UNL A   1      44.655  31.308  29.115  1.00  0.00     0.031 A 
BRANCH  54  68
ATOM     68  C   UNL A   1      38.760  29.657  29.300  1.00  0.00    -0.014 A 
ATOM     69  C   UNL A   1      38.034  30.453  28.401  1.00  0.00     0.009 A 
ATOM     70  C   UNL A   1      38.000  29.206  30.413  1.00  0.00     0.009 A 
ATOM     71  C   UNL A   1      36.670  30.767  28.603  1.00  0.00     0.001 A 
ATOM     72  C   UNL A   1      36.635  29.477  30.604  1.00  0.00     0.001 A 
ATOM     73  C   UNL A   1      35.968  30.273  29.699  1.00  0.00     0.000 A 
ENDBRANCH  54  68
BRANCH  55  74
ATOM     74  C   UNL A   1      47.933  26.415  27.657  1.00  0.00    -0.014 A 
ATOM     75  C   UNL A   1      47.717  26.773  26.304  1.00  0.00     0.009 A 
ATOM     76  C   UNL A   1      49.037  25.596  27.936  1.00  0.00     0.009 A 
ATOM     77  C   UNL A   1      48.622  26.432  25.294  1.00  0.00     0.001 A 
ATOM     78  C   UNL A   1      49.936  25.233  26.914  1.00  0.00     0.001 A 
ATOM     79  C   UNL A   1      49.742  25.671  25.602  1.00  0.00     0.000 A 
ENDBRANCH  55  74
BRANCH  67  80
ATOM     80  C   UNL A   1      44.557  32.732  28.617  1.00  0.00    -0.014 A 
ATOM     81  C   UNL A   1      44.298  33.073  27.283  1.00  0.00     0.009 A 
ATOM     82  C   UNL A   1      44.545  33.788  29.556  1.00  0.00     0.009 A 
ATOM     83  C   UNL A   1      44.089  34.403  26.897  1.00  0.00     0.001 A 
ATOM     84  C   UNL A   1      44.274  35.107  29.186  1.00  0.00     0.001 A 
ATOM     85  C   UNL A   1      44.064  35.417  27.850  1.00  0.00     0.000 A 
ENDBRANCH  67  80
ENDBRANCH  41  42
ENDBRANCH  34  36
ENDBRANCH  33  34
ENDBRANCH  32  33
ENDBRANCH  31  32
ENDBRANCH  30  31
ENDBRANCH  29  30
ENDBRANCH   1  29
TORSDOF 20
ENDMDL
