MODEL 1
REMARK VINA RESULT:     -11.5      0.000      0.000
REMARK SMILES O=C(OCCOCCOCCOC(=O)c1ccccc1Nc1nc(Cl)nc(Nc2ccc(N3CCOCC3=O)cc2)n1)c1ccc(-c2c3nc(c(-c4ccccc4)c4ccc([nH]4)c(-c4ccccc4)c4nc(c(-c5ccccc5)c5ccc2[nH]5)C=C4)C=C3)cc1
REMARK SMILES IDX 9 1 8 2 7 3 6 4 5 5 4 6 3 7 2 8 1 9 43 10 44 11 90 12 45 13
REMARK SMILES IDX 89 14 46 15 47 16 48 17 83 18 49 19 88 20 82 21 84 22 50 23
REMARK SMILES IDX 87 24 81 25 80 26 51 28 73 29 58 30 72 31 59 32 62 33 71 34
REMARK SMILES IDX 85 35 60 36 61 37 70 39 86 40 63 41 52 42 53 43 57 44 54 45
REMARK SMILES IDX 56 46 55 47 74 48 75 49 79 50 76 51 78 52 77 53 64 54 65 55
REMARK SMILES IDX 69 56 66 57 68 58 67 59 10 60 11 61 12 62 13 63 14 64 15 65
REMARK SMILES IDX 16 66 20 67 17 68 19 69 18 70 21 71 22 73 23 74 42 75 24 76
REMARK SMILES IDX 27 77 25 78 26 79 28 80 29 82 30 83 41 84 31 85 40 86 32 87
REMARK SMILES IDX 33 88 34 89 38 90 35 91 37 92 39 93 36 94
REMARK H PARENT 84 27 62 38 21 72 28 81
REMARK Flexibility Score: inf
ROOT
ATOM      1  O   UNL A   1      33.996  26.483  24.146  1.00  0.00    -0.376 OA
ENDROOT
BRANCH   1   2
ATOM      2  C   UNL A   1      34.340  25.099  24.183  1.00  0.00     0.188 C 
BRANCH   2   3
ATOM      3  C   UNL A   1      34.517  24.493  25.575  1.00  0.00     0.188 C 
BRANCH   3   4
ATOM      4  O   UNL A   1      35.554  23.504  25.606  1.00  0.00    -0.376 OA
BRANCH   4   5
ATOM      5  C   UNL A   1      36.187  23.313  24.336  1.00  0.00     0.202 C 
BRANCH   5   6
ATOM      6  C   UNL A   1      37.107  22.087  24.270  1.00  0.00     0.261 C 
BRANCH   6   7
ATOM      7  O   UNL A   1      37.593  21.701  25.568  1.00  0.00    -0.460 OA
BRANCH   7   8
ATOM      8  C   UNL A   1      38.843  21.845  26.076  1.00  0.00     0.338 C 
ATOM      9  O   UNL A   1      39.651  20.932  25.907  1.00  0.00    -0.246 OA
BRANCH   8  10
ATOM     10  C   UNL A   1      39.330  23.084  26.760  1.00  0.00     0.060 A 
ATOM     11  C   UNL A   1      38.692  24.326  26.750  1.00  0.00     0.016 A 
ATOM     12  C   UNL A   1      40.528  22.972  27.490  1.00  0.00     0.016 A 
ATOM     13  C   UNL A   1      39.312  25.457  27.274  1.00  0.00     0.010 A 
ATOM     14  C   UNL A   1      41.124  24.092  28.080  1.00  0.00     0.010 A 
ATOM     15  C   UNL A   1      40.553  25.355  27.901  1.00  0.00    -0.014 A 
BRANCH  15  16
ATOM     16  C   UNL A   1      41.309  26.598  28.176  1.00  0.00     0.031 A 
ATOM     17  C   UNL A   1      42.619  26.806  27.463  1.00  0.00     0.074 A 
ATOM     18  C   UNL A   1      40.772  27.570  28.935  1.00  0.00     0.049 A 
ATOM     19  N   UNL A   1      43.416  27.841  27.475  1.00  0.00    -0.248 NA
ATOM     20  C   UNL A   1      43.088  25.701  26.606  1.00  0.00     0.031 C 
ATOM     21  C   UNL A   1      39.471  27.501  29.600  1.00  0.00     0.029 A 
ATOM     22  N   UNL A   1      41.236  28.824  29.240  1.00  0.00    -0.354 N 
ATOM     23  C   UNL A   1      44.486  27.502  26.655  1.00  0.00     0.074 A 
ATOM     24  C   UNL A   1      44.249  26.163  26.170  1.00  0.00     0.031 C 
ATOM     25  C   UNL A   1      39.224  28.675  30.204  1.00  0.00     0.029 A 
ATOM     26  C   UNL A   1      40.365  29.565  30.004  1.00  0.00     0.049 A 
ATOM     27  H   UNL A   1      42.112  29.162  28.940  1.00  0.00     0.167 HD
ATOM     28  C   UNL A   1      45.572  28.242  26.331  1.00  0.00     0.031 A 
ATOM     29  C   UNL A   1      40.485  30.819  30.480  1.00  0.00     0.031 A 
ATOM     30  C   UNL A   1      45.801  29.575  26.810  1.00  0.00     0.049 A 
ATOM     31  C   UNL A   1      41.727  31.600  30.132  1.00  0.00     0.074 A 
ATOM     32  C   UNL A   1      46.883  30.405  26.583  1.00  0.00     0.029 A 
ATOM     33  N   UNL A   1      44.915  30.275  27.615  1.00  0.00    -0.354 N 
ATOM     34  N   UNL A   1      42.726  31.266  29.349  1.00  0.00    -0.248 NA
ATOM     35  C   UNL A   1      41.853  32.937  30.729  1.00  0.00     0.031 C 
ATOM     36  C   UNL A   1      46.667  31.597  27.283  1.00  0.00     0.029 A 
ATOM     37  C   UNL A   1      45.432  31.521  27.909  1.00  0.00     0.049 A 
ATOM     38  H   UNL A   1      44.047  29.933  27.930  1.00  0.00     0.167 HD
ATOM     39  C   UNL A   1      43.581  32.359  29.340  1.00  0.00     0.074 A 
ATOM     40  C   UNL A   1      42.968  33.378  30.165  1.00  0.00     0.031 C 
ATOM     41  C   UNL A   1      44.777  32.511  28.719  1.00  0.00     0.031 A 
BRANCH  28  42
ATOM     42  C   UNL A   1      46.611  27.583  25.470  1.00  0.00    -0.014 A 
ATOM     43  C   UNL A   1      47.478  26.605  25.982  1.00  0.00     0.009 A 
ATOM     44  C   UNL A   1      46.743  27.974  24.129  1.00  0.00     0.009 A 
ATOM     45  C   UNL A   1      48.483  26.062  25.177  1.00  0.00     0.001 A 
ATOM     46  C   UNL A   1      47.733  27.414  23.321  1.00  0.00     0.001 A 
ATOM     47  C   UNL A   1      48.609  26.466  23.848  1.00  0.00     0.000 A 
ENDBRANCH  28  42
BRANCH  29  48
ATOM     48  C   UNL A   1      39.426  31.426  31.336  1.00  0.00    -0.014 A 
ATOM     49  C   UNL A   1      39.431  31.242  32.728  1.00  0.00     0.009 A 
ATOM     50  C   UNL A   1      38.371  32.155  30.764  1.00  0.00     0.009 A 
ATOM     51  C   UNL A   1      38.399  31.753  33.522  1.00  0.00     0.001 A 
ATOM     52  C   UNL A   1      37.358  32.694  31.562  1.00  0.00     0.001 A 
ATOM     53  C   UNL A   1      37.368  32.486  32.940  1.00  0.00     0.000 A 
ENDBRANCH  29  48
BRANCH  41  54
ATOM     54  C   UNL A   1      45.459  33.835  28.893  1.00  0.00    -0.014 A 
ATOM     55  C   UNL A   1      46.362  34.050  29.946  1.00  0.00     0.009 A 
ATOM     56  C   UNL A   1      45.202  34.874  27.987  1.00  0.00     0.009 A 
ATOM     57  C   UNL A   1      46.965  35.297  30.111  1.00  0.00     0.001 A 
ATOM     58  C   UNL A   1      45.828  36.112  28.139  1.00  0.00     0.001 A 
ATOM     59  C   UNL A   1      46.699  36.325  29.207  1.00  0.00     0.000 A 
ENDBRANCH  41  54
ENDBRANCH  15  16
ENDBRANCH   8  10
ENDBRANCH   7   8
ENDBRANCH   6   7
ENDBRANCH   5   6
ENDBRANCH   4   5
ENDBRANCH   3   4
ENDBRANCH   2   3
ENDBRANCH   1   2
BRANCH   1  60
ATOM     60  C   UNL A   1      33.913  27.102  22.865  1.00  0.00     0.202 C 
BRANCH  60  61
ATOM     61  C   UNL A   1      33.781  28.628  22.848  1.00  0.00     0.261 C 
BRANCH  61  62
ATOM     62  O   UNL A   1      32.443  29.099  22.623  1.00  0.00    -0.460 OA
BRANCH  62  63
ATOM     63  C   UNL A   1      31.726  29.356  23.746  1.00  0.00     0.340 C 
ATOM     64  O   UNL A   1      32.124  29.392  24.897  1.00  0.00    -0.246 OA
BRANCH  63  65
ATOM     65  C   UNL A   1      30.301  29.458  23.407  1.00  0.00     0.083 A 
ATOM     66  C   UNL A   1      29.585  30.606  23.758  1.00  0.00     0.018 A 
ATOM     67  C   UNL A   1      29.665  28.323  22.870  1.00  0.00     0.055 A 
ATOM     68  C   UNL A   1      28.210  30.642  23.540  1.00  0.00     0.001 A 
ATOM     69  C   UNL A   1      28.296  28.405  22.601  1.00  0.00     0.027 A 
ATOM     70  C   UNL A   1      27.570  29.548  22.954  1.00  0.00     0.002 A 
BRANCH  67  71
ATOM     71  N   UNL A   1      30.408  27.152  22.676  1.00  0.00    -0.323 N 
ATOM     72  H   UNL A   1      30.902  27.132  21.823  1.00  0.00     0.170 HD
BRANCH  71  73
ATOM     73  C   UNL A   1      30.583  26.019  23.446  1.00  0.00     0.233 A 
ATOM     74  N   UNL A   1      30.296  26.010  24.732  1.00  0.00    -0.182 NA
ATOM     75  N   UNL A   1      30.965  24.956  22.750  1.00  0.00    -0.176 NA
ATOM     76  C   UNL A   1      30.384  24.802  25.264  1.00  0.00     0.228 A 
ATOM     77  C   UNL A   1      31.132  23.829  23.419  1.00  0.00     0.233 A 
ATOM     78  Cl  UNL A   1      29.674  24.616  26.804  1.00  0.00    -0.041 Cl
ATOM     79  N   UNL A   1      30.815  23.688  24.693  1.00  0.00    -0.182 NA
BRANCH  77  80
ATOM     80  N   UNL A   1      31.738  22.817  22.686  1.00  0.00    -0.324 N 
ATOM     81  H   UNL A   1      31.810  23.000  21.721  1.00  0.00     0.170 HD
BRANCH  80  82
ATOM     82  C   UNL A   1      32.261  21.588  23.082  1.00  0.00     0.041 A 
ATOM     83  C   UNL A   1      32.951  21.509  24.296  1.00  0.00     0.028 A 
ATOM     84  C   UNL A   1      32.022  20.407  22.380  1.00  0.00     0.028 A 
ATOM     85  C   UNL A   1      33.347  20.274  24.817  1.00  0.00     0.028 A 
ATOM     86  C   UNL A   1      32.449  19.175  22.878  1.00  0.00     0.028 A 
ATOM     87  C   UNL A   1      33.088  19.091  24.119  1.00  0.00     0.044 A 
BRANCH  87  88
ATOM     88  N   UNL A   1      33.407  17.824  24.690  1.00  0.00    -0.308 N 
ATOM     89  C   UNL A   1      32.292  16.888  24.886  1.00  0.00     0.154 C 
ATOM     90  C   UNL A   1      34.730  17.367  24.751  1.00  0.00     0.253 C 
ATOM     91  C   UNL A   1      32.652  15.708  25.774  1.00  0.00     0.183 C 
ATOM     92  C   UNL A   1      34.912  15.934  25.281  1.00  0.00     0.260 C 
ATOM     93  O   UNL A   1      35.725  18.054  24.512  1.00  0.00    -0.272 OA
ATOM     94  O   UNL A   1      33.800  15.056  25.243  1.00  0.00    -0.370 OA
ENDBRANCH  87  88
ENDBRANCH  80  82
ENDBRANCH  77  80
ENDBRANCH  71  73
ENDBRANCH  67  71
ENDBRANCH  63  65
ENDBRANCH  62  63
ENDBRANCH  61  62
ENDBRANCH  60  61
ENDBRANCH   1  60
TORSDOF 22
ENDMDL
MODEL 2
REMARK VINA RESULT:     -11.1      0.862      5.512
REMARK SMILES O=C(OCCOCCOCCOC(=O)c1ccccc1Nc1nc(Cl)nc(Nc2ccc(N3CCOCC3=O)cc2)n1)c1ccc(-c2c3nc(c(-c4ccccc4)c4ccc([nH]4)c(-c4ccccc4)c4nc(c(-c5ccccc5)c5ccc2[nH]5)C=C4)C=C3)cc1
REMARK SMILES IDX 9 1 8 2 7 3 6 4 5 5 4 6 3 7 2 8 1 9 43 10 44 11 90 12 45 13
REMARK SMILES IDX 89 14 46 15 47 16 48 17 83 18 49 19 88 20 82 21 84 22 50 23
REMARK SMILES IDX 87 24 81 25 80 26 51 28 73 29 58 30 72 31 59 32 62 33 71 34
REMARK SMILES IDX 85 35 60 36 61 37 70 39 86 40 63 41 52 42 53 43 57 44 54 45
REMARK SMILES IDX 56 46 55 47 74 48 75 49 79 50 76 51 78 52 77 53 64 54 65 55
REMARK SMILES IDX 69 56 66 57 68 58 67 59 10 60 11 61 12 62 13 63 14 64 15 65
REMARK SMILES IDX 16 66 20 67 17 68 19 69 18 70 21 71 22 73 23 74 42 75 24 76
REMARK SMILES IDX 27 77 25 78 26 79 28 80 29 82 30 83 41 84 31 85 40 86 32 87
REMARK SMILES IDX 33 88 34 89 38 90 35 91 37 92 39 93 36 94
REMARK H PARENT 84 27 62 38 21 72 28 81
REMARK Flexibility Score: inf
ROOT
ATOM      1  O   UNL A   1      34.223  26.463  24.642  1.00  0.00    -0.376 OA
ENDROOT
BRANCH   1   2
ATOM      2  C   UNL A   1      34.312  25.179  25.258  1.00  0.00     0.188 C 
BRANCH   2   3
ATOM      3  C   UNL A   1      35.042  24.103  24.454  1.00  0.00     0.188 C 
BRANCH   3   4
ATOM      4  O   UNL A   1      35.493  23.023  25.282  1.00  0.00    -0.376 OA
BRANCH   4   5
ATOM      5  C   UNL A   1      35.996  21.912  24.532  1.00  0.00     0.202 C 
BRANCH   5   6
ATOM      6  C   UNL A   1      36.675  20.834  25.387  1.00  0.00     0.261 C 
BRANCH   6   7
ATOM      7  O   UNL A   1      38.082  20.724  25.109  1.00  0.00    -0.460 OA
BRANCH   7   8
ATOM      8  C   UNL A   1      39.126  20.954  25.946  1.00  0.00     0.338 C 
ATOM      9  O   UNL A   1      39.852  20.007  26.247  1.00  0.00    -0.246 OA
BRANCH   8  10
ATOM     10  C   UNL A   1      39.501  22.308  26.463  1.00  0.00     0.060 A 
ATOM     11  C   UNL A   1      38.830  23.500  26.188  1.00  0.00     0.016 A 
ATOM     12  C   UNL A   1      40.621  22.369  27.313  1.00  0.00     0.016 A 
ATOM     13  C   UNL A   1      39.358  24.728  26.578  1.00  0.00     0.010 A 
ATOM     14  C   UNL A   1      41.119  23.595  27.767  1.00  0.00     0.010 A 
ATOM     15  C   UNL A   1      40.531  24.786  27.330  1.00  0.00    -0.014 A 
BRANCH  15  16
ATOM     16  C   UNL A   1      41.216  26.091  27.471  1.00  0.00     0.031 A 
ATOM     17  C   UNL A   1      40.619  27.109  28.407  1.00  0.00     0.074 A 
ATOM     18  C   UNL A   1      42.407  26.304  26.885  1.00  0.00     0.049 A 
ATOM     19  N   UNL A   1      41.075  28.282  28.758  1.00  0.00    -0.248 NA
ATOM     20  C   UNL A   1      39.339  26.749  29.046  1.00  0.00     0.031 C 
ATOM     21  C   UNL A   1      43.111  25.348  26.029  1.00  0.00     0.029 A 
ATOM     22  N   UNL A   1      43.258  27.378  26.955  1.00  0.00    -0.354 N 
ATOM     23  C   UNL A   1      40.131  28.806  29.633  1.00  0.00     0.074 A 
ATOM     24  C   UNL A   1      39.068  27.836  29.751  1.00  0.00     0.031 C 
ATOM     25  C   UNL A   1      44.302  25.864  25.683  1.00  0.00     0.029 A 
ATOM     26  C   UNL A   1      44.430  27.200  26.258  1.00  0.00     0.049 A 
ATOM     27  H   UNL A   1      43.048  28.199  27.456  1.00  0.00     0.167 HD
ATOM     28  C   UNL A   1      40.146  29.993  30.283  1.00  0.00     0.031 A 
ATOM     29  C   UNL A   1      45.482  28.029  26.110  1.00  0.00     0.031 A 
ATOM     30  C   UNL A   1      41.207  30.952  30.168  1.00  0.00     0.049 A 
ATOM     31  C   UNL A   1      45.448  29.360  26.818  1.00  0.00     0.074 A 
ATOM     32  C   UNL A   1      41.313  32.204  30.745  1.00  0.00     0.029 A 
ATOM     33  N   UNL A   1      42.358  30.753  29.420  1.00  0.00    -0.354 N 
ATOM     34  N   UNL A   1      44.548  29.837  27.646  1.00  0.00    -0.248 NA
ATOM     35  C   UNL A   1      46.579  30.264  26.574  1.00  0.00     0.031 C 
ATOM     36  C   UNL A   1      42.515  32.777  30.316  1.00  0.00     0.029 A 
ATOM     37  C   UNL A   1      43.172  31.864  29.506  1.00  0.00     0.049 A 
ATOM     38  H   UNL A   1      42.562  29.939  28.904  1.00  0.00     0.167 HD
ATOM     39  C   UNL A   1      45.020  31.081  28.041  1.00  0.00     0.074 A 
ATOM     40  C   UNL A   1      46.300  31.270  27.390  1.00  0.00     0.031 C 
ATOM     41  C   UNL A   1      44.448  32.000  28.857  1.00  0.00     0.031 A 
BRANCH  28  42
ATOM     42  C   UNL A   1      38.943  30.326  31.118  1.00  0.00    -0.014 A 
ATOM     43  C   UNL A   1      37.848  31.024  30.584  1.00  0.00     0.009 A 
ATOM     44  C   UNL A   1      38.923  29.962  32.473  1.00  0.00     0.009 A 
ATOM     45  C   UNL A   1      36.775  31.384  31.402  1.00  0.00     0.001 A 
ATOM     46  C   UNL A   1      37.839  30.303  33.282  1.00  0.00     0.001 A 
ATOM     47  C   UNL A   1      36.771  31.023  32.750  1.00  0.00     0.000 A 
ENDBRANCH  28  42
BRANCH  29  48
ATOM     48  C   UNL A   1      46.651  27.652  25.265  1.00  0.00    -0.014 A 
ATOM     49  C   UNL A   1      46.721  28.041  23.917  1.00  0.00     0.009 A 
ATOM     50  C   UNL A   1      47.686  26.858  25.785  1.00  0.00     0.009 A 
ATOM     51  C   UNL A   1      47.784  27.628  23.108  1.00  0.00     0.001 A 
ATOM     52  C   UNL A   1      48.765  26.474  24.984  1.00  0.00     0.001 A 
ATOM     53  C   UNL A   1      48.809  26.852  23.643  1.00  0.00     0.000 A 
ENDBRANCH  29  48
BRANCH  41  54
ATOM     54  C   UNL A   1      45.227  33.258  29.103  1.00  0.00    -0.014 A 
ATOM     55  C   UNL A   1      46.291  33.282  30.018  1.00  0.00     0.009 A 
ATOM     56  C   UNL A   1      44.897  34.427  28.402  1.00  0.00     0.009 A 
ATOM     57  C   UNL A   1      46.985  34.469  30.256  1.00  0.00     0.001 A 
ATOM     58  C   UNL A   1      45.611  35.605  28.622  1.00  0.00     0.001 A 
ATOM     59  C   UNL A   1      46.646  35.627  29.557  1.00  0.00     0.000 A 
ENDBRANCH  41  54
ENDBRANCH  15  16
ENDBRANCH   8  10
ENDBRANCH   7   8
ENDBRANCH   6   7
ENDBRANCH   5   6
ENDBRANCH   4   5
ENDBRANCH   3   4
ENDBRANCH   2   3
ENDBRANCH   1   2
BRANCH   1  60
ATOM     60  C   UNL A   1      33.725  27.536  25.436  1.00  0.00     0.202 C 
BRANCH  60  61
ATOM     61  C   UNL A   1      33.804  28.937  24.823  1.00  0.00     0.261 C 
BRANCH  61  62
ATOM     62  O   UNL A   1      32.634  29.321  24.083  1.00  0.00    -0.460 OA
BRANCH  62  63
ATOM     63  C   UNL A   1      31.539  29.593  24.836  1.00  0.00     0.340 C 
ATOM     64  O   UNL A   1      31.450  29.609  26.052  1.00  0.00    -0.246 OA
BRANCH  63  65
ATOM     65  C   UNL A   1      30.366  29.741  23.965  1.00  0.00     0.083 A 
ATOM     66  C   UNL A   1      29.556  30.873  24.079  1.00  0.00     0.018 A 
ATOM     67  C   UNL A   1      30.012  28.656  23.142  1.00  0.00     0.055 A 
ATOM     68  C   UNL A   1      28.382  30.946  23.333  1.00  0.00     0.001 A 
ATOM     69  C   UNL A   1      28.863  28.778  22.355  1.00  0.00     0.027 A 
ATOM     70  C   UNL A   1      28.042  29.906  22.466  1.00  0.00     0.002 A 
BRANCH  67  71
ATOM     71  N   UNL A   1      30.786  27.489  23.179  1.00  0.00    -0.323 N 
ATOM     72  H   UNL A   1      31.525  27.482  22.527  1.00  0.00     0.170 HD
BRANCH  71  73
ATOM     73  C   UNL A   1      30.713  26.346  23.951  1.00  0.00     0.233 A 
ATOM     74  N   UNL A   1      30.114  26.344  25.125  1.00  0.00    -0.182 NA
ATOM     75  N   UNL A   1      31.211  25.270  23.355  1.00  0.00    -0.176 NA
ATOM     76  C   UNL A   1      30.014  25.132  25.643  1.00  0.00     0.228 A 
ATOM     77  C   UNL A   1      31.157  24.133  24.028  1.00  0.00     0.233 A 
ATOM     78  Cl  UNL A   1      28.935  24.972  26.954  1.00  0.00    -0.041 Cl
ATOM     79  N   UNL A   1      30.525  24.002  25.181  1.00  0.00    -0.182 NA
BRANCH  77  80
ATOM     80  N   UNL A   1      31.882  23.098  23.454  1.00  0.00    -0.324 N 
ATOM     81  H   UNL A   1      32.338  23.337  22.614  1.00  0.00     0.170 HD
BRANCH  80  82
ATOM     82  C   UNL A   1      32.074  21.779  23.861  1.00  0.00     0.041 A 
ATOM     83  C   UNL A   1      32.134  20.776  22.888  1.00  0.00     0.028 A 
ATOM     84  C   UNL A   1      32.332  21.431  25.186  1.00  0.00     0.028 A 
ATOM     85  C   UNL A   1      32.491  19.469  23.227  1.00  0.00     0.028 A 
ATOM     86  C   UNL A   1      32.652  20.117  25.535  1.00  0.00     0.028 A 
ATOM     87  C   UNL A   1      32.767  19.127  24.554  1.00  0.00     0.044 A 
BRANCH  87  88
ATOM     88  N   UNL A   1      33.221  17.819  24.891  1.00  0.00    -0.308 N 
ATOM     89  C   UNL A   1      32.190  16.821  25.205  1.00  0.00     0.154 C 
ATOM     90  C   UNL A   1      34.535  17.413  24.617  1.00  0.00     0.253 C 
ATOM     91  C   UNL A   1      32.752  15.564  25.851  1.00  0.00     0.183 C 
ATOM     92  C   UNL A   1      34.850  15.939  24.922  1.00  0.00     0.260 C 
ATOM     93  O   UNL A   1      35.443  18.163  24.256  1.00  0.00    -0.272 OA
ATOM     94  O   UNL A   1      33.770  15.024  25.016  1.00  0.00    -0.370 OA
ENDBRANCH  87  88
ENDBRANCH  80  82
ENDBRANCH  77  80
ENDBRANCH  71  73
ENDBRANCH  67  71
ENDBRANCH  63  65
ENDBRANCH  62  63
ENDBRANCH  61  62
ENDBRANCH  60  61
ENDBRANCH   1  60
TORSDOF 22
ENDMDL
MODEL 3
REMARK VINA RESULT:     -11.1      4.348      9.202
REMARK SMILES O=C(OCCOCCOCCOC(=O)c1ccccc1Nc1nc(Cl)nc(Nc2ccc(N3CCOCC3=O)cc2)n1)c1ccc(-c2c3nc(c(-c4ccccc4)c4ccc([nH]4)c(-c4ccccc4)c4nc(c(-c5ccccc5)c5ccc2[nH]5)C=C4)C=C3)cc1
REMARK SMILES IDX 9 1 8 2 7 3 6 4 5 5 4 6 3 7 2 8 1 9 43 10 44 11 90 12 45 13
REMARK SMILES IDX 89 14 46 15 47 16 48 17 83 18 49 19 88 20 82 21 84 22 50 23
REMARK SMILES IDX 87 24 81 25 80 26 51 28 73 29 58 30 72 31 59 32 62 33 71 34
REMARK SMILES IDX 85 35 60 36 61 37 70 39 86 40 63 41 52 42 53 43 57 44 54 45
REMARK SMILES IDX 56 46 55 47 74 48 75 49 79 50 76 51 78 52 77 53 64 54 65 55
REMARK SMILES IDX 69 56 66 57 68 58 67 59 10 60 11 61 12 62 13 63 14 64 15 65
REMARK SMILES IDX 16 66 20 67 17 68 19 69 18 70 21 71 22 73 23 74 42 75 24 76
REMARK SMILES IDX 27 77 25 78 26 79 28 80 29 82 30 83 41 84 31 85 40 86 32 87
REMARK SMILES IDX 33 88 34 89 38 90 35 91 37 92 39 93 36 94
REMARK H PARENT 84 27 62 38 21 72 28 81
REMARK Flexibility Score: inf
ROOT
ATOM      1  O   UNL A   1      34.579  31.365  27.969  1.00  0.00    -0.376 OA
ENDROOT
BRANCH   1   2
ATOM      2  C   UNL A   1      35.754  32.148  28.177  1.00  0.00     0.188 C 
BRANCH   2   3
ATOM      3  C   UNL A   1      35.537  33.516  28.824  1.00  0.00     0.188 C 
BRANCH   3   4
ATOM      4  O   UNL A   1      34.186  33.973  28.681  1.00  0.00    -0.376 OA
BRANCH   4   5
ATOM      5  C   UNL A   1      34.076  35.400  28.639  1.00  0.00     0.202 C 
BRANCH   5   6
ATOM      6  C   UNL A   1      32.898  35.963  29.444  1.00  0.00     0.261 C 
BRANCH   6   7
ATOM      7  O   UNL A   1      32.490  35.080  30.504  1.00  0.00    -0.460 OA
BRANCH   7   8
ATOM      8  C   UNL A   1      32.802  35.147  31.823  1.00  0.00     0.338 C 
ATOM      9  O   UNL A   1      31.943  35.549  32.607  1.00  0.00    -0.246 OA
BRANCH   8  10
ATOM     10  C   UNL A   1      34.105  34.685  32.399  1.00  0.00     0.060 A 
ATOM     11  C   UNL A   1      35.314  35.379  32.341  1.00  0.00     0.016 A 
ATOM     12  C   UNL A   1      34.093  33.447  33.070  1.00  0.00     0.016 A 
ATOM     13  C   UNL A   1      36.503  34.787  32.757  1.00  0.00     0.010 A 
ATOM     14  C   UNL A   1      35.274  32.875  33.553  1.00  0.00     0.010 A 
ATOM     15  C   UNL A   1      36.497  33.511  33.322  1.00  0.00    -0.014 A 
BRANCH  15  16
ATOM     16  C   UNL A   1      37.787  32.801  33.476  1.00  0.00     0.031 A 
ATOM     17  C   UNL A   1      38.553  32.990  34.759  1.00  0.00     0.074 A 
ATOM     18  C   UNL A   1      38.190  31.909  32.554  1.00  0.00     0.049 A 
ATOM     19  N   UNL A   1      39.657  32.416  35.159  1.00  0.00    -0.248 NA
ATOM     20  C   UNL A   1      37.991  33.947  35.731  1.00  0.00     0.031 C 
ATOM     21  C   UNL A   1      37.475  31.591  31.317  1.00  0.00     0.029 A 
ATOM     22  N   UNL A   1      39.279  31.076  32.534  1.00  0.00    -0.354 N 
ATOM     23  C   UNL A   1      39.931  32.958  36.409  1.00  0.00     0.074 A 
ATOM     24  C   UNL A   1      38.892  33.917  36.700  1.00  0.00     0.031 C 
ATOM     25  C   UNL A   1      38.125  30.605  30.677  1.00  0.00     0.029 A 
ATOM     26  C   UNL A   1      39.321  30.249  31.435  1.00  0.00     0.049 A 
ATOM     27  H   UNL A   1      39.966  31.070  33.239  1.00  0.00     0.167 HD
ATOM     28  C   UNL A   1      40.959  32.682  37.245  1.00  0.00     0.031 A 
ATOM     29  C   UNL A   1      40.228  29.314  31.092  1.00  0.00     0.031 A 
ATOM     30  C   UNL A   1      41.987  31.724  36.955  1.00  0.00     0.049 A 
ATOM     31  C   UNL A   1      41.383  29.060  32.028  1.00  0.00     0.074 A 
ATOM     32  C   UNL A   1      43.099  31.389  37.706  1.00  0.00     0.029 A 
ATOM     33  N   UNL A   1      42.017  30.937  35.814  1.00  0.00    -0.354 N 
ATOM     34  N   UNL A   1      41.623  29.579  33.209  1.00  0.00    -0.248 NA
ATOM     35  C   UNL A   1      42.387  28.085  31.584  1.00  0.00     0.031 C 
ATOM     36  C   UNL A   1      43.823  30.423  36.998  1.00  0.00     0.029 A 
ATOM     37  C   UNL A   1      43.138  30.130  35.830  1.00  0.00     0.049 A 
ATOM     38  H   UNL A   1      41.341  30.953  35.099  1.00  0.00     0.167 HD
ATOM     39  C   UNL A   1      42.788  28.973  33.658  1.00  0.00     0.074 A 
ATOM     40  C   UNL A   1      43.187  28.024  32.640  1.00  0.00     0.031 C 
ATOM     41  C   UNL A   1      43.483  29.185  34.803  1.00  0.00     0.031 A 
BRANCH  28  42
ATOM     42  C   UNL A   1      41.039  33.483  38.513  1.00  0.00    -0.014 A 
ATOM     43  C   UNL A   1      41.728  34.704  38.569  1.00  0.00     0.009 A 
ATOM     44  C   UNL A   1      40.438  32.986  39.680  1.00  0.00     0.009 A 
ATOM     45  C   UNL A   1      41.848  35.391  39.780  1.00  0.00     0.001 A 
ATOM     46  C   UNL A   1      40.540  33.685  40.882  1.00  0.00     0.001 A 
ATOM     47  C   UNL A   1      41.253  34.882  40.935  1.00  0.00     0.000 A 
ENDBRANCH  28  42
BRANCH  29  48
ATOM     48  C   UNL A   1      40.106  28.549  29.817  1.00  0.00    -0.014 A 
ATOM     49  C   UNL A   1      39.582  27.246  29.806  1.00  0.00     0.009 A 
ATOM     50  C   UNL A   1      40.558  29.096  28.606  1.00  0.00     0.009 A 
ATOM     51  C   UNL A   1      39.532  26.505  28.622  1.00  0.00     0.001 A 
ATOM     52  C   UNL A   1      40.477  28.367  27.417  1.00  0.00     0.001 A 
ATOM     53  C   UNL A   1      39.972  27.068  27.427  1.00  0.00     0.000 A 
ENDBRANCH  29  48
BRANCH  41  54
ATOM     54  C   UNL A   1      44.712  28.349  35.007  1.00  0.00    -0.014 A 
ATOM     55  C   UNL A   1      44.641  27.106  35.655  1.00  0.00     0.009 A 
ATOM     56  C   UNL A   1      45.950  28.807  34.534  1.00  0.00     0.009 A 
ATOM     57  C   UNL A   1      45.799  26.356  35.863  1.00  0.00     0.001 A 
ATOM     58  C   UNL A   1      47.102  28.042  34.720  1.00  0.00     0.001 A 
ATOM     59  C   UNL A   1      47.026  26.823  35.394  1.00  0.00     0.000 A 
ENDBRANCH  41  54
ENDBRANCH  15  16
ENDBRANCH   8  10
ENDBRANCH   7   8
ENDBRANCH   6   7
ENDBRANCH   5   6
ENDBRANCH   4   5
ENDBRANCH   3   4
ENDBRANCH   2   3
ENDBRANCH   1   2
BRANCH   1  60
ATOM     60  C   UNL A   1      34.754  29.965  27.772  1.00  0.00     0.202 C 
BRANCH  60  61
ATOM     61  C   UNL A   1      34.209  29.383  26.465  1.00  0.00     0.261 C 
BRANCH  61  62
ATOM     62  O   UNL A   1      33.056  30.070  25.951  1.00  0.00    -0.460 OA
BRANCH  62  63
ATOM     63  C   UNL A   1      31.862  29.514  26.276  1.00  0.00     0.340 C 
ATOM     64  O   UNL A   1      31.421  29.282  27.388  1.00  0.00    -0.246 OA
BRANCH  63  65
ATOM     65  C   UNL A   1      31.178  29.069  25.055  1.00  0.00     0.083 A 
ATOM     66  C   UNL A   1      30.583  30.011  24.212  1.00  0.00     0.018 A 
ATOM     67  C   UNL A   1      31.017  27.687  24.852  1.00  0.00     0.055 A 
ATOM     68  C   UNL A   1      29.835  29.572  23.122  1.00  0.00     0.001 A 
ATOM     69  C   UNL A   1      30.316  27.268  23.717  1.00  0.00     0.027 A 
ATOM     70  C   UNL A   1      29.711  28.204  22.870  1.00  0.00     0.002 A 
BRANCH  67  71
ATOM     71  N   UNL A   1      31.513  26.794  25.810  1.00  0.00    -0.323 N 
ATOM     72  H   UNL A   1      31.972  27.233  26.563  1.00  0.00     0.170 HD
BRANCH  71  73
ATOM     73  C   UNL A   1      31.485  25.416  25.904  1.00  0.00     0.233 A 
ATOM     74  N   UNL A   1      30.641  24.797  26.706  1.00  0.00    -0.182 NA
ATOM     75  N   UNL A   1      32.306  24.808  25.058  1.00  0.00    -0.176 NA
ATOM     76  C   UNL A   1      30.659  23.484  26.549  1.00  0.00     0.228 A 
ATOM     77  C   UNL A   1      32.317  23.486  25.079  1.00  0.00     0.233 A 
ATOM     78  Cl  UNL A   1      29.356  22.635  27.248  1.00  0.00    -0.041 Cl
ATOM     79  N   UNL A   1      31.473  22.765  25.793  1.00  0.00    -0.182 NA
BRANCH  77  80
ATOM     80  N   UNL A   1      33.343  22.915  24.337  1.00  0.00    -0.324 N 
ATOM     81  H   UNL A   1      33.068  22.578  23.453  1.00  0.00     0.170 HD
BRANCH  80  82
ATOM     82  C   UNL A   1      34.694  22.738  24.628  1.00  0.00     0.041 A 
ATOM     83  C   UNL A   1      35.102  22.751  25.966  1.00  0.00     0.028 A 
ATOM     84  C   UNL A   1      35.640  22.426  23.652  1.00  0.00     0.028 A 
ATOM     85  C   UNL A   1      36.410  22.412  26.321  1.00  0.00     0.028 A 
ATOM     86  C   UNL A   1      36.958  22.124  23.999  1.00  0.00     0.028 A 
ATOM     87  C   UNL A   1      37.350  22.082  25.340  1.00  0.00     0.044 A 
BRANCH  87  88
ATOM     88  N   UNL A   1      38.658  21.646  25.703  1.00  0.00    -0.308 N 
ATOM     89  C   UNL A   1      39.470  22.579  26.495  1.00  0.00     0.154 C 
ATOM     90  C   UNL A   1      39.028  20.298  25.604  1.00  0.00     0.253 C 
ATOM     91  C   UNL A   1      40.936  22.182  26.569  1.00  0.00     0.183 C 
ATOM     92  C   UNL A   1      40.427  19.954  26.144  1.00  0.00     0.260 C 
ATOM     93  O   UNL A   1      38.365  19.425  25.041  1.00  0.00    -0.272 OA
ATOM     94  O   UNL A   1      41.035  20.850  27.060  1.00  0.00    -0.370 OA
ENDBRANCH  87  88
ENDBRANCH  80  82
ENDBRANCH  77  80
ENDBRANCH  71  73
ENDBRANCH  67  71
ENDBRANCH  63  65
ENDBRANCH  62  63
ENDBRANCH  61  62
ENDBRANCH  60  61
ENDBRANCH   1  60
TORSDOF 22
ENDMDL
