MODEL 1
REMARK VINA RESULT:      -8.9      0.000      0.000
REMARK SMILES CC[C@@H]1CCCC[C@@H]1OCC[C@@H]1CCC[C@]1([NH2+]C)C(=O)OCCOCCOCCOC(=O)c1ccc(-c2c3nc(c(-c4ccccc4)c4ccc([nH]4)c(-c4ccccc4)c4nc(c(-c5ccccc5)c5ccc2[nH]5)C=C4)C=C3)cc1
REMARK SMILES IDX 24 1 23 2 22 3 21 4 19 5 20 6 16 7 12 8 13 9 14 10 15 11
REMARK SMILES IDX 11 12 10 13 9 14 8 15 3 16 4 17 5 18 7 19 6 20 2 21 1 22
REMARK SMILES IDX 17 23 18 24 25 27 26 28 27 29 28 30 29 31 30 32 31 33 32 34
REMARK SMILES IDX 33 35 34 36 80 37 35 38 79 39 36 40 37 41 38 42 73 43 39 44
REMARK SMILES IDX 78 45 72 46 74 47 40 48 77 49 71 50 70 51 41 53 63 54 48 55
REMARK SMILES IDX 62 56 49 57 52 58 61 59 75 60 50 61 51 62 60 64 76 65 53 66
REMARK SMILES IDX 42 67 43 68 47 69 44 70 46 71 45 72 64 73 65 74 69 75 66 76
REMARK SMILES IDX 68 77 67 78 54 79 55 80 59 81 56 82 58 83 57 84
REMARK H PARENT 17 25 17 26 74 52 52 63
REMARK Flexibility Score: inf
ROOT
ATOM      1  O   UNL A   1      35.156  30.612  27.550  1.00  0.00    -0.376 OA
ENDROOT
BRANCH   1   2
ATOM      2  C   UNL A   1      34.338  29.563  27.061  1.00  0.00     0.202 C 
BRANCH   2   3
ATOM      3  C   UNL A   1      32.823  29.729  27.254  1.00  0.00     0.261 C 
BRANCH   3   4
ATOM      4  O   UNL A   1      31.966  29.082  26.292  1.00  0.00    -0.459 OA
BRANCH   4   5
ATOM      5  C   UNL A   1      31.496  27.861  26.668  1.00  0.00     0.368 C 
ATOM      6  O   UNL A   1      31.219  27.575  27.831  1.00  0.00    -0.245 OA
BRANCH   5   7
ATOM      7  C   UNL A   1      31.515  26.796  25.525  1.00  0.00     0.197 C 
ATOM      8  C   UNL A   1      32.289  25.455  25.723  1.00  0.00     0.065 C 
ATOM      9  C   UNL A   1      33.760  25.769  25.476  1.00  0.00     0.011 C 
ATOM     10  C   UNL A   1      33.756  26.889  24.448  1.00  0.00     0.008 C 
ATOM     11  C   UNL A   1      32.313  27.382  24.322  1.00  0.00     0.081 C 
BRANCH   8  12
ATOM     12  C   UNL A   1      32.043  24.504  26.921  1.00  0.00     0.039 C 
BRANCH  12  13
ATOM     13  C   UNL A   1      32.565  23.059  26.829  1.00  0.00     0.161 C 
BRANCH  13  14
ATOM     14  O   UNL A   1      33.821  22.886  26.151  1.00  0.00    -0.378 OA
BRANCH  14  15
ATOM     15  C   UNL A   1      33.824  21.842  25.186  1.00  0.00     0.121 C 
ATOM     16  C   UNL A   1      34.908  21.970  24.113  1.00  0.00     0.018 C 
ATOM     17  C   UNL A   1      34.553  23.022  23.064  1.00  0.00     0.006 C 
ATOM     18  C   UNL A   1      33.162  22.761  22.481  1.00  0.00     0.000 C 
ATOM     19  C   UNL A   1      32.411  21.687  24.617  1.00  0.00     0.032 C 
ATOM     20  C   UNL A   1      32.094  22.743  23.568  1.00  0.00     0.003 C 
BRANCH  16  21
ATOM     21  C   UNL A   1      36.289  22.187  24.761  1.00  0.00     0.003 C 
ATOM     22  C   UNL A   1      36.789  23.612  24.574  1.00  0.00     0.004 C 
ENDBRANCH  16  21
ENDBRANCH  14  15
ENDBRANCH  13  14
ENDBRANCH  12  13
ENDBRANCH   8  12
BRANCH   7  23
ATOM     23  N   UNL A   1      30.110  26.499  25.120  1.00  0.00    -0.334 N 
ATOM     24  C   UNL A   1      29.965  25.905  23.795  1.00  0.00     0.331 C 
ATOM     25  H   UNL A   1      29.584  27.373  25.136  1.00  0.00     0.347 HD
ATOM     26  H   UNL A   1      29.761  25.807  25.784  1.00  0.00     0.347 HD
ENDBRANCH   7  23
ENDBRANCH   5   7
ENDBRANCH   4   5
ENDBRANCH   3   4
ENDBRANCH   2   3
ENDBRANCH   1   2
BRANCH   1  27
ATOM     27  C   UNL A   1      34.674  31.462  28.588  1.00  0.00     0.188 C 
BRANCH  27  28
ATOM     28  C   UNL A   1      35.091  32.932  28.627  1.00  0.00     0.188 C 
BRANCH  28  29
ATOM     29  O   UNL A   1      34.325  33.763  27.775  1.00  0.00    -0.376 OA
BRANCH  29  30
ATOM     30  C   UNL A   1      33.381  34.577  28.453  1.00  0.00     0.202 C 
BRANCH  30  31
ATOM     31  C   UNL A   1      33.769  34.750  29.925  1.00  0.00     0.261 C 
BRANCH  31  32
ATOM     32  O   UNL A   1      32.968  35.702  30.662  1.00  0.00    -0.460 OA
BRANCH  32  33
ATOM     33  C   UNL A   1      32.798  35.476  31.981  1.00  0.00     0.338 C 
ATOM     34  O   UNL A   1      31.770  35.663  32.625  1.00  0.00    -0.246 OA
BRANCH  33  35
ATOM     35  C   UNL A   1      33.979  34.756  32.512  1.00  0.00     0.060 A 
ATOM     36  C   UNL A   1      35.237  35.365  32.413  1.00  0.00     0.016 A 
ATOM     37  C   UNL A   1      33.870  33.483  33.075  1.00  0.00     0.016 A 
ATOM     38  C   UNL A   1      36.386  34.710  32.869  1.00  0.00     0.010 A 
ATOM     39  C   UNL A   1      35.027  32.812  33.501  1.00  0.00     0.010 A 
ATOM     40  C   UNL A   1      36.296  33.413  33.384  1.00  0.00    -0.014 A 
BRANCH  40  41
ATOM     41  C   UNL A   1      37.533  32.612  33.602  1.00  0.00     0.031 A 
ATOM     42  C   UNL A   1      38.293  32.810  34.888  1.00  0.00     0.074 A 
ATOM     43  C   UNL A   1      37.966  31.697  32.716  1.00  0.00     0.049 A 
ATOM     44  N   UNL A   1      39.455  32.333  35.254  1.00  0.00    -0.248 NA
ATOM     45  C   UNL A   1      37.644  33.661  35.899  1.00  0.00     0.031 C 
ATOM     46  C   UNL A   1      37.283  31.313  31.483  1.00  0.00     0.029 A 
ATOM     47  N   UNL A   1      39.103  30.921  32.726  1.00  0.00    -0.354 N 
ATOM     48  C   UNL A   1      39.690  32.847  36.523  1.00  0.00     0.074 A 
ATOM     49  C   UNL A   1      38.556  33.681  36.859  1.00  0.00     0.031 C 
ATOM     50  C   UNL A   1      38.021  30.384  30.848  1.00  0.00     0.029 A 
ATOM     51  C   UNL A   1      39.253  30.148  31.600  1.00  0.00     0.049 A 
ATOM     52  H   UNL A   1      39.749  30.921  33.469  1.00  0.00     0.167 HD
ATOM     53  C   UNL A   1      40.754  32.651  37.337  1.00  0.00     0.031 A 
ATOM     54  C   UNL A   1      40.283  29.373  31.201  1.00  0.00     0.031 A 
ATOM     55  C   UNL A   1      41.888  31.830  37.008  1.00  0.00     0.049 A 
ATOM     56  C   UNL A   1      41.515  29.265  32.068  1.00  0.00     0.074 A 
ATOM     57  C   UNL A   1      43.025  31.586  37.759  1.00  0.00     0.029 A 
ATOM     58  N   UNL A   1      42.030  31.119  35.827  1.00  0.00    -0.354 N 
ATOM     59  N   UNL A   1      41.747  29.785  33.248  1.00  0.00    -0.248 NA
ATOM     60  C   UNL A   1      42.632  28.466  31.538  1.00  0.00     0.031 C 
ATOM     61  C   UNL A   1      43.881  30.776  37.007  1.00  0.00     0.029 A 
ATOM     62  C   UNL A   1      43.247  30.458  35.817  1.00  0.00     0.049 A 
ATOM     63  H   UNL A   1      41.364  31.089  35.102  1.00  0.00     0.167 HD
ATOM     64  C   UNL A   1      43.016  29.350  33.615  1.00  0.00     0.074 A 
ATOM     65  C   UNL A   1      43.500  28.513  32.539  1.00  0.00     0.031 C 
ATOM     66  C   UNL A   1      43.717  29.619  34.744  1.00  0.00     0.031 A 
BRANCH  53  67
ATOM     67  C   UNL A   1      40.767  33.397  38.642  1.00  0.00    -0.014 A 
ATOM     68  C   UNL A   1      39.990  32.983  39.736  1.00  0.00     0.009 A 
ATOM     69  C   UNL A   1      41.584  34.529  38.781  1.00  0.00     0.009 A 
ATOM     70  C   UNL A   1      40.000  33.714  40.927  1.00  0.00     0.001 A 
ATOM     71  C   UNL A   1      41.617  35.240  39.981  1.00  0.00     0.001 A 
ATOM     72  C   UNL A   1      40.816  34.839  41.049  1.00  0.00     0.000 A 
ENDBRANCH  53  67
BRANCH  54  73
ATOM     73  C   UNL A   1      40.236  28.670  29.887  1.00  0.00    -0.014 A 
ATOM     74  C   UNL A   1      40.701  29.295  28.719  1.00  0.00     0.009 A 
ATOM     75  C   UNL A   1      39.675  27.386  29.789  1.00  0.00     0.009 A 
ATOM     76  C   UNL A   1      40.580  28.660  27.479  1.00  0.00     0.001 A 
ATOM     77  C   UNL A   1      39.586  26.742  28.553  1.00  0.00     0.001 A 
ATOM     78  C   UNL A   1      40.028  27.384  27.397  1.00  0.00     0.000 A 
ENDBRANCH  54  73
BRANCH  66  79
ATOM     79  C   UNL A   1      45.061  28.960  34.905  1.00  0.00    -0.014 A 
ATOM     80  C   UNL A   1      45.191  27.678  35.458  1.00  0.00     0.009 A 
ATOM     81  C   UNL A   1      46.213  29.620  34.445  1.00  0.00     0.009 A 
ATOM     82  C   UNL A   1      46.450  27.084  35.579  1.00  0.00     0.001 A 
ATOM     83  C   UNL A   1      47.466  29.011  34.537  1.00  0.00     0.001 A 
ATOM     84  C   UNL A   1      47.585  27.748  35.112  1.00  0.00     0.000 A 
ENDBRANCH  66  79
ENDBRANCH  40  41
ENDBRANCH  33  35
ENDBRANCH  32  33
ENDBRANCH  31  32
ENDBRANCH  30  31
ENDBRANCH  29  30
ENDBRANCH  28  29
ENDBRANCH  27  28
ENDBRANCH   1  27
TORSDOF 23
ENDMDL
MODEL 2
REMARK VINA RESULT:      -8.7      2.487      7.253
REMARK SMILES CC[C@@H]1CCCC[C@@H]1OCC[C@@H]1CCC[C@]1([NH2+]C)C(=O)OCCOCCOCCOC(=O)c1ccc(-c2c3nc(c(-c4ccccc4)c4ccc([nH]4)c(-c4ccccc4)c4nc(c(-c5ccccc5)c5ccc2[nH]5)C=C4)C=C3)cc1
REMARK SMILES IDX 24 1 23 2 22 3 21 4 19 5 20 6 16 7 12 8 13 9 14 10 15 11
REMARK SMILES IDX 11 12 10 13 9 14 8 15 3 16 4 17 5 18 7 19 6 20 2 21 1 22
REMARK SMILES IDX 17 23 18 24 25 27 26 28 27 29 28 30 29 31 30 32 31 33 32 34
REMARK SMILES IDX 33 35 34 36 80 37 35 38 79 39 36 40 37 41 38 42 73 43 39 44
REMARK SMILES IDX 78 45 72 46 74 47 40 48 77 49 71 50 70 51 41 53 63 54 48 55
REMARK SMILES IDX 62 56 49 57 52 58 61 59 75 60 50 61 51 62 60 64 76 65 53 66
REMARK SMILES IDX 42 67 43 68 47 69 44 70 46 71 45 72 64 73 65 74 69 75 66 76
REMARK SMILES IDX 68 77 67 78 54 79 55 80 59 81 56 82 58 83 57 84
REMARK H PARENT 17 25 17 26 74 52 52 63
REMARK Flexibility Score: inf
ROOT
ATOM      1  O   UNL A   1      31.316  25.714  27.194  1.00  0.00    -0.376 OA
ENDROOT
BRANCH   1   2
ATOM      2  C   UNL A   1      31.607  24.368  26.857  1.00  0.00     0.202 C 
BRANCH   2   3
ATOM      3  C   UNL A   1      30.403  23.437  26.652  1.00  0.00     0.261 C 
BRANCH   3   4
ATOM      4  O   UNL A   1      30.493  22.475  25.583  1.00  0.00    -0.459 OA
BRANCH   4   5
ATOM      5  C   UNL A   1      31.152  22.907  24.472  1.00  0.00     0.368 C 
ATOM      6  O   UNL A   1      30.658  23.681  23.655  1.00  0.00    -0.245 OA
BRANCH   5   7
ATOM      7  C   UNL A   1      32.517  22.187  24.226  1.00  0.00     0.197 C 
ATOM      8  C   UNL A   1      33.855  22.949  24.479  1.00  0.00     0.065 C 
ATOM      9  C   UNL A   1      34.084  23.832  23.258  1.00  0.00     0.011 C 
ATOM     10  C   UNL A   1      33.461  23.070  22.100  1.00  0.00     0.008 C 
ATOM     11  C   UNL A   1      32.659  21.913  22.699  1.00  0.00     0.081 C 
BRANCH   8  12
ATOM     12  C   UNL A   1      34.196  23.639  25.824  1.00  0.00     0.039 C 
BRANCH  12  13
ATOM     13  C   UNL A   1      35.442  23.166  26.596  1.00  0.00     0.161 C 
BRANCH  13  14
ATOM     14  O   UNL A   1      36.161  22.066  26.014  1.00  0.00    -0.378 OA
BRANCH  14  15
ATOM     15  C   UNL A   1      37.235  22.453  25.167  1.00  0.00     0.121 C 
ATOM     16  C   UNL A   1      38.346  21.409  25.029  1.00  0.00     0.018 C 
ATOM     17  C   UNL A   1      39.249  21.367  26.260  1.00  0.00     0.006 C 
ATOM     18  C   UNL A   1      39.780  22.764  26.591  1.00  0.00     0.000 C 
ATOM     19  C   UNL A   1      37.739  23.832  25.603  1.00  0.00     0.032 C 
ATOM     20  C   UNL A   1      38.645  23.753  26.824  1.00  0.00     0.003 C 
BRANCH  16  21
ATOM     21  C   UNL A   1      37.754  20.036  24.651  1.00  0.00     0.003 C 
ATOM     22  C   UNL A   1      38.352  18.911  25.482  1.00  0.00     0.004 C 
ENDBRANCH  16  21
ENDBRANCH  14  15
ENDBRANCH  13  14
ENDBRANCH  12  13
ENDBRANCH   8  12
BRANCH   7  23
ATOM     23  N   UNL A   1      32.529  20.904  24.988  1.00  0.00    -0.334 N 
ATOM     24  C   UNL A   1      32.633  19.703  24.165  1.00  0.00     0.331 C 
ATOM     25  H   UNL A   1      31.663  20.847  25.525  1.00  0.00     0.347 HD
ATOM     26  H   UNL A   1      33.365  20.925  25.571  1.00  0.00     0.347 HD
ENDBRANCH   7  23
ENDBRANCH   5   7
ENDBRANCH   4   5
ENDBRANCH   3   4
ENDBRANCH   2   3
ENDBRANCH   1   2
BRANCH   1  27
ATOM     27  C   UNL A   1      31.903  26.774  26.445  1.00  0.00     0.188 C 
BRANCH  27  28
ATOM     28  C   UNL A   1      31.139  27.400  25.278  1.00  0.00     0.188 C 
BRANCH  28  29
ATOM     29  O   UNL A   1      31.924  28.277  24.491  1.00  0.00    -0.376 OA
BRANCH  29  30
ATOM     30  C   UNL A   1      31.316  29.534  24.241  1.00  0.00     0.202 C 
BRANCH  30  31
ATOM     31  C   UNL A   1      31.475  30.466  25.446  1.00  0.00     0.261 C 
BRANCH  31  32
ATOM     32  O   UNL A   1      32.746  30.372  26.131  1.00  0.00    -0.460 OA
BRANCH  32  33
ATOM     33  C   UNL A   1      33.091  31.396  26.937  1.00  0.00     0.338 C 
ATOM     34  O   UNL A   1      32.364  32.319  27.294  1.00  0.00    -0.246 OA
BRANCH  33  35
ATOM     35  C   UNL A   1      34.430  31.137  27.516  1.00  0.00     0.060 A 
ATOM     36  C   UNL A   1      34.801  29.813  27.784  1.00  0.00     0.016 A 
ATOM     37  C   UNL A   1      35.308  32.178  27.825  1.00  0.00     0.016 A 
ATOM     38  C   UNL A   1      36.041  29.522  28.362  1.00  0.00     0.010 A 
ATOM     39  C   UNL A   1      36.538  31.887  28.437  1.00  0.00     0.010 A 
ATOM     40  C   UNL A   1      36.906  30.559  28.727  1.00  0.00    -0.014 A 
BRANCH  40  41
ATOM     41  C   UNL A   1      38.085  30.274  29.591  1.00  0.00     0.031 A 
ATOM     42  C   UNL A   1      39.199  29.434  29.022  1.00  0.00     0.074 A 
ATOM     43  C   UNL A   1      38.206  30.771  30.836  1.00  0.00     0.049 A 
ATOM     44  N   UNL A   1      40.260  28.944  29.611  1.00  0.00    -0.248 NA
ATOM     45  C   UNL A   1      39.100  29.110  27.590  1.00  0.00     0.031 C 
ATOM     46  C   UNL A   1      37.269  31.687  31.482  1.00  0.00     0.029 A 
ATOM     47  N   UNL A   1      39.183  30.565  31.782  1.00  0.00    -0.354 N 
ATOM     48  C   UNL A   1      40.939  28.231  28.630  1.00  0.00     0.074 A 
ATOM     49  C   UNL A   1      40.165  28.343  27.413  1.00  0.00     0.031 C 
ATOM     50  C   UNL A   1      37.709  31.953  32.726  1.00  0.00     0.029 A 
ATOM     51  C   UNL A   1      38.928  31.186  32.982  1.00  0.00     0.049 A 
ATOM     52  H   UNL A   1      39.988  30.024  31.617  1.00  0.00     0.167 HD
ATOM     53  C   UNL A   1      42.099  27.539  28.730  1.00  0.00     0.031 A 
ATOM     54  C   UNL A   1      39.577  31.110  34.162  1.00  0.00     0.031 A 
ATOM     55  C   UNL A   1      42.870  27.417  29.937  1.00  0.00     0.049 A 
ATOM     56  C   UNL A   1      40.801  30.233  34.285  1.00  0.00     0.074 A 
ATOM     57  C   UNL A   1      44.048  26.719  30.142  1.00  0.00     0.029 A 
ATOM     58  N   UNL A   1      42.539  28.005  31.148  1.00  0.00    -0.354 N 
ATOM     59  N   UNL A   1      41.415  29.531  33.364  1.00  0.00    -0.248 NA
ATOM     60  C   UNL A   1      41.416  30.135  35.619  1.00  0.00     0.031 C 
ATOM     61  C   UNL A   1      44.397  26.837  31.491  1.00  0.00     0.029 A 
ATOM     62  C   UNL A   1      43.474  27.665  32.110  1.00  0.00     0.049 A 
ATOM     63  H   UNL A   1      41.754  28.579  31.301  1.00  0.00     0.167 HD
ATOM     64  C   UNL A   1      42.503  28.938  33.997  1.00  0.00     0.074 A 
ATOM     65  C   UNL A   1      42.473  29.373  35.377  1.00  0.00     0.031 C 
ATOM     66  C   UNL A   1      43.442  28.109  33.480  1.00  0.00     0.031 A 
BRANCH  53  67
ATOM     67  C   UNL A   1      42.567  26.803  27.505  1.00  0.00    -0.014 A 
ATOM     68  C   UNL A   1      42.401  25.416  27.370  1.00  0.00     0.009 A 
ATOM     69  C   UNL A   1      43.175  27.519  26.462  1.00  0.00     0.009 A 
ATOM     70  C   UNL A   1      42.875  24.756  26.233  1.00  0.00     0.001 A 
ATOM     71  C   UNL A   1      43.618  26.862  25.313  1.00  0.00     0.001 A 
ATOM     72  C   UNL A   1      43.478  25.480  25.205  1.00  0.00     0.000 A 
ENDBRANCH  53  67
BRANCH  54  73
ATOM     73  C   UNL A   1      39.063  31.839  35.357  1.00  0.00    -0.014 A 
ATOM     74  C   UNL A   1      38.263  31.188  36.308  1.00  0.00     0.009 A 
ATOM     75  C   UNL A   1      39.330  33.208  35.522  1.00  0.00     0.009 A 
ATOM     76  C   UNL A   1      37.718  31.898  37.383  1.00  0.00     0.001 A 
ATOM     77  C   UNL A   1      38.812  33.906  36.615  1.00  0.00     0.001 A 
ATOM     78  C   UNL A   1      37.998  33.254  37.538  1.00  0.00     0.000 A 
ENDBRANCH  54  73
BRANCH  66  79
ATOM     79  C   UNL A   1      44.552  27.657  34.391  1.00  0.00    -0.014 A 
ATOM     80  C   UNL A   1      45.716  28.420  34.569  1.00  0.00     0.009 A 
ATOM     81  C   UNL A   1      44.404  26.468  35.124  1.00  0.00     0.009 A 
ATOM     82  C   UNL A   1      46.722  27.985  35.436  1.00  0.00     0.001 A 
ATOM     83  C   UNL A   1      45.395  26.051  36.013  1.00  0.00     0.001 A 
ATOM     84  C   UNL A   1      46.557  26.805  36.161  1.00  0.00     0.000 A 
ENDBRANCH  66  79
ENDBRANCH  40  41
ENDBRANCH  33  35
ENDBRANCH  32  33
ENDBRANCH  31  32
ENDBRANCH  30  31
ENDBRANCH  29  30
ENDBRANCH  28  29
ENDBRANCH  27  28
ENDBRANCH   1  27
TORSDOF 23
ENDMDL
MODEL 3
REMARK VINA RESULT:      -8.4      5.078     10.611
REMARK SMILES CC[C@@H]1CCCC[C@@H]1OCC[C@@H]1CCC[C@]1([NH2+]C)C(=O)OCCOCCOCCOC(=O)c1ccc(-c2c3nc(c(-c4ccccc4)c4ccc([nH]4)c(-c4ccccc4)c4nc(c(-c5ccccc5)c5ccc2[nH]5)C=C4)C=C3)cc1
REMARK SMILES IDX 24 1 23 2 22 3 21 4 19 5 20 6 16 7 12 8 13 9 14 10 15 11
REMARK SMILES IDX 11 12 10 13 9 14 8 15 3 16 4 17 5 18 7 19 6 20 2 21 1 22
REMARK SMILES IDX 17 23 18 24 25 27 26 28 27 29 28 30 29 31 30 32 31 33 32 34
REMARK SMILES IDX 33 35 34 36 80 37 35 38 79 39 36 40 37 41 38 42 73 43 39 44
REMARK SMILES IDX 78 45 72 46 74 47 40 48 77 49 71 50 70 51 41 53 63 54 48 55
REMARK SMILES IDX 62 56 49 57 52 58 61 59 75 60 50 61 51 62 60 64 76 65 53 66
REMARK SMILES IDX 42 67 43 68 47 69 44 70 46 71 45 72 64 73 65 74 69 75 66 76
REMARK SMILES IDX 68 77 67 78 54 79 55 80 59 81 56 82 58 83 57 84
REMARK H PARENT 17 25 17 26 74 52 52 63
REMARK Flexibility Score: inf
ROOT
ATOM      1  O   UNL A   1      43.445  21.851  26.374  1.00  0.00    -0.376 OA
ENDROOT
BRANCH   1   2
ATOM      2  C   UNL A   1      42.853  22.798  27.247  1.00  0.00     0.202 C 
BRANCH   2   3
ATOM      3  C   UNL A   1      42.310  24.080  26.599  1.00  0.00     0.261 C 
BRANCH   3   4
ATOM      4  O   UNL A   1      42.944  25.320  26.971  1.00  0.00    -0.459 OA
BRANCH   4   5
ATOM      5  C   UNL A   1      42.266  26.060  27.892  1.00  0.00     0.368 C 
ATOM      6  O   UNL A   1      42.584  26.115  29.078  1.00  0.00    -0.245 OA
BRANCH   5   7
ATOM      7  C   UNL A   1      40.940  26.685  27.351  1.00  0.00     0.197 C 
ATOM      8  C   UNL A   1      40.136  27.690  28.232  1.00  0.00     0.065 C 
ATOM      9  C   UNL A   1      39.350  26.851  29.232  1.00  0.00     0.011 C 
ATOM     10  C   UNL A   1      39.049  25.551  28.504  1.00  0.00     0.008 C 
ATOM     11  C   UNL A   1      39.881  25.549  27.220  1.00  0.00     0.081 C 
BRANCH   8  12
ATOM     12  C   UNL A   1      40.761  28.970  28.841  1.00  0.00     0.039 C 
BRANCH  12  13
ATOM     13  C   UNL A   1      40.745  29.137  30.372  1.00  0.00     0.161 C 
BRANCH  13  14
ATOM     14  O   UNL A   1      39.920  30.199  30.879  1.00  0.00    -0.378 OA
BRANCH  14  15
ATOM     15  C   UNL A   1      38.569  30.148  30.441  1.00  0.00     0.121 C 
ATOM     16  C   UNL A   1      37.884  31.513  30.329  1.00  0.00     0.018 C 
ATOM     17  C   UNL A   1      37.485  32.067  31.696  1.00  0.00     0.006 C 
ATOM     18  C   UNL A   1      36.656  31.044  32.476  1.00  0.00     0.000 C 
ATOM     19  C   UNL A   1      37.802  29.146  31.309  1.00  0.00     0.032 C 
ATOM     20  C   UNL A   1      37.411  29.733  32.657  1.00  0.00     0.003 C 
BRANCH  16  21
ATOM     21  C   UNL A   1      38.745  32.484  29.497  1.00  0.00     0.003 C 
ATOM     22  C   UNL A   1      38.194  33.902  29.528  1.00  0.00     0.004 C 
ENDBRANCH  16  21
ENDBRANCH  14  15
ENDBRANCH  13  14
ENDBRANCH  12  13
ENDBRANCH   8  12
BRANCH   7  23
ATOM     23  N   UNL A   1      41.207  27.301  26.018  1.00  0.00    -0.334 N 
ATOM     24  C   UNL A   1      41.765  28.649  26.066  1.00  0.00     0.331 C 
ATOM     25  H   UNL A   1      40.327  27.339  25.504  1.00  0.00     0.347 HD
ATOM     26  H   UNL A   1      41.911  26.715  25.569  1.00  0.00     0.347 HD
ENDBRANCH   7  23
ENDBRANCH   5   7
ENDBRANCH   4   5
ENDBRANCH   3   4
ENDBRANCH   2   3
ENDBRANCH   1   2
BRANCH   1  27
ATOM     27  C   UNL A   1      44.725  22.115  25.806  1.00  0.00     0.188 C 
BRANCH  27  28
ATOM     28  C   UNL A   1      44.845  22.461  24.321  1.00  0.00     0.188 C 
BRANCH  28  29
ATOM     29  O   UNL A   1      45.670  23.583  24.065  1.00  0.00    -0.376 OA
BRANCH  29  30
ATOM     30  C   UNL A   1      46.238  24.163  25.229  1.00  0.00     0.202 C 
BRANCH  30  31
ATOM     31  C   UNL A   1      47.467  25.006  24.873  1.00  0.00     0.261 C 
BRANCH  31  32
ATOM     32  O   UNL A   1      47.177  26.312  24.323  1.00  0.00    -0.460 OA
BRANCH  32  33
ATOM     33  C   UNL A   1      47.805  27.369  24.878  1.00  0.00     0.338 C 
ATOM     34  O   UNL A   1      48.717  28.019  24.376  1.00  0.00    -0.246 OA
BRANCH  33  35
ATOM     35  C   UNL A   1      47.086  27.777  26.108  1.00  0.00     0.060 A 
ATOM     36  C   UNL A   1      45.686  27.794  26.093  1.00  0.00     0.016 A 
ATOM     37  C   UNL A   1      47.770  28.173  27.259  1.00  0.00     0.016 A 
ATOM     38  C   UNL A   1      44.964  28.205  27.218  1.00  0.00     0.010 A 
ATOM     39  C   UNL A   1      47.046  28.618  28.376  1.00  0.00     0.010 A 
ATOM     40  C   UNL A   1      45.638  28.655  28.359  1.00  0.00    -0.014 A 
BRANCH  40  41
ATOM     41  C   UNL A   1      44.888  29.354  29.438  1.00  0.00     0.031 A 
ATOM     42  C   UNL A   1      44.607  28.602  30.713  1.00  0.00     0.074 A 
ATOM     43  C   UNL A   1      44.494  30.637  29.331  1.00  0.00     0.049 A 
ATOM     44  N   UNL A   1      43.870  28.942  31.739  1.00  0.00    -0.248 NA
ATOM     45  C   UNL A   1      45.255  27.287  30.845  1.00  0.00     0.031 C 
ATOM     46  C   UNL A   1      44.787  31.528  28.211  1.00  0.00     0.029 A 
ATOM     47  N   UNL A   1      43.751  31.411  30.191  1.00  0.00    -0.354 N 
ATOM     48  C   UNL A   1      43.941  27.874  32.625  1.00  0.00     0.074 A 
ATOM     49  C   UNL A   1      44.784  26.871  32.011  1.00  0.00     0.031 C 
ATOM     50  C   UNL A   1      44.218  32.724  28.446  1.00  0.00     0.029 A 
ATOM     51  C   UNL A   1      43.475  32.667  29.706  1.00  0.00     0.049 A 
ATOM     52  H   UNL A   1      43.444  31.096  31.072  1.00  0.00     0.167 HD
ATOM     53  C   UNL A   1      43.355  27.732  33.837  1.00  0.00     0.031 A 
ATOM     54  C   UNL A   1      42.682  33.642  30.197  1.00  0.00     0.031 A 
ATOM     55  C   UNL A   1      42.510  28.721  34.451  1.00  0.00     0.049 A 
ATOM     56  C   UNL A   1      41.939  33.416  31.492  1.00  0.00     0.074 A 
ATOM     57  C   UNL A   1      41.854  28.661  35.668  1.00  0.00     0.029 A 
ATOM     58  N   UNL A   1      42.202  29.952  33.892  1.00  0.00    -0.354 N 
ATOM     59  N   UNL A   1      41.980  32.388  32.304  1.00  0.00    -0.248 NA
ATOM     60  C   UNL A   1      41.031  34.488  31.932  1.00  0.00     0.031 C 
ATOM     61  C   UNL A   1      41.101  29.829  35.818  1.00  0.00     0.029 A 
ATOM     62  C   UNL A   1      41.344  30.648  34.726  1.00  0.00     0.049 A 
ATOM     63  H   UNL A   1      42.542  30.281  33.028  1.00  0.00     0.167 HD
ATOM     64  C   UNL A   1      41.135  32.704  33.364  1.00  0.00     0.074 A 
ATOM     65  C   UNL A   1      40.605  34.023  33.098  1.00  0.00     0.031 C 
ATOM     66  C   UNL A   1      40.828  31.966  34.458  1.00  0.00     0.031 A 
BRANCH  53  67
ATOM     67  C   UNL A   1      43.559  26.425  34.550  1.00  0.00    -0.014 A 
ATOM     68  C   UNL A   1      44.646  26.219  35.415  1.00  0.00     0.009 A 
ATOM     69  C   UNL A   1      42.636  25.385  34.360  1.00  0.00     0.009 A 
ATOM     70  C   UNL A   1      44.825  24.982  36.040  1.00  0.00     0.001 A 
ATOM     71  C   UNL A   1      42.800  24.161  35.010  1.00  0.00     0.001 A 
ATOM     72  C   UNL A   1      43.901  23.957  35.840  1.00  0.00     0.000 A 
ENDBRANCH  53  67
BRANCH  54  73
ATOM     73  C   UNL A   1      42.491  34.913  29.443  1.00  0.00    -0.014 A 
ATOM     74  C   UNL A   1      41.493  35.027  28.463  1.00  0.00     0.009 A 
ATOM     75  C   UNL A   1      43.345  36.006  29.667  1.00  0.00     0.009 A 
ATOM     76  C   UNL A   1      41.373  36.195  27.704  1.00  0.00     0.001 A 
ATOM     77  C   UNL A   1      43.200  37.184  28.930  1.00  0.00     0.001 A 
ATOM     78  C   UNL A   1      42.222  37.274  27.942  1.00  0.00     0.000 A 
ENDBRANCH  54  73
BRANCH  66  79
ATOM     79  C   UNL A   1      39.917  32.585  35.485  1.00  0.00    -0.014 A 
ATOM     80  C   UNL A   1      38.522  32.566  35.340  1.00  0.00     0.009 A 
ATOM     81  C   UNL A   1      40.470  33.153  36.646  1.00  0.00     0.009 A 
ATOM     82  C   UNL A   1      37.702  33.134  36.319  1.00  0.00     0.001 A 
ATOM     83  C   UNL A   1      39.648  33.690  37.637  1.00  0.00     0.001 A 
ATOM     84  C   UNL A   1      38.265  33.688  37.468  1.00  0.00     0.000 A 
ENDBRANCH  66  79
ENDBRANCH  40  41
ENDBRANCH  33  35
ENDBRANCH  32  33
ENDBRANCH  31  32
ENDBRANCH  30  31
ENDBRANCH  29  30
ENDBRANCH  28  29
ENDBRANCH  27  28
ENDBRANCH   1  27
TORSDOF 23
ENDMDL
