MODEL 1
REMARK VINA RESULT:      -8.8      0.000      0.000
REMARK SMILES C[C@H]([NH2+][C@@H](C)Cc1cccs1)[C@@H](C)C(=O)OCCOCCOCCOC(=O)c1ccc(-c2c3nc(c(-c4ccccc4)c4ccc([nH]4)c(-c4ccccc4)c4nc(c(-c5ccccc5)c5ccc2[nH]5)C=C4)C=C3)cc1
REMARK SMILES IDX 19 1 18 2 17 3 16 4 14 5 15 6 12 7 13 8 2 9 1 10 3 11 4 14
REMARK SMILES IDX 5 15 6 16 7 17 8 18 11 19 9 20 10 21 20 22 21 23 22 24 23 25
REMARK SMILES IDX 24 26 25 27 26 28 27 29 28 30 29 31 75 32 30 33 74 34 31 35
REMARK SMILES IDX 32 36 33 37 68 38 34 39 73 40 67 41 69 42 35 43 72 44 66 45
REMARK SMILES IDX 65 46 36 48 58 49 43 50 57 51 44 52 47 53 56 54 70 55 45 56
REMARK SMILES IDX 46 57 55 59 71 60 48 61 37 62 38 63 42 64 39 65 41 66 40 67
REMARK SMILES IDX 59 68 60 69 64 70 61 71 63 72 62 73 49 74 50 75 54 76 51 77
REMARK SMILES IDX 53 78 52 79
REMARK H PARENT 3 12 3 13 69 47 47 58
REMARK Flexibility Score: inf
ROOT
ATOM      1  O   UNL A   1      33.393  27.845  25.648  1.00  0.00    -0.376 OA
ENDROOT
BRANCH   1   2
ATOM      2  C   UNL A   1      33.823  28.346  24.382  1.00  0.00     0.202 C 
BRANCH   2   3
ATOM      3  C   UNL A   1      32.762  28.963  23.441  1.00  0.00     0.261 C 
BRANCH   3   4
ATOM      4  O   UNL A   1      31.357  28.775  23.783  1.00  0.00    -0.463 OA
BRANCH   4   5
ATOM      5  C   UNL A   1      30.665  28.031  22.893  1.00  0.00     0.314 C 
ATOM      6  O   UNL A   1      30.079  28.539  21.933  1.00  0.00    -0.252 OA
BRANCH   5   7
ATOM      7  C   UNL A   1      30.644  26.505  23.050  1.00  0.00     0.154 C 
ATOM      8  C   UNL A   1      30.351  26.323  24.560  1.00  0.00     0.026 C 
BRANCH   7   9
ATOM      9  C   UNL A   1      31.710  25.460  22.627  1.00  0.00     0.193 C 
ATOM     10  C   UNL A   1      32.452  25.696  21.319  1.00  0.00     0.076 C 
BRANCH   9  11
ATOM     11  N   UNL A   1      31.180  24.061  22.688  1.00  0.00    -0.341 N 
ATOM     12  H   UNL A   1      31.156  23.722  21.727  1.00  0.00     0.346 HD
ATOM     13  H   UNL A   1      30.301  24.185  23.190  1.00  0.00     0.346 HD
BRANCH  11  14
ATOM     14  C   UNL A   1      31.848  23.012  23.482  1.00  0.00     0.184 C 
ATOM     15  C   UNL A   1      32.121  21.882  22.468  1.00  0.00     0.075 C 
BRANCH  14  16
ATOM     16  C   UNL A   1      33.229  23.385  24.111  1.00  0.00     0.111 C 
BRANCH  16  17
ATOM     17  C   UNL A   1      33.404  22.959  25.539  1.00  0.00     0.010 A 
ATOM     18  C   UNL A   1      32.448  22.504  26.428  1.00  0.00     0.015 A 
ATOM     19  S   UNL A   1      34.966  22.873  26.243  1.00  0.00    -0.149 S 
ATOM     20  C   UNL A   1      32.960  22.371  27.750  1.00  0.00     0.012 A 
ATOM     21  C   UNL A   1      34.308  22.640  27.806  1.00  0.00     0.065 A 
ENDBRANCH  16  17
ENDBRANCH  14  16
ENDBRANCH  11  14
ENDBRANCH   9  11
ENDBRANCH   7   9
ENDBRANCH   5   7
ENDBRANCH   4   5
ENDBRANCH   3   4
ENDBRANCH   2   3
ENDBRANCH   1   2
BRANCH   1  22
ATOM     22  C   UNL A   1      33.841  28.540  26.807  1.00  0.00     0.188 C 
BRANCH  22  23
ATOM     23  C   UNL A   1      33.591  30.050  26.816  1.00  0.00     0.188 C 
BRANCH  23  24
ATOM     24  O   UNL A   1      32.210  30.366  26.837  1.00  0.00    -0.376 OA
BRANCH  24  25
ATOM     25  C   UNL A   1      31.764  31.715  26.874  1.00  0.00     0.202 C 
BRANCH  25  26
ATOM     26  C   UNL A   1      32.754  32.817  27.272  1.00  0.00     0.261 C 
BRANCH  26  27
ATOM     27  O   UNL A   1      32.150  34.019  27.786  1.00  0.00    -0.460 OA
BRANCH  27  28
ATOM     28  C   UNL A   1      32.940  34.850  28.498  1.00  0.00     0.338 C 
ATOM     29  O   UNL A   1      32.655  35.972  28.889  1.00  0.00    -0.246 OA
BRANCH  28  30
ATOM     30  C   UNL A   1      34.141  34.101  28.943  1.00  0.00     0.060 A 
ATOM     31  C   UNL A   1      33.967  33.131  29.937  1.00  0.00     0.016 A 
ATOM     32  C   UNL A   1      35.406  34.297  28.375  1.00  0.00     0.016 A 
ATOM     33  C   UNL A   1      35.062  32.412  30.412  1.00  0.00     0.010 A 
ATOM     34  C   UNL A   1      36.504  33.566  28.847  1.00  0.00     0.010 A 
ATOM     35  C   UNL A   1      36.343  32.647  29.897  1.00  0.00    -0.014 A 
BRANCH  35  36
ATOM     36  C   UNL A   1      37.506  32.070  30.617  1.00  0.00     0.031 A 
ATOM     37  C   UNL A   1      38.181  30.861  30.031  1.00  0.00     0.074 A 
ATOM     38  C   UNL A   1      38.037  32.669  31.699  1.00  0.00     0.049 A 
ATOM     39  N   UNL A   1      39.275  30.253  30.413  1.00  0.00    -0.248 NA
ATOM     40  C   UNL A   1      37.537  30.262  28.850  1.00  0.00     0.031 C 
ATOM     41  C   UNL A   1      37.508  33.867  32.344  1.00  0.00     0.029 A 
ATOM     42  N   UNL A   1      39.161  32.364  32.427  1.00  0.00    -0.354 N 
ATOM     43  C   UNL A   1      39.448  29.201  29.524  1.00  0.00     0.074 A 
ATOM     44  C   UNL A   1      38.331  29.232  28.606  1.00  0.00     0.031 C 
ATOM     45  C   UNL A   1      38.331  34.223  33.346  1.00  0.00     0.029 A 
ATOM     46  C   UNL A   1      39.418  33.251  33.445  1.00  0.00     0.049 A 
ATOM     47  H   UNL A   1      39.730  31.583  32.237  1.00  0.00     0.167 HD
ATOM     48  C   UNL A   1      40.449  28.291  29.469  1.00  0.00     0.031 A 
ATOM     49  C   UNL A   1      40.413  33.273  34.355  1.00  0.00     0.031 A 
ATOM     50  C   UNL A   1      41.550  28.237  30.393  1.00  0.00     0.049 A 
ATOM     51  C   UNL A   1      41.473  32.200  34.320  1.00  0.00     0.074 A 
ATOM     52  C   UNL A   1      42.606  27.343  30.422  1.00  0.00     0.029 A 
ATOM     53  N   UNL A   1      41.732  29.106  31.457  1.00  0.00    -0.354 N 
ATOM     54  N   UNL A   1      41.632  31.217  33.467  1.00  0.00    -0.248 NA
ATOM     55  C   UNL A   1      42.495  32.249  35.376  1.00  0.00     0.031 C 
ATOM     56  C   UNL A   1      43.393  27.630  31.542  1.00  0.00     0.029 A 
ATOM     57  C   UNL A   1      42.871  28.753  32.165  1.00  0.00     0.049 A 
ATOM     58  H   UNL A   1      41.142  29.861  31.678  1.00  0.00     0.167 HD
ATOM     59  C   UNL A   1      42.786  30.552  33.864  1.00  0.00     0.074 A 
ATOM     60  C   UNL A   1      43.300  31.257  35.019  1.00  0.00     0.031 C 
ATOM     61  C   UNL A   1      43.372  29.457  33.319  1.00  0.00     0.031 A 
BRANCH  48  62
ATOM     62  C   UNL A   1      40.361  27.244  28.394  1.00  0.00    -0.014 A 
ATOM     63  C   UNL A   1      40.978  27.419  27.144  1.00  0.00     0.009 A 
ATOM     64  C   UNL A   1      39.652  26.058  28.641  1.00  0.00     0.009 A 
ATOM     65  C   UNL A   1      40.852  26.444  26.152  1.00  0.00     0.001 A 
ATOM     66  C   UNL A   1      39.558  25.071  27.659  1.00  0.00     0.001 A 
ATOM     67  C   UNL A   1      40.147  25.269  26.412  1.00  0.00     0.000 A 
ENDBRANCH  48  62
BRANCH  49  68
ATOM     68  C   UNL A   1      40.455  34.331  35.403  1.00  0.00    -0.014 A 
ATOM     69  C   UNL A   1      39.777  34.169  36.622  1.00  0.00     0.009 A 
ATOM     70  C   UNL A   1      41.136  35.535  35.165  1.00  0.00     0.009 A 
ATOM     71  C   UNL A   1      39.754  35.202  37.564  1.00  0.00     0.001 A 
ATOM     72  C   UNL A   1      41.141  36.552  36.124  1.00  0.00     0.001 A 
ATOM     73  C   UNL A   1      40.440  36.389  37.316  1.00  0.00     0.000 A 
ENDBRANCH  49  68
BRANCH  61  74
ATOM     74  C   UNL A   1      44.663  28.984  33.935  1.00  0.00    -0.014 A 
ATOM     75  C   UNL A   1      45.910  29.476  33.514  1.00  0.00     0.009 A 
ATOM     76  C   UNL A   1      44.627  28.035  34.969  1.00  0.00     0.009 A 
ATOM     77  C   UNL A   1      47.090  28.987  34.077  1.00  0.00     0.001 A 
ATOM     78  C   UNL A   1      45.807  27.576  35.556  1.00  0.00     0.001 A 
ATOM     79  C   UNL A   1      47.039  28.040  35.098  1.00  0.00     0.000 A 
ENDBRANCH  61  74
ENDBRANCH  35  36
ENDBRANCH  28  30
ENDBRANCH  27  28
ENDBRANCH  26  27
ENDBRANCH  25  26
ENDBRANCH  24  25
ENDBRANCH  23  24
ENDBRANCH  22  23
ENDBRANCH   1  22
TORSDOF 22
ENDMDL
MODEL 2
REMARK VINA RESULT:      -8.6      6.128     10.721
REMARK SMILES C[C@H]([NH2+][C@@H](C)Cc1cccs1)[C@@H](C)C(=O)OCCOCCOCCOC(=O)c1ccc(-c2c3nc(c(-c4ccccc4)c4ccc([nH]4)c(-c4ccccc4)c4nc(c(-c5ccccc5)c5ccc2[nH]5)C=C4)C=C3)cc1
REMARK SMILES IDX 19 1 18 2 17 3 16 4 14 5 15 6 12 7 13 8 2 9 1 10 3 11 4 14
REMARK SMILES IDX 5 15 6 16 7 17 8 18 11 19 9 20 10 21 20 22 21 23 22 24 23 25
REMARK SMILES IDX 24 26 25 27 26 28 27 29 28 30 29 31 75 32 30 33 74 34 31 35
REMARK SMILES IDX 32 36 33 37 68 38 34 39 73 40 67 41 69 42 35 43 72 44 66 45
REMARK SMILES IDX 65 46 36 48 58 49 43 50 57 51 44 52 47 53 56 54 70 55 45 56
REMARK SMILES IDX 46 57 55 59 71 60 48 61 37 62 38 63 42 64 39 65 41 66 40 67
REMARK SMILES IDX 59 68 60 69 64 70 61 71 63 72 62 73 49 74 50 75 54 76 51 77
REMARK SMILES IDX 53 78 52 79
REMARK H PARENT 3 12 3 13 69 47 47 58
REMARK Flexibility Score: inf
ROOT
ATOM      1  O   UNL A   1      39.368  22.366  26.514  1.00  0.00    -0.376 OA
ENDROOT
BRANCH   1   2
ATOM      2  C   UNL A   1      38.206  22.133  25.717  1.00  0.00     0.202 C 
BRANCH   2   3
ATOM      3  C   UNL A   1      37.147  23.256  25.619  1.00  0.00     0.261 C 
BRANCH   3   4
ATOM      4  O   UNL A   1      36.567  23.531  24.310  1.00  0.00    -0.463 OA
BRANCH   4   5
ATOM      5  C   UNL A   1      35.216  23.516  24.289  1.00  0.00     0.314 C 
ATOM      6  O   UNL A   1      34.575  22.461  24.273  1.00  0.00    -0.252 OA
BRANCH   5   7
ATOM      7  C   UNL A   1      34.452  24.845  24.334  1.00  0.00     0.154 C 
ATOM      8  C   UNL A   1      33.956  24.903  25.800  1.00  0.00     0.026 C 
BRANCH   7   9
ATOM      9  C   UNL A   1      33.314  25.354  23.410  1.00  0.00     0.193 C 
ATOM     10  C   UNL A   1      33.658  26.430  22.391  1.00  0.00     0.076 C 
BRANCH   9  11
ATOM     11  N   UNL A   1      32.089  25.732  24.184  1.00  0.00    -0.341 N 
ATOM     12  H   UNL A   1      32.413  26.283  24.980  1.00  0.00     0.346 HD
ATOM     13  H   UNL A   1      31.654  24.827  24.356  1.00  0.00     0.346 HD
BRANCH  11  14
ATOM     14  C   UNL A   1      30.988  26.498  23.570  1.00  0.00     0.184 C 
ATOM     15  C   UNL A   1      29.727  25.664  23.875  1.00  0.00     0.075 C 
BRANCH  14  16
ATOM     16  C   UNL A   1      30.723  27.926  24.146  1.00  0.00     0.111 C 
BRANCH  16  17
ATOM     17  C   UNL A   1      31.568  28.292  25.332  1.00  0.00     0.010 A 
ATOM     18  C   UNL A   1      31.414  27.914  26.652  1.00  0.00     0.015 A 
ATOM     19  S   UNL A   1      33.010  29.201  25.133  1.00  0.00    -0.149 S 
ATOM     20  C   UNL A   1      32.303  28.608  27.520  1.00  0.00     0.012 A 
ATOM     21  C   UNL A   1      33.166  29.422  26.823  1.00  0.00     0.065 A 
ENDBRANCH  16  17
ENDBRANCH  14  16
ENDBRANCH  11  14
ENDBRANCH   9  11
ENDBRANCH   7   9
ENDBRANCH   5   7
ENDBRANCH   4   5
ENDBRANCH   3   4
ENDBRANCH   2   3
ENDBRANCH   1   2
BRANCH   1  22
ATOM     22  C   UNL A   1      40.301  21.296  26.629  1.00  0.00     0.188 C 
BRANCH  22  23
ATOM     23  C   UNL A   1      40.041  20.087  25.729  1.00  0.00     0.188 C 
BRANCH  23  24
ATOM     24  O   UNL A   1      40.981  19.048  25.941  1.00  0.00    -0.376 OA
BRANCH  24  25
ATOM     25  C   UNL A   1      42.345  19.335  26.216  1.00  0.00     0.202 C 
BRANCH  25  26
ATOM     26  C   UNL A   1      43.435  18.649  25.382  1.00  0.00     0.261 C 
BRANCH  26  27
ATOM     27  O   UNL A   1      43.921  19.420  24.267  1.00  0.00    -0.460 OA
BRANCH  27  28
ATOM     28  C   UNL A   1      45.193  19.869  24.337  1.00  0.00     0.338 C 
ATOM     29  O   UNL A   1      46.185  19.327  23.874  1.00  0.00    -0.246 OA
BRANCH  28  30
ATOM     30  C   UNL A   1      45.180  21.256  24.865  1.00  0.00     0.060 A 
ATOM     31  C   UNL A   1      44.881  22.287  23.968  1.00  0.00     0.016 A 
ATOM     32  C   UNL A   1      45.404  21.550  26.216  1.00  0.00     0.016 A 
ATOM     33  C   UNL A   1      44.877  23.611  24.401  1.00  0.00     0.010 A 
ATOM     34  C   UNL A   1      45.389  22.882  26.652  1.00  0.00     0.010 A 
ATOM     35  C   UNL A   1      45.165  23.923  25.735  1.00  0.00    -0.014 A 
BRANCH  35  36
ATOM     36  C   UNL A   1      45.423  25.342  26.087  1.00  0.00     0.031 A 
ATOM     37  C   UNL A   1      44.301  26.147  26.681  1.00  0.00     0.074 A 
ATOM     38  C   UNL A   1      46.654  25.880  25.999  1.00  0.00     0.049 A 
ATOM     39  N   UNL A   1      44.317  27.361  27.168  1.00  0.00    -0.248 NA
ATOM     40  C   UNL A   1      42.985  25.490  26.737  1.00  0.00     0.031 C 
ATOM     41  C   UNL A   1      47.836  25.199  25.482  1.00  0.00     0.029 A 
ATOM     42  N   UNL A   1      47.116  27.117  26.376  1.00  0.00    -0.354 N 
ATOM     43  C   UNL A   1      43.017  27.614  27.586  1.00  0.00     0.074 A 
ATOM     44  C   UNL A   1      42.232  26.442  27.264  1.00  0.00     0.031 C 
ATOM     45  C   UNL A   1      48.901  26.010  25.614  1.00  0.00     0.029 A 
ATOM     46  C   UNL A   1      48.467  27.285  26.180  1.00  0.00     0.049 A 
ATOM     47  H   UNL A   1      46.535  27.817  26.753  1.00  0.00     0.167 HD
ATOM     48  C   UNL A   1      42.518  28.718  28.189  1.00  0.00     0.031 A 
ATOM     49  C   UNL A   1      49.259  28.349  26.424  1.00  0.00     0.031 A 
ATOM     50  C   UNL A   1      43.285  29.897  28.490  1.00  0.00     0.049 A 
ATOM     51  C   UNL A   1      48.661  29.597  27.024  1.00  0.00     0.074 A 
ATOM     52  C   UNL A   1      42.861  31.069  29.090  1.00  0.00     0.029 A 
ATOM     53  N   UNL A   1      44.632  30.058  28.205  1.00  0.00    -0.354 N 
ATOM     54  N   UNL A   1      47.432  29.818  27.426  1.00  0.00    -0.248 NA
ATOM     55  C   UNL A   1      49.568  30.739  27.210  1.00  0.00     0.031 C 
ATOM     56  C   UNL A   1      43.935  31.965  29.110  1.00  0.00     0.029 A 
ATOM     57  C   UNL A   1      45.049  31.322  28.594  1.00  0.00     0.049 A 
ATOM     58  H   UNL A   1      45.207  29.377  27.787  1.00  0.00     0.167 HD
ATOM     59  C   UNL A   1      47.427  31.110  27.939  1.00  0.00     0.074 A 
ATOM     60  C   UNL A   1      48.780  31.614  27.820  1.00  0.00     0.031 C 
ATOM     61  C   UNL A   1      46.396  31.817  28.466  1.00  0.00     0.031 A 
BRANCH  48  62
ATOM     62  C   UNL A   1      41.050  28.713  28.514  1.00  0.00    -0.014 A 
ATOM     63  C   UNL A   1      40.090  29.149  27.586  1.00  0.00     0.009 A 
ATOM     64  C   UNL A   1      40.622  28.256  29.770  1.00  0.00     0.009 A 
ATOM     65  C   UNL A   1      38.736  29.165  27.926  1.00  0.00     0.001 A 
ATOM     66  C   UNL A   1      39.265  28.241  30.093  1.00  0.00     0.001 A 
ATOM     67  C   UNL A   1      38.324  28.706  29.177  1.00  0.00     0.000 A 
ENDBRANCH  48  62
BRANCH  49  68
ATOM     68  C   UNL A   1      50.708  28.305  26.081  1.00  0.00    -0.014 A 
ATOM     69  C   UNL A   1      51.665  27.919  27.032  1.00  0.00     0.009 A 
ATOM     70  C   UNL A   1      51.146  28.701  24.807  1.00  0.00     0.009 A 
ATOM     71  C   UNL A   1      53.029  27.962  26.725  1.00  0.00     0.001 A 
ATOM     72  C   UNL A   1      52.506  28.708  24.491  1.00  0.00     0.001 A 
ATOM     73  C   UNL A   1      53.447  28.351  25.454  1.00  0.00     0.000 A 
ENDBRANCH  49  68
BRANCH  61  74
ATOM     74  C   UNL A   1      46.702  33.192  29.000  1.00  0.00    -0.014 A 
ATOM     75  C   UNL A   1      47.119  33.397  30.326  1.00  0.00     0.009 A 
ATOM     76  C   UNL A   1      46.582  34.305  28.151  1.00  0.00     0.009 A 
ATOM     77  C   UNL A   1      47.355  34.688  30.802  1.00  0.00     0.001 A 
ATOM     78  C   UNL A   1      46.855  35.591  28.620  1.00  0.00     0.001 A 
ATOM     79  C   UNL A   1      47.225  35.783  29.949  1.00  0.00     0.000 A 
ENDBRANCH  61  74
ENDBRANCH  35  36
ENDBRANCH  28  30
ENDBRANCH  27  28
ENDBRANCH  26  27
ENDBRANCH  25  26
ENDBRANCH  24  25
ENDBRANCH  23  24
ENDBRANCH  22  23
ENDBRANCH   1  22
TORSDOF 22
ENDMDL
MODEL 3
REMARK VINA RESULT:      -8.4      1.956      6.366
REMARK SMILES C[C@H]([NH2+][C@@H](C)Cc1cccs1)[C@@H](C)C(=O)OCCOCCOCCOC(=O)c1ccc(-c2c3nc(c(-c4ccccc4)c4ccc([nH]4)c(-c4ccccc4)c4nc(c(-c5ccccc5)c5ccc2[nH]5)C=C4)C=C3)cc1
REMARK SMILES IDX 19 1 18 2 17 3 16 4 14 5 15 6 12 7 13 8 2 9 1 10 3 11 4 14
REMARK SMILES IDX 5 15 6 16 7 17 8 18 11 19 9 20 10 21 20 22 21 23 22 24 23 25
REMARK SMILES IDX 24 26 25 27 26 28 27 29 28 30 29 31 75 32 30 33 74 34 31 35
REMARK SMILES IDX 32 36 33 37 68 38 34 39 73 40 67 41 69 42 35 43 72 44 66 45
REMARK SMILES IDX 65 46 36 48 58 49 43 50 57 51 44 52 47 53 56 54 70 55 45 56
REMARK SMILES IDX 46 57 55 59 71 60 48 61 37 62 38 63 42 64 39 65 41 66 40 67
REMARK SMILES IDX 59 68 60 69 64 70 61 71 63 72 62 73 49 74 50 75 54 76 51 77
REMARK SMILES IDX 53 78 52 79
REMARK H PARENT 3 12 3 13 69 47 47 58
REMARK Flexibility Score: inf
ROOT
ATOM      1  O   UNL A   1      31.736  29.233  23.435  1.00  0.00    -0.376 OA
ENDROOT
BRANCH   1   2
ATOM      2  C   UNL A   1      31.788  27.837  23.140  1.00  0.00     0.202 C 
BRANCH   2   3
ATOM      3  C   UNL A   1      33.115  27.250  22.606  1.00  0.00     0.261 C 
BRANCH   3   4
ATOM      4  O   UNL A   1      33.948  26.495  23.535  1.00  0.00    -0.463 OA
BRANCH   4   5
ATOM      5  C   UNL A   1      33.944  25.161  23.322  1.00  0.00     0.314 C 
ATOM      6  O   UNL A   1      34.041  24.681  22.189  1.00  0.00    -0.252 OA
BRANCH   5   7
ATOM      7  C   UNL A   1      33.864  24.211  24.523  1.00  0.00     0.154 C 
ATOM      8  C   UNL A   1      34.356  25.099  25.692  1.00  0.00     0.026 C 
BRANCH   7   9
ATOM      9  C   UNL A   1      34.471  22.793  24.695  1.00  0.00     0.193 C 
ATOM     10  C   UNL A   1      35.987  22.660  24.638  1.00  0.00     0.076 C 
BRANCH   9  11
ATOM     11  N   UNL A   1      33.819  21.790  23.794  1.00  0.00    -0.341 N 
ATOM     12  H   UNL A   1      34.492  21.033  23.675  1.00  0.00     0.346 HD
ATOM     13  H   UNL A   1      33.567  22.358  22.986  1.00  0.00     0.346 HD
BRANCH  11  14
ATOM     14  C   UNL A   1      32.535  21.153  24.143  1.00  0.00     0.184 C 
ATOM     15  C   UNL A   1      32.121  20.403  22.860  1.00  0.00     0.075 C 
BRANCH  14  16
ATOM     16  C   UNL A   1      32.571  20.088  25.286  1.00  0.00     0.111 C 
BRANCH  16  17
ATOM     17  C   UNL A   1      33.242  18.796  24.920  1.00  0.00     0.010 A 
ATOM     18  C   UNL A   1      34.549  18.584  24.526  1.00  0.00     0.015 A 
ATOM     19  S   UNL A   1      32.415  17.302  25.085  1.00  0.00    -0.149 S 
ATOM     20  C   UNL A   1      34.770  17.248  24.085  1.00  0.00     0.012 A 
ATOM     21  C   UNL A   1      33.650  16.466  24.245  1.00  0.00     0.065 A 
ENDBRANCH  16  17
ENDBRANCH  14  16
ENDBRANCH  11  14
ENDBRANCH   9  11
ENDBRANCH   7   9
ENDBRANCH   5   7
ENDBRANCH   4   5
ENDBRANCH   3   4
ENDBRANCH   2   3
ENDBRANCH   1   2
BRANCH   1  22
ATOM     22  C   UNL A   1      31.114  29.615  24.658  1.00  0.00     0.188 C 
BRANCH  22  23
ATOM     23  C   UNL A   1      31.866  29.234  25.935  1.00  0.00     0.188 C 
BRANCH  23  24
ATOM     24  O   UNL A   1      32.727  30.268  26.379  1.00  0.00    -0.376 OA
BRANCH  24  25
ATOM     25  C   UNL A   1      32.215  31.416  27.044  1.00  0.00     0.202 C 
BRANCH  25  26
ATOM     26  C   UNL A   1      33.188  32.516  27.488  1.00  0.00     0.261 C 
BRANCH  26  27
ATOM     27  O   UNL A   1      32.583  33.607  28.208  1.00  0.00    -0.460 OA
BRANCH  27  28
ATOM     28  C   UNL A   1      33.397  34.606  28.610  1.00  0.00     0.338 C 
ATOM     29  O   UNL A   1      33.145  35.802  28.599  1.00  0.00    -0.246 OA
BRANCH  28  30
ATOM     30  C   UNL A   1      34.574  34.017  29.295  1.00  0.00     0.060 A 
ATOM     31  C   UNL A   1      35.842  34.438  28.880  1.00  0.00     0.016 A 
ATOM     32  C   UNL A   1      34.454  33.109  30.355  1.00  0.00     0.016 A 
ATOM     33  C   UNL A   1      36.985  33.903  29.468  1.00  0.00     0.010 A 
ATOM     34  C   UNL A   1      35.605  32.580  30.953  1.00  0.00     0.010 A 
ATOM     35  C   UNL A   1      36.878  32.945  30.485  1.00  0.00    -0.014 A 
BRANCH  35  36
ATOM     36  C   UNL A   1      38.100  32.204  30.884  1.00  0.00     0.031 A 
ATOM     37  C   UNL A   1      38.702  32.492  32.232  1.00  0.00     0.074 A 
ATOM     38  C   UNL A   1      38.603  31.208  30.131  1.00  0.00     0.049 A 
ATOM     39  N   UNL A   1      39.694  31.896  32.843  1.00  0.00    -0.248 NA
ATOM     40  C   UNL A   1      38.099  33.598  32.993  1.00  0.00     0.031 C 
ATOM     41  C   UNL A   1      38.092  30.798  28.826  1.00  0.00     0.029 A 
ATOM     42  N   UNL A   1      39.639  30.340  30.374  1.00  0.00    -0.354 N 
ATOM     43  C   UNL A   1      39.835  32.555  34.057  1.00  0.00     0.074 A 
ATOM     44  C   UNL A   1      38.852  33.617  34.081  1.00  0.00     0.031 C 
ATOM     45  C   UNL A   1      38.787  29.728  28.401  1.00  0.00     0.029 A 
ATOM     46  C   UNL A   1      39.824  29.408  29.380  1.00  0.00     0.049 A 
ATOM     47  H   UNL A   1      40.197  30.381  31.185  1.00  0.00     0.167 HD
ATOM     48  C   UNL A   1      40.699  32.300  35.067  1.00  0.00     0.031 A 
ATOM     49  C   UNL A   1      40.729  28.415  29.271  1.00  0.00     0.031 A 
ATOM     50  C   UNL A   1      41.697  31.264  35.041  1.00  0.00     0.049 A 
ATOM     51  C   UNL A   1      41.733  28.203  30.376  1.00  0.00     0.074 A 
ATOM     52  C   UNL A   1      42.624  30.939  36.015  1.00  0.00     0.029 A 
ATOM     53  N   UNL A   1      41.903  30.392  33.985  1.00  0.00    -0.354 N 
ATOM     54  N   UNL A   1      41.848  28.826  31.525  1.00  0.00    -0.248 NA
ATOM     55  C   UNL A   1      42.729  27.141  30.168  1.00  0.00     0.031 C 
ATOM     56  C   UNL A   1      43.435  29.912  35.521  1.00  0.00     0.029 A 
ATOM     57  C   UNL A   1      42.961  29.544  34.272  1.00  0.00     0.049 A 
ATOM     58  H   UNL A   1      41.377  30.376  33.153  1.00  0.00     0.167 HD
ATOM     59  C   UNL A   1      42.905  28.211  32.186  1.00  0.00     0.074 A 
ATOM     60  C   UNL A   1      43.382  27.152  31.321  1.00  0.00     0.031 C 
ATOM     61  C   UNL A   1      43.434  28.496  33.403  1.00  0.00     0.031 A 
BRANCH  48  62
ATOM     62  C   UNL A   1      40.631  33.203  36.267  1.00  0.00    -0.014 A 
ATOM     63  C   UNL A   1      41.421  34.361  36.362  1.00  0.00     0.009 A 
ATOM     64  C   UNL A   1      39.755  32.892  37.318  1.00  0.00     0.009 A 
ATOM     65  C   UNL A   1      41.362  35.164  37.503  1.00  0.00     0.001 A 
ATOM     66  C   UNL A   1      39.673  33.715  38.441  1.00  0.00     0.001 A 
ATOM     67  C   UNL A   1      40.485  34.844  38.539  1.00  0.00     0.000 A 
ENDBRANCH  48  62
BRANCH  49  68
ATOM     68  C   UNL A   1      40.757  27.549  28.059  1.00  0.00    -0.014 A 
ATOM     69  C   UNL A   1      40.072  26.324  28.029  1.00  0.00     0.009 A 
ATOM     70  C   UNL A   1      41.517  27.923  26.940  1.00  0.00     0.009 A 
ATOM     71  C   UNL A   1      40.174  25.480  26.918  1.00  0.00     0.001 A 
ATOM     72  C   UNL A   1      41.588  27.095  25.817  1.00  0.00     0.001 A 
ATOM     73  C   UNL A   1      40.926  25.870  25.812  1.00  0.00     0.000 A 
ENDBRANCH  49  68
BRANCH  61  74
ATOM     74  C   UNL A   1      44.554  27.616  33.893  1.00  0.00    -0.014 A 
ATOM     75  C   UNL A   1      44.309  26.432  34.607  1.00  0.00     0.009 A 
ATOM     76  C   UNL A   1      45.884  27.976  33.620  1.00  0.00     0.009 A 
ATOM     77  C   UNL A   1      45.370  25.660  35.084  1.00  0.00     0.001 A 
ATOM     78  C   UNL A   1      46.942  27.183  34.066  1.00  0.00     0.001 A 
ATOM     79  C   UNL A   1      46.686  26.034  34.811  1.00  0.00     0.000 A 
ENDBRANCH  61  74
ENDBRANCH  35  36
ENDBRANCH  28  30
ENDBRANCH  27  28
ENDBRANCH  26  27
ENDBRANCH  25  26
ENDBRANCH  24  25
ENDBRANCH  23  24
ENDBRANCH  22  23
ENDBRANCH   1  22
TORSDOF 22
ENDMDL
