MODEL 1
REMARK VINA RESULT:     -10.9      0.000      0.000
REMARK SMILES O=C(OCCOCCOCCOC(=O)[C@@H]1CC(=O)N(c2ccc(Cl)cc2C(=O)c2ccccc2)C1)c1ccc(-c2c3nc(c(-c4ccccc4)c4ccc([nH]4)c(-c4ccccc4)c4nc(c(-c5ccccc5)c5ccc2[nH]5)C=C4)C=C3)cc1
REMARK SMILES IDX 8 1 7 2 6 3 5 4 4 5 3 6 2 7 1 8 36 9 37 10 83 11 38 12 82 13
REMARK SMILES IDX 39 14 40 15 41 16 76 17 42 18 81 19 75 20 77 21 43 22 80 23
REMARK SMILES IDX 74 24 73 25 44 27 66 28 51 29 65 30 52 31 55 32 64 33 78 34
REMARK SMILES IDX 53 35 54 36 63 38 79 39 56 40 45 41 46 42 50 43 47 44 49 45
REMARK SMILES IDX 48 46 67 47 68 48 72 49 69 50 71 51 70 52 57 53 58 54 62 55
REMARK SMILES IDX 59 56 61 57 60 58 9 59 10 60 11 61 12 62 13 63 14 64 15 65
REMARK SMILES IDX 16 66 35 67 17 68 19 69 18 70 20 71 21 72 26 73 22 74 25 75
REMARK SMILES IDX 23 76 24 77 27 78 28 79 29 80 30 81 34 82 31 83 33 84 32 85
REMARK H PARENT 77 26 55 37
REMARK Flexibility Score: inf
ROOT
ATOM      1  C   UNL A   1      42.461  18.994  25.774  1.00  0.00     0.188 C 
ENDROOT
BRANCH   1   2
ATOM      2  C   UNL A   1      43.780  19.749  25.723  1.00  0.00     0.188 C 
BRANCH   2   3
ATOM      3  O   UNL A   1      44.182  20.067  24.394  1.00  0.00    -0.376 OA
BRANCH   3   4
ATOM      4  C   UNL A   1      45.152  21.110  24.270  1.00  0.00     0.202 C 
BRANCH   4   5
ATOM      5  C   UNL A   1      44.545  22.463  23.903  1.00  0.00     0.261 C 
BRANCH   5   6
ATOM      6  O   UNL A   1      44.220  23.291  25.032  1.00  0.00    -0.460 OA
BRANCH   6   7
ATOM      7  C   UNL A   1      44.505  24.592  25.276  1.00  0.00     0.338 C 
ATOM      8  O   UNL A   1      45.458  25.090  24.676  1.00  0.00    -0.246 OA
BRANCH   7   9
ATOM      9  C   UNL A   1      43.743  25.491  26.202  1.00  0.00     0.060 A 
ATOM     10  C   UNL A   1      43.952  26.858  26.376  1.00  0.00     0.016 A 
ATOM     11  C   UNL A   1      42.691  24.900  26.930  1.00  0.00     0.016 A 
ATOM     12  C   UNL A   1      43.163  27.625  27.215  1.00  0.00     0.010 A 
ATOM     13  C   UNL A   1      41.921  25.647  27.828  1.00  0.00     0.010 A 
ATOM     14  C   UNL A   1      42.191  27.008  27.990  1.00  0.00    -0.014 A 
BRANCH  14  15
ATOM     15  C   UNL A   1      41.763  27.762  29.178  1.00  0.00     0.031 A 
ATOM     16  C   UNL A   1      40.424  28.436  29.096  1.00  0.00     0.074 A 
ATOM     17  C   UNL A   1      42.425  27.628  30.338  1.00  0.00     0.049 A 
ATOM     18  N   UNL A   1      39.786  29.130  29.996  1.00  0.00    -0.248 NA
ATOM     19  C   UNL A   1      39.686  28.277  27.827  1.00  0.00     0.031 C 
ATOM     20  C   UNL A   1      43.624  26.809  30.537  1.00  0.00     0.029 A 
ATOM     21  N   UNL A   1      42.153  28.132  31.578  1.00  0.00    -0.354 N 
ATOM     22  C   UNL A   1      38.600  29.524  29.388  1.00  0.00     0.074 A 
ATOM     23  C   UNL A   1      38.597  28.991  28.047  1.00  0.00     0.031 C 
ATOM     24  C   UNL A   1      43.972  26.852  31.833  1.00  0.00     0.029 A 
ATOM     25  C   UNL A   1      43.065  27.755  32.532  1.00  0.00     0.049 A 
ATOM     26  H   UNL A   1      41.379  28.709  31.768  1.00  0.00     0.167 HD
ATOM     27  C   UNL A   1      37.609  30.283  29.905  1.00  0.00     0.031 A 
ATOM     28  C   UNL A   1      43.158  28.140  33.818  1.00  0.00     0.031 A 
ATOM     29  C   UNL A   1      37.656  30.805  31.241  1.00  0.00     0.049 A 
ATOM     30  C   UNL A   1      42.118  29.100  34.330  1.00  0.00     0.074 A 
ATOM     31  C   UNL A   1      36.773  31.655  31.873  1.00  0.00     0.029 A 
ATOM     32  N   UNL A   1      38.665  30.513  32.151  1.00  0.00    -0.354 N 
ATOM     33  N   UNL A   1      41.048  29.560  33.723  1.00  0.00    -0.248 NA
ATOM     34  C   UNL A   1      42.300  29.598  35.698  1.00  0.00     0.031 C 
ATOM     35  C   UNL A   1      37.283  31.929  33.147  1.00  0.00     0.029 A 
ATOM     36  C   UNL A   1      38.441  31.185  33.335  1.00  0.00     0.049 A 
ATOM     37  H   UNL A   1      39.428  29.915  31.976  1.00  0.00     0.167 HD
ATOM     38  C   UNL A   1      40.410  30.379  34.644  1.00  0.00     0.074 A 
ATOM     39  C   UNL A   1      41.209  30.334  35.856  1.00  0.00     0.031 C 
ATOM     40  C   UNL A   1      39.268  31.100  34.513  1.00  0.00     0.031 A 
BRANCH  27  41
ATOM     41  C   UNL A   1      36.494  30.671  28.976  1.00  0.00    -0.014 A 
ATOM     42  C   UNL A   1      36.330  31.986  28.509  1.00  0.00     0.009 A 
ATOM     43  C   UNL A   1      35.541  29.703  28.619  1.00  0.00     0.009 A 
ATOM     44  C   UNL A   1      35.209  32.330  27.747  1.00  0.00     0.001 A 
ATOM     45  C   UNL A   1      34.441  30.043  27.832  1.00  0.00     0.001 A 
ATOM     46  C   UNL A   1      34.267  31.358  27.409  1.00  0.00     0.000 A 
ENDBRANCH  27  41
BRANCH  28  47
ATOM     47  C   UNL A   1      44.288  27.682  34.670  1.00  0.00    -0.014 A 
ATOM     48  C   UNL A   1      45.565  28.253  34.554  1.00  0.00     0.009 A 
ATOM     49  C   UNL A   1      44.100  26.641  35.595  1.00  0.00     0.009 A 
ATOM     50  C   UNL A   1      46.630  27.772  35.322  1.00  0.00     0.001 A 
ATOM     51  C   UNL A   1      45.158  26.184  36.386  1.00  0.00     0.001 A 
ATOM     52  C   UNL A   1      46.424  26.742  36.240  1.00  0.00     0.000 A 
ENDBRANCH  28  47
BRANCH  40  53
ATOM     53  C   UNL A   1      38.794  31.838  35.732  1.00  0.00    -0.014 A 
ATOM     54  C   UNL A   1      38.052  31.200  36.735  1.00  0.00     0.009 A 
ATOM     55  C   UNL A   1      39.142  33.189  35.887  1.00  0.00     0.009 A 
ATOM     56  C   UNL A   1      37.628  31.916  37.855  1.00  0.00     0.001 A 
ATOM     57  C   UNL A   1      38.751  33.892  37.024  1.00  0.00     0.001 A 
ATOM     58  C   UNL A   1      37.983  33.258  38.001  1.00  0.00     0.000 A 
ENDBRANCH  40  53
ENDBRANCH  14  15
ENDBRANCH   7   9
ENDBRANCH   6   7
ENDBRANCH   5   6
ENDBRANCH   4   5
ENDBRANCH   3   4
ENDBRANCH   2   3
ENDBRANCH   1   2
BRANCH   1  59
ATOM     59  O   UNL A   1      41.355  19.868  25.590  1.00  0.00    -0.376 OA
BRANCH  59  60
ATOM     60  C   UNL A   1      41.360  21.030  26.410  1.00  0.00     0.202 C 
BRANCH  60  61
ATOM     61  C   UNL A   1      40.069  21.848  26.657  1.00  0.00     0.261 C 
BRANCH  61  62
ATOM     62  O   UNL A   1      38.891  21.811  25.805  1.00  0.00    -0.463 OA
BRANCH  62  63
ATOM     63  C   UNL A   1      37.839  22.656  25.903  1.00  0.00     0.311 C 
ATOM     64  O   UNL A   1      37.909  23.853  26.093  1.00  0.00    -0.252 OA
BRANCH  63  65
ATOM     65  C   UNL A   1      36.523  21.907  25.716  1.00  0.00     0.128 C 
ATOM     66  C   UNL A   1      36.140  21.868  24.248  1.00  0.00     0.117 C 
ATOM     67  C   UNL A   1      35.340  22.626  26.348  1.00  0.00     0.141 C 
ATOM     68  C   UNL A   1      35.325  23.129  24.069  1.00  0.00     0.227 C 
ATOM     69  N   UNL A   1      34.879  23.553  25.337  1.00  0.00    -0.311 N 
ATOM     70  O   UNL A   1      35.109  23.630  22.977  1.00  0.00    -0.274 OA
BRANCH  69  71
ATOM     71  C   UNL A   1      33.978  24.646  25.550  1.00  0.00     0.055 A 
ATOM     72  C   UNL A   1      34.504  25.955  25.566  1.00  0.00     0.028 A 
ATOM     73  C   UNL A   1      32.584  24.538  25.739  1.00  0.00     0.048 A 
ATOM     74  C   UNL A   1      33.702  27.088  25.768  1.00  0.00     0.023 A 
ATOM     75  C   UNL A   1      31.775  25.676  25.945  1.00  0.00     0.035 A 
ATOM     76  C   UNL A   1      32.339  26.943  25.966  1.00  0.00     0.041 A 
ATOM     77  Cl  UNL A   1      31.354  28.323  26.242  1.00  0.00    -0.084 Cl
BRANCH  73  78
ATOM     78  C   UNL A   1      31.829  23.277  25.784  1.00  0.00     0.195 C 
ATOM     79  O   UNL A   1      31.061  23.108  26.729  1.00  0.00    -0.289 OA
BRANCH  78  80
ATOM     80  C   UNL A   1      31.996  22.212  24.765  1.00  0.00     0.023 A 
ATOM     81  C   UNL A   1      32.321  20.928  25.230  1.00  0.00     0.012 A 
ATOM     82  C   UNL A   1      31.826  22.437  23.397  1.00  0.00     0.012 A 
ATOM     83  C   UNL A   1      32.507  19.880  24.333  1.00  0.00     0.001 A 
ATOM     84  C   UNL A   1      32.025  21.386  22.500  1.00  0.00     0.001 A 
ATOM     85  C   UNL A   1      32.392  20.121  22.968  1.00  0.00     0.000 A 
ENDBRANCH  78  80
ENDBRANCH  73  78
ENDBRANCH  69  71
ENDBRANCH  63  65
ENDBRANCH  62  63
ENDBRANCH  61  62
ENDBRANCH  60  61
ENDBRANCH  59  60
ENDBRANCH   1  59
TORSDOF 20
ENDMDL
MODEL 2
REMARK VINA RESULT:     -10.8      0.483      5.685
REMARK SMILES O=C(OCCOCCOCCOC(=O)[C@@H]1CC(=O)N(c2ccc(Cl)cc2C(=O)c2ccccc2)C1)c1ccc(-c2c3nc(c(-c4ccccc4)c4ccc([nH]4)c(-c4ccccc4)c4nc(c(-c5ccccc5)c5ccc2[nH]5)C=C4)C=C3)cc1
REMARK SMILES IDX 8 1 7 2 6 3 5 4 4 5 3 6 2 7 1 8 36 9 37 10 83 11 38 12 82 13
REMARK SMILES IDX 39 14 40 15 41 16 76 17 42 18 81 19 75 20 77 21 43 22 80 23
REMARK SMILES IDX 74 24 73 25 44 27 66 28 51 29 65 30 52 31 55 32 64 33 78 34
REMARK SMILES IDX 53 35 54 36 63 38 79 39 56 40 45 41 46 42 50 43 47 44 49 45
REMARK SMILES IDX 48 46 67 47 68 48 72 49 69 50 71 51 70 52 57 53 58 54 62 55
REMARK SMILES IDX 59 56 61 57 60 58 9 59 10 60 11 61 12 62 13 63 14 64 15 65
REMARK SMILES IDX 16 66 35 67 17 68 19 69 18 70 20 71 21 72 26 73 22 74 25 75
REMARK SMILES IDX 23 76 24 77 27 78 28 79 29 80 30 81 34 82 31 83 33 84 32 85
REMARK H PARENT 77 26 55 37
REMARK Flexibility Score: inf
ROOT
ATOM      1  C   UNL A   1      42.465  18.882  25.760  1.00  0.00     0.188 C 
ENDROOT
BRANCH   1   2
ATOM      2  C   UNL A   1      43.742  19.707  25.707  1.00  0.00     0.188 C 
BRANCH   2   3
ATOM      3  O   UNL A   1      44.164  19.984  24.375  1.00  0.00    -0.376 OA
BRANCH   3   4
ATOM      4  C   UNL A   1      45.069  21.080  24.225  1.00  0.00     0.202 C 
BRANCH   4   5
ATOM      5  C   UNL A   1      44.375  22.398  23.888  1.00  0.00     0.261 C 
BRANCH   5   6
ATOM      6  O   UNL A   1      44.065  23.213  25.031  1.00  0.00    -0.460 OA
BRANCH   6   7
ATOM      7  C   UNL A   1      44.273  24.533  25.248  1.00  0.00     0.338 C 
ATOM      8  O   UNL A   1      45.201  25.073  24.645  1.00  0.00    -0.246 OA
BRANCH   7   9
ATOM      9  C   UNL A   1      43.452  25.406  26.149  1.00  0.00     0.060 A 
ATOM     10  C   UNL A   1      43.608  26.779  26.326  1.00  0.00     0.016 A 
ATOM     11  C   UNL A   1      42.400  24.779  26.846  1.00  0.00     0.016 A 
ATOM     12  C   UNL A   1      42.768  27.519  27.139  1.00  0.00     0.010 A 
ATOM     13  C   UNL A   1      41.577  25.500  27.719  1.00  0.00     0.010 A 
ATOM     14  C   UNL A   1      41.795  26.870  27.886  1.00  0.00    -0.014 A 
BRANCH  14  15
ATOM     15  C   UNL A   1      41.305  27.609  29.059  1.00  0.00     0.031 A 
ATOM     16  C   UNL A   1      42.165  27.558  30.289  1.00  0.00     0.074 A 
ATOM     17  C   UNL A   1      40.287  28.476  28.934  1.00  0.00     0.049 A 
ATOM     18  N   UNL A   1      41.999  28.140  31.444  1.00  0.00    -0.248 NA
ATOM     19  C   UNL A   1      43.404  26.761  30.190  1.00  0.00     0.031 C 
ATOM     20  C   UNL A   1      39.541  28.731  27.699  1.00  0.00     0.029 A 
ATOM     21  N   UNL A   1      39.743  29.340  29.841  1.00  0.00    -0.354 N 
ATOM     22  C   UNL A   1      43.084  27.744  32.216  1.00  0.00     0.074 A 
ATOM     23  C   UNL A   1      43.907  26.879  31.406  1.00  0.00     0.031 C 
ATOM     24  C   UNL A   1      38.646  29.707  27.924  1.00  0.00     0.029 A 
ATOM     25  C   UNL A   1      38.711  30.088  29.330  1.00  0.00     0.049 A 
ATOM     26  H   UNL A   1      40.059  29.419  30.769  1.00  0.00     0.167 HD
ATOM     27  C   UNL A   1      43.354  28.064  33.501  1.00  0.00     0.031 A 
ATOM     28  C   UNL A   1      37.896  30.955  29.959  1.00  0.00     0.031 A 
ATOM     29  C   UNL A   1      42.502  28.918  34.277  1.00  0.00     0.049 A 
ATOM     30  C   UNL A   1      38.133  31.186  31.427  1.00  0.00     0.074 A 
ATOM     31  C   UNL A   1      42.599  29.263  35.609  1.00  0.00     0.029 A 
ATOM     32  N   UNL A   1      41.381  29.563  33.768  1.00  0.00    -0.354 N 
ATOM     33  N   UNL A   1      39.100  30.730  32.191  1.00  0.00    -0.248 NA
ATOM     34  C   UNL A   1      37.167  32.044  32.121  1.00  0.00     0.031 C 
ATOM     35  C   UNL A   1      41.497  30.067  35.923  1.00  0.00     0.029 A 
ATOM     36  C   UNL A   1      40.761  30.287  34.766  1.00  0.00     0.049 A 
ATOM     37  H   UNL A   1      41.075  29.510  32.834  1.00  0.00     0.167 HD
ATOM     38  C   UNL A   1      38.878  31.269  33.449  1.00  0.00     0.074 A 
ATOM     39  C   UNL A   1      37.693  32.100  33.337  1.00  0.00     0.031 C 
ATOM     40  C   UNL A   1      39.584  31.103  34.596  1.00  0.00     0.031 A 
BRANCH  27  41
ATOM     41  C   UNL A   1      44.533  27.384  34.137  1.00  0.00    -0.014 A 
ATOM     42  C   UNL A   1      44.426  26.139  34.778  1.00  0.00     0.009 A 
ATOM     43  C   UNL A   1      45.770  28.049  34.156  1.00  0.00     0.009 A 
ATOM     44  C   UNL A   1      45.518  25.601  35.465  1.00  0.00     0.001 A 
ATOM     45  C   UNL A   1      46.868  27.494  34.814  1.00  0.00     0.001 A 
ATOM     46  C   UNL A   1      46.738  26.278  35.481  1.00  0.00     0.000 A 
ENDBRANCH  27  41
BRANCH  28  47
ATOM     47  C   UNL A   1      36.767  31.600  29.236  1.00  0.00    -0.014 A 
ATOM     48  C   UNL A   1      35.550  30.930  29.042  1.00  0.00     0.009 A 
ATOM     49  C   UNL A   1      36.913  32.894  28.708  1.00  0.00     0.009 A 
ATOM     50  C   UNL A   1      34.518  31.529  28.311  1.00  0.00     0.001 A 
ATOM     51  C   UNL A   1      35.870  33.504  28.007  1.00  0.00     0.001 A 
ATOM     52  C   UNL A   1      34.678  32.816  27.799  1.00  0.00     0.000 A 
ENDBRANCH  28  47
BRANCH  40  53
ATOM     53  C   UNL A   1      39.123  31.889  35.790  1.00  0.00    -0.014 A 
ATOM     54  C   UNL A   1      38.163  31.383  36.677  1.00  0.00     0.009 A 
ATOM     55  C   UNL A   1      39.704  33.141  36.045  1.00  0.00     0.009 A 
ATOM     56  C   UNL A   1      37.760  32.140  37.777  1.00  0.00     0.001 A 
ATOM     57  C   UNL A   1      39.327  33.878  37.165  1.00  0.00     0.001 A 
ATOM     58  C   UNL A   1      38.346  33.382  38.023  1.00  0.00     0.000 A 
ENDBRANCH  40  53
ENDBRANCH  14  15
ENDBRANCH   7   9
ENDBRANCH   6   7
ENDBRANCH   5   6
ENDBRANCH   4   5
ENDBRANCH   3   4
ENDBRANCH   2   3
ENDBRANCH   1   2
BRANCH   1  59
ATOM     59  O   UNL A   1      41.312  19.702  25.631  1.00  0.00    -0.376 OA
BRANCH  59  60
ATOM     60  C   UNL A   1      41.353  20.923  26.359  1.00  0.00     0.202 C 
BRANCH  60  61
ATOM     61  C   UNL A   1      40.074  21.760  26.602  1.00  0.00     0.261 C 
BRANCH  61  62
ATOM     62  O   UNL A   1      38.915  21.773  25.725  1.00  0.00    -0.463 OA
BRANCH  62  63
ATOM     63  C   UNL A   1      37.851  22.599  25.859  1.00  0.00     0.311 C 
ATOM     64  O   UNL A   1      37.907  23.791  26.081  1.00  0.00    -0.252 OA
BRANCH  63  65
ATOM     65  C   UNL A   1      36.544  21.836  25.668  1.00  0.00     0.128 C 
ATOM     66  C   UNL A   1      36.151  21.817  24.202  1.00  0.00     0.117 C 
ATOM     67  C   UNL A   1      35.356  22.528  26.321  1.00  0.00     0.141 C 
ATOM     68  C   UNL A   1      35.319  23.070  24.051  1.00  0.00     0.227 C 
ATOM     69  N   UNL A   1      34.876  23.466  25.329  1.00  0.00    -0.311 N 
ATOM     70  O   UNL A   1      35.089  23.587  22.969  1.00  0.00    -0.274 OA
BRANCH  69  71
ATOM     71  C   UNL A   1      33.963  24.543  25.567  1.00  0.00     0.055 A 
ATOM     72  C   UNL A   1      34.471  25.859  25.602  1.00  0.00     0.028 A 
ATOM     73  C   UNL A   1      32.571  24.414  25.763  1.00  0.00     0.048 A 
ATOM     74  C   UNL A   1      33.656  26.978  25.829  1.00  0.00     0.023 A 
ATOM     75  C   UNL A   1      31.749  25.538  25.994  1.00  0.00     0.035 A 
ATOM     76  C   UNL A   1      32.297  26.811  26.034  1.00  0.00     0.041 A 
ATOM     77  Cl  UNL A   1      31.296  28.173  26.340  1.00  0.00    -0.084 Cl
BRANCH  73  78
ATOM     78  C   UNL A   1      31.833  23.142  25.790  1.00  0.00     0.195 C 
ATOM     79  O   UNL A   1      31.107  22.928  26.758  1.00  0.00    -0.289 OA
BRANCH  78  80
ATOM     80  C   UNL A   1      31.970  22.119  24.726  1.00  0.00     0.023 A 
ATOM     81  C   UNL A   1      32.292  20.814  25.132  1.00  0.00     0.012 A 
ATOM     82  C   UNL A   1      31.776  22.401  23.372  1.00  0.00     0.012 A 
ATOM     83  C   UNL A   1      32.451  19.802  24.190  1.00  0.00     0.001 A 
ATOM     84  C   UNL A   1      31.949  21.385  22.429  1.00  0.00     0.001 A 
ATOM     85  C   UNL A   1      32.312  20.099  22.838  1.00  0.00     0.000 A 
ENDBRANCH  78  80
ENDBRANCH  73  78
ENDBRANCH  69  71
ENDBRANCH  63  65
ENDBRANCH  62  63
ENDBRANCH  61  62
ENDBRANCH  60  61
ENDBRANCH  59  60
ENDBRANCH   1  59
TORSDOF 20
ENDMDL
MODEL 3
REMARK VINA RESULT:     -10.7      2.250      7.052
REMARK SMILES O=C(OCCOCCOCCOC(=O)[C@@H]1CC(=O)N(c2ccc(Cl)cc2C(=O)c2ccccc2)C1)c1ccc(-c2c3nc(c(-c4ccccc4)c4ccc([nH]4)c(-c4ccccc4)c4nc(c(-c5ccccc5)c5ccc2[nH]5)C=C4)C=C3)cc1
REMARK SMILES IDX 8 1 7 2 6 3 5 4 4 5 3 6 2 7 1 8 36 9 37 10 83 11 38 12 82 13
REMARK SMILES IDX 39 14 40 15 41 16 76 17 42 18 81 19 75 20 77 21 43 22 80 23
REMARK SMILES IDX 74 24 73 25 44 27 66 28 51 29 65 30 52 31 55 32 64 33 78 34
REMARK SMILES IDX 53 35 54 36 63 38 79 39 56 40 45 41 46 42 50 43 47 44 49 45
REMARK SMILES IDX 48 46 67 47 68 48 72 49 69 50 71 51 70 52 57 53 58 54 62 55
REMARK SMILES IDX 59 56 61 57 60 58 9 59 10 60 11 61 12 62 13 63 14 64 15 65
REMARK SMILES IDX 16 66 35 67 17 68 19 69 18 70 20 71 21 72 26 73 22 74 25 75
REMARK SMILES IDX 23 76 24 77 27 78 28 79 29 80 30 81 34 82 31 83 33 84 32 85
REMARK H PARENT 77 26 55 37
REMARK Flexibility Score: inf
ROOT
ATOM      1  C   UNL A   1      38.154  22.013  25.674  1.00  0.00     0.188 C 
ENDROOT
BRANCH   1   2
ATOM      2  C   UNL A   1      39.460  21.369  26.113  1.00  0.00     0.188 C 
BRANCH   2   3
ATOM      3  O   UNL A   1      39.973  21.927  27.318  1.00  0.00    -0.376 OA
BRANCH   3   4
ATOM      4  C   UNL A   1      41.392  22.087  27.376  1.00  0.00     0.202 C 
BRANCH   4   5
ATOM      5  C   UNL A   1      41.945  22.996  26.279  1.00  0.00     0.261 C 
BRANCH   5   6
ATOM      6  O   UNL A   1      41.095  24.105  25.945  1.00  0.00    -0.460 OA
BRANCH   6   7
ATOM      7  C   UNL A   1      41.366  25.430  25.889  1.00  0.00     0.338 C 
ATOM      8  O   UNL A   1      42.083  25.829  24.970  1.00  0.00    -0.246 OA
BRANCH   7   9
ATOM      9  C   UNL A   1      40.848  26.465  26.842  1.00  0.00     0.060 A 
ATOM     10  C   UNL A   1      41.117  27.832  26.795  1.00  0.00     0.016 A 
ATOM     11  C   UNL A   1      39.973  26.012  27.849  1.00  0.00     0.016 A 
ATOM     12  C   UNL A   1      40.551  28.727  27.686  1.00  0.00     0.010 A 
ATOM     13  C   UNL A   1      39.438  26.894  28.795  1.00  0.00     0.010 A 
ATOM     14  C   UNL A   1      39.765  28.250  28.726  1.00  0.00    -0.014 A 
BRANCH  14  15
ATOM     15  C   UNL A   1      39.628  29.155  29.876  1.00  0.00     0.031 A 
ATOM     16  C   UNL A   1      40.701  29.073  30.923  1.00  0.00     0.074 A 
ATOM     17  C   UNL A   1      38.737  30.159  29.844  1.00  0.00     0.049 A 
ATOM     18  N   UNL A   1      40.853  29.770  32.015  1.00  0.00    -0.248 NA
ATOM     19  C   UNL A   1      41.771  28.083  30.689  1.00  0.00     0.031 C 
ATOM     20  C   UNL A   1      37.802  30.423  28.747  1.00  0.00     0.029 A 
ATOM     21  N   UNL A   1      38.511  31.173  30.730  1.00  0.00    -0.354 N 
ATOM     22  C   UNL A   1      42.004  29.273  32.613  1.00  0.00     0.074 A 
ATOM     23  C   UNL A   1      42.519  28.223  31.769  1.00  0.00     0.031 C 
ATOM     24  C   UNL A   1      37.115  31.545  29.021  1.00  0.00     0.029 A 
ATOM     25  C   UNL A   1      37.513  32.029  30.337  1.00  0.00     0.049 A 
ATOM     26  H   UNL A   1      39.015  31.279  31.569  1.00  0.00     0.167 HD
ATOM     27  C   UNL A   1      42.568  29.655  33.780  1.00  0.00     0.031 A 
ATOM     28  C   UNL A   1      36.970  33.065  31.002  1.00  0.00     0.031 A 
ATOM     29  C   UNL A   1      42.017  30.696  34.598  1.00  0.00     0.049 A 
ATOM     30  C   UNL A   1      37.526  33.380  32.365  1.00  0.00     0.074 A 
ATOM     31  C   UNL A   1      42.426  31.134  35.840  1.00  0.00     0.029 A 
ATOM     32  N   UNL A   1      40.918  31.466  34.235  1.00  0.00    -0.354 N 
ATOM     33  N   UNL A   1      38.552  32.842  32.984  1.00  0.00    -0.248 NA
ATOM     34  C   UNL A   1      36.848  34.436  33.123  1.00  0.00     0.031 C 
ATOM     35  C   UNL A   1      41.532  32.127  36.258  1.00  0.00     0.029 A 
ATOM     36  C   UNL A   1      40.617  32.362  35.240  1.00  0.00     0.049 A 
ATOM     37  H   UNL A   1      40.426  31.383  33.386  1.00  0.00     0.167 HD
ATOM     38  C   UNL A   1      38.665  33.515  34.192  1.00  0.00     0.074 A 
ATOM     39  C   UNL A   1      37.609  34.511  34.206  1.00  0.00     0.031 C 
ATOM     40  C   UNL A   1      39.556  33.337  35.199  1.00  0.00     0.031 A 
BRANCH  27  41
ATOM     41  C   UNL A   1      43.745  28.853  34.261  1.00  0.00    -0.014 A 
ATOM     42  C   UNL A   1      43.593  27.659  34.986  1.00  0.00     0.009 A 
ATOM     43  C   UNL A   1      45.039  29.350  34.041  1.00  0.00     0.009 A 
ATOM     44  C   UNL A   1      44.710  27.011  35.521  1.00  0.00     0.001 A 
ATOM     45  C   UNL A   1      46.154  28.683  34.549  1.00  0.00     0.001 A 
ATOM     46  C   UNL A   1      45.988  27.522  35.301  1.00  0.00     0.000 A 
ENDBRANCH  27  41
BRANCH  28  47
ATOM     47  C   UNL A   1      35.820  33.817  30.432  1.00  0.00    -0.014 A 
ATOM     48  C   UNL A   1      34.703  34.144  31.216  1.00  0.00     0.009 A 
ATOM     49  C   UNL A   1      35.823  34.195  29.078  1.00  0.00     0.009 A 
ATOM     50  C   UNL A   1      33.606  34.802  30.651  1.00  0.00     0.001 A 
ATOM     51  C   UNL A   1      34.741  34.882  28.523  1.00  0.00     0.001 A 
ATOM     52  C   UNL A   1      33.628  35.174  29.307  1.00  0.00     0.000 A 
ENDBRANCH  28  47
BRANCH  40  53
ATOM     53  C   UNL A   1      39.458  34.285  36.360  1.00  0.00    -0.014 A 
ATOM     54  C   UNL A   1      38.823  33.920  37.555  1.00  0.00     0.009 A 
ATOM     55  C   UNL A   1      40.056  35.550  36.257  1.00  0.00     0.009 A 
ATOM     56  C   UNL A   1      38.752  34.826  38.614  1.00  0.00     0.001 A 
ATOM     57  C   UNL A   1      40.018  36.438  37.329  1.00  0.00     0.001 A 
ATOM     58  C   UNL A   1      39.354  36.080  38.502  1.00  0.00     0.000 A 
ENDBRANCH  40  53
ENDBRANCH  14  15
ENDBRANCH   7   9
ENDBRANCH   6   7
ENDBRANCH   5   6
ENDBRANCH   4   5
ENDBRANCH   3   4
ENDBRANCH   2   3
ENDBRANCH   1   2
BRANCH   1  59
ATOM     59  O   UNL A   1      37.513  21.248  24.662  1.00  0.00    -0.376 OA
BRANCH  59  60
ATOM     60  C   UNL A   1      36.245  20.713  25.022  1.00  0.00     0.202 C 
BRANCH  60  61
ATOM     61  C   UNL A   1      35.019  21.630  25.253  1.00  0.00     0.261 C 
BRANCH  61  62
ATOM     62  O   UNL A   1      33.942  21.829  24.297  1.00  0.00    -0.463 OA
BRANCH  62  63
ATOM     63  C   UNL A   1      33.019  22.816  24.365  1.00  0.00     0.311 C 
ATOM     64  O   UNL A   1      31.821  22.672  24.239  1.00  0.00    -0.252 OA
BRANCH  63  65
ATOM     65  C   UNL A   1      33.683  24.159  24.651  1.00  0.00     0.128 C 
ATOM     66  C   UNL A   1      33.431  24.581  26.087  1.00  0.00     0.117 C 
ATOM     67  C   UNL A   1      33.067  25.303  23.857  1.00  0.00     0.141 C 
ATOM     68  C   UNL A   1      32.137  25.359  25.997  1.00  0.00     0.227 C 
ATOM     69  N   UNL A   1      31.952  25.758  24.659  1.00  0.00    -0.311 N 
ATOM     70  O   UNL A   1      31.431  25.585  26.966  1.00  0.00    -0.274 OA
BRANCH  69  71
ATOM     71  C   UNL A   1      30.896  26.618  24.214  1.00  0.00     0.055 A 
ATOM     72  C   UNL A   1      29.600  26.075  24.079  1.00  0.00     0.028 A 
ATOM     73  C   UNL A   1      31.027  27.987  23.900  1.00  0.00     0.048 A 
ATOM     74  C   UNL A   1      28.503  26.836  23.650  1.00  0.00     0.023 A 
ATOM     75  C   UNL A   1      29.925  28.755  23.465  1.00  0.00     0.035 A 
ATOM     76  C   UNL A   1      28.672  28.174  23.335  1.00  0.00     0.041 A 
ATOM     77  Cl  UNL A   1      27.340  29.107  22.782  1.00  0.00    -0.084 Cl
BRANCH  73  78
ATOM     78  C   UNL A   1      32.282  28.752  23.944  1.00  0.00     0.195 C 
ATOM     79  O   UNL A   1      32.860  28.957  22.879  1.00  0.00    -0.289 OA
BRANCH  78  80
ATOM     80  C   UNL A   1      32.876  29.234  25.214  1.00  0.00     0.023 A 
ATOM     81  C   UNL A   1      34.041  28.590  25.661  1.00  0.00     0.012 A 
ATOM     82  C   UNL A   1      32.338  30.293  25.950  1.00  0.00     0.012 A 
ATOM     83  C   UNL A   1      34.648  28.977  26.851  1.00  0.00     0.001 A 
ATOM     84  C   UNL A   1      32.944  30.670  27.150  1.00  0.00     0.001 A 
ATOM     85  C   UNL A   1      34.078  29.994  27.609  1.00  0.00     0.000 A 
ENDBRANCH  78  80
ENDBRANCH  73  78
ENDBRANCH  69  71
ENDBRANCH  63  65
ENDBRANCH  62  63
ENDBRANCH  61  62
ENDBRANCH  60  61
ENDBRANCH  59  60
ENDBRANCH   1  59
TORSDOF 20
ENDMDL
