MODEL 1
REMARK VINA RESULT:     -10.1      0.000      0.000
REMARK SMILES O=C(Cc1ccc(-c2ccn(C(F)F)c(=O)c2)cc1)OCCOCCOCCOC(=O)c1ccc(-c2c3nc(c(-c4ccccc4)c4ccc([nH]4)c(-c4ccccc4)c4nc(c(-c5ccccc5)c5ccc2[nH]5)C=C4)C=C3)cc1
REMARK SMILES IDX 24 1 23 2 22 3 21 4 20 5 2 6 1 7 3 8 4 9 5 10 19 11 6 12
REMARK SMILES IDX 18 13 7 14 8 15 9 16 17 17 10 18 15 19 11 20 16 21 12 22
REMARK SMILES IDX 13 23 14 24 25 25 26 26 27 27 28 28 29 29 30 30 31 31 32 32
REMARK SMILES IDX 33 33 79 34 34 35 78 36 35 37 36 38 37 39 72 40 38 41 77 42
REMARK SMILES IDX 71 43 73 44 39 45 76 46 70 47 69 48 40 50 62 51 47 52 61 53
REMARK SMILES IDX 48 54 51 55 60 56 74 57 49 58 50 59 59 61 75 62 52 63 41 64
REMARK SMILES IDX 42 65 46 66 43 67 45 68 44 69 63 70 64 71 68 72 65 73 67 74
REMARK SMILES IDX 66 75 53 76 54 77 58 78 55 79 57 80 56 81
REMARK H PARENT 73 49 51 60
REMARK Flexibility Score: inf
ROOT
ATOM      1  C   UNL A   1      35.456  23.349  25.332  1.00  0.00     0.188 C 
ENDROOT
BRANCH   1   2
ATOM      2  O   UNL A   1      34.897  24.548  24.824  1.00  0.00    -0.376 OA
BRANCH   2   3
ATOM      3  C   UNL A   1      34.298  25.451  25.744  1.00  0.00     0.202 C 
BRANCH   3   4
ATOM      4  C   UNL A   1      33.882  26.866  25.311  1.00  0.00     0.261 C 
BRANCH   4   5
ATOM      5  O   UNL A   1      32.533  27.147  24.890  1.00  0.00    -0.463 OA
BRANCH   5   6
ATOM      6  C   UNL A   1      31.972  27.180  23.667  1.00  0.00     0.310 C 
ATOM      7  O   UNL A   1      32.297  28.073  22.884  1.00  0.00    -0.252 OA
BRANCH   6   8
ATOM      8  C   UNL A   1      30.979  26.126  23.255  1.00  0.00     0.158 C 
BRANCH   8   9
ATOM      9  C   UNL A   1      31.505  24.744  23.492  1.00  0.00    -0.037 A 
ATOM     10  C   UNL A   1      32.359  24.146  22.564  1.00  0.00     0.005 A 
ATOM     11  C   UNL A   1      31.057  24.009  24.592  1.00  0.00     0.005 A 
ATOM     12  C   UNL A   1      32.665  22.795  22.663  1.00  0.00     0.009 A 
ATOM     13  C   UNL A   1      31.401  22.667  24.718  1.00  0.00     0.009 A 
ATOM     14  C   UNL A   1      32.175  22.037  23.732  1.00  0.00    -0.018 A 
BRANCH  14  15
ATOM     15  C   UNL A   1      32.435  20.589  23.819  1.00  0.00    -0.011 A 
ATOM     16  C   UNL A   1      32.995  19.970  25.006  1.00  0.00     0.027 A 
ATOM     17  C   UNL A   1      32.158  19.819  22.753  1.00  0.00     0.080 A 
ATOM     18  C   UNL A   1      33.314  18.671  25.008  1.00  0.00     0.095 A 
ATOM     19  C   UNL A   1      32.455  18.364  22.761  1.00  0.00     0.255 A 
ATOM     20  N   UNL A   1      33.077  17.883  23.900  1.00  0.00    -0.258 N 
ATOM     21  O   UNL A   1      32.153  17.702  21.772  1.00  0.00    -0.269 OA
BRANCH  20  22
ATOM     22  C   UNL A   1      33.488  16.506  23.879  1.00  0.00     0.451 C 
ATOM     23  F   UNL A   1      34.602  16.337  23.128  1.00  0.00    -0.185 F 
ATOM     24  F   UNL A   1      33.755  16.068  25.134  1.00  0.00    -0.185 F 
ENDBRANCH  20  22
ENDBRANCH  14  15
ENDBRANCH   8   9
ENDBRANCH   6   8
ENDBRANCH   5   6
ENDBRANCH   4   5
ENDBRANCH   3   4
ENDBRANCH   2   3
ENDBRANCH   1   2
BRANCH   1  25
ATOM     25  C   UNL A   1      35.959  22.307  24.337  1.00  0.00     0.188 C 
BRANCH  25  26
ATOM     26  O   UNL A   1      37.304  21.888  24.473  1.00  0.00    -0.376 OA
BRANCH  26  27
ATOM     27  C   UNL A   1      37.988  22.241  25.677  1.00  0.00     0.202 C 
BRANCH  27  28
ATOM     28  C   UNL A   1      39.264  21.476  26.047  1.00  0.00     0.261 C 
BRANCH  28  29
ATOM     29  O   UNL A   1      40.055  22.171  27.036  1.00  0.00    -0.460 OA
BRANCH  29  30
ATOM     30  C   UNL A   1      40.958  23.049  26.546  1.00  0.00     0.338 C 
ATOM     31  O   UNL A   1      41.820  22.835  25.701  1.00  0.00    -0.246 OA
BRANCH  30  32
ATOM     32  C   UNL A   1      40.733  24.394  27.093  1.00  0.00     0.060 A 
ATOM     33  C   UNL A   1      41.644  25.415  26.795  1.00  0.00     0.016 A 
ATOM     34  C   UNL A   1      39.727  24.595  28.039  1.00  0.00     0.016 A 
ATOM     35  C   UNL A   1      41.567  26.640  27.464  1.00  0.00     0.010 A 
ATOM     36  C   UNL A   1      39.662  25.815  28.719  1.00  0.00     0.010 A 
ATOM     37  C   UNL A   1      40.597  26.833  28.458  1.00  0.00    -0.014 A 
BRANCH  37  38
ATOM     38  C   UNL A   1      40.619  28.038  29.322  1.00  0.00     0.031 A 
ATOM     39  C   UNL A   1      41.631  28.128  30.433  1.00  0.00     0.074 A 
ATOM     40  C   UNL A   1      39.713  29.018  29.162  1.00  0.00     0.049 A 
ATOM     41  N   UNL A   1      41.731  29.013  31.392  1.00  0.00    -0.248 NA
ATOM     42  C   UNL A   1      42.663  27.079  30.469  1.00  0.00     0.031 C 
ATOM     43  C   UNL A   1      38.706  29.077  28.104  1.00  0.00     0.029 A 
ATOM     44  N   UNL A   1      39.478  30.142  29.916  1.00  0.00    -0.354 N 
ATOM     45  C   UNL A   1      42.822  28.619  32.157  1.00  0.00     0.074 A 
ATOM     46  C   UNL A   1      43.349  27.414  31.554  1.00  0.00     0.031 C 
ATOM     47  C   UNL A   1      37.938  30.163  28.297  1.00  0.00     0.029 A 
ATOM     48  C   UNL A   1      38.373  30.850  29.513  1.00  0.00     0.049 A 
ATOM     49  H   UNL A   1      40.047  30.413  30.673  1.00  0.00     0.167 HD
ATOM     50  C   UNL A   1      43.332  29.204  33.265  1.00  0.00     0.031 A 
ATOM     51  C   UNL A   1      37.755  31.903  30.083  1.00  0.00     0.031 A 
ATOM     52  C   UNL A   1      42.810  30.398  33.873  1.00  0.00     0.049 A 
ATOM     53  C   UNL A   1      38.290  32.478  31.369  1.00  0.00     0.074 A 
ATOM     54  C   UNL A   1      43.296  31.088  34.971  1.00  0.00     0.029 A 
ATOM     55  N   UNL A   1      41.676  31.069  33.447  1.00  0.00    -0.354 N 
ATOM     56  N   UNL A   1      39.349  32.127  32.055  1.00  0.00    -0.248 NA
ATOM     57  C   UNL A   1      37.534  33.593  31.961  1.00  0.00     0.031 C 
ATOM     58  C   UNL A   1      42.419  32.141  35.247  1.00  0.00     0.029 A 
ATOM     59  C   UNL A   1      41.419  32.137  34.288  1.00  0.00     0.049 A 
ATOM     60  H   UNL A   1      41.134  30.822  32.663  1.00  0.00     0.167 HD
ATOM     61  C   UNL A   1      39.398  32.988  33.144  1.00  0.00     0.074 A 
ATOM     62  C   UNL A   1      38.272  33.888  33.022  1.00  0.00     0.031 C 
ATOM     63  C   UNL A   1      40.297  33.027  34.158  1.00  0.00     0.031 A 
BRANCH  50  64
ATOM     64  C   UNL A   1      44.502  28.536  33.930  1.00  0.00    -0.014 A 
ATOM     65  C   UNL A   1      44.321  27.515  34.874  1.00  0.00     0.009 A 
ATOM     66  C   UNL A   1      45.806  28.893  33.551  1.00  0.00     0.009 A 
ATOM     67  C   UNL A   1      45.425  26.879  35.443  1.00  0.00     0.001 A 
ATOM     68  C   UNL A   1      46.907  28.240  34.105  1.00  0.00     0.001 A 
ATOM     69  C   UNL A   1      46.716  27.237  35.054  1.00  0.00     0.000 A 
ENDBRANCH  50  64
BRANCH  51  70
ATOM     70  C   UNL A   1      36.509  32.451  29.484  1.00  0.00    -0.014 A 
ATOM     71  C   UNL A   1      35.265  31.863  29.753  1.00  0.00     0.009 A 
ATOM     72  C   UNL A   1      36.569  33.542  28.602  1.00  0.00     0.009 A 
ATOM     73  C   UNL A   1      34.110  32.336  29.126  1.00  0.00     0.001 A 
ATOM     74  C   UNL A   1      35.409  34.031  27.999  1.00  0.00     0.001 A 
ATOM     75  C   UNL A   1      34.182  33.421  28.253  1.00  0.00     0.000 A 
ENDBRANCH  51  70
BRANCH  63  76
ATOM     76  C   UNL A   1      40.119  34.090  35.206  1.00  0.00    -0.014 A 
ATOM     77  C   UNL A   1      40.618  35.388  35.015  1.00  0.00     0.009 A 
ATOM     78  C   UNL A   1      39.388  33.805  36.370  1.00  0.00     0.009 A 
ATOM     79  C   UNL A   1      40.407  36.373  35.981  1.00  0.00     0.001 A 
ATOM     80  C   UNL A   1      39.157  34.799  37.322  1.00  0.00     0.001 A 
ATOM     81  C   UNL A   1      39.672  36.080  37.130  1.00  0.00     0.000 A 
ENDBRANCH  63  76
ENDBRANCH  37  38
ENDBRANCH  30  32
ENDBRANCH  29  30
ENDBRANCH  28  29
ENDBRANCH  27  28
ENDBRANCH  26  27
ENDBRANCH  25  26
ENDBRANCH   1  25
TORSDOF 20
ENDMDL
MODEL 2
REMARK VINA RESULT:      -9.6      3.981      8.607
REMARK SMILES O=C(Cc1ccc(-c2ccn(C(F)F)c(=O)c2)cc1)OCCOCCOCCOC(=O)c1ccc(-c2c3nc(c(-c4ccccc4)c4ccc([nH]4)c(-c4ccccc4)c4nc(c(-c5ccccc5)c5ccc2[nH]5)C=C4)C=C3)cc1
REMARK SMILES IDX 24 1 23 2 22 3 21 4 20 5 2 6 1 7 3 8 4 9 5 10 19 11 6 12
REMARK SMILES IDX 18 13 7 14 8 15 9 16 17 17 10 18 15 19 11 20 16 21 12 22
REMARK SMILES IDX 13 23 14 24 25 25 26 26 27 27 28 28 29 29 30 30 31 31 32 32
REMARK SMILES IDX 33 33 79 34 34 35 78 36 35 37 36 38 37 39 72 40 38 41 77 42
REMARK SMILES IDX 71 43 73 44 39 45 76 46 70 47 69 48 40 50 62 51 47 52 61 53
REMARK SMILES IDX 48 54 51 55 60 56 74 57 49 58 50 59 59 61 75 62 52 63 41 64
REMARK SMILES IDX 42 65 46 66 43 67 45 68 44 69 63 70 64 71 68 72 65 73 67 74
REMARK SMILES IDX 66 75 53 76 54 77 58 78 55 79 57 80 56 81
REMARK H PARENT 73 49 51 60
REMARK Flexibility Score: inf
ROOT
ATOM      1  C   UNL A   1      33.791  32.386  27.938  1.00  0.00     0.188 C 
ENDROOT
BRANCH   1   2
ATOM      2  O   UNL A   1      33.412  31.225  27.218  1.00  0.00    -0.376 OA
BRANCH   2   3
ATOM      3  C   UNL A   1      32.095  31.165  26.686  1.00  0.00     0.202 C 
BRANCH   3   4
ATOM      4  C   UNL A   1      31.669  30.026  25.748  1.00  0.00     0.261 C 
BRANCH   4   5
ATOM      5  O   UNL A   1      32.076  28.667  25.998  1.00  0.00    -0.463 OA
BRANCH   5   6
ATOM      6  C   UNL A   1      33.263  28.051  25.841  1.00  0.00     0.310 C 
ATOM      7  O   UNL A   1      33.979  27.871  26.828  1.00  0.00    -0.252 OA
BRANCH   6   8
ATOM      8  C   UNL A   1      33.697  27.566  24.484  1.00  0.00     0.158 C 
BRANCH   8   9
ATOM      9  C   UNL A   1      33.890  26.081  24.459  1.00  0.00    -0.037 A 
ATOM     10  C   UNL A   1      33.845  25.384  23.250  1.00  0.00     0.005 A 
ATOM     11  C   UNL A   1      34.009  25.376  25.659  1.00  0.00     0.005 A 
ATOM     12  C   UNL A   1      33.796  23.997  23.244  1.00  0.00     0.009 A 
ATOM     13  C   UNL A   1      34.008  23.985  25.650  1.00  0.00     0.009 A 
ATOM     14  C   UNL A   1      33.859  23.283  24.446  1.00  0.00    -0.018 A 
BRANCH  14  15
ATOM     15  C   UNL A   1      33.743  21.813  24.464  1.00  0.00    -0.011 A 
ATOM     16  C   UNL A   1      32.469  21.132  24.331  1.00  0.00     0.027 A 
ATOM     17  C   UNL A   1      34.859  21.080  24.624  1.00  0.00     0.080 A 
ATOM     18  C   UNL A   1      32.393  19.803  24.457  1.00  0.00     0.095 A 
ATOM     19  C   UNL A   1      34.797  19.600  24.709  1.00  0.00     0.255 A 
ATOM     20  N   UNL A   1      33.528  19.048  24.670  1.00  0.00    -0.258 N 
ATOM     21  O   UNL A   1      35.849  18.978  24.825  1.00  0.00    -0.269 OA
BRANCH  20  22
ATOM     22  C   UNL A   1      33.434  17.628  24.879  1.00  0.00     0.451 C 
ATOM     23  F   UNL A   1      32.312  17.306  25.566  1.00  0.00    -0.185 F 
ATOM     24  F   UNL A   1      33.407  16.972  23.694  1.00  0.00    -0.185 F 
ENDBRANCH  20  22
ENDBRANCH  14  15
ENDBRANCH   8   9
ENDBRANCH   6   8
ENDBRANCH   5   6
ENDBRANCH   4   5
ENDBRANCH   3   4
ENDBRANCH   2   3
ENDBRANCH   1   2
BRANCH   1  25
ATOM     25  C   UNL A   1      32.902  33.621  27.838  1.00  0.00     0.188 C 
BRANCH  25  26
ATOM     26  O   UNL A   1      32.978  34.552  28.901  1.00  0.00    -0.376 OA
BRANCH  26  27
ATOM     27  C   UNL A   1      34.252  34.750  29.517  1.00  0.00     0.202 C 
BRANCH  27  28
ATOM     28  C   UNL A   1      34.319  34.850  31.046  1.00  0.00     0.261 C 
BRANCH  28  29
ATOM     29  O   UNL A   1      35.439  34.123  31.596  1.00  0.00    -0.460 OA
BRANCH  29  30
ATOM     30  C   UNL A   1      35.183  32.846  31.957  1.00  0.00     0.338 C 
ATOM     31  O   UNL A   1      34.188  32.423  32.534  1.00  0.00    -0.246 OA
BRANCH  30  32
ATOM     32  C   UNL A   1      36.240  31.944  31.480  1.00  0.00     0.060 A 
ATOM     33  C   UNL A   1      37.163  31.426  32.398  1.00  0.00     0.016 A 
ATOM     34  C   UNL A   1      36.423  31.758  30.109  1.00  0.00     0.016 A 
ATOM     35  C   UNL A   1      38.291  30.738  31.944  1.00  0.00     0.010 A 
ATOM     36  C   UNL A   1      37.561  31.084  29.657  1.00  0.00     0.010 A 
ATOM     37  C   UNL A   1      38.516  30.595  30.568  1.00  0.00    -0.014 A 
BRANCH  37  38
ATOM     38  C   UNL A   1      39.797  30.054  30.055  1.00  0.00     0.031 A 
ATOM     39  C   UNL A   1      40.984  30.971  29.925  1.00  0.00     0.074 A 
ATOM     40  C   UNL A   1      39.894  28.774  29.653  1.00  0.00     0.049 A 
ATOM     41  N   UNL A   1      42.146  30.746  29.366  1.00  0.00    -0.248 NA
ATOM     42  C   UNL A   1      40.839  32.319  30.497  1.00  0.00     0.031 C 
ATOM     43  C   UNL A   1      38.837  27.770  29.760  1.00  0.00     0.029 A 
ATOM     44  N   UNL A   1      40.930  28.111  29.042  1.00  0.00    -0.354 N 
ATOM     45  C   UNL A   1      42.863  31.928  29.501  1.00  0.00     0.074 A 
ATOM     46  C   UNL A   1      42.006  32.869  30.189  1.00  0.00     0.031 C 
ATOM     47  C   UNL A   1      39.268  26.626  29.200  1.00  0.00     0.029 A 
ATOM     48  C   UNL A   1      40.611  26.831  28.660  1.00  0.00     0.049 A 
ATOM     49  H   UNL A   1      41.815  28.515  28.891  1.00  0.00     0.167 HD
ATOM     50  C   UNL A   1      44.119  32.207  29.081  1.00  0.00     0.031 A 
ATOM     51  C   UNL A   1      41.303  25.942  27.921  1.00  0.00     0.031 A 
ATOM     52  C   UNL A   1      44.975  31.279  28.391  1.00  0.00     0.049 A 
ATOM     53  C   UNL A   1      42.662  26.312  27.386  1.00  0.00     0.074 A 
ATOM     54  C   UNL A   1      46.282  31.462  27.972  1.00  0.00     0.029 A 
ATOM     55  N   UNL A   1      44.604  30.003  28.003  1.00  0.00    -0.354 N 
ATOM     56  N   UNL A   1      43.349  27.415  27.561  1.00  0.00    -0.248 NA
ATOM     57  C   UNL A   1      43.337  25.312  26.543  1.00  0.00     0.031 C 
ATOM     58  C   UNL A   1      46.681  30.318  27.275  1.00  0.00     0.029 A 
ATOM     59  C   UNL A   1      45.640  29.404  27.308  1.00  0.00     0.049 A 
ATOM     60  H   UNL A   1      43.734  29.585  28.193  1.00  0.00     0.167 HD
ATOM     61  C   UNL A   1      44.541  27.233  26.870  1.00  0.00     0.074 A 
ATOM     62  C   UNL A   1      44.493  25.910  26.285  1.00  0.00     0.031 C 
ATOM     63  C   UNL A   1      45.583  28.088  26.731  1.00  0.00     0.031 A 
BRANCH  50  64
ATOM     64  C   UNL A   1      44.642  33.595  29.316  1.00  0.00    -0.014 A 
ATOM     65  C   UNL A   1      44.521  34.596  28.342  1.00  0.00     0.009 A 
ATOM     66  C   UNL A   1      45.202  33.919  30.563  1.00  0.00     0.009 A 
ATOM     67  C   UNL A   1      44.973  35.891  28.604  1.00  0.00     0.001 A 
ATOM     68  C   UNL A   1      45.632  35.219  30.829  1.00  0.00     0.001 A 
ATOM     69  C   UNL A   1      45.522  36.203  29.848  1.00  0.00     0.000 A 
ENDBRANCH  50  64
BRANCH  51  70
ATOM     70  C   UNL A   1      40.700  24.629  27.575  1.00  0.00    -0.014 A 
ATOM     71  C   UNL A   1      41.234  23.437  28.087  1.00  0.00     0.009 A 
ATOM     72  C   UNL A   1      39.612  24.560  26.690  1.00  0.00     0.009 A 
ATOM     73  C   UNL A   1      40.710  22.203  27.696  1.00  0.00     0.001 A 
ATOM     74  C   UNL A   1      39.072  23.327  26.323  1.00  0.00     0.001 A 
ATOM     75  C   UNL A   1      39.628  22.148  26.818  1.00  0.00     0.000 A 
ENDBRANCH  51  70
BRANCH  63  76
ATOM     76  C   UNL A   1      46.769  27.617  25.936  1.00  0.00    -0.014 A 
ATOM     77  C   UNL A   1      46.815  27.771  24.542  1.00  0.00     0.009 A 
ATOM     78  C   UNL A   1      47.879  27.071  26.600  1.00  0.00     0.009 A 
ATOM     79  C   UNL A   1      47.943  27.365  23.826  1.00  0.00     0.001 A 
ATOM     80  C   UNL A   1      49.014  26.690  25.883  1.00  0.00     0.001 A 
ATOM     81  C   UNL A   1      49.043  26.832  24.497  1.00  0.00     0.000 A 
ENDBRANCH  63  76
ENDBRANCH  37  38
ENDBRANCH  30  32
ENDBRANCH  29  30
ENDBRANCH  28  29
ENDBRANCH  27  28
ENDBRANCH  26  27
ENDBRANCH  25  26
ENDBRANCH   1  25
TORSDOF 20
ENDMDL
MODEL 3
REMARK VINA RESULT:      -9.6      2.353      7.243
REMARK SMILES O=C(Cc1ccc(-c2ccn(C(F)F)c(=O)c2)cc1)OCCOCCOCCOC(=O)c1ccc(-c2c3nc(c(-c4ccccc4)c4ccc([nH]4)c(-c4ccccc4)c4nc(c(-c5ccccc5)c5ccc2[nH]5)C=C4)C=C3)cc1
REMARK SMILES IDX 24 1 23 2 22 3 21 4 20 5 2 6 1 7 3 8 4 9 5 10 19 11 6 12
REMARK SMILES IDX 18 13 7 14 8 15 9 16 17 17 10 18 15 19 11 20 16 21 12 22
REMARK SMILES IDX 13 23 14 24 25 25 26 26 27 27 28 28 29 29 30 30 31 31 32 32
REMARK SMILES IDX 33 33 79 34 34 35 78 36 35 37 36 38 37 39 72 40 38 41 77 42
REMARK SMILES IDX 71 43 73 44 39 45 76 46 70 47 69 48 40 50 62 51 47 52 61 53
REMARK SMILES IDX 48 54 51 55 60 56 74 57 49 58 50 59 59 61 75 62 52 63 41 64
REMARK SMILES IDX 42 65 46 66 43 67 45 68 44 69 63 70 64 71 68 72 65 73 67 74
REMARK SMILES IDX 66 75 53 76 54 77 58 78 55 79 57 80 56 81
REMARK H PARENT 73 49 51 60
REMARK Flexibility Score: inf
ROOT
ATOM      1  C   UNL A   1      31.805  29.094  26.231  1.00  0.00     0.188 C 
ENDROOT
BRANCH   1   2
ATOM      2  O   UNL A   1      31.703  29.864  25.046  1.00  0.00    -0.376 OA
BRANCH   2   3
ATOM      3  C   UNL A   1      30.906  29.358  23.983  1.00  0.00     0.202 C 
BRANCH   3   4
ATOM      4  C   UNL A   1      31.523  28.504  22.865  1.00  0.00     0.261 C 
BRANCH   4   5
ATOM      5  O   UNL A   1      31.244  27.094  22.767  1.00  0.00    -0.463 OA
BRANCH   5   6
ATOM      6  C   UNL A   1      31.527  26.072  23.595  1.00  0.00     0.310 C 
ATOM      7  O   UNL A   1      32.599  26.073  24.202  1.00  0.00    -0.252 OA
BRANCH   6   8
ATOM      8  C   UNL A   1      30.536  24.956  23.796  1.00  0.00     0.158 C 
BRANCH   8   9
ATOM      9  C   UNL A   1      31.217  23.642  24.022  1.00  0.00    -0.037 A 
ATOM     10  C   UNL A   1      31.881  23.002  22.974  1.00  0.00     0.005 A 
ATOM     11  C   UNL A   1      31.098  23.001  25.258  1.00  0.00     0.005 A 
ATOM     12  C   UNL A   1      32.313  21.690  23.116  1.00  0.00     0.009 A 
ATOM     13  C   UNL A   1      31.575  21.703  25.416  1.00  0.00     0.009 A 
ATOM     14  C   UNL A   1      32.149  21.021  24.334  1.00  0.00    -0.018 A 
BRANCH  14  15
ATOM     15  C   UNL A   1      32.544  19.609  24.484  1.00  0.00    -0.011 A 
ATOM     16  C   UNL A   1      32.592  18.948  25.775  1.00  0.00     0.027 A 
ATOM     17  C   UNL A   1      32.886  18.915  23.385  1.00  0.00     0.080 A 
ATOM     18  C   UNL A   1      33.054  17.698  25.881  1.00  0.00     0.095 A 
ATOM     19  C   UNL A   1      33.349  17.508  23.481  1.00  0.00     0.255 A 
ATOM     20  N   UNL A   1      33.454  16.995  24.763  1.00  0.00    -0.258 N 
ATOM     21  O   UNL A   1      33.620  16.911  22.443  1.00  0.00    -0.269 OA
BRANCH  20  22
ATOM     22  C   UNL A   1      34.020  15.680  24.889  1.00  0.00     0.451 C 
ATOM     23  F   UNL A   1      35.227  15.721  25.501  1.00  0.00    -0.185 F 
ATOM     24  F   UNL A   1      33.206  14.876  25.615  1.00  0.00    -0.185 F 
ENDBRANCH  20  22
ENDBRANCH  14  15
ENDBRANCH   8   9
ENDBRANCH   6   8
ENDBRANCH   5   6
ENDBRANCH   4   5
ENDBRANCH   3   4
ENDBRANCH   2   3
ENDBRANCH   1   2
BRANCH   1  25
ATOM     25  C   UNL A   1      33.139  29.077  26.970  1.00  0.00     0.188 C 
BRANCH  25  26
ATOM     26  O   UNL A   1      33.963  30.219  26.832  1.00  0.00    -0.376 OA
BRANCH  26  27
ATOM     27  C   UNL A   1      33.808  31.265  27.792  1.00  0.00     0.202 C 
BRANCH  27  28
ATOM     28  C   UNL A   1      33.188  32.592  27.336  1.00  0.00     0.261 C 
BRANCH  28  29
ATOM     29  O   UNL A   1      32.545  33.300  28.419  1.00  0.00    -0.460 OA
BRANCH  29  30
ATOM     30  C   UNL A   1      33.108  34.482  28.756  1.00  0.00     0.338 C 
ATOM     31  O   UNL A   1      32.658  35.603  28.552  1.00  0.00    -0.246 OA
BRANCH  30  32
ATOM     32  C   UNL A   1      34.346  34.274  29.518  1.00  0.00     0.060 A 
ATOM     33  C   UNL A   1      35.577  34.578  28.919  1.00  0.00     0.016 A 
ATOM     34  C   UNL A   1      34.299  33.616  30.748  1.00  0.00     0.016 A 
ATOM     35  C   UNL A   1      36.770  34.199  29.541  1.00  0.00     0.010 A 
ATOM     36  C   UNL A   1      35.494  33.223  31.359  1.00  0.00     0.010 A 
ATOM     37  C   UNL A   1      36.734  33.486  30.747  1.00  0.00    -0.014 A 
BRANCH  37  38
ATOM     38  C   UNL A   1      37.966  32.896  31.323  1.00  0.00     0.031 A 
ATOM     39  C   UNL A   1      38.581  31.689  30.665  1.00  0.00     0.074 A 
ATOM     40  C   UNL A   1      38.505  33.389  32.452  1.00  0.00     0.049 A 
ATOM     41  N   UNL A   1      39.563  30.930  31.081  1.00  0.00    -0.248 NA
ATOM     42  C   UNL A   1      38.010  31.284  29.371  1.00  0.00     0.031 C 
ATOM     43  C   UNL A   1      38.036  34.574  33.167  1.00  0.00     0.029 A 
ATOM     44  N   UNL A   1      39.552  32.927  33.212  1.00  0.00    -0.354 N 
ATOM     45  C   UNL A   1      39.715  29.946  30.112  1.00  0.00     0.074 A 
ATOM     46  C   UNL A   1      38.723  30.201  29.089  1.00  0.00     0.031 C 
ATOM     47  C   UNL A   1      38.772  34.727  34.282  1.00  0.00     0.029 A 
ATOM     48  C   UNL A   1      39.732  33.629  34.378  1.00  0.00     0.049 A 
ATOM     49  H   UNL A   1      40.118  32.167  32.945  1.00  0.00     0.167 HD
ATOM     50  C   UNL A   1      40.595  28.919  30.081  1.00  0.00     0.031 A 
ATOM     51  C   UNL A   1      40.546  33.387  35.425  1.00  0.00     0.031 A 
ATOM     52  C   UNL A   1      41.580  28.657  31.097  1.00  0.00     0.049 A 
ATOM     53  C   UNL A   1      41.451  32.183  35.407  1.00  0.00     0.074 A 
ATOM     54  C   UNL A   1      42.547  27.665  31.122  1.00  0.00     0.029 A 
ATOM     55  N   UNL A   1      41.712  29.376  32.271  1.00  0.00    -0.354 N 
ATOM     56  N   UNL A   1      41.620  31.288  34.464  1.00  0.00    -0.248 NA
ATOM     57  C   UNL A   1      42.273  31.953  36.606  1.00  0.00     0.031 C 
ATOM     58  C   UNL A   1      43.223  27.747  32.342  1.00  0.00     0.029 A 
ATOM     59  C   UNL A   1      42.712  28.822  33.051  1.00  0.00     0.049 A 
ATOM     60  H   UNL A   1      41.174  30.164  32.516  1.00  0.00     0.167 HD
ATOM     61  C   UNL A   1      42.579  30.406  34.946  1.00  0.00     0.074 A 
ATOM     62  C   UNL A   1      42.967  30.878  36.258  1.00  0.00     0.031 C 
ATOM     63  C   UNL A   1      43.092  29.300  34.354  1.00  0.00     0.031 A 
BRANCH  50  64
ATOM     64  C   UNL A   1      40.513  27.964  28.926  1.00  0.00    -0.014 A 
ATOM     65  C   UNL A   1      39.749  26.790  29.001  1.00  0.00     0.009 A 
ATOM     66  C   UNL A   1      41.157  28.283  27.719  1.00  0.00     0.009 A 
ATOM     67  C   UNL A   1      39.650  25.942  27.897  1.00  0.00     0.001 A 
ATOM     68  C   UNL A   1      41.039  27.445  26.611  1.00  0.00     0.001 A 
ATOM     69  C   UNL A   1      40.290  26.273  26.702  1.00  0.00     0.000 A 
ENDBRANCH  50  64
BRANCH  51  70
ATOM     70  C   UNL A   1      40.501  34.265  36.624  1.00  0.00    -0.014 A 
ATOM     71  C   UNL A   1      39.450  34.164  37.548  1.00  0.00     0.009 A 
ATOM     72  C   UNL A   1      41.489  35.243  36.823  1.00  0.00     0.009 A 
ATOM     73  C   UNL A   1      39.374  35.044  38.630  1.00  0.00     0.001 A 
ATOM     74  C   UNL A   1      41.425  36.103  37.920  1.00  0.00     0.001 A 
ATOM     75  C   UNL A   1      40.363  36.010  38.817  1.00  0.00     0.000 A 
ENDBRANCH  51  70
BRANCH  63  76
ATOM     76  C   UNL A   1      44.145  28.533  35.104  1.00  0.00    -0.014 A 
ATOM     77  C   UNL A   1      43.801  27.477  35.961  1.00  0.00     0.009 A 
ATOM     78  C   UNL A   1      45.501  28.832  34.899  1.00  0.00     0.009 A 
ATOM     79  C   UNL A   1      44.796  26.750  36.617  1.00  0.00     0.001 A 
ATOM     80  C   UNL A   1      46.493  28.086  35.537  1.00  0.00     0.001 A 
ATOM     81  C   UNL A   1      46.141  27.051  36.400  1.00  0.00     0.000 A 
ENDBRANCH  63  76
ENDBRANCH  37  38
ENDBRANCH  30  32
ENDBRANCH  29  30
ENDBRANCH  28  29
ENDBRANCH  27  28
ENDBRANCH  26  27
ENDBRANCH  25  26
ENDBRANCH   1  25
TORSDOF 20
ENDMDL
