MODEL 1
REMARK VINA RESULT:     -10.7      0.000      0.000
REMARK SMILES Cc1nn([C@H]2CCS(=O)(=O)C2)c(C)c1/C=C(\CC(=O)OCCOCCOCCOC(=O)c1ccc(-c2c3nc(c(-c4ccccc4)c4ccc([nH]4)c(-c4ccccc4)c4nc(c(-c5ccccc5)c5ccc2[nH]5)C=C4)C=C3)cc1)c1nc2ccccc2s1
REMARK SMILES IDX 24 1 23 2 22 3 21 4 20 5 18 6 19 7 17 8 16 9 15 10 14 11
REMARK SMILES IDX 1 12 2 13 3 14 4 15 12 16 13 17 5 18 6 19 11 20 7 21 8 22
REMARK SMILES IDX 9 23 10 24 80 25 81 26 88 27 82 28 87 29 83 30 86 31 84 32
REMARK SMILES IDX 85 33 25 34 26 35 27 36 28 37 29 38 30 39 31 40 32 41 33 42
REMARK SMILES IDX 79 43 34 44 78 45 35 46 36 47 37 48 72 49 38 50 77 51 71 52
REMARK SMILES IDX 73 53 39 54 76 55 70 56 69 57 40 59 62 60 47 61 61 62 48 63
REMARK SMILES IDX 51 64 60 65 74 66 49 67 50 68 59 70 75 71 52 72 41 73 42 74
REMARK SMILES IDX 46 75 43 76 45 77 44 78 63 79 64 80 68 81 65 82 67 83 66 84
REMARK SMILES IDX 53 85 54 86 58 87 55 88 57 89 56 90
REMARK H PARENT 73 58 51 69
REMARK Flexibility Score: inf
ROOT
ATOM      1  C   UNL A   1      41.183  22.053  27.176  1.00  0.00     0.188 C 
ENDROOT
BRANCH   1   2
ATOM      2  O   UNL A   1      39.760  22.109  27.186  1.00  0.00    -0.376 OA
BRANCH   2   3
ATOM      3  C   UNL A   1      39.092  23.073  26.393  1.00  0.00     0.202 C 
BRANCH   3   4
ATOM      4  C   UNL A   1      37.828  22.568  25.672  1.00  0.00     0.261 C 
BRANCH   4   5
ATOM      5  O   UNL A   1      36.591  23.229  26.047  1.00  0.00    -0.463 OA
BRANCH   5   6
ATOM      6  C   UNL A   1      35.783  23.529  25.005  1.00  0.00     0.310 C 
ATOM      7  O   UNL A   1      35.605  22.769  24.051  1.00  0.00    -0.252 OA
BRANCH   6   8
ATOM      8  C   UNL A   1      35.003  24.852  25.049  1.00  0.00     0.161 C 
BRANCH   8   9
ATOM      9  C   UNL A   1      33.681  25.304  25.655  1.00  0.00    -0.000 C 
ATOM     10  C   UNL A   1      32.771  24.401  26.109  1.00  0.00     0.019 C 
BRANCH  10  11
ATOM     11  C   UNL A   1      32.600  23.007  25.823  1.00  0.00     0.019 A 
ATOM     12  C   UNL A   1      30.839  23.310  23.884  1.00  0.00     0.069 C 
ATOM     13  C   UNL A   1      31.750  22.545  24.776  1.00  0.00     0.067 A 
ATOM     14  N   UNL A   1      31.857  21.228  24.616  1.00  0.00    -0.177 NA
ATOM     15  N   UNL A   1      32.799  20.860  25.502  1.00  0.00    -0.265 N 
ATOM     16  C   UNL A   1      33.066  21.842  26.428  1.00  0.00     0.043 A 
ATOM     17  C   UNL A   1      33.696  21.543  27.745  1.00  0.00     0.067 C 
BRANCH  15  18
ATOM     18  C   UNL A   1      33.335  19.530  25.307  1.00  0.00     0.123 C 
ATOM     19  C   UNL A   1      32.257  18.454  25.575  1.00  0.00     0.044 C 
ATOM     20  C   UNL A   1      33.903  19.121  23.952  1.00  0.00     0.164 C 
ATOM     21  C   UNL A   1      32.986  17.125  25.467  1.00  0.00     0.139 C 
ATOM     22  S   UNL A   1      34.186  17.372  24.166  1.00  0.00     0.152 S 
ATOM     23  O   UNL A   1      35.501  17.187  24.707  1.00  0.00    -0.229 OA
ATOM     24  O   UNL A   1      33.727  16.676  22.967  1.00  0.00    -0.229 OA
ENDBRANCH  15  18
ENDBRANCH  10  11
BRANCH   9  25
ATOM     25  C   UNL A   1      33.435  26.691  26.064  1.00  0.00     0.121 A 
ATOM     26  N   UNL A   1      34.331  27.530  26.558  1.00  0.00    -0.236 NA
ATOM     27  S   UNL A   1      31.859  27.424  25.859  1.00  0.00    -0.114 S 
ATOM     28  C   UNL A   1      33.771  28.789  26.805  1.00  0.00     0.082 A 
ATOM     29  C   UNL A   1      32.432  28.930  26.453  1.00  0.00     0.055 A 
ATOM     30  C   UNL A   1      34.435  29.916  27.335  1.00  0.00     0.030 A 
ATOM     31  C   UNL A   1      31.748  30.155  26.586  1.00  0.00     0.021 A 
ATOM     32  C   UNL A   1      33.797  31.163  27.380  1.00  0.00     0.002 A 
ATOM     33  C   UNL A   1      32.465  31.278  27.010  1.00  0.00     0.002 A 
ENDBRANCH   9  25
ENDBRANCH   8   9
ENDBRANCH   6   8
ENDBRANCH   5   6
ENDBRANCH   4   5
ENDBRANCH   3   4
ENDBRANCH   2   3
ENDBRANCH   1   2
BRANCH   1  34
ATOM     34  C   UNL A   1      41.992  21.462  25.997  1.00  0.00     0.188 C 
BRANCH  34  35
ATOM     35  O   UNL A   1      42.682  22.415  25.203  1.00  0.00    -0.376 OA
BRANCH  35  36
ATOM     36  C   UNL A   1      43.377  23.420  25.919  1.00  0.00     0.202 C 
BRANCH  36  37
ATOM     37  C   UNL A   1      42.998  24.822  25.442  1.00  0.00     0.261 C 
BRANCH  37  38
ATOM     38  O   UNL A   1      41.745  25.281  25.948  1.00  0.00    -0.460 OA
BRANCH  38  39
ATOM     39  C   UNL A   1      41.868  26.323  26.786  1.00  0.00     0.338 C 
ATOM     40  O   UNL A   1      42.877  26.960  27.036  1.00  0.00    -0.246 OA
BRANCH  39  41
ATOM     41  C   UNL A   1      40.575  26.560  27.444  1.00  0.00     0.060 A 
ATOM     42  C   UNL A   1      39.857  27.636  26.924  1.00  0.00     0.016 A 
ATOM     43  C   UNL A   1      40.626  26.282  28.804  1.00  0.00     0.016 A 
ATOM     44  C   UNL A   1      39.612  28.692  27.767  1.00  0.00     0.010 A 
ATOM     45  C   UNL A   1      40.360  27.325  29.650  1.00  0.00     0.010 A 
ATOM     46  C   UNL A   1      40.008  28.563  29.098  1.00  0.00    -0.014 A 
BRANCH  46  47
ATOM     47  C   UNL A   1      39.978  29.742  29.948  1.00  0.00     0.031 A 
ATOM     48  C   UNL A   1      41.274  30.462  30.019  1.00  0.00     0.074 A 
ATOM     49  C   UNL A   1      38.796  30.191  30.418  1.00  0.00     0.049 A 
ATOM     50  N   UNL A   1      41.821  31.042  31.036  1.00  0.00    -0.248 NA
ATOM     51  C   UNL A   1      42.118  30.444  28.806  1.00  0.00     0.031 C 
ATOM     52  C   UNL A   1      37.471  29.593  30.197  1.00  0.00     0.029 A 
ATOM     53  N   UNL A   1      38.497  31.387  31.001  1.00  0.00    -0.354 N 
ATOM     54  C   UNL A   1      42.992  31.611  30.544  1.00  0.00     0.074 A 
ATOM     55  C   UNL A   1      43.204  31.082  29.225  1.00  0.00     0.031 C 
ATOM     56  C   UNL A   1      36.531  30.551  30.339  1.00  0.00     0.029 A 
ATOM     57  C   UNL A   1      37.185  31.783  30.745  1.00  0.00     0.049 A 
ATOM     58  H   UNL A   1      39.134  31.911  31.538  1.00  0.00     0.167 HD
ATOM     59  C   UNL A   1      43.569  32.691  31.129  1.00  0.00     0.031 A 
ATOM     60  C   UNL A   1      36.701  33.050  30.726  1.00  0.00     0.031 A 
ATOM     61  C   UNL A   1      43.211  32.829  32.510  1.00  0.00     0.049 A 
ATOM     62  C   UNL A   1      37.692  33.928  31.387  1.00  0.00     0.074 A 
ATOM     63  C   UNL A   1      43.348  32.024  33.623  1.00  0.00     0.029 A 
ATOM     64  N   UNL A   1      42.293  33.793  32.846  1.00  0.00    -0.354 N 
ATOM     65  N   UNL A   1      37.932  33.917  32.665  1.00  0.00    -0.248 NA
ATOM     66  C   UNL A   1      38.731  34.534  30.565  1.00  0.00     0.031 C 
ATOM     67  C   UNL A   1      42.179  32.261  34.398  1.00  0.00     0.029 A 
ATOM     68  C   UNL A   1      41.418  33.225  33.735  1.00  0.00     0.049 A 
ATOM     69  H   UNL A   1      42.268  34.718  32.512  1.00  0.00     0.167 HD
ATOM     70  C   UNL A   1      39.304  34.091  32.765  1.00  0.00     0.074 A 
ATOM     71  C   UNL A   1      39.723  34.587  31.457  1.00  0.00     0.031 C 
ATOM     72  C   UNL A   1      40.009  33.536  33.795  1.00  0.00     0.031 A 
BRANCH  59  73
ATOM     73  C   UNL A   1      44.119  33.823  30.303  1.00  0.00    -0.014 A 
ATOM     74  C   UNL A   1      43.262  34.524  29.445  1.00  0.00     0.009 A 
ATOM     75  C   UNL A   1      45.505  34.039  30.139  1.00  0.00     0.009 A 
ATOM     76  C   UNL A   1      43.770  35.361  28.444  1.00  0.00     0.001 A 
ATOM     77  C   UNL A   1      46.014  34.908  29.174  1.00  0.00     0.001 A 
ATOM     78  C   UNL A   1      45.144  35.550  28.308  1.00  0.00     0.000 A 
ENDBRANCH  59  73
BRANCH  60  79
ATOM     79  C   UNL A   1      35.574  33.594  29.931  1.00  0.00    -0.014 A 
ATOM     80  C   UNL A   1      34.421  34.079  30.568  1.00  0.00     0.009 A 
ATOM     81  C   UNL A   1      35.709  33.846  28.553  1.00  0.00     0.009 A 
ATOM     82  C   UNL A   1      33.456  34.806  29.857  1.00  0.00     0.001 A 
ATOM     83  C   UNL A   1      34.740  34.558  27.839  1.00  0.00     0.001 A 
ATOM     84  C   UNL A   1      33.618  35.050  28.495  1.00  0.00     0.000 A 
ENDBRANCH  60  79
BRANCH  72  85
ATOM     85  C   UNL A   1      39.234  32.929  34.939  1.00  0.00    -0.014 A 
ATOM     86  C   UNL A   1      38.777  31.599  34.927  1.00  0.00     0.009 A 
ATOM     87  C   UNL A   1      39.097  33.666  36.123  1.00  0.00     0.009 A 
ATOM     88  C   UNL A   1      38.169  31.037  36.053  1.00  0.00     0.001 A 
ATOM     89  C   UNL A   1      38.511  33.097  37.257  1.00  0.00     0.001 A 
ATOM     90  C   UNL A   1      38.040  31.786  37.219  1.00  0.00     0.000 A 
ENDBRANCH  72  85
ENDBRANCH  46  47
ENDBRANCH  39  41
ENDBRANCH  38  39
ENDBRANCH  37  38
ENDBRANCH  36  37
ENDBRANCH  35  36
ENDBRANCH  34  35
ENDBRANCH   1  34
TORSDOF 21
ENDMDL
MODEL 2
REMARK VINA RESULT:     -10.6      4.532     10.131
REMARK SMILES Cc1nn([C@H]2CCS(=O)(=O)C2)c(C)c1/C=C(\CC(=O)OCCOCCOCCOC(=O)c1ccc(-c2c3nc(c(-c4ccccc4)c4ccc([nH]4)c(-c4ccccc4)c4nc(c(-c5ccccc5)c5ccc2[nH]5)C=C4)C=C3)cc1)c1nc2ccccc2s1
REMARK SMILES IDX 24 1 23 2 22 3 21 4 20 5 18 6 19 7 17 8 16 9 15 10 14 11
REMARK SMILES IDX 1 12 2 13 3 14 4 15 12 16 13 17 5 18 6 19 11 20 7 21 8 22
REMARK SMILES IDX 9 23 10 24 80 25 81 26 88 27 82 28 87 29 83 30 86 31 84 32
REMARK SMILES IDX 85 33 25 34 26 35 27 36 28 37 29 38 30 39 31 40 32 41 33 42
REMARK SMILES IDX 79 43 34 44 78 45 35 46 36 47 37 48 72 49 38 50 77 51 71 52
REMARK SMILES IDX 73 53 39 54 76 55 70 56 69 57 40 59 62 60 47 61 61 62 48 63
REMARK SMILES IDX 51 64 60 65 74 66 49 67 50 68 59 70 75 71 52 72 41 73 42 74
REMARK SMILES IDX 46 75 43 76 45 77 44 78 63 79 64 80 68 81 65 82 67 83 66 84
REMARK SMILES IDX 53 85 54 86 58 87 55 88 57 89 56 90
REMARK H PARENT 73 58 51 69
REMARK Flexibility Score: inf
ROOT
ATOM      1  C   UNL A   1      34.215  31.729  27.686  1.00  0.00     0.188 C 
ENDROOT
BRANCH   1   2
ATOM      2  O   UNL A   1      32.948  31.449  27.101  1.00  0.00    -0.376 OA
BRANCH   2   3
ATOM      3  C   UNL A   1      32.745  30.221  26.426  1.00  0.00     0.202 C 
BRANCH   3   4
ATOM      4  C   UNL A   1      32.507  29.003  27.338  1.00  0.00     0.261 C 
BRANCH   4   5
ATOM      5  O   UNL A   1      33.111  27.761  26.889  1.00  0.00    -0.463 OA
BRANCH   5   6
ATOM      6  C   UNL A   1      32.241  26.733  26.766  1.00  0.00     0.310 C 
ATOM      7  O   UNL A   1      31.053  26.814  27.087  1.00  0.00    -0.252 OA
BRANCH   6   8
ATOM      8  C   UNL A   1      32.747  25.426  26.135  1.00  0.00     0.161 C 
BRANCH   8   9
ATOM      9  C   UNL A   1      32.460  24.670  24.845  1.00  0.00    -0.000 C 
ATOM     10  C   UNL A   1      32.086  25.328  23.713  1.00  0.00     0.019 C 
BRANCH  10  11
ATOM     11  C   UNL A   1      31.527  26.634  23.521  1.00  0.00     0.019 A 
ATOM     12  C   UNL A   1      33.820  27.907  23.249  1.00  0.00     0.069 C 
ATOM     13  C   UNL A   1      32.339  27.778  23.267  1.00  0.00     0.067 A 
ATOM     14  N   UNL A   1      31.591  28.844  22.991  1.00  0.00    -0.177 NA
ATOM     15  N   UNL A   1      30.329  28.382  23.010  1.00  0.00    -0.265 N 
ATOM     16  C   UNL A   1      30.232  27.138  23.591  1.00  0.00     0.043 A 
ATOM     17  C   UNL A   1      28.948  26.618  24.143  1.00  0.00     0.067 C 
BRANCH  15  18
ATOM     18  C   UNL A   1      29.346  29.266  22.424  1.00  0.00     0.123 C 
ATOM     19  C   UNL A   1      28.421  29.863  23.510  1.00  0.00     0.044 C 
ATOM     20  C   UNL A   1      29.789  30.493  21.634  1.00  0.00     0.164 C 
ATOM     21  C   UNL A   1      27.369  30.652  22.748  1.00  0.00     0.139 C 
ATOM     22  S   UNL A   1      28.247  31.349  21.356  1.00  0.00     0.152 S 
ATOM     23  O   UNL A   1      27.664  30.852  20.144  1.00  0.00    -0.229 OA
ATOM     24  O   UNL A   1      28.455  32.774  21.599  1.00  0.00    -0.229 OA
ENDBRANCH  15  18
ENDBRANCH  10  11
BRANCH   9  25
ATOM     25  C   UNL A   1      32.850  23.271  24.648  1.00  0.00     0.121 A 
ATOM     26  N   UNL A   1      33.998  22.722  25.010  1.00  0.00    -0.236 NA
ATOM     27  S   UNL A   1      31.741  22.118  23.937  1.00  0.00    -0.114 S 
ATOM     28  C   UNL A   1      34.029  21.355  24.709  1.00  0.00     0.082 A 
ATOM     29  C   UNL A   1      32.866  20.838  24.146  1.00  0.00     0.055 A 
ATOM     30  C   UNL A   1      35.096  20.464  24.952  1.00  0.00     0.030 A 
ATOM     31  C   UNL A   1      32.725  19.468  23.846  1.00  0.00     0.021 A 
ATOM     32  C   UNL A   1      34.935  19.087  24.750  1.00  0.00     0.002 A 
ATOM     33  C   UNL A   1      33.759  18.596  24.200  1.00  0.00     0.002 A 
ENDBRANCH   9  25
ENDBRANCH   8   9
ENDBRANCH   6   8
ENDBRANCH   5   6
ENDBRANCH   4   5
ENDBRANCH   3   4
ENDBRANCH   2   3
ENDBRANCH   1   2
BRANCH   1  34
ATOM     34  C   UNL A   1      34.385  32.643  28.923  1.00  0.00     0.188 C 
BRANCH  34  35
ATOM     35  O   UNL A   1      35.526  33.487  28.894  1.00  0.00    -0.376 OA
BRANCH  35  36
ATOM     36  C   UNL A   1      36.284  33.533  30.090  1.00  0.00     0.202 C 
BRANCH  36  37
ATOM     37  C   UNL A   1      36.115  32.260  30.918  1.00  0.00     0.261 C 
BRANCH  37  38
ATOM     38  O   UNL A   1      37.261  31.409  30.902  1.00  0.00    -0.460 OA
BRANCH  38  39
ATOM     39  C   UNL A   1      37.018  30.212  30.344  1.00  0.00     0.338 C 
ATOM     40  O   UNL A   1      36.308  29.321  30.777  1.00  0.00    -0.246 OA
BRANCH  39  41
ATOM     41  C   UNL A   1      37.817  30.089  29.117  1.00  0.00     0.060 A 
ATOM     42  C   UNL A   1      37.695  28.856  28.476  1.00  0.00     0.016 A 
ATOM     43  C   UNL A   1      39.028  30.764  29.214  1.00  0.00     0.016 A 
ATOM     44  C   UNL A   1      38.827  28.086  28.377  1.00  0.00     0.010 A 
ATOM     45  C   UNL A   1      40.161  30.005  29.094  1.00  0.00     0.010 A 
ATOM     46  C   UNL A   1      40.026  28.636  28.830  1.00  0.00    -0.014 A 
BRANCH  46  47
ATOM     47  C   UNL A   1      41.184  27.767  28.958  1.00  0.00     0.031 A 
ATOM     48  C   UNL A   1      41.758  27.730  30.326  1.00  0.00     0.074 A 
ATOM     49  C   UNL A   1      41.511  26.944  27.940  1.00  0.00     0.049 A 
ATOM     50  N   UNL A   1      42.999  27.674  30.680  1.00  0.00    -0.248 NA
ATOM     51  C   UNL A   1      40.813  27.877  31.453  1.00  0.00     0.031 C 
ATOM     52  C   UNL A   1      40.833  26.830  26.640  1.00  0.00     0.029 A 
ATOM     53  N   UNL A   1      42.371  25.886  27.928  1.00  0.00    -0.354 N 
ATOM     54  C   UNL A   1      42.979  27.599  32.069  1.00  0.00     0.074 A 
ATOM     55  C   UNL A   1      41.636  27.888  32.494  1.00  0.00     0.031 C 
ATOM     56  C   UNL A   1      41.073  25.605  26.129  1.00  0.00     0.029 A 
ATOM     57  C   UNL A   1      41.984  24.904  27.016  1.00  0.00     0.049 A 
ATOM     58  H   UNL A   1      43.171  25.821  28.498  1.00  0.00     0.167 HD
ATOM     59  C   UNL A   1      43.989  27.033  32.777  1.00  0.00     0.031 A 
ATOM     60  C   UNL A   1      42.272  23.579  27.068  1.00  0.00     0.031 A 
ATOM     61  C   UNL A   1      45.231  27.033  32.061  1.00  0.00     0.049 A 
ATOM     62  C   UNL A   1      43.376  23.389  28.035  1.00  0.00     0.074 A 
ATOM     63  C   UNL A   1      46.027  28.021  31.517  1.00  0.00     0.029 A 
ATOM     64  N   UNL A   1      45.657  25.852  31.506  1.00  0.00    -0.354 N 
ATOM     65  N   UNL A   1      44.602  23.765  27.818  1.00  0.00    -0.248 NA
ATOM     66  C   UNL A   1      43.035  23.156  29.432  1.00  0.00     0.031 C 
ATOM     67  C   UNL A   1      46.570  27.451  30.332  1.00  0.00     0.029 A 
ATOM     68  C   UNL A   1      46.108  26.137  30.243  1.00  0.00     0.049 A 
ATOM     69  H   UNL A   1      45.642  24.966  31.935  1.00  0.00     0.167 HD
ATOM     70  C   UNL A   1      45.043  24.244  29.043  1.00  0.00     0.074 A 
ATOM     71  C   UNL A   1      44.086  23.733  30.020  1.00  0.00     0.031 C 
ATOM     72  C   UNL A   1      45.963  25.250  29.113  1.00  0.00     0.031 A 
BRANCH  59  73
ATOM     73  C   UNL A   1      43.710  26.124  33.942  1.00  0.00    -0.014 A 
ATOM     74  C   UNL A   1      43.310  24.803  33.701  1.00  0.00     0.009 A 
ATOM     75  C   UNL A   1      43.562  26.606  35.262  1.00  0.00     0.009 A 
ATOM     76  C   UNL A   1      42.747  24.023  34.719  1.00  0.00     0.001 A 
ATOM     77  C   UNL A   1      43.045  25.816  36.289  1.00  0.00     0.001 A 
ATOM     78  C   UNL A   1      42.613  24.530  36.010  1.00  0.00     0.000 A 
ENDBRANCH  59  73
BRANCH  60  79
ATOM     79  C   UNL A   1      41.475  22.443  26.549  1.00  0.00    -0.014 A 
ATOM     80  C   UNL A   1      42.053  21.171  26.406  1.00  0.00     0.009 A 
ATOM     81  C   UNL A   1      40.078  22.541  26.398  1.00  0.00     0.009 A 
ATOM     82  C   UNL A   1      41.262  20.044  26.146  1.00  0.00     0.001 A 
ATOM     83  C   UNL A   1      39.290  21.419  26.123  1.00  0.00     0.001 A 
ATOM     84  C   UNL A   1      39.882  20.167  26.010  1.00  0.00     0.000 A 
ENDBRANCH  60  79
BRANCH  72  85
ATOM     85  C   UNL A   1      46.658  25.666  27.839  1.00  0.00    -0.014 A 
ATOM     86  C   UNL A   1      47.942  25.212  27.490  1.00  0.00     0.009 A 
ATOM     87  C   UNL A   1      45.937  26.407  26.892  1.00  0.00     0.009 A 
ATOM     88  C   UNL A   1      48.503  25.523  26.248  1.00  0.00     0.001 A 
ATOM     89  C   UNL A   1      46.487  26.698  25.641  1.00  0.00     0.001 A 
ATOM     90  C   UNL A   1      47.772  26.263  25.322  1.00  0.00     0.000 A 
ENDBRANCH  72  85
ENDBRANCH  46  47
ENDBRANCH  39  41
ENDBRANCH  38  39
ENDBRANCH  37  38
ENDBRANCH  36  37
ENDBRANCH  35  36
ENDBRANCH  34  35
ENDBRANCH   1  34
TORSDOF 21
ENDMDL
MODEL 3
REMARK VINA RESULT:     -10.5      2.186      3.136
REMARK SMILES Cc1nn([C@H]2CCS(=O)(=O)C2)c(C)c1/C=C(\CC(=O)OCCOCCOCCOC(=O)c1ccc(-c2c3nc(c(-c4ccccc4)c4ccc([nH]4)c(-c4ccccc4)c4nc(c(-c5ccccc5)c5ccc2[nH]5)C=C4)C=C3)cc1)c1nc2ccccc2s1
REMARK SMILES IDX 24 1 23 2 22 3 21 4 20 5 18 6 19 7 17 8 16 9 15 10 14 11
REMARK SMILES IDX 1 12 2 13 3 14 4 15 12 16 13 17 5 18 6 19 11 20 7 21 8 22
REMARK SMILES IDX 9 23 10 24 80 25 81 26 88 27 82 28 87 29 83 30 86 31 84 32
REMARK SMILES IDX 85 33 25 34 26 35 27 36 28 37 29 38 30 39 31 40 32 41 33 42
REMARK SMILES IDX 79 43 34 44 78 45 35 46 36 47 37 48 72 49 38 50 77 51 71 52
REMARK SMILES IDX 73 53 39 54 76 55 70 56 69 57 40 59 62 60 47 61 61 62 48 63
REMARK SMILES IDX 51 64 60 65 74 66 49 67 50 68 59 70 75 71 52 72 41 73 42 74
REMARK SMILES IDX 46 75 43 76 45 77 44 78 63 79 64 80 68 81 65 82 67 83 66 84
REMARK SMILES IDX 53 85 54 86 58 87 55 88 57 89 56 90
REMARK H PARENT 73 58 51 69
REMARK Flexibility Score: inf
ROOT
ATOM      1  C   UNL A   1      37.946  23.239  26.011  1.00  0.00     0.188 C 
ENDROOT
BRANCH   1   2
ATOM      2  O   UNL A   1      36.655  23.061  25.440  1.00  0.00    -0.376 OA
BRANCH   2   3
ATOM      3  C   UNL A   1      35.535  22.875  26.285  1.00  0.00     0.202 C 
BRANCH   3   4
ATOM      4  C   UNL A   1      34.567  24.070  26.365  1.00  0.00     0.261 C 
BRANCH   4   5
ATOM      5  O   UNL A   1      34.845  25.160  25.447  1.00  0.00    -0.463 OA
BRANCH   5   6
ATOM      6  C   UNL A   1      33.962  26.182  25.514  1.00  0.00     0.310 C 
ATOM      7  O   UNL A   1      34.304  27.366  25.549  1.00  0.00    -0.252 OA
BRANCH   6   8
ATOM      8  C   UNL A   1      32.463  25.849  25.477  1.00  0.00     0.161 C 
BRANCH   8   9
ATOM      9  C   UNL A   1      31.447  25.569  24.378  1.00  0.00    -0.000 C 
ATOM     10  C   UNL A   1      31.024  24.302  24.117  1.00  0.00     0.019 C 
BRANCH  10  11
ATOM     11  C   UNL A   1      31.606  23.030  24.430  1.00  0.00     0.019 A 
ATOM     12  C   UNL A   1      30.116  22.529  26.547  1.00  0.00     0.069 C 
ATOM     13  C   UNL A   1      31.141  22.227  25.513  1.00  0.00     0.067 A 
ATOM     14  N   UNL A   1      31.741  21.040  25.522  1.00  0.00    -0.177 NA
ATOM     15  N   UNL A   1      32.532  21.057  24.434  1.00  0.00    -0.265 N 
ATOM     16  C   UNL A   1      32.688  22.321  23.915  1.00  0.00     0.043 A 
ATOM     17  C   UNL A   1      33.834  22.682  23.033  1.00  0.00     0.067 C 
BRANCH  15  18
ATOM     18  C   UNL A   1      33.048  19.766  24.035  1.00  0.00     0.123 C 
ATOM     19  C   UNL A   1      34.247  19.351  24.919  1.00  0.00     0.044 C 
ATOM     20  C   UNL A   1      32.149  18.534  24.069  1.00  0.00     0.164 C 
ATOM     21  C   UNL A   1      34.764  18.059  24.307  1.00  0.00     0.139 C 
ATOM     22  S   UNL A   1      33.299  17.209  23.737  1.00  0.00     0.152 S 
ATOM     23  O   UNL A   1      33.390  17.031  22.317  1.00  0.00    -0.229 OA
ATOM     24  O   UNL A   1      33.013  16.106  24.649  1.00  0.00    -0.229 OA
ENDBRANCH  15  18
ENDBRANCH  10  11
BRANCH   9  25
ATOM     25  C   UNL A   1      30.649  26.629  23.754  1.00  0.00     0.121 A 
ATOM     26  N   UNL A   1      29.347  26.816  23.901  1.00  0.00    -0.236 NA
ATOM     27  S   UNL A   1      31.401  27.855  22.757  1.00  0.00    -0.114 S 
ATOM     28  C   UNL A   1      28.909  27.945  23.198  1.00  0.00     0.082 A 
ATOM     29  C   UNL A   1      29.901  28.662  22.537  1.00  0.00     0.055 A 
ATOM     30  C   UNL A   1      27.586  28.432  23.129  1.00  0.00     0.030 A 
ATOM     31  C   UNL A   1      29.623  29.854  21.838  1.00  0.00     0.021 A 
ATOM     32  C   UNL A   1      27.312  29.665  22.524  1.00  0.00     0.002 A 
ATOM     33  C   UNL A   1      28.323  30.367  21.882  1.00  0.00     0.002 A 
ENDBRANCH   9  25
ENDBRANCH   8   9
ENDBRANCH   6   8
ENDBRANCH   5   6
ENDBRANCH   4   5
ENDBRANCH   3   4
ENDBRANCH   2   3
ENDBRANCH   1   2
BRANCH   1  34
ATOM     34  C   UNL A   1      38.987  22.097  26.108  1.00  0.00     0.188 C 
BRANCH  34  35
ATOM     35  O   UNL A   1      39.881  22.191  27.206  1.00  0.00    -0.376 OA
BRANCH  35  36
ATOM     36  C   UNL A   1      40.469  23.464  27.410  1.00  0.00     0.202 C 
BRANCH  36  37
ATOM     37  C   UNL A   1      41.621  23.719  26.439  1.00  0.00     0.261 C 
BRANCH  37  38
ATOM     38  O   UNL A   1      42.495  24.770  26.849  1.00  0.00    -0.460 OA
BRANCH  38  39
ATOM     39  C   UNL A   1      42.212  25.945  26.264  1.00  0.00     0.338 C 
ATOM     40  O   UNL A   1      41.388  26.162  25.392  1.00  0.00    -0.246 OA
BRANCH  39  41
ATOM     41  C   UNL A   1      43.121  26.971  26.794  1.00  0.00     0.060 A 
ATOM     42  C   UNL A   1      43.357  26.874  28.165  1.00  0.00     0.016 A 
ATOM     43  C   UNL A   1      42.961  28.191  26.148  1.00  0.00     0.016 A 
ATOM     44  C   UNL A   1      42.948  27.924  28.948  1.00  0.00     0.010 A 
ATOM     45  C   UNL A   1      42.575  29.248  26.927  1.00  0.00     0.010 A 
ATOM     46  C   UNL A   1      42.424  29.046  28.305  1.00  0.00    -0.014 A 
BRANCH  46  47
ATOM     47  C   UNL A   1      41.769  30.064  29.109  1.00  0.00     0.031 A 
ATOM     48  C   UNL A   1      42.553  31.316  29.245  1.00  0.00     0.074 A 
ATOM     49  C   UNL A   1      40.483  29.891  29.479  1.00  0.00     0.049 A 
ATOM     50  N   UNL A   1      42.676  32.085  30.277  1.00  0.00    -0.248 NA
ATOM     51  C   UNL A   1      43.397  31.707  28.097  1.00  0.00     0.031 C 
ATOM     52  C   UNL A   1      39.626  28.734  29.186  1.00  0.00     0.029 A 
ATOM     53  N   UNL A   1      39.605  30.798  29.995  1.00  0.00    -0.354 N 
ATOM     54  C   UNL A   1      43.468  33.146  29.849  1.00  0.00     0.074 A 
ATOM     55  C   UNL A   1      44.010  32.786  28.568  1.00  0.00     0.031 C 
ATOM     56  C   UNL A   1      38.335  29.125  29.227  1.00  0.00     0.029 A 
ATOM     57  C   UNL A   1      38.287  30.518  29.634  1.00  0.00     0.049 A 
ATOM     58  H   UNL A   1      39.870  31.561  30.558  1.00  0.00     0.167 HD
ATOM     59  C   UNL A   1      43.412  34.369  30.434  1.00  0.00     0.031 A 
ATOM     60  C   UNL A   1      37.261  31.400  29.536  1.00  0.00     0.031 A 
ATOM     61  C   UNL A   1      42.924  34.315  31.781  1.00  0.00     0.049 A 
ATOM     62  C   UNL A   1      37.657  32.643  30.233  1.00  0.00     0.074 A 
ATOM     63  C   UNL A   1      43.340  33.671  32.929  1.00  0.00     0.029 A 
ATOM     64  N   UNL A   1      41.634  34.721  32.017  1.00  0.00    -0.354 N 
ATOM     65  N   UNL A   1      37.772  32.744  31.525  1.00  0.00    -0.248 NA
ATOM     66  C   UNL A   1      38.342  33.674  29.466  1.00  0.00     0.031 C 
ATOM     67  C   UNL A   1      42.142  33.318  33.611  1.00  0.00     0.029 A 
ATOM     68  C   UNL A   1      41.068  33.802  32.862  1.00  0.00     0.049 A 
ATOM     69  H   UNL A   1      41.197  35.523  31.649  1.00  0.00     0.167 HD
ATOM     70  C   UNL A   1      38.882  33.554  31.715  1.00  0.00     0.074 A 
ATOM     71  C   UNL A   1      39.115  34.193  30.424  1.00  0.00     0.031 C 
ATOM     72  C   UNL A   1      39.682  33.401  32.811  1.00  0.00     0.031 A 
BRANCH  59  73
ATOM     73  C   UNL A   1      43.418  35.628  29.609  1.00  0.00    -0.014 A 
ATOM     74  C   UNL A   1      44.265  36.683  29.975  1.00  0.00     0.009 A 
ATOM     75  C   UNL A   1      42.422  35.910  28.649  1.00  0.00     0.009 A 
ATOM     76  C   UNL A   1      44.089  37.966  29.441  1.00  0.00     0.001 A 
ATOM     77  C   UNL A   1      42.274  37.176  28.080  1.00  0.00     0.001 A 
ATOM     78  C   UNL A   1      43.093  38.211  28.498  1.00  0.00     0.000 A 
ENDBRANCH  59  73
BRANCH  60  79
ATOM     79  C   UNL A   1      36.078  31.340  28.645  1.00  0.00    -0.014 A 
ATOM     80  C   UNL A   1      35.668  30.120  28.084  1.00  0.00     0.009 A 
ATOM     81  C   UNL A   1      35.207  32.439  28.514  1.00  0.00     0.009 A 
ATOM     82  C   UNL A   1      34.429  30.002  27.439  1.00  0.00     0.001 A 
ATOM     83  C   UNL A   1      33.978  32.326  27.858  1.00  0.00     0.001 A 
ATOM     84  C   UNL A   1      33.582  31.103  27.331  1.00  0.00     0.000 A 
ENDBRANCH  60  79
BRANCH  72  85
ATOM     85  C   UNL A   1      39.203  32.495  33.919  1.00  0.00    -0.014 A 
ATOM     86  C   UNL A   1      39.455  31.111  33.931  1.00  0.00     0.009 A 
ATOM     87  C   UNL A   1      38.621  33.072  35.055  1.00  0.00     0.009 A 
ATOM     88  C   UNL A   1      39.100  30.324  35.031  1.00  0.00     0.001 A 
ATOM     89  C   UNL A   1      38.289  32.291  36.165  1.00  0.00     0.001 A 
ATOM     90  C   UNL A   1      38.521  30.917  36.149  1.00  0.00     0.000 A 
ENDBRANCH  72  85
ENDBRANCH  46  47
ENDBRANCH  39  41
ENDBRANCH  38  39
ENDBRANCH  37  38
ENDBRANCH  36  37
ENDBRANCH  35  36
ENDBRANCH  34  35
ENDBRANCH   1  34
TORSDOF 21
ENDMDL
