MODEL 1
REMARK VINA RESULT:     -10.1      0.000      0.000
REMARK SMILES Cc1ccc(S(=O)(=O)Nc2cc(C(=O)OCCOCCOCCOC(=O)c3ccc(-c4c5nc(c(-c6ccccc6)c6ccc([nH]6)c(-c6ccccc6)c6nc(c(-c7ccccc7)c7ccc4[nH]7)C=C6)C=C5)cc3)cnc2N2CCCC2)c(C)c1
REMARK SMILES IDX 19 1 18 2 17 3 16 4 15 5 13 6 14 7 12 8 10 9 11 10 77 11
REMARK SMILES IDX 76 12 75 13 9 14 6 16 7 17 8 18 5 19 1 20 2 21 3 22 85 23
REMARK SMILES IDX 4 24 83 25 84 26 78 27 79 28 82 29 80 30 81 31 20 32 21 33
REMARK SMILES IDX 22 34 23 35 24 36 25 37 26 38 27 39 28 40 74 41 29 42 73 43
REMARK SMILES IDX 30 44 31 45 32 46 67 47 33 48 72 49 66 50 68 51 34 52 71 53
REMARK SMILES IDX 65 54 64 55 35 57 57 58 42 59 56 60 43 61 46 62 55 63 69 64
REMARK SMILES IDX 44 65 45 66 54 68 70 69 47 70 36 71 37 72 41 73 38 74 40 75
REMARK SMILES IDX 39 76 58 77 59 78 63 79 60 80 62 81 61 82 48 83 49 84 53 85
REMARK SMILES IDX 50 86 52 87 51 88
REMARK H PARENT 9 15 68 56 46 67
REMARK Flexibility Score: inf
ROOT
ATOM      1  C   UNL A   1      39.453  22.672  26.186  1.00  0.00     0.188 C 
ENDROOT
BRANCH   1   2
ATOM      2  O   UNL A   1      38.212  22.002  26.072  1.00  0.00    -0.376 OA
BRANCH   2   3
ATOM      3  C   UNL A   1      37.820  21.381  24.859  1.00  0.00     0.202 C 
BRANCH   3   4
ATOM      4  C   UNL A   1      36.751  20.283  24.811  1.00  0.00     0.261 C 
BRANCH   4   5
ATOM      5  O   UNL A   1      35.614  20.511  25.649  1.00  0.00    -0.460 OA
BRANCH   5   6
ATOM      6  C   UNL A   1      34.488  20.915  25.015  1.00  0.00     0.339 C 
ATOM      7  O   UNL A   1      33.702  20.218  24.396  1.00  0.00    -0.246 OA
BRANCH   6   8
ATOM      8  C   UNL A   1      34.256  22.350  25.252  1.00  0.00     0.080 A 
ATOM      9  C   UNL A   1      33.991  24.575  24.461  1.00  0.00     0.092 A 
ATOM     10  C   UNL A   1      34.532  23.309  24.287  1.00  0.00     0.048 A 
ATOM     11  C   UNL A   1      33.385  24.928  25.692  1.00  0.00     0.153 A 
ATOM     12  N   UNL A   1      33.257  24.029  26.691  1.00  0.00    -0.236 NA
ATOM     13  C   UNL A   1      33.646  22.753  26.433  1.00  0.00     0.129 A 
BRANCH   9  14
ATOM     14  N   UNL A   1      34.030  25.514  23.381  1.00  0.00    -0.276 N 
ATOM     15  H   UNL A   1      34.831  26.075  23.263  1.00  0.00     0.180 HD
BRANCH  14  16
ATOM     16  S   UNL A   1      32.729  25.690  22.293  1.00  0.00     0.262 S 
ATOM     17  O   UNL A   1      32.019  24.432  22.431  1.00  0.00    -0.201 OA
ATOM     18  O   UNL A   1      33.296  26.068  21.017  1.00  0.00    -0.201 OA
BRANCH  16  19
ATOM     19  C   UNL A   1      31.597  27.010  22.752  1.00  0.00     0.090 A 
ATOM     20  C   UNL A   1      28.636  30.140  22.624  1.00  0.00     0.044 C 
ATOM     21  C   UNL A   1      29.667  29.060  22.769  1.00  0.00    -0.051 A 
ATOM     22  C   UNL A   1      29.304  27.749  23.075  1.00  0.00     0.005 A 
ATOM     23  C   UNL A   1      31.027  29.364  22.680  1.00  0.00     0.008 A 
ATOM     24  C   UNL A   1      30.270  26.734  23.102  1.00  0.00     0.023 A 
ATOM     25  C   UNL A   1      32.008  28.353  22.711  1.00  0.00    -0.030 A 
ATOM     26  C   UNL A   1      33.436  28.803  22.862  1.00  0.00     0.046 C 
ENDBRANCH  16  19
ENDBRANCH  14  16
ENDBRANCH   9  14
BRANCH  11  27
ATOM     27  N   UNL A   1      32.896  26.210  25.855  1.00  0.00    -0.355 N 
ATOM     28  C   UNL A   1      31.603  26.391  26.496  1.00  0.00     0.118 C 
ATOM     29  C   UNL A   1      33.781  27.290  26.288  1.00  0.00     0.118 C 
ATOM     30  C   UNL A   1      31.419  27.891  26.337  1.00  0.00     0.023 C 
ATOM     31  C   UNL A   1      32.813  28.437  26.638  1.00  0.00     0.023 C 
ENDBRANCH  11  27
ENDBRANCH   6   8
ENDBRANCH   5   6
ENDBRANCH   4   5
ENDBRANCH   3   4
ENDBRANCH   2   3
ENDBRANCH   1   2
BRANCH   1  32
ATOM     32  C   UNL A   1      40.769  21.884  26.356  1.00  0.00     0.188 C 
BRANCH  32  33
ATOM     33  O   UNL A   1      41.991  22.574  26.317  1.00  0.00    -0.376 OA
BRANCH  33  34
ATOM     34  C   UNL A   1      42.955  22.240  25.337  1.00  0.00     0.202 C 
BRANCH  34  35
ATOM     35  C   UNL A   1      43.849  23.249  24.583  1.00  0.00     0.261 C 
BRANCH  35  36
ATOM     36  O   UNL A   1      43.607  24.649  24.772  1.00  0.00    -0.460 OA
BRANCH  36  37
ATOM     37  C   UNL A   1      44.604  25.357  25.364  1.00  0.00     0.338 C 
ATOM     38  O   UNL A   1      45.710  25.601  24.908  1.00  0.00    -0.246 OA
BRANCH  37  39
ATOM     39  C   UNL A   1      44.076  25.979  26.596  1.00  0.00     0.060 A 
ATOM     40  C   UNL A   1      43.446  25.174  27.558  1.00  0.00     0.016 A 
ATOM     41  C   UNL A   1      44.213  27.350  26.806  1.00  0.00     0.016 A 
ATOM     42  C   UNL A   1      42.972  25.736  28.745  1.00  0.00     0.010 A 
ATOM     43  C   UNL A   1      43.706  27.916  27.980  1.00  0.00     0.010 A 
ATOM     44  C   UNL A   1      43.077  27.116  28.953  1.00  0.00    -0.014 A 
BRANCH  44  45
ATOM     45  C   UNL A   1      42.446  27.761  30.130  1.00  0.00     0.031 A 
ATOM     46  C   UNL A   1      41.137  28.475  29.956  1.00  0.00     0.074 A 
ATOM     47  C   UNL A   1      43.055  27.761  31.329  1.00  0.00     0.049 A 
ATOM     48  N   UNL A   1      40.482  29.226  30.804  1.00  0.00    -0.248 NA
ATOM     49  C   UNL A   1      40.485  28.328  28.646  1.00  0.00     0.031 C 
ATOM     50  C   UNL A   1      44.304  27.071  31.644  1.00  0.00     0.029 A 
ATOM     51  N   UNL A   1      42.712  28.394  32.499  1.00  0.00    -0.354 N 
ATOM     52  C   UNL A   1      39.352  29.662  30.123  1.00  0.00     0.074 A 
ATOM     53  C   UNL A   1      39.420  29.101  28.790  1.00  0.00     0.031 C 
ATOM     54  C   UNL A   1      44.641  27.346  32.916  1.00  0.00     0.029 A 
ATOM     55  C   UNL A   1      43.658  28.266  33.486  1.00  0.00     0.049 A 
ATOM     56  H   UNL A   1      41.871  28.890  32.618  1.00  0.00     0.167 HD
ATOM     57  C   UNL A   1      38.355  30.466  30.565  1.00  0.00     0.031 A 
ATOM     58  C   UNL A   1      43.749  28.860  34.694  1.00  0.00     0.031 A 
ATOM     59  C   UNL A   1      38.303  31.042  31.883  1.00  0.00     0.049 A 
ATOM     60  C   UNL A   1      42.676  29.821  35.134  1.00  0.00     0.074 A 
ATOM     61  C   UNL A   1      37.314  31.836  32.437  1.00  0.00     0.029 A 
ATOM     62  N   UNL A   1      39.293  30.908  32.844  1.00  0.00    -0.354 N 
ATOM     63  N   UNL A   1      41.587  30.191  34.503  1.00  0.00    -0.248 NA
ATOM     64  C   UNL A   1      42.846  30.449  36.453  1.00  0.00     0.031 C 
ATOM     65  C   UNL A   1      37.742  32.248  33.703  1.00  0.00     0.029 A 
ATOM     66  C   UNL A   1      38.963  31.649  33.968  1.00  0.00     0.049 A 
ATOM     67  H   UNL A   1      40.109  30.368  32.744  1.00  0.00     0.167 HD
ATOM     68  C   UNL A   1      40.937  31.079  35.351  1.00  0.00     0.074 A 
ATOM     69  C   UNL A   1      41.741  31.176  36.552  1.00  0.00     0.031 C 
ATOM     70  C   UNL A   1      39.778  31.755  35.152  1.00  0.00     0.031 A 
BRANCH  57  71
ATOM     71  C   UNL A   1      37.268  30.819  29.588  1.00  0.00    -0.014 A 
ATOM     72  C   UNL A   1      36.256  29.908  29.246  1.00  0.00     0.009 A 
ATOM     73  C   UNL A   1      37.250  32.100  29.012  1.00  0.00     0.009 A 
ATOM     74  C   UNL A   1      35.274  30.260  28.317  1.00  0.00     0.001 A 
ATOM     75  C   UNL A   1      36.248  32.459  28.109  1.00  0.00     0.001 A 
ATOM     76  C   UNL A   1      35.268  31.536  27.753  1.00  0.00     0.000 A 
ENDBRANCH  57  71
BRANCH  58  77
ATOM     77  C   UNL A   1      44.936  28.604  35.553  1.00  0.00    -0.014 A 
ATOM     78  C   UNL A   1      44.973  27.503  36.421  1.00  0.00     0.009 A 
ATOM     79  C   UNL A   1      46.045  29.467  35.504  1.00  0.00     0.009 A 
ATOM     80  C   UNL A   1      46.090  27.279  37.231  1.00  0.00     0.001 A 
ATOM     81  C   UNL A   1      47.171  29.222  36.292  1.00  0.00     0.001 A 
ATOM     82  C   UNL A   1      47.190  28.132  37.160  1.00  0.00     0.000 A 
ENDBRANCH  58  77
BRANCH  70  83
ATOM     83  C   UNL A   1      39.297  32.654  36.260  1.00  0.00    -0.014 A 
ATOM     84  C   UNL A   1      38.418  32.185  37.248  1.00  0.00     0.009 A 
ATOM     85  C   UNL A   1      39.778  33.970  36.350  1.00  0.00     0.009 A 
ATOM     86  C   UNL A   1      38.010  33.024  38.289  1.00  0.00     0.001 A 
ATOM     87  C   UNL A   1      39.394  34.796  37.408  1.00  0.00     0.001 A 
ATOM     88  C   UNL A   1      38.504  34.325  38.372  1.00  0.00     0.000 A 
ENDBRANCH  70  83
ENDBRANCH  44  45
ENDBRANCH  37  39
ENDBRANCH  36  37
ENDBRANCH  35  36
ENDBRANCH  34  35
ENDBRANCH  33  34
ENDBRANCH  32  33
ENDBRANCH   1  32
TORSDOF 21
ENDMDL
MODEL 2
REMARK VINA RESULT:      -9.9      1.624      2.573
REMARK SMILES Cc1ccc(S(=O)(=O)Nc2cc(C(=O)OCCOCCOCCOC(=O)c3ccc(-c4c5nc(c(-c6ccccc6)c6ccc([nH]6)c(-c6ccccc6)c6nc(c(-c7ccccc7)c7ccc4[nH]7)C=C6)C=C5)cc3)cnc2N2CCCC2)c(C)c1
REMARK SMILES IDX 19 1 18 2 17 3 16 4 15 5 13 6 14 7 12 8 10 9 11 10 77 11
REMARK SMILES IDX 76 12 75 13 9 14 6 16 7 17 8 18 5 19 1 20 2 21 3 22 85 23
REMARK SMILES IDX 4 24 83 25 84 26 78 27 79 28 82 29 80 30 81 31 20 32 21 33
REMARK SMILES IDX 22 34 23 35 24 36 25 37 26 38 27 39 28 40 74 41 29 42 73 43
REMARK SMILES IDX 30 44 31 45 32 46 67 47 33 48 72 49 66 50 68 51 34 52 71 53
REMARK SMILES IDX 65 54 64 55 35 57 57 58 42 59 56 60 43 61 46 62 55 63 69 64
REMARK SMILES IDX 44 65 45 66 54 68 70 69 47 70 36 71 37 72 41 73 38 74 40 75
REMARK SMILES IDX 39 76 58 77 59 78 63 79 60 80 62 81 61 82 48 83 49 84 53 85
REMARK SMILES IDX 50 86 52 87 51 88
REMARK H PARENT 9 15 68 56 46 67
REMARK Flexibility Score: inf
ROOT
ATOM      1  C   UNL A   1      42.328  21.412  26.944  1.00  0.00     0.188 C 
ENDROOT
BRANCH   1   2
ATOM      2  O   UNL A   1      41.123  22.109  26.690  1.00  0.00    -0.376 OA
BRANCH   2   3
ATOM      3  C   UNL A   1      39.904  21.416  26.481  1.00  0.00     0.202 C 
BRANCH   3   4
ATOM      4  C   UNL A   1      38.796  21.967  25.575  1.00  0.00     0.261 C 
BRANCH   4   5
ATOM      5  O   UNL A   1      37.464  21.658  25.993  1.00  0.00    -0.460 OA
BRANCH   5   6
ATOM      6  C   UNL A   1      36.727  20.933  25.118  1.00  0.00     0.339 C 
ATOM      7  O   UNL A   1      36.767  19.727  24.944  1.00  0.00    -0.246 OA
BRANCH   6   8
ATOM      8  C   UNL A   1      35.752  21.799  24.432  1.00  0.00     0.080 A 
ATOM      9  C   UNL A   1      33.696  22.989  24.385  1.00  0.00     0.092 A 
ATOM     10  C   UNL A   1      34.443  21.928  24.876  1.00  0.00     0.048 A 
ATOM     11  C   UNL A   1      34.180  23.759  23.298  1.00  0.00     0.153 A 
ATOM     12  N   UNL A   1      35.398  23.526  22.765  1.00  0.00    -0.236 NA
ATOM     13  C   UNL A   1      36.175  22.591  23.373  1.00  0.00     0.129 A 
BRANCH   9  14
ATOM     14  N   UNL A   1      32.443  23.314  24.997  1.00  0.00    -0.276 N 
ATOM     15  H   UNL A   1      31.611  22.975  24.594  1.00  0.00     0.180 HD
BRANCH  14  16
ATOM     16  S   UNL A   1      32.351  24.272  26.405  1.00  0.00     0.262 S 
ATOM     17  O   UNL A   1      33.594  23.966  27.087  1.00  0.00    -0.201 OA
ATOM     18  O   UNL A   1      31.083  23.971  27.035  1.00  0.00    -0.201 OA
BRANCH  16  19
ATOM     19  C   UNL A   1      32.335  26.037  26.059  1.00  0.00     0.090 A 
ATOM     20  C   UNL A   1      31.911  30.311  26.422  1.00  0.00     0.044 C 
ATOM     21  C   UNL A   1      32.097  28.838  26.204  1.00  0.00    -0.051 A 
ATOM     22  C   UNL A   1      33.329  28.224  26.425  1.00  0.00     0.005 A 
ATOM     23  C   UNL A   1      31.055  28.061  25.694  1.00  0.00     0.008 A 
ATOM     24  C   UNL A   1      33.457  26.833  26.318  1.00  0.00     0.023 A 
ATOM     25  C   UNL A   1      31.173  26.662  25.576  1.00  0.00    -0.030 A 
ATOM     26  C   UNL A   1      30.101  25.959  24.788  1.00  0.00     0.046 C 
ENDBRANCH  16  19
ENDBRANCH  14  16
ENDBRANCH   9  14
BRANCH  11  27
ATOM     27  N   UNL A   1      33.395  24.780  22.798  1.00  0.00    -0.355 N 
ATOM     28  C   UNL A   1      33.922  26.136  22.802  1.00  0.00     0.118 C 
ATOM     29  C   UNL A   1      32.626  24.588  21.570  1.00  0.00     0.118 C 
ATOM     30  C   UNL A   1      32.709  26.909  22.311  1.00  0.00     0.023 C 
ATOM     31  C   UNL A   1      32.161  26.011  21.203  1.00  0.00     0.023 C 
ENDBRANCH  11  27
ENDBRANCH   6   8
ENDBRANCH   5   6
ENDBRANCH   4   5
ENDBRANCH   3   4
ENDBRANCH   2   3
ENDBRANCH   1   2
BRANCH   1  32
ATOM     32  C   UNL A   1      43.293  21.045  25.797  1.00  0.00     0.188 C 
BRANCH  32  33
ATOM     33  O   UNL A   1      44.582  21.598  25.782  1.00  0.00    -0.376 OA
BRANCH  33  34
ATOM     34  C   UNL A   1      44.863  22.747  26.561  1.00  0.00     0.202 C 
BRANCH  34  35
ATOM     35  C   UNL A   1      45.759  23.926  26.123  1.00  0.00     0.261 C 
BRANCH  35  36
ATOM     36  O   UNL A   1      45.137  25.073  25.528  1.00  0.00    -0.460 OA
BRANCH  36  37
ATOM     37  C   UNL A   1      43.782  25.043  25.438  1.00  0.00     0.338 C 
ATOM     38  O   UNL A   1      43.106  24.378  24.669  1.00  0.00    -0.246 OA
BRANCH  37  39
ATOM     39  C   UNL A   1      43.216  25.804  26.571  1.00  0.00     0.060 A 
ATOM     40  C   UNL A   1      43.670  27.108  26.820  1.00  0.00     0.016 A 
ATOM     41  C   UNL A   1      42.231  25.236  27.378  1.00  0.00     0.016 A 
ATOM     42  C   UNL A   1      43.123  27.858  27.864  1.00  0.00     0.010 A 
ATOM     43  C   UNL A   1      41.710  25.976  28.444  1.00  0.00     0.010 A 
ATOM     44  C   UNL A   1      42.155  27.287  28.698  1.00  0.00    -0.014 A 
BRANCH  44  45
ATOM     45  C   UNL A   1      41.670  28.001  29.904  1.00  0.00     0.031 A 
ATOM     46  C   UNL A   1      40.461  28.883  29.794  1.00  0.00     0.074 A 
ATOM     47  C   UNL A   1      42.330  27.911  31.073  1.00  0.00     0.049 A 
ATOM     48  N   UNL A   1      39.951  29.707  30.672  1.00  0.00    -0.248 NA
ATOM     49  C   UNL A   1      39.734  28.832  28.516  1.00  0.00     0.031 C 
ATOM     50  C   UNL A   1      43.490  27.061  31.327  1.00  0.00     0.029 A 
ATOM     51  N   UNL A   1      42.129  28.576  32.259  1.00  0.00    -0.354 N 
ATOM     52  C   UNL A   1      38.858  30.293  30.047  1.00  0.00     0.074 A 
ATOM     53  C   UNL A   1      38.788  29.738  28.712  1.00  0.00     0.031 C 
ATOM     54  C   UNL A   1      43.921  27.280  32.582  1.00  0.00     0.029 A 
ATOM     55  C   UNL A   1      43.096  28.317  33.199  1.00  0.00     0.049 A 
ATOM     56  H   UNL A   1      41.367  29.178  32.418  1.00  0.00     0.167 HD
ATOM     57  C   UNL A   1      37.997  31.217  30.537  1.00  0.00     0.031 A 
ATOM     58  C   UNL A   1      43.321  28.885  34.401  1.00  0.00     0.031 A 
ATOM     59  C   UNL A   1      38.084  31.786  31.856  1.00  0.00     0.049 A 
ATOM     60  C   UNL A   1      42.406  29.976  34.894  1.00  0.00     0.074 A 
ATOM     61  C   UNL A   1      37.235  32.699  32.458  1.00  0.00     0.029 A 
ATOM     62  N   UNL A   1      39.092  31.516  32.770  1.00  0.00    -0.354 N 
ATOM     63  N   UNL A   1      41.347  30.491  34.316  1.00  0.00    -0.248 NA
ATOM     64  C   UNL A   1      42.720  30.566  36.203  1.00  0.00     0.031 C 
ATOM     65  C   UNL A   1      37.773  33.041  33.703  1.00  0.00     0.029 A 
ATOM     66  C   UNL A   1      38.916  32.285  33.908  1.00  0.00     0.049 A 
ATOM     67  H   UNL A   1      39.824  30.873  32.630  1.00  0.00     0.167 HD
ATOM     68  C   UNL A   1      40.861  31.450  35.195  1.00  0.00     0.074 A 
ATOM     69  C   UNL A   1      41.727  31.432  36.357  1.00  0.00     0.031 C 
ATOM     70  C   UNL A   1      39.793  32.274  35.052  1.00  0.00     0.031 A 
BRANCH  57  71
ATOM     71  C   UNL A   1      36.922  31.718  29.613  1.00  0.00    -0.014 A 
ATOM     72  C   UNL A   1      35.750  30.982  29.375  1.00  0.00     0.009 A 
ATOM     73  C   UNL A   1      37.080  32.963  28.983  1.00  0.00     0.009 A 
ATOM     74  C   UNL A   1      34.780  31.465  28.493  1.00  0.00     0.001 A 
ATOM     75  C   UNL A   1      36.094  33.458  28.129  1.00  0.00     0.001 A 
ATOM     76  C   UNL A   1      34.951  32.703  27.874  1.00  0.00     0.000 A 
ENDBRANCH  57  71
BRANCH  58  77
ATOM     77  C   UNL A   1      44.503  28.468  35.202  1.00  0.00    -0.014 A 
ATOM     78  C   UNL A   1      44.379  27.526  36.234  1.00  0.00     0.009 A 
ATOM     79  C   UNL A   1      45.769  29.017  34.934  1.00  0.00     0.009 A 
ATOM     80  C   UNL A   1      45.495  27.150  36.987  1.00  0.00     0.001 A 
ATOM     81  C   UNL A   1      46.888  28.616  35.667  1.00  0.00     0.001 A 
ATOM     82  C   UNL A   1      46.749  27.689  36.698  1.00  0.00     0.000 A 
ENDBRANCH  58  77
BRANCH  70  83
ATOM     83  C   UNL A   1      39.487  33.220  36.183  1.00  0.00    -0.014 A 
ATOM     84  C   UNL A   1      38.733  32.810  37.292  1.00  0.00     0.009 A 
ATOM     85  C   UNL A   1      40.013  34.522  36.166  1.00  0.00     0.009 A 
ATOM     86  C   UNL A   1      38.489  33.692  38.349  1.00  0.00     0.001 A 
ATOM     87  C   UNL A   1      39.796  35.391  37.236  1.00  0.00     0.001 A 
ATOM     88  C   UNL A   1      39.027  34.978  38.323  1.00  0.00     0.000 A 
ENDBRANCH  70  83
ENDBRANCH  44  45
ENDBRANCH  37  39
ENDBRANCH  36  37
ENDBRANCH  35  36
ENDBRANCH  34  35
ENDBRANCH  33  34
ENDBRANCH  32  33
ENDBRANCH   1  32
TORSDOF 21
ENDMDL
MODEL 3
REMARK VINA RESULT:      -9.7      3.084      6.670
REMARK SMILES Cc1ccc(S(=O)(=O)Nc2cc(C(=O)OCCOCCOCCOC(=O)c3ccc(-c4c5nc(c(-c6ccccc6)c6ccc([nH]6)c(-c6ccccc6)c6nc(c(-c7ccccc7)c7ccc4[nH]7)C=C6)C=C5)cc3)cnc2N2CCCC2)c(C)c1
REMARK SMILES IDX 19 1 18 2 17 3 16 4 15 5 13 6 14 7 12 8 10 9 11 10 77 11
REMARK SMILES IDX 76 12 75 13 9 14 6 16 7 17 8 18 5 19 1 20 2 21 3 22 85 23
REMARK SMILES IDX 4 24 83 25 84 26 78 27 79 28 82 29 80 30 81 31 20 32 21 33
REMARK SMILES IDX 22 34 23 35 24 36 25 37 26 38 27 39 28 40 74 41 29 42 73 43
REMARK SMILES IDX 30 44 31 45 32 46 67 47 33 48 72 49 66 50 68 51 34 52 71 53
REMARK SMILES IDX 65 54 64 55 35 57 57 58 42 59 56 60 43 61 46 62 55 63 69 64
REMARK SMILES IDX 44 65 45 66 54 68 70 69 47 70 36 71 37 72 41 73 38 74 40 75
REMARK SMILES IDX 39 76 58 77 59 78 63 79 60 80 62 81 61 82 48 83 49 84 53 85
REMARK SMILES IDX 50 86 52 87 51 88
REMARK H PARENT 9 15 68 56 46 67
REMARK Flexibility Score: inf
ROOT
ATOM      1  C   UNL A   1      42.145  19.834  25.967  1.00  0.00     0.188 C 
ENDROOT
BRANCH   1   2
ATOM      2  O   UNL A   1      40.755  20.044  26.125  1.00  0.00    -0.376 OA
BRANCH   2   3
ATOM      3  C   UNL A   1      40.200  21.348  26.087  1.00  0.00     0.202 C 
BRANCH   3   4
ATOM      4  C   UNL A   1      38.689  21.596  26.175  1.00  0.00     0.261 C 
BRANCH   4   5
ATOM      5  O   UNL A   1      38.033  21.783  24.917  1.00  0.00    -0.460 OA
BRANCH   5   6
ATOM      6  C   UNL A   1      36.912  21.049  24.724  1.00  0.00     0.339 C 
ATOM      7  O   UNL A   1      36.745  19.873  25.002  1.00  0.00    -0.246 OA
BRANCH   6   8
ATOM      8  C   UNL A   1      35.828  21.901  24.204  1.00  0.00     0.080 A 
ATOM      9  C   UNL A   1      33.696  22.927  24.428  1.00  0.00     0.092 A 
ATOM     10  C   UNL A   1      34.552  21.883  24.752  1.00  0.00     0.048 A 
ATOM     11  C   UNL A   1      34.039  23.836  23.396  1.00  0.00     0.153 A 
ATOM     12  N   UNL A   1      35.225  23.752  22.757  1.00  0.00    -0.236 NA
ATOM     13  C   UNL A   1      36.110  22.824  23.206  1.00  0.00     0.129 A 
BRANCH   9  14
ATOM     14  N   UNL A   1      32.477  23.092  25.159  1.00  0.00    -0.276 N 
ATOM     15  H   UNL A   1      31.657  22.660  24.826  1.00  0.00     0.180 HD
BRANCH  14  16
ATOM     16  S   UNL A   1      32.402  24.017  26.590  1.00  0.00     0.262 S 
ATOM     17  O   UNL A   1      33.660  23.706  27.242  1.00  0.00    -0.201 OA
ATOM     18  O   UNL A   1      31.149  23.691  27.236  1.00  0.00    -0.201 OA
BRANCH  16  19
ATOM     19  C   UNL A   1      32.365  25.789  26.286  1.00  0.00     0.090 A 
ATOM     20  C   UNL A   1      32.115  30.062  26.798  1.00  0.00     0.044 C 
ATOM     21  C   UNL A   1      32.224  28.591  26.523  1.00  0.00    -0.051 A 
ATOM     22  C   UNL A   1      33.461  27.948  26.504  1.00  0.00     0.005 A 
ATOM     23  C   UNL A   1      31.088  27.846  26.196  1.00  0.00     0.008 A 
ATOM     24  C   UNL A   1      33.534  26.557  26.350  1.00  0.00     0.023 A 
ATOM     25  C   UNL A   1      31.150  26.448  26.034  1.00  0.00    -0.030 A 
ATOM     26  C   UNL A   1      29.937  25.783  25.441  1.00  0.00     0.046 C 
ENDBRANCH  16  19
ENDBRANCH  14  16
ENDBRANCH   9  14
BRANCH  11  27
ATOM     27  N   UNL A   1      33.148  24.838  23.063  1.00  0.00    -0.355 N 
ATOM     28  C   UNL A   1      33.655  26.184  22.849  1.00  0.00     0.118 C 
ATOM     29  C   UNL A   1      32.081  24.588  22.096  1.00  0.00     0.118 C 
ATOM     30  C   UNL A   1      32.355  26.945  22.652  1.00  0.00     0.023 C 
ATOM     31  C   UNL A   1      31.534  25.994  21.783  1.00  0.00     0.023 C 
ENDBRANCH  11  27
ENDBRANCH   6   8
ENDBRANCH   5   6
ENDBRANCH   4   5
ENDBRANCH   3   4
ENDBRANCH   2   3
ENDBRANCH   1   2
BRANCH   1  32
ATOM     32  C   UNL A   1      42.786  18.468  26.291  1.00  0.00     0.188 C 
BRANCH  32  33
ATOM     33  O   UNL A   1      44.013  18.129  25.701  1.00  0.00    -0.376 OA
BRANCH  33  34
ATOM     34  C   UNL A   1      44.575  18.974  24.714  1.00  0.00     0.202 C 
BRANCH  34  35
ATOM     35  C   UNL A   1      45.539  20.149  24.988  1.00  0.00     0.261 C 
BRANCH  35  36
ATOM     36  O   UNL A   1      45.016  21.331  25.607  1.00  0.00    -0.460 OA
BRANCH  36  37
ATOM     37  C   UNL A   1      44.557  22.297  24.768  1.00  0.00     0.338 C 
ATOM     38  O   UNL A   1      44.132  22.150  23.633  1.00  0.00    -0.246 OA
BRANCH  37  39
ATOM     39  C   UNL A   1      44.458  23.566  25.518  1.00  0.00     0.060 A 
ATOM     40  C   UNL A   1      44.176  23.533  26.893  1.00  0.00     0.016 A 
ATOM     41  C   UNL A   1      44.653  24.784  24.869  1.00  0.00     0.016 A 
ATOM     42  C   UNL A   1      44.113  24.720  27.627  1.00  0.00     0.010 A 
ATOM     43  C   UNL A   1      44.555  25.972  25.599  1.00  0.00     0.010 A 
ATOM     44  C   UNL A   1      44.279  25.949  26.980  1.00  0.00    -0.014 A 
BRANCH  44  45
ATOM     45  C   UNL A   1      44.064  27.227  27.701  1.00  0.00     0.031 A 
ATOM     46  C   UNL A   1      45.231  27.893  28.370  1.00  0.00     0.074 A 
ATOM     47  C   UNL A   1      42.834  27.761  27.810  1.00  0.00     0.049 A 
ATOM     48  N   UNL A   1      45.250  28.927  29.170  1.00  0.00    -0.248 NA
ATOM     49  C   UNL A   1      46.554  27.307  28.104  1.00  0.00     0.031 C 
ATOM     50  C   UNL A   1      41.626  27.241  27.176  1.00  0.00     0.029 A 
ATOM     51  N   UNL A   1      42.401  28.851  28.526  1.00  0.00    -0.354 N 
ATOM     52  C   UNL A   1      46.581  29.103  29.525  1.00  0.00     0.074 A 
ATOM     53  C   UNL A   1      47.336  28.060  28.862  1.00  0.00     0.031 C 
ATOM     54  C   UNL A   1      40.578  27.992  27.559  1.00  0.00     0.029 A 
ATOM     55  C   UNL A   1      41.037  29.014  28.498  1.00  0.00     0.049 A 
ATOM     56  H   UNL A   1      43.007  29.455  29.011  1.00  0.00     0.167 HD
ATOM     57  C   UNL A   1      47.125  30.041  30.338  1.00  0.00     0.031 A 
ATOM     58  C   UNL A   1      40.243  29.857  29.188  1.00  0.00     0.031 A 
ATOM     59  C   UNL A   1      46.369  31.061  31.015  1.00  0.00     0.049 A 
ATOM     60  C   UNL A   1      40.856  30.835  30.157  1.00  0.00     0.074 A 
ATOM     61  C   UNL A   1      46.835  32.080  31.828  1.00  0.00     0.029 A 
ATOM     62  N   UNL A   1      44.988  31.177  30.981  1.00  0.00    -0.354 N 
ATOM     63  N   UNL A   1      42.120  31.025  30.450  1.00  0.00    -0.248 NA
ATOM     64  C   UNL A   1      39.932  31.712  30.890  1.00  0.00     0.031 C 
ATOM     65  C   UNL A   1      45.730  32.763  32.349  1.00  0.00     0.029 A 
ATOM     66  C   UNL A   1      44.580  32.217  31.801  1.00  0.00     0.049 A 
ATOM     67  H   UNL A   1      44.386  30.605  30.453  1.00  0.00     0.167 HD
ATOM     68  C   UNL A   1      42.144  32.050  31.388  1.00  0.00     0.074 A 
ATOM     69  C   UNL A   1      40.770  32.458  31.598  1.00  0.00     0.031 C 
ATOM     70  C   UNL A   1      43.210  32.604  32.019  1.00  0.00     0.031 A 
BRANCH  57  71
ATOM     71  C   UNL A   1      48.605  29.964  30.588  1.00  0.00    -0.014 A 
ATOM     72  C   UNL A   1      49.528  30.653  29.784  1.00  0.00     0.009 A 
ATOM     73  C   UNL A   1      49.084  29.200  31.664  1.00  0.00     0.009 A 
ATOM     74  C   UNL A   1      50.899  30.542  30.029  1.00  0.00     0.001 A 
ATOM     75  C   UNL A   1      50.452  29.119  31.926  1.00  0.00     0.001 A 
ATOM     76  C   UNL A   1      51.359  29.779  31.101  1.00  0.00     0.000 A 
ENDBRANCH  57  71
BRANCH  58  77
ATOM     77  C   UNL A   1      38.766  29.774  29.028  1.00  0.00    -0.014 A 
ATOM     78  C   UNL A   1      37.966  29.190  30.021  1.00  0.00     0.009 A 
ATOM     79  C   UNL A   1      38.149  30.285  27.873  1.00  0.00     0.009 A 
ATOM     80  C   UNL A   1      36.580  29.108  29.854  1.00  0.00     0.001 A 
ATOM     81  C   UNL A   1      36.762  30.230  27.725  1.00  0.00     0.001 A 
ATOM     82  C   UNL A   1      35.979  29.635  28.712  1.00  0.00     0.000 A 
ENDBRANCH  58  77
BRANCH  70  83
ATOM     83  C   UNL A   1      42.940  33.722  32.992  1.00  0.00    -0.014 A 
ATOM     84  C   UNL A   1      42.942  35.063  32.579  1.00  0.00     0.009 A 
ATOM     85  C   UNL A   1      42.618  33.423  34.326  1.00  0.00     0.009 A 
ATOM     86  C   UNL A   1      42.654  36.084  33.489  1.00  0.00     0.001 A 
ATOM     87  C   UNL A   1      42.300  34.443  35.225  1.00  0.00     0.001 A 
ATOM     88  C   UNL A   1      42.327  35.773  34.808  1.00  0.00     0.000 A 
ENDBRANCH  70  83
ENDBRANCH  44  45
ENDBRANCH  37  39
ENDBRANCH  36  37
ENDBRANCH  35  36
ENDBRANCH  34  35
ENDBRANCH  33  34
ENDBRANCH  32  33
ENDBRANCH   1  32
TORSDOF 21
ENDMDL
