MODEL 1
REMARK VINA RESULT:      -9.2      0.000      0.000
REMARK SMILES CC[C@H](C)[C@H]([NH3+])C(=O)N1CC[C@@H](C(=O)OCCOCCOCCOC(=O)c2ccc(-c3c4nc(c(-c5ccccc5)c5ccc([nH]5)c(-c5ccccc5)c5nc(c(-c6ccccc6)c6ccc3[nH]6)C=C5)C=C4)cc2)[C@@H]1C
REMARK SMILES IDX 19 1 18 2 17 3 16 4 15 5 13 6 14 7 12 8 9 9 10 10 75 11
REMARK SMILES IDX 11 12 76 13 7 14 8 15 5 16 3 17 4 18 2 19 1 20 6 21 20 25
REMARK SMILES IDX 21 26 22 27 23 28 24 29 25 30 26 31 27 32 28 33 74 34 29 35
REMARK SMILES IDX 73 36 30 37 31 38 32 39 67 40 33 41 72 42 66 43 68 44 34 45
REMARK SMILES IDX 71 46 65 47 64 48 35 50 57 51 42 52 56 53 43 54 46 55 55 56
REMARK SMILES IDX 69 57 44 58 45 59 54 61 70 62 47 63 36 64 37 65 41 66 38 67
REMARK SMILES IDX 40 68 39 69 58 70 59 71 63 72 60 73 62 74 61 75 48 76 49 77
REMARK SMILES IDX 53 78 50 79 52 80 51 81
REMARK H PARENT 6 22 6 23 6 24 68 49 46 60
REMARK Flexibility Score: inf
ROOT
ATOM      1  C   UNL A   1      40.405  19.690  26.427  1.00  0.00     0.188 C 
ENDROOT
BRANCH   1   2
ATOM      2  O   UNL A   1      39.619  19.316  25.306  1.00  0.00    -0.376 OA
BRANCH   2   3
ATOM      3  C   UNL A   1      38.362  19.958  25.104  1.00  0.00     0.202 C 
BRANCH   3   4
ATOM      4  C   UNL A   1      38.225  21.459  25.428  1.00  0.00     0.261 C 
BRANCH   4   5
ATOM      5  O   UNL A   1      37.257  22.194  24.637  1.00  0.00    -0.463 OA
BRANCH   5   6
ATOM      6  C   UNL A   1      36.692  23.274  25.231  1.00  0.00     0.311 C 
ATOM      7  O   UNL A   1      37.309  24.053  25.953  1.00  0.00    -0.252 OA
BRANCH   6   8
ATOM      8  C   UNL A   1      35.210  23.505  24.945  1.00  0.00     0.123 C 
ATOM      9  N   UNL A   1      34.021  25.339  23.976  1.00  0.00    -0.334 N 
ATOM     10  C   UNL A   1      33.854  24.227  23.069  1.00  0.00     0.121 C 
ATOM     11  C   UNL A   1      34.517  24.854  25.260  1.00  0.00     0.096 C 
ATOM     12  C   UNL A   1      34.986  23.293  23.441  1.00  0.00     0.039 C 
ATOM     13  C   UNL A   1      33.315  24.620  26.201  1.00  0.00     0.032 C 
BRANCH   9  14
ATOM     14  C   UNL A   1      33.529  26.581  23.636  1.00  0.00     0.281 C 
ATOM     15  O   UNL A   1      33.190  26.803  22.465  1.00  0.00    -0.268 OA
BRANCH  14  16
ATOM     16  C   UNL A   1      33.552  27.775  24.631  1.00  0.00     0.273 C 
BRANCH  16  17
ATOM     17  C   UNL A   1      32.154  28.002  25.280  1.00  0.00     0.054 C 
ATOM     18  C   UNL A   1      32.234  27.864  26.807  1.00  0.00     0.014 C 
BRANCH  17  19
ATOM     19  C   UNL A   1      31.487  29.334  24.884  1.00  0.00     0.006 C 
ATOM     20  C   UNL A   1      31.656  30.467  25.884  1.00  0.00     0.004 C 
ENDBRANCH  17  19
ENDBRANCH  16  17
BRANCH  16  21
ATOM     21  N   UNL A   1      34.244  28.980  24.142  1.00  0.00    -0.347 N 
ATOM     22  H   UNL A   1      34.224  28.995  23.123  1.00  0.00     0.345 HD
ATOM     23  H   UNL A   1      35.213  28.970  24.463  1.00  0.00     0.345 HD
ATOM     24  H   UNL A   1      33.777  29.811  24.503  1.00  0.00     0.345 HD
ENDBRANCH  16  21
ENDBRANCH  14  16
ENDBRANCH   9  14
ENDBRANCH   6   8
ENDBRANCH   5   6
ENDBRANCH   4   5
ENDBRANCH   3   4
ENDBRANCH   2   3
ENDBRANCH   1   2
BRANCH   1  25
ATOM     25  C   UNL A   1      41.799  20.280  26.182  1.00  0.00     0.188 C 
BRANCH  25  26
ATOM     26  O   UNL A   1      42.672  19.479  25.427  1.00  0.00    -0.376 OA
BRANCH  26  27
ATOM     27  C   UNL A   1      44.070  19.586  25.625  1.00  0.00     0.202 C 
BRANCH  27  28
ATOM     28  C   UNL A   1      44.877  20.764  25.046  1.00  0.00     0.261 C 
BRANCH  28  29
ATOM     29  O   UNL A   1      44.629  22.069  25.593  1.00  0.00    -0.460 OA
BRANCH  29  30
ATOM     30  C   UNL A   1      43.889  22.923  24.848  1.00  0.00     0.338 C 
ATOM     31  O   UNL A   1      43.554  22.778  23.683  1.00  0.00    -0.246 OA
BRANCH  30  32
ATOM     32  C   UNL A   1      43.316  23.930  25.774  1.00  0.00     0.060 A 
ATOM     33  C   UNL A   1      43.841  25.232  25.768  1.00  0.00     0.016 A 
ATOM     34  C   UNL A   1      42.241  23.610  26.604  1.00  0.00     0.016 A 
ATOM     35  C   UNL A   1      43.298  26.215  26.598  1.00  0.00     0.010 A 
ATOM     36  C   UNL A   1      41.721  24.586  27.460  1.00  0.00     0.010 A 
ATOM     37  C   UNL A   1      42.261  25.885  27.479  1.00  0.00    -0.014 A 
BRANCH  37  38
ATOM     38  C   UNL A   1      41.883  26.825  28.563  1.00  0.00     0.031 A 
ATOM     39  C   UNL A   1      42.706  26.819  29.823  1.00  0.00     0.074 A 
ATOM     40  C   UNL A   1      40.845  27.671  28.443  1.00  0.00     0.049 A 
ATOM     41  N   UNL A   1      42.519  27.467  30.943  1.00  0.00    -0.248 NA
ATOM     42  C   UNL A   1      43.901  25.958  29.816  1.00  0.00     0.031 C 
ATOM     43  C   UNL A   1      40.005  27.826  27.257  1.00  0.00     0.029 A 
ATOM     44  N   UNL A   1      40.314  28.555  29.351  1.00  0.00    -0.354 N 
ATOM     45  C   UNL A   1      43.555  27.074  31.781  1.00  0.00     0.074 A 
ATOM     46  C   UNL A   1      44.357  26.118  31.048  1.00  0.00     0.031 C 
ATOM     47  C   UNL A   1      39.052  28.739  27.517  1.00  0.00     0.029 A 
ATOM     48  C   UNL A   1      39.187  29.198  28.898  1.00  0.00     0.049 A 
ATOM     49  H   UNL A   1      40.703  28.714  30.242  1.00  0.00     0.167 HD
ATOM     50  C   UNL A   1      43.816  27.469  33.049  1.00  0.00     0.031 A 
ATOM     51  C   UNL A   1      38.342  30.032  29.539  1.00  0.00     0.031 A 
ATOM     52  C   UNL A   1      43.015  28.414  33.781  1.00  0.00     0.049 A 
ATOM     53  C   UNL A   1      38.606  30.393  30.980  1.00  0.00     0.074 A 
ATOM     54  C   UNL A   1      43.210  28.891  35.065  1.00  0.00     0.029 A 
ATOM     55  N   UNL A   1      41.864  29.015  33.298  1.00  0.00    -0.354 N 
ATOM     56  N   UNL A   1      39.597  30.028  31.758  1.00  0.00    -0.248 NA
ATOM     57  C   UNL A   1      37.631  31.284  31.629  1.00  0.00     0.031 C 
ATOM     58  C   UNL A   1      42.138  29.730  35.384  1.00  0.00     0.029 A 
ATOM     59  C   UNL A   1      41.318  29.833  34.272  1.00  0.00     0.049 A 
ATOM     60  H   UNL A   1      41.492  28.880  32.397  1.00  0.00     0.167 HD
ATOM     61  C   UNL A   1      39.383  30.671  32.973  1.00  0.00     0.074 A 
ATOM     62  C   UNL A   1      38.178  31.459  32.824  1.00  0.00     0.031 C 
ATOM     63  C   UNL A   1      40.119  30.615  34.110  1.00  0.00     0.031 A 
BRANCH  50  64
ATOM     64  C   UNL A   1      44.990  26.839  33.745  1.00  0.00    -0.014 A 
ATOM     65  C   UNL A   1      44.865  25.633  34.454  1.00  0.00     0.009 A 
ATOM     66  C   UNL A   1      46.251  27.449  33.659  1.00  0.00     0.009 A 
ATOM     67  C   UNL A   1      45.975  25.071  35.090  1.00  0.00     0.001 A 
ATOM     68  C   UNL A   1      47.364  26.868  34.268  1.00  0.00     0.001 A 
ATOM     69  C   UNL A   1      47.223  25.685  34.990  1.00  0.00     0.000 A 
ENDBRANCH  50  64
BRANCH  51  70
ATOM     70  C   UNL A   1      37.135  30.557  28.844  1.00  0.00    -0.014 A 
ATOM     71  C   UNL A   1      37.043  31.909  28.480  1.00  0.00     0.009 A 
ATOM     72  C   UNL A   1      36.045  29.712  28.576  1.00  0.00     0.009 A 
ATOM     73  C   UNL A   1      35.878  32.409  27.893  1.00  0.00     0.001 A 
ATOM     74  C   UNL A   1      34.895  30.206  27.959  1.00  0.00     0.001 A 
ATOM     75  C   UNL A   1      34.807  31.556  27.628  1.00  0.00     0.000 A 
ENDBRANCH  51  70
BRANCH  63  76
ATOM     76  C   UNL A   1      39.676  31.465  35.271  1.00  0.00    -0.014 A 
ATOM     77  C   UNL A   1      38.689  31.029  36.168  1.00  0.00     0.009 A 
ATOM     78  C   UNL A   1      40.296  32.704  35.496  1.00  0.00     0.009 A 
ATOM     79  C   UNL A   1      38.308  31.832  37.245  1.00  0.00     0.001 A 
ATOM     80  C   UNL A   1      39.938  33.490  36.593  1.00  0.00     0.001 A 
ATOM     81  C   UNL A   1      38.938  33.059  37.460  1.00  0.00     0.000 A 
ENDBRANCH  63  76
ENDBRANCH  37  38
ENDBRANCH  30  32
ENDBRANCH  29  30
ENDBRANCH  28  29
ENDBRANCH  27  28
ENDBRANCH  26  27
ENDBRANCH  25  26
ENDBRANCH   1  25
TORSDOF 22
ENDMDL
MODEL 2
REMARK VINA RESULT:      -9.2      1.648      2.102
REMARK SMILES CC[C@H](C)[C@H]([NH3+])C(=O)N1CC[C@@H](C(=O)OCCOCCOCCOC(=O)c2ccc(-c3c4nc(c(-c5ccccc5)c5ccc([nH]5)c(-c5ccccc5)c5nc(c(-c6ccccc6)c6ccc3[nH]6)C=C5)C=C4)cc2)[C@@H]1C
REMARK SMILES IDX 19 1 18 2 17 3 16 4 15 5 13 6 14 7 12 8 9 9 10 10 75 11
REMARK SMILES IDX 11 12 76 13 7 14 8 15 5 16 3 17 4 18 2 19 1 20 6 21 20 25
REMARK SMILES IDX 21 26 22 27 23 28 24 29 25 30 26 31 27 32 28 33 74 34 29 35
REMARK SMILES IDX 73 36 30 37 31 38 32 39 67 40 33 41 72 42 66 43 68 44 34 45
REMARK SMILES IDX 71 46 65 47 64 48 35 50 57 51 42 52 56 53 43 54 46 55 55 56
REMARK SMILES IDX 69 57 44 58 45 59 54 61 70 62 47 63 36 64 37 65 41 66 38 67
REMARK SMILES IDX 40 68 39 69 58 70 59 71 63 72 60 73 62 74 61 75 48 76 49 77
REMARK SMILES IDX 53 78 50 79 52 80 51 81
REMARK H PARENT 6 22 6 23 6 24 68 49 46 60
REMARK Flexibility Score: inf
ROOT
ATOM      1  C   UNL A   1      40.845  20.980  26.723  1.00  0.00     0.188 C 
ENDROOT
BRANCH   1   2
ATOM      2  O   UNL A   1      40.075  21.685  25.761  1.00  0.00    -0.376 OA
BRANCH   2   3
ATOM      3  C   UNL A   1      38.934  22.418  26.200  1.00  0.00     0.202 C 
BRANCH   3   4
ATOM      4  C   UNL A   1      37.550  22.074  25.617  1.00  0.00     0.261 C 
BRANCH   4   5
ATOM      5  O   UNL A   1      36.832  23.170  24.993  1.00  0.00    -0.463 OA
BRANCH   5   6
ATOM      6  C   UNL A   1      35.845  22.827  24.131  1.00  0.00     0.311 C 
ATOM      7  O   UNL A   1      35.903  23.022  22.919  1.00  0.00    -0.252 OA
BRANCH   6   8
ATOM      8  C   UNL A   1      34.620  22.149  24.739  1.00  0.00     0.123 C 
ATOM      9  N   UNL A   1      32.603  23.013  25.691  1.00  0.00    -0.334 N 
ATOM     10  C   UNL A   1      32.210  22.291  24.503  1.00  0.00     0.121 C 
ATOM     11  C   UNL A   1      33.972  22.655  26.051  1.00  0.00     0.096 C 
ATOM     12  C   UNL A   1      33.491  22.205  23.700  1.00  0.00     0.039 C 
ATOM     13  C   UNL A   1      33.929  21.514  27.090  1.00  0.00     0.032 C 
BRANCH   9  14
ATOM     14  C   UNL A   1      31.661  23.718  26.408  1.00  0.00     0.281 C 
ATOM     15  O   UNL A   1      31.426  23.401  27.583  1.00  0.00    -0.268 OA
BRANCH  14  16
ATOM     16  C   UNL A   1      30.748  24.783  25.740  1.00  0.00     0.273 C 
BRANCH  16  17
ATOM     17  C   UNL A   1      31.580  25.983  25.194  1.00  0.00     0.054 C 
ATOM     18  C   UNL A   1      30.662  27.033  24.552  1.00  0.00     0.014 C 
BRANCH  17  19
ATOM     19  C   UNL A   1      32.508  26.631  26.240  1.00  0.00     0.006 C 
ATOM     20  C   UNL A   1      33.535  27.604  25.682  1.00  0.00     0.004 C 
ENDBRANCH  17  19
ENDBRANCH  16  17
BRANCH  16  21
ATOM     21  N   UNL A   1      29.534  25.129  26.500  1.00  0.00    -0.347 N 
ATOM     22  H   UNL A   1      29.430  26.143  26.534  1.00  0.00     0.345 HD
ATOM     23  H   UNL A   1      29.611  24.763  27.450  1.00  0.00     0.345 HD
ATOM     24  H   UNL A   1      28.719  24.719  26.044  1.00  0.00     0.345 HD
ENDBRANCH  16  21
ENDBRANCH  14  16
ENDBRANCH   9  14
ENDBRANCH   6   8
ENDBRANCH   5   6
ENDBRANCH   4   5
ENDBRANCH   3   4
ENDBRANCH   2   3
ENDBRANCH   1   2
BRANCH   1  25
ATOM     25  C   UNL A   1      41.509  19.661  26.309  1.00  0.00     0.188 C 
BRANCH  25  26
ATOM     26  O   UNL A   1      42.662  19.786  25.516  1.00  0.00    -0.376 OA
BRANCH  26  27
ATOM     27  C   UNL A   1      43.495  20.920  25.664  1.00  0.00     0.202 C 
BRANCH  27  28
ATOM     28  C   UNL A   1      43.639  21.965  24.540  1.00  0.00     0.261 C 
BRANCH  28  29
ATOM     29  O   UNL A   1      43.247  23.314  24.836  1.00  0.00    -0.460 OA
BRANCH  29  30
ATOM     30  C   UNL A   1      44.234  24.209  25.071  1.00  0.00     0.338 C 
ATOM     31  O   UNL A   1      45.178  24.468  24.341  1.00  0.00    -0.246 OA
BRANCH  30  32
ATOM     32  C   UNL A   1      43.818  25.026  26.238  1.00  0.00     0.060 A 
ATOM     33  C   UNL A   1      42.910  24.479  27.158  1.00  0.00     0.016 A 
ATOM     34  C   UNL A   1      44.354  26.297  26.451  1.00  0.00     0.016 A 
ATOM     35  C   UNL A   1      42.529  25.204  28.289  1.00  0.00     0.010 A 
ATOM     36  C   UNL A   1      43.944  27.036  27.564  1.00  0.00     0.010 A 
ATOM     37  C   UNL A   1      43.013  26.505  28.475  1.00  0.00    -0.014 A 
BRANCH  37  38
ATOM     38  C   UNL A   1      42.392  27.387  29.495  1.00  0.00     0.031 A 
ATOM     39  C   UNL A   1      43.043  27.468  30.849  1.00  0.00     0.074 A 
ATOM     40  C   UNL A   1      41.286  28.106  29.236  1.00  0.00     0.049 A 
ATOM     41  N   UNL A   1      42.640  28.082  31.931  1.00  0.00    -0.248 NA
ATOM     42  C   UNL A   1      44.321  26.752  31.002  1.00  0.00     0.031 C 
ATOM     43  C   UNL A   1      40.593  28.171  27.952  1.00  0.00     0.029 A 
ATOM     44  N   UNL A   1      40.545  28.916  30.062  1.00  0.00    -0.354 N 
ATOM     45  C   UNL A   1      43.600  27.807  32.897  1.00  0.00     0.074 A 
ATOM     46  C   UNL A   1      44.594  26.956  32.281  1.00  0.00     0.031 C 
ATOM     47  C   UNL A   1      39.514  28.965  28.080  1.00  0.00     0.029 A 
ATOM     48  C   UNL A   1      39.417  29.427  29.463  1.00  0.00     0.049 A 
ATOM     49  H   UNL A   1      40.796  29.113  30.993  1.00  0.00     0.167 HD
ATOM     50  C   UNL A   1      43.649  28.221  34.185  1.00  0.00     0.031 A 
ATOM     51  C   UNL A   1      38.406  30.152  29.984  1.00  0.00     0.031 A 
ATOM     52  C   UNL A   1      42.656  29.061  34.802  1.00  0.00     0.049 A 
ATOM     53  C   UNL A   1      38.440  30.531  31.444  1.00  0.00     0.074 A 
ATOM     54  C   UNL A   1      42.628  29.549  36.095  1.00  0.00     0.029 A 
ATOM     55  N   UNL A   1      41.514  29.527  34.170  1.00  0.00    -0.354 N 
ATOM     56  N   UNL A   1      39.359  30.279  32.346  1.00  0.00    -0.248 NA
ATOM     57  C   UNL A   1      37.293  31.298  31.957  1.00  0.00     0.031 C 
ATOM     58  C   UNL A   1      41.434  30.254  36.269  1.00  0.00     0.029 A 
ATOM     59  C   UNL A   1      40.756  30.269  35.060  1.00  0.00     0.049 A 
ATOM     60  H   UNL A   1      41.278  29.355  33.231  1.00  0.00     0.167 HD
ATOM     61  C   UNL A   1      38.918  30.884  33.518  1.00  0.00     0.074 A 
ATOM     62  C   UNL A   1      37.659  31.527  33.210  1.00  0.00     0.031 C 
ATOM     63  C   UNL A   1      39.505  30.907  34.740  1.00  0.00     0.031 A 
BRANCH  50  64
ATOM     64  C   UNL A   1      44.789  27.727  35.030  1.00  0.00    -0.014 A 
ATOM     65  C   UNL A   1      44.711  26.518  35.739  1.00  0.00     0.009 A 
ATOM     66  C   UNL A   1      45.977  28.473  35.089  1.00  0.00     0.009 A 
ATOM     67  C   UNL A   1      45.788  26.085  36.515  1.00  0.00     0.001 A 
ATOM     68  C   UNL A   1      47.063  28.021  35.839  1.00  0.00     0.001 A 
ATOM     69  C   UNL A   1      46.964  26.833  36.558  1.00  0.00     0.000 A 
ENDBRANCH  50  64
BRANCH  51  70
ATOM     70  C   UNL A   1      37.245  30.537  29.137  1.00  0.00    -0.014 A 
ATOM     71  C   UNL A   1      37.053  31.869  28.738  1.00  0.00     0.009 A 
ATOM     72  C   UNL A   1      36.294  29.576  28.755  1.00  0.00     0.009 A 
ATOM     73  C   UNL A   1      35.922  32.234  28.003  1.00  0.00     0.001 A 
ATOM     74  C   UNL A   1      35.182  29.937  27.992  1.00  0.00     0.001 A 
ATOM     75  C   UNL A   1      34.991  31.268  27.626  1.00  0.00     0.000 A 
ENDBRANCH  51  70
BRANCH  63  76
ATOM     76  C   UNL A   1      38.821  31.691  35.828  1.00  0.00    -0.014 A 
ATOM     77  C   UNL A   1      38.013  31.066  36.790  1.00  0.00     0.009 A 
ATOM     78  C   UNL A   1      39.032  33.077  35.918  1.00  0.00     0.009 A 
ATOM     79  C   UNL A   1      37.403  31.817  37.797  1.00  0.00     0.001 A 
ATOM     80  C   UNL A   1      38.450  33.820  36.945  1.00  0.00     0.001 A 
ATOM     81  C   UNL A   1      37.627  33.192  37.878  1.00  0.00     0.000 A 
ENDBRANCH  63  76
ENDBRANCH  37  38
ENDBRANCH  30  32
ENDBRANCH  29  30
ENDBRANCH  28  29
ENDBRANCH  27  28
ENDBRANCH  26  27
ENDBRANCH  25  26
ENDBRANCH   1  25
TORSDOF 22
ENDMDL
MODEL 3
REMARK VINA RESULT:      -9.1      4.199      5.881
REMARK SMILES CC[C@H](C)[C@H]([NH3+])C(=O)N1CC[C@@H](C(=O)OCCOCCOCCOC(=O)c2ccc(-c3c4nc(c(-c5ccccc5)c5ccc([nH]5)c(-c5ccccc5)c5nc(c(-c6ccccc6)c6ccc3[nH]6)C=C5)C=C4)cc2)[C@@H]1C
REMARK SMILES IDX 19 1 18 2 17 3 16 4 15 5 13 6 14 7 12 8 9 9 10 10 75 11
REMARK SMILES IDX 11 12 76 13 7 14 8 15 5 16 3 17 4 18 2 19 1 20 6 21 20 25
REMARK SMILES IDX 21 26 22 27 23 28 24 29 25 30 26 31 27 32 28 33 74 34 29 35
REMARK SMILES IDX 73 36 30 37 31 38 32 39 67 40 33 41 72 42 66 43 68 44 34 45
REMARK SMILES IDX 71 46 65 47 64 48 35 50 57 51 42 52 56 53 43 54 46 55 55 56
REMARK SMILES IDX 69 57 44 58 45 59 54 61 70 62 47 63 36 64 37 65 41 66 38 67
REMARK SMILES IDX 40 68 39 69 58 70 59 71 63 72 60 73 62 74 61 75 48 76 49 77
REMARK SMILES IDX 53 78 50 79 52 80 51 81
REMARK H PARENT 6 22 6 23 6 24 68 49 46 60
REMARK Flexibility Score: inf
ROOT
ATOM      1  C   UNL A   1      39.667  21.291  26.153  1.00  0.00     0.188 C 
ENDROOT
BRANCH   1   2
ATOM      2  O   UNL A   1      39.345  22.636  26.472  1.00  0.00    -0.376 OA
BRANCH   2   3
ATOM      3  C   UNL A   1      38.140  23.194  25.954  1.00  0.00     0.202 C 
BRANCH   3   4
ATOM      4  C   UNL A   1      36.905  22.288  25.784  1.00  0.00     0.261 C 
BRANCH   4   5
ATOM      5  O   UNL A   1      36.602  21.874  24.427  1.00  0.00    -0.463 OA
BRANCH   5   6
ATOM      6  C   UNL A   1      36.066  22.819  23.616  1.00  0.00     0.311 C 
ATOM      7  O   UNL A   1      36.632  23.259  22.619  1.00  0.00    -0.252 OA
BRANCH   6   8
ATOM      8  C   UNL A   1      34.674  23.322  23.991  1.00  0.00     0.123 C 
ATOM      9  N   UNL A   1      33.492  25.335  23.472  1.00  0.00    -0.334 N 
ATOM     10  C   UNL A   1      32.756  24.262  22.843  1.00  0.00     0.121 C 
ATOM     11  C   UNL A   1      34.427  24.781  24.446  1.00  0.00     0.096 C 
ATOM     12  C   UNL A   1      33.766  23.136  22.768  1.00  0.00     0.039 C 
ATOM     13  C   UNL A   1      33.758  24.792  25.838  1.00  0.00     0.032 C 
BRANCH   9  14
ATOM     14  C   UNL A   1      33.109  26.642  23.264  1.00  0.00     0.281 C 
ATOM     15  O   UNL A   1      32.822  27.019  22.119  1.00  0.00    -0.268 OA
BRANCH  14  16
ATOM     16  C   UNL A   1      33.198  27.713  24.387  1.00  0.00     0.273 C 
BRANCH  16  17
ATOM     17  C   UNL A   1      31.782  28.186  24.836  1.00  0.00     0.054 C 
ATOM     18  C   UNL A   1      30.801  27.006  24.870  1.00  0.00     0.014 C 
BRANCH  17  19
ATOM     19  C   UNL A   1      31.771  28.948  26.176  1.00  0.00     0.006 C 
ATOM     20  C   UNL A   1      31.882  28.079  27.417  1.00  0.00     0.004 C 
ENDBRANCH  17  19
ENDBRANCH  16  17
BRANCH  16  21
ATOM     21  N   UNL A   1      34.195  28.774  24.160  1.00  0.00    -0.347 N 
ATOM     22  H   UNL A   1      34.999  28.622  24.769  1.00  0.00     0.345 HD
ATOM     23  H   UNL A   1      33.778  29.682  24.367  1.00  0.00     0.345 HD
ATOM     24  H   UNL A   1      34.498  28.753  23.186  1.00  0.00     0.345 HD
ENDBRANCH  16  21
ENDBRANCH  14  16
ENDBRANCH   9  14
ENDBRANCH   6   8
ENDBRANCH   5   6
ENDBRANCH   4   5
ENDBRANCH   3   4
ENDBRANCH   2   3
ENDBRANCH   1   2
BRANCH   1  25
ATOM     25  C   UNL A   1      41.126  20.835  26.278  1.00  0.00     0.188 C 
BRANCH  25  26
ATOM     26  O   UNL A   1      41.399  19.541  25.804  1.00  0.00    -0.376 OA
BRANCH  26  27
ATOM     27  C   UNL A   1      42.452  18.791  26.380  1.00  0.00     0.202 C 
BRANCH  27  28
ATOM     28  C   UNL A   1      43.656  18.319  25.541  1.00  0.00     0.261 C 
BRANCH  28  29
ATOM     29  O   UNL A   1      43.943  19.038  24.332  1.00  0.00    -0.460 OA
BRANCH  29  30
ATOM     30  C   UNL A   1      45.161  19.620  24.231  1.00  0.00     0.338 C 
ATOM     31  O   UNL A   1      46.133  19.185  23.633  1.00  0.00    -0.246 OA
BRANCH  30  32
ATOM     32  C   UNL A   1      45.028  21.010  24.731  1.00  0.00     0.060 A 
ATOM     33  C   UNL A   1      44.642  22.018  23.833  1.00  0.00     0.016 A 
ATOM     34  C   UNL A   1      45.232  21.309  26.078  1.00  0.00     0.016 A 
ATOM     35  C   UNL A   1      44.468  23.330  24.279  1.00  0.00     0.010 A 
ATOM     36  C   UNL A   1      45.092  22.630  26.516  1.00  0.00     0.010 A 
ATOM     37  C   UNL A   1      44.733  23.650  25.616  1.00  0.00    -0.014 A 
BRANCH  37  38
ATOM     38  C   UNL A   1      44.843  25.071  26.030  1.00  0.00     0.031 A 
ATOM     39  C   UNL A   1      46.201  25.719  25.978  1.00  0.00     0.074 A 
ATOM     40  C   UNL A   1      43.775  25.780  26.435  1.00  0.00     0.049 A 
ATOM     41  N   UNL A   1      46.572  26.906  26.380  1.00  0.00    -0.248 NA
ATOM     42  C   UNL A   1      47.286  24.911  25.397  1.00  0.00     0.031 C 
ATOM     43  C   UNL A   1      42.396  25.297  26.473  1.00  0.00     0.029 A 
ATOM     44  N   UNL A   1      43.696  27.067  26.909  1.00  0.00    -0.354 N 
ATOM     45  C   UNL A   1      47.936  26.978  26.124  1.00  0.00     0.074 A 
ATOM     46  C   UNL A   1      48.330  25.710  25.550  1.00  0.00     0.031 C 
ATOM     47  C   UNL A   1      41.608  26.272  26.962  1.00  0.00     0.029 A 
ATOM     48  C   UNL A   1      42.432  27.428  27.312  1.00  0.00     0.049 A 
ATOM     49  H   UNL A   1      44.469  27.675  26.956  1.00  0.00     0.167 HD
ATOM     50  C   UNL A   1      48.787  28.006  26.350  1.00  0.00     0.031 A 
ATOM     51  C   UNL A   1      41.999  28.548  27.927  1.00  0.00     0.031 A 
ATOM     52  C   UNL A   1      48.398  29.265  26.927  1.00  0.00     0.049 A 
ATOM     53  C   UNL A   1      42.983  29.646  28.246  1.00  0.00     0.074 A 
ATOM     54  C   UNL A   1      49.185  30.375  27.178  1.00  0.00     0.029 A 
ATOM     55  N   UNL A   1      47.116  29.576  27.353  1.00  0.00    -0.354 N 
ATOM     56  N   UNL A   1      44.267  29.712  27.986  1.00  0.00    -0.248 NA
ATOM     57  C   UNL A   1      42.453  30.829  28.943  1.00  0.00     0.031 C 
ATOM     58  C   UNL A   1      48.394  31.333  27.819  1.00  0.00     0.029 A 
ATOM     59  C   UNL A   1      47.098  30.849  27.897  1.00  0.00     0.049 A 
ATOM     60  H   UNL A   1      46.336  28.981  27.279  1.00  0.00     0.167 HD
ATOM     61  C   UNL A   1      44.688  30.951  28.455  1.00  0.00     0.074 A 
ATOM     62  C   UNL A   1      43.521  31.611  29.002  1.00  0.00     0.031 C 
ATOM     63  C   UNL A   1      45.929  31.496  28.434  1.00  0.00     0.031 A 
BRANCH  50  64
ATOM     64  C   UNL A   1      50.237  27.792  26.019  1.00  0.00    -0.014 A 
ATOM     65  C   UNL A   1      51.148  27.311  26.973  1.00  0.00     0.009 A 
ATOM     66  C   UNL A   1      50.691  28.045  24.715  1.00  0.00     0.009 A 
ATOM     67  C   UNL A   1      52.490  27.121  26.635  1.00  0.00     0.001 A 
ATOM     68  C   UNL A   1      52.025  27.824  24.371  1.00  0.00     0.001 A 
ATOM     69  C   UNL A   1      52.925  27.371  25.334  1.00  0.00     0.000 A 
ENDBRANCH  50  64
BRANCH  51  70
ATOM     70  C   UNL A   1      40.572  28.679  28.329  1.00  0.00    -0.014 A 
ATOM     71  C   UNL A   1      39.639  29.298  27.483  1.00  0.00     0.009 A 
ATOM     72  C   UNL A   1      40.142  28.221  29.585  1.00  0.00     0.009 A 
ATOM     73  C   UNL A   1      38.318  29.482  27.897  1.00  0.00     0.001 A 
ATOM     74  C   UNL A   1      38.813  28.375  29.983  1.00  0.00     0.001 A 
ATOM     75  C   UNL A   1      37.904  29.016  29.144  1.00  0.00     0.000 A 
ENDBRANCH  51  70
BRANCH  63  76
ATOM     76  C   UNL A   1      46.087  32.893  28.973  1.00  0.00    -0.014 A 
ATOM     77  C   UNL A   1      45.897  34.022  28.160  1.00  0.00     0.009 A 
ATOM     78  C   UNL A   1      46.383  33.080  30.333  1.00  0.00     0.009 A 
ATOM     79  C   UNL A   1      46.035  35.306  28.691  1.00  0.00     0.001 A 
ATOM     80  C   UNL A   1      46.487  34.364  30.868  1.00  0.00     0.001 A 
ATOM     81  C   UNL A   1      46.324  35.476  30.046  1.00  0.00     0.000 A 
ENDBRANCH  63  76
ENDBRANCH  37  38
ENDBRANCH  30  32
ENDBRANCH  29  30
ENDBRANCH  28  29
ENDBRANCH  27  28
ENDBRANCH  26  27
ENDBRANCH  25  26
ENDBRANCH   1  25
TORSDOF 22
ENDMDL
