MODEL 1
REMARK VINA RESULT:     -10.1      0.000      0.000
REMARK SMILES CCc1ccc(CNc2ccc(Cl)c(C(=O)OCCOCCOCCOC(=O)c3ccc(-c4c5nc(c(-c6ccccc6)c6ccc([nH]6)c(-c6ccccc6)c6nc(c(-c7ccccc7)c7ccc4[nH]7)C=C6)C=C5)cc3)c2)cc1
REMARK SMILES IDX 21 1 20 2 19 3 18 4 17 5 15 6 16 7 14 8 9 9 10 10 77 11
REMARK SMILES IDX 11 12 12 13 13 14 8 15 7 17 6 18 3 19 4 20 79 21 5 22 78 23
REMARK SMILES IDX 2 24 1 25 22 26 23 27 24 28 25 29 26 30 27 31 28 32 29 33
REMARK SMILES IDX 30 34 76 35 31 36 75 37 32 38 33 39 34 40 69 41 35 42 74 43
REMARK SMILES IDX 68 44 70 45 36 46 73 47 67 48 66 49 37 51 59 52 44 53 58 54
REMARK SMILES IDX 45 55 48 56 57 57 71 58 46 59 47 60 56 62 72 63 49 64 38 65
REMARK SMILES IDX 39 66 43 67 40 68 42 69 41 70 60 71 61 72 65 73 62 74 64 75
REMARK SMILES IDX 63 76 50 77 51 78 55 79 52 80 54 81 53 82
REMARK H PARENT 8 16 70 50 48 61
REMARK Flexibility Score: inf
ROOT
ATOM      1  C   UNL A   1      39.858  22.255  26.804  1.00  0.00     0.188 C 
ENDROOT
BRANCH   1   2
ATOM      2  O   UNL A   1      38.604  22.443  26.179  1.00  0.00    -0.376 OA
BRANCH   2   3
ATOM      3  C   UNL A   1      38.040  21.429  25.362  1.00  0.00     0.202 C 
BRANCH   3   4
ATOM      4  C   UNL A   1      36.630  21.558  24.774  1.00  0.00     0.261 C 
BRANCH   4   5
ATOM      5  O   UNL A   1      35.707  20.588  25.273  1.00  0.00    -0.460 OA
BRANCH   5   6
ATOM      6  C   UNL A   1      34.531  21.093  25.746  1.00  0.00     0.339 C 
ATOM      7  O   UNL A   1      34.288  21.453  26.867  1.00  0.00    -0.246 OA
BRANCH   6   8
ATOM      8  C   UNL A   1      33.594  21.204  24.607  1.00  0.00     0.080 A 
ATOM      9  C   UNL A   1      32.291  22.648  23.135  1.00  0.00     0.035 A 
ATOM     10  C   UNL A   1      31.792  21.495  22.513  1.00  0.00     0.027 A 
ATOM     11  C   UNL A   1      33.184  22.483  24.197  1.00  0.00     0.043 A 
ATOM     12  C   UNL A   1      32.194  20.218  22.915  1.00  0.00     0.023 A 
ATOM     13  C   UNL A   1      33.104  20.067  23.962  1.00  0.00     0.055 A 
ATOM     14  Cl  UNL A   1      33.509  18.457  24.436  1.00  0.00    -0.083 Cl
BRANCH   9  15
ATOM     15  N   UNL A   1      31.904  23.884  22.656  1.00  0.00    -0.381 N 
ATOM     16  H   UNL A   1      30.985  23.981  22.316  1.00  0.00     0.160 HD
BRANCH  15  17
ATOM     17  C   UNL A   1      32.773  25.050  22.624  1.00  0.00     0.148 C 
BRANCH  17  18
ATOM     18  C   UNL A   1      32.498  25.943  23.814  1.00  0.00    -0.029 A 
ATOM     19  C   UNL A   1      31.988  27.671  26.001  1.00  0.00    -0.048 A 
ATOM     20  C   UNL A   1      30.935  27.073  25.304  1.00  0.00     0.004 A 
ATOM     21  C   UNL A   1      33.300  27.410  25.575  1.00  0.00     0.004 A 
ATOM     22  C   UNL A   1      31.187  26.223  24.223  1.00  0.00     0.006 A 
ATOM     23  C   UNL A   1      33.553  26.556  24.498  1.00  0.00     0.006 A 
BRANCH  19  24
ATOM     24  C   UNL A   1      31.783  28.631  27.150  1.00  0.00     0.032 C 
ATOM     25  C   UNL A   1      31.826  30.116  26.812  1.00  0.00     0.009 C 
ENDBRANCH  19  24
ENDBRANCH  17  18
ENDBRANCH  15  17
ENDBRANCH   9  15
ENDBRANCH   6   8
ENDBRANCH   5   6
ENDBRANCH   4   5
ENDBRANCH   3   4
ENDBRANCH   2   3
ENDBRANCH   1   2
BRANCH   1  26
ATOM     26  C   UNL A   1      40.854  21.189  26.294  1.00  0.00     0.188 C 
BRANCH  26  27
ATOM     27  O   UNL A   1      42.214  21.206  26.681  1.00  0.00    -0.376 OA
BRANCH  27  28
ATOM     28  C   UNL A   1      43.218  20.832  25.751  1.00  0.00     0.202 C 
BRANCH  28  29
ATOM     29  C   UNL A   1      43.997  21.891  24.968  1.00  0.00     0.261 C 
BRANCH  29  30
ATOM     30  O   UNL A   1      43.324  23.151  24.846  1.00  0.00    -0.460 OA
BRANCH  30  31
ATOM     31  C   UNL A   1      44.089  24.235  25.121  1.00  0.00     0.338 C 
ATOM     32  O   UNL A   1      45.158  24.540  24.621  1.00  0.00    -0.246 OA
BRANCH  31  33
ATOM     33  C   UNL A   1      43.360  25.130  26.034  1.00  0.00     0.060 A 
ATOM     34  C   UNL A   1      43.750  26.474  26.096  1.00  0.00     0.016 A 
ATOM     35  C   UNL A   1      42.356  24.639  26.869  1.00  0.00     0.016 A 
ATOM     36  C   UNL A   1      43.154  27.330  27.021  1.00  0.00     0.010 A 
ATOM     37  C   UNL A   1      41.774  25.493  27.810  1.00  0.00     0.010 A 
ATOM     38  C   UNL A   1      42.192  26.832  27.909  1.00  0.00    -0.014 A 
BRANCH  38  39
ATOM     39  C   UNL A   1      41.742  27.666  29.047  1.00  0.00     0.031 A 
ATOM     40  C   UNL A   1      42.468  27.554  30.359  1.00  0.00     0.074 A 
ATOM     41  C   UNL A   1      40.711  28.520  28.916  1.00  0.00     0.049 A 
ATOM     42  N   UNL A   1      42.224  28.153  31.496  1.00  0.00    -0.248 NA
ATOM     43  C   UNL A   1      43.625  26.645  30.391  1.00  0.00     0.031 C 
ATOM     44  C   UNL A   1      39.957  28.758  27.688  1.00  0.00     0.029 A 
ATOM     45  N   UNL A   1      40.120  29.341  29.843  1.00  0.00    -0.354 N 
ATOM     46  C   UNL A   1      43.193  27.692  32.378  1.00  0.00     0.074 A 
ATOM     47  C   UNL A   1      44.011  26.745  31.654  1.00  0.00     0.031 C 
ATOM     48  C   UNL A   1      38.990  29.658  27.941  1.00  0.00     0.029 A 
ATOM     49  C   UNL A   1      39.040  30.032  29.353  1.00  0.00     0.049 A 
ATOM     50  H   UNL A   1      40.439  29.425  30.771  1.00  0.00     0.167 HD
ATOM     51  C   UNL A   1      43.387  28.030  33.675  1.00  0.00     0.031 A 
ATOM     52  C   UNL A   1      38.179  30.856  29.981  1.00  0.00     0.031 A 
ATOM     53  C   UNL A   1      42.562  28.953  34.406  1.00  0.00     0.049 A 
ATOM     54  C   UNL A   1      38.359  31.142  31.448  1.00  0.00     0.074 A 
ATOM     55  C   UNL A   1      42.685  29.365  35.721  1.00  0.00     0.029 A 
ATOM     56  N   UNL A   1      41.452  29.599  33.885  1.00  0.00    -0.354 N 
ATOM     57  N   UNL A   1      39.294  30.723  32.266  1.00  0.00    -0.248 NA
ATOM     58  C   UNL A   1      37.363  32.023  32.077  1.00  0.00     0.031 C 
ATOM     59  C   UNL A   1      41.616  30.219  36.013  1.00  0.00     0.029 A 
ATOM     60  C   UNL A   1      40.863  30.384  34.862  1.00  0.00     0.049 A 
ATOM     61  H   UNL A   1      41.129  29.512  32.959  1.00  0.00     0.167 HD
ATOM     62  C   UNL A   1      39.019  31.312  33.494  1.00  0.00     0.074 A 
ATOM     63  C   UNL A   1      37.835  32.127  33.312  1.00  0.00     0.031 C 
ATOM     64  C   UNL A   1      39.687  31.192  34.667  1.00  0.00     0.031 A 
BRANCH  51  65
ATOM     65  C   UNL A   1      44.522  27.361  34.397  1.00  0.00    -0.014 A 
ATOM     66  C   UNL A   1      45.795  27.948  34.453  1.00  0.00     0.009 A 
ATOM     67  C   UNL A   1      44.307  26.137  35.049  1.00  0.00     0.009 A 
ATOM     68  C   UNL A   1      46.839  27.307  35.123  1.00  0.00     0.001 A 
ATOM     69  C   UNL A   1      45.346  25.512  35.740  1.00  0.00     0.001 A 
ATOM     70  C   UNL A   1      46.613  26.092  35.770  1.00  0.00     0.000 A 
ENDBRANCH  51  65
BRANCH  52  71
ATOM     71  C   UNL A   1      37.044  31.458  29.233  1.00  0.00    -0.014 A 
ATOM     72  C   UNL A   1      37.122  32.775  28.753  1.00  0.00     0.009 A 
ATOM     73  C   UNL A   1      35.865  30.727  29.021  1.00  0.00     0.009 A 
ATOM     74  C   UNL A   1      36.031  33.355  28.101  1.00  0.00     0.001 A 
ATOM     75  C   UNL A   1      34.788  31.300  28.343  1.00  0.00     0.001 A 
ATOM     76  C   UNL A   1      34.867  32.616  27.893  1.00  0.00     0.000 A 
ENDBRANCH  52  71
BRANCH  64  77
ATOM     77  C   UNL A   1      39.182  31.990  35.837  1.00  0.00    -0.014 A 
ATOM     78  C   UNL A   1      39.669  33.278  36.109  1.00  0.00     0.009 A 
ATOM     79  C   UNL A   1      38.168  31.461  36.650  1.00  0.00     0.009 A 
ATOM     80  C   UNL A   1      39.172  34.006  37.192  1.00  0.00     0.001 A 
ATOM     81  C   UNL A   1      37.653  32.202  37.715  1.00  0.00     0.001 A 
ATOM     82  C   UNL A   1      38.163  33.470  37.990  1.00  0.00     0.000 A 
ENDBRANCH  64  77
ENDBRANCH  38  39
ENDBRANCH  31  33
ENDBRANCH  30  31
ENDBRANCH  29  30
ENDBRANCH  28  29
ENDBRANCH  27  28
ENDBRANCH  26  27
ENDBRANCH   1  26
TORSDOF 21
ENDMDL
MODEL 2
REMARK VINA RESULT:      -9.8      2.995      8.687
REMARK SMILES CCc1ccc(CNc2ccc(Cl)c(C(=O)OCCOCCOCCOC(=O)c3ccc(-c4c5nc(c(-c6ccccc6)c6ccc([nH]6)c(-c6ccccc6)c6nc(c(-c7ccccc7)c7ccc4[nH]7)C=C6)C=C5)cc3)c2)cc1
REMARK SMILES IDX 21 1 20 2 19 3 18 4 17 5 15 6 16 7 14 8 9 9 10 10 77 11
REMARK SMILES IDX 11 12 12 13 13 14 8 15 7 17 6 18 3 19 4 20 79 21 5 22 78 23
REMARK SMILES IDX 2 24 1 25 22 26 23 27 24 28 25 29 26 30 27 31 28 32 29 33
REMARK SMILES IDX 30 34 76 35 31 36 75 37 32 38 33 39 34 40 69 41 35 42 74 43
REMARK SMILES IDX 68 44 70 45 36 46 73 47 67 48 66 49 37 51 59 52 44 53 58 54
REMARK SMILES IDX 45 55 48 56 57 57 71 58 46 59 47 60 56 62 72 63 49 64 38 65
REMARK SMILES IDX 39 66 43 67 40 68 42 69 41 70 60 71 61 72 65 73 62 74 64 75
REMARK SMILES IDX 63 76 50 77 51 78 55 79 52 80 54 81 53 82
REMARK H PARENT 8 16 70 50 48 61
REMARK Flexibility Score: inf
ROOT
ATOM      1  C   UNL A   1      32.709  28.039  27.215  1.00  0.00     0.188 C 
ENDROOT
BRANCH   1   2
ATOM      2  O   UNL A   1      34.005  28.038  26.649  1.00  0.00    -0.376 OA
BRANCH   2   3
ATOM      3  C   UNL A   1      34.389  27.039  25.717  1.00  0.00     0.202 C 
BRANCH   3   4
ATOM      4  C   UNL A   1      33.372  26.061  25.118  1.00  0.00     0.261 C 
BRANCH   4   5
ATOM      5  O   UNL A   1      33.785  24.694  25.174  1.00  0.00    -0.460 OA
BRANCH   5   6
ATOM      6  C   UNL A   1      34.427  24.233  24.062  1.00  0.00     0.339 C 
ATOM      7  O   UNL A   1      34.409  24.708  22.957  1.00  0.00    -0.246 OA
BRANCH   6   8
ATOM      8  C   UNL A   1      35.239  23.062  24.460  1.00  0.00     0.080 A 
ATOM      9  C   UNL A   1      37.413  22.188  25.137  1.00  0.00     0.035 A 
ATOM     10  C   UNL A   1      36.845  20.907  25.160  1.00  0.00     0.027 A 
ATOM     11  C   UNL A   1      36.595  23.259  24.767  1.00  0.00     0.043 A 
ATOM     12  C   UNL A   1      35.496  20.702  24.854  1.00  0.00     0.023 A 
ATOM     13  C   UNL A   1      34.684  21.782  24.508  1.00  0.00     0.055 A 
ATOM     14  Cl  UNL A   1      33.044  21.441  24.091  1.00  0.00    -0.083 Cl
BRANCH   9  15
ATOM     15  N   UNL A   1      38.735  22.337  25.506  1.00  0.00    -0.381 N 
ATOM     16  H   UNL A   1      39.205  23.153  25.221  1.00  0.00     0.160 HD
BRANCH  15  17
ATOM     17  C   UNL A   1      39.474  21.361  26.291  1.00  0.00     0.148 C 
BRANCH  17  18
ATOM     18  C   UNL A   1      40.814  21.926  26.707  1.00  0.00    -0.029 A 
ATOM     19  C   UNL A   1      43.300  23.049  27.474  1.00  0.00    -0.048 A 
ATOM     20  C   UNL A   1      42.346  22.703  28.435  1.00  0.00     0.004 A 
ATOM     21  C   UNL A   1      42.984  22.847  26.121  1.00  0.00     0.004 A 
ATOM     22  C   UNL A   1      41.119  22.151  28.056  1.00  0.00     0.006 A 
ATOM     23  C   UNL A   1      41.759  22.290  25.741  1.00  0.00     0.006 A 
BRANCH  19  24
ATOM     24  C   UNL A   1      44.627  23.687  27.815  1.00  0.00     0.032 C 
ATOM     25  C   UNL A   1      44.652  25.209  27.887  1.00  0.00     0.009 C 
ENDBRANCH  19  24
ENDBRANCH  17  18
ENDBRANCH  15  17
ENDBRANCH   9  15
ENDBRANCH   6   8
ENDBRANCH   5   6
ENDBRANCH   4   5
ENDBRANCH   3   4
ENDBRANCH   2   3
ENDBRANCH   1   2
BRANCH   1  26
ATOM     26  C   UNL A   1      31.789  29.276  27.105  1.00  0.00     0.188 C 
BRANCH  26  27
ATOM     27  O   UNL A   1      32.318  30.575  26.924  1.00  0.00    -0.376 OA
BRANCH  27  28
ATOM     28  C   UNL A   1      31.468  31.633  26.514  1.00  0.00     0.202 C 
BRANCH  28  29
ATOM     29  C   UNL A   1      31.728  33.071  26.968  1.00  0.00     0.261 C 
BRANCH  29  30
ATOM     30  O   UNL A   1      33.106  33.368  27.229  1.00  0.00    -0.460 OA
BRANCH  30  31
ATOM     31  C   UNL A   1      33.322  34.181  28.292  1.00  0.00     0.338 C 
ATOM     32  O   UNL A   1      32.652  35.134  28.652  1.00  0.00    -0.246 OA
BRANCH  31  33
ATOM     33  C   UNL A   1      34.440  33.654  29.092  1.00  0.00     0.060 A 
ATOM     34  C   UNL A   1      35.741  34.034  28.744  1.00  0.00     0.016 A 
ATOM     35  C   UNL A   1      34.214  32.742  30.125  1.00  0.00     0.016 A 
ATOM     36  C   UNL A   1      36.831  33.478  29.412  1.00  0.00     0.010 A 
ATOM     37  C   UNL A   1      35.307  32.169  30.779  1.00  0.00     0.010 A 
ATOM     38  C   UNL A   1      36.619  32.513  30.404  1.00  0.00    -0.014 A 
BRANCH  38  39
ATOM     39  C   UNL A   1      37.766  31.743  30.936  1.00  0.00     0.031 A 
ATOM     40  C   UNL A   1      38.283  32.067  32.311  1.00  0.00     0.074 A 
ATOM     41  C   UNL A   1      38.336  30.760  30.217  1.00  0.00     0.049 A 
ATOM     42  N   UNL A   1      39.296  31.554  32.960  1.00  0.00    -0.248 NA
ATOM     43  C   UNL A   1      37.557  33.111  33.053  1.00  0.00     0.031 C 
ATOM     44  C   UNL A   1      37.900  30.314  28.895  1.00  0.00     0.029 A 
ATOM     45  N   UNL A   1      39.417  29.964  30.505  1.00  0.00    -0.354 N 
ATOM     46  C   UNL A   1      39.332  32.213  34.182  1.00  0.00     0.074 A 
ATOM     47  C   UNL A   1      38.257  33.181  34.175  1.00  0.00     0.031 C 
ATOM     48  C   UNL A   1      38.716  29.330  28.479  1.00  0.00     0.029 A 
ATOM     49  C   UNL A   1      39.748  29.101  29.489  1.00  0.00     0.049 A 
ATOM     50  H   UNL A   1      39.907  30.009  31.357  1.00  0.00     0.167 HD
ATOM     51  C   UNL A   1      40.182  32.027  35.220  1.00  0.00     0.031 A 
ATOM     52  C   UNL A   1      40.778  28.242  29.383  1.00  0.00     0.031 A 
ATOM     53  C   UNL A   1      41.266  31.084  35.222  1.00  0.00     0.049 A 
ATOM     54  C   UNL A   1      41.767  28.121  30.512  1.00  0.00     0.074 A 
ATOM     55  C   UNL A   1      42.176  30.817  36.231  1.00  0.00     0.029 A 
ATOM     56  N   UNL A   1      41.595  30.259  34.158  1.00  0.00    -0.354 N 
ATOM     57  N   UNL A   1      41.775  28.729  31.674  1.00  0.00    -0.248 NA
ATOM     58  C   UNL A   1      42.887  27.188  30.315  1.00  0.00     0.031 C 
ATOM     59  C   UNL A   1      43.089  29.870  35.756  1.00  0.00     0.029 A 
ATOM     60  C   UNL A   1      42.711  29.504  34.474  1.00  0.00     0.049 A 
ATOM     61  H   UNL A   1      41.108  30.217  33.303  1.00  0.00     0.167 HD
ATOM     62  C   UNL A   1      42.878  28.230  32.357  1.00  0.00     0.074 A 
ATOM     63  C   UNL A   1      43.510  27.262  31.484  1.00  0.00     0.031 C 
ATOM     64  C   UNL A   1      43.328  28.543  33.597  1.00  0.00     0.031 A 
BRANCH  51  65
ATOM     65  C   UNL A   1      39.989  32.896  36.430  1.00  0.00    -0.014 A 
ATOM     66  C   UNL A   1      39.054  32.565  37.423  1.00  0.00     0.009 A 
ATOM     67  C   UNL A   1      40.771  34.051  36.589  1.00  0.00     0.009 A 
ATOM     68  C   UNL A   1      38.885  33.390  38.536  1.00  0.00     0.001 A 
ATOM     69  C   UNL A   1      40.618  34.859  37.716  1.00  0.00     0.001 A 
ATOM     70  C   UNL A   1      39.670  34.534  38.685  1.00  0.00     0.000 A 
ENDBRANCH  51  65
BRANCH  52  71
ATOM     71  C   UNL A   1      40.952  27.436  28.146  1.00  0.00    -0.014 A 
ATOM     72  C   UNL A   1      41.855  27.840  27.150  1.00  0.00     0.009 A 
ATOM     73  C   UNL A   1      40.192  26.274  27.942  1.00  0.00     0.009 A 
ATOM     74  C   UNL A   1      41.972  27.110  25.964  1.00  0.00     0.001 A 
ATOM     75  C   UNL A   1      40.332  25.532  26.768  1.00  0.00     0.001 A 
ATOM     76  C   UNL A   1      41.214  25.955  25.777  1.00  0.00     0.000 A 
ENDBRANCH  52  71
BRANCH  64  77
ATOM     77  C   UNL A   1      44.535  27.804  34.103  1.00  0.00    -0.014 A 
ATOM     78  C   UNL A   1      44.442  26.486  34.575  1.00  0.00     0.009 A 
ATOM     79  C   UNL A   1      45.795  28.423  34.061  1.00  0.00     0.009 A 
ATOM     80  C   UNL A   1      45.581  25.815  35.024  1.00  0.00     0.001 A 
ATOM     81  C   UNL A   1      46.935  27.741  34.484  1.00  0.00     0.001 A 
ATOM     82  C   UNL A   1      46.826  26.440  34.975  1.00  0.00     0.000 A 
ENDBRANCH  64  77
ENDBRANCH  38  39
ENDBRANCH  31  33
ENDBRANCH  30  31
ENDBRANCH  29  30
ENDBRANCH  28  29
ENDBRANCH  27  28
ENDBRANCH  26  27
ENDBRANCH   1  26
TORSDOF 21
ENDMDL
MODEL 3
REMARK VINA RESULT:      -9.8      4.906     10.019
REMARK SMILES CCc1ccc(CNc2ccc(Cl)c(C(=O)OCCOCCOCCOC(=O)c3ccc(-c4c5nc(c(-c6ccccc6)c6ccc([nH]6)c(-c6ccccc6)c6nc(c(-c7ccccc7)c7ccc4[nH]7)C=C6)C=C5)cc3)c2)cc1
REMARK SMILES IDX 21 1 20 2 19 3 18 4 17 5 15 6 16 7 14 8 9 9 10 10 77 11
REMARK SMILES IDX 11 12 12 13 13 14 8 15 7 17 6 18 3 19 4 20 79 21 5 22 78 23
REMARK SMILES IDX 2 24 1 25 22 26 23 27 24 28 25 29 26 30 27 31 28 32 29 33
REMARK SMILES IDX 30 34 76 35 31 36 75 37 32 38 33 39 34 40 69 41 35 42 74 43
REMARK SMILES IDX 68 44 70 45 36 46 73 47 67 48 66 49 37 51 59 52 44 53 58 54
REMARK SMILES IDX 45 55 48 56 57 57 71 58 46 59 47 60 56 62 72 63 49 64 38 65
REMARK SMILES IDX 39 66 43 67 40 68 42 69 41 70 60 71 61 72 65 73 62 74 64 75
REMARK SMILES IDX 63 76 50 77 51 78 55 79 52 80 54 81 53 82
REMARK H PARENT 8 16 70 50 48 61
REMARK Flexibility Score: inf
ROOT
ATOM      1  C   UNL A   1      33.646  33.079  28.140  1.00  0.00     0.188 C 
ENDROOT
BRANCH   1   2
ATOM      2  O   UNL A   1      34.775  32.326  27.742  1.00  0.00    -0.376 OA
BRANCH   2   3
ATOM      3  C   UNL A   1      34.658  30.944  27.445  1.00  0.00     0.202 C 
BRANCH   3   4
ATOM      4  C   UNL A   1      33.295  30.246  27.378  1.00  0.00     0.261 C 
BRANCH   4   5
ATOM      5  O   UNL A   1      32.917  29.844  26.059  1.00  0.00    -0.460 OA
BRANCH   5   6
ATOM      6  C   UNL A   1      31.707  30.307  25.633  1.00  0.00     0.339 C 
ATOM      7  O   UNL A   1      31.191  31.360  25.901  1.00  0.00    -0.246 OA
BRANCH   6   8
ATOM      8  C   UNL A   1      31.145  29.311  24.695  1.00  0.00     0.080 A 
ATOM      9  C   UNL A   1      31.246  27.058  23.767  1.00  0.00     0.035 A 
ATOM     10  C   UNL A   1      30.184  27.402  22.920  1.00  0.00     0.027 A 
ATOM     11  C   UNL A   1      31.728  28.035  24.642  1.00  0.00     0.043 A 
ATOM     12  C   UNL A   1      29.598  28.671  22.965  1.00  0.00     0.023 A 
ATOM     13  C   UNL A   1      30.073  29.630  23.860  1.00  0.00     0.055 A 
ATOM     14  Cl  UNL A   1      29.334  31.190  23.817  1.00  0.00    -0.083 Cl
BRANCH   9  15
ATOM     15  N   UNL A   1      31.746  25.771  23.720  1.00  0.00    -0.381 N 
ATOM     16  H   UNL A   1      31.349  25.099  24.318  1.00  0.00     0.160 HD
BRANCH  15  17
ATOM     17  C   UNL A   1      32.824  25.351  22.837  1.00  0.00     0.148 C 
BRANCH  17  18
ATOM     18  C   UNL A   1      33.537  24.149  23.415  1.00  0.00    -0.029 A 
ATOM     19  C   UNL A   1      34.884  21.873  24.434  1.00  0.00    -0.048 A 
ATOM     20  C   UNL A   1      35.568  23.076  24.231  1.00  0.00     0.004 A 
ATOM     21  C   UNL A   1      33.522  21.819  24.100  1.00  0.00     0.004 A 
ATOM     22  C   UNL A   1      34.903  24.197  23.726  1.00  0.00     0.006 A 
ATOM     23  C   UNL A   1      32.856  22.941  23.599  1.00  0.00     0.006 A 
BRANCH  19  24
ATOM     24  C   UNL A   1      35.552  20.615  24.938  1.00  0.00     0.032 C 
ATOM     25  C   UNL A   1      37.077  20.610  24.947  1.00  0.00     0.009 C 
ENDBRANCH  19  24
ENDBRANCH  17  18
ENDBRANCH  15  17
ENDBRANCH   9  15
ENDBRANCH   6   8
ENDBRANCH   5   6
ENDBRANCH   4   5
ENDBRANCH   3   4
ENDBRANCH   2   3
ENDBRANCH   1   2
BRANCH   1  26
ATOM     26  C   UNL A   1      33.797  34.354  28.999  1.00  0.00     0.188 C 
BRANCH  26  27
ATOM     27  O   UNL A   1      33.319  34.408  30.329  1.00  0.00    -0.376 OA
BRANCH  27  28
ATOM     28  C   UNL A   1      33.811  35.399  31.217  1.00  0.00     0.202 C 
BRANCH  28  29
ATOM     29  C   UNL A   1      34.577  35.009  32.484  1.00  0.00     0.261 C 
BRANCH  29  30
ATOM     30  O   UNL A   1      35.796  34.295  32.241  1.00  0.00    -0.460 OA
BRANCH  30  31
ATOM     31  C   UNL A   1      35.857  33.063  32.801  1.00  0.00     0.338 C 
ATOM     32  O   UNL A   1      35.150  32.609  33.684  1.00  0.00    -0.246 OA
BRANCH  31  33
ATOM     33  C   UNL A   1      36.835  32.240  32.071  1.00  0.00     0.060 A 
ATOM     34  C   UNL A   1      37.820  31.572  32.807  1.00  0.00     0.016 A 
ATOM     35  C   UNL A   1      36.824  32.184  30.676  1.00  0.00     0.016 A 
ATOM     36  C   UNL A   1      38.824  30.866  32.146  1.00  0.00     0.010 A 
ATOM     37  C   UNL A   1      37.842  31.494  30.014  1.00  0.00     0.010 A 
ATOM     38  C   UNL A   1      38.862  30.858  30.746  1.00  0.00    -0.014 A 
BRANCH  38  39
ATOM     39  C   UNL A   1      40.053  30.326  30.047  1.00  0.00     0.031 A 
ATOM     40  C   UNL A   1      41.253  31.217  29.879  1.00  0.00     0.074 A 
ATOM     41  C   UNL A   1      40.078  29.066  29.577  1.00  0.00     0.049 A 
ATOM     42  N   UNL A   1      42.386  30.979  29.268  1.00  0.00    -0.248 NA
ATOM     43  C   UNL A   1      41.163  32.556  30.484  1.00  0.00     0.031 C 
ATOM     44  C   UNL A   1      39.002  28.087  29.717  1.00  0.00     0.029 A 
ATOM     45  N   UNL A   1      41.052  28.402  28.875  1.00  0.00    -0.354 N 
ATOM     46  C   UNL A   1      43.140  32.136  29.411  1.00  0.00     0.074 A 
ATOM     47  C   UNL A   1      42.329  33.085  30.143  1.00  0.00     0.031 C 
ATOM     48  C   UNL A   1      39.371  26.947  29.107  1.00  0.00     0.029 A 
ATOM     49  C   UNL A   1      40.692  27.129  28.508  1.00  0.00     0.049 A 
ATOM     50  H   UNL A   1      41.925  28.800  28.656  1.00  0.00     0.167 HD
ATOM     51  C   UNL A   1      44.397  32.386  28.976  1.00  0.00     0.031 A 
ATOM     52  C   UNL A   1      41.347  26.225  27.756  1.00  0.00     0.031 A 
ATOM     53  C   UNL A   1      45.198  31.456  28.228  1.00  0.00     0.049 A 
ATOM     54  C   UNL A   1      42.706  26.562  27.202  1.00  0.00     0.074 A 
ATOM     55  C   UNL A   1      46.487  31.616  27.751  1.00  0.00     0.029 A 
ATOM     56  N   UNL A   1      44.780  30.193  27.840  1.00  0.00    -0.354 N 
ATOM     57  N   UNL A   1      43.422  27.649  27.366  1.00  0.00    -0.248 NA
ATOM     58  C   UNL A   1      43.351  25.541  26.362  1.00  0.00     0.031 C 
ATOM     59  C   UNL A   1      46.829  30.470  27.025  1.00  0.00     0.029 A 
ATOM     60  C   UNL A   1      45.775  29.574  27.102  1.00  0.00     0.049 A 
ATOM     61  H   UNL A   1      43.905  29.795  28.054  1.00  0.00     0.167 HD
ATOM     62  C   UNL A   1      44.609  27.430  26.679  1.00  0.00     0.074 A 
ATOM     63  C   UNL A   1      44.524  26.104  26.104  1.00  0.00     0.031 C 
ATOM     64  C   UNL A   1      45.678  28.253  26.538  1.00  0.00     0.031 A 
BRANCH  51  65
ATOM     65  C   UNL A   1      44.968  33.744  29.271  1.00  0.00    -0.014 A 
ATOM     66  C   UNL A   1      45.711  33.985  30.437  1.00  0.00     0.009 A 
ATOM     67  C   UNL A   1      44.781  34.791  28.355  1.00  0.00     0.009 A 
ATOM     68  C   UNL A   1      46.227  35.256  30.695  1.00  0.00     0.001 A 
ATOM     69  C   UNL A   1      45.321  36.054  28.604  1.00  0.00     0.001 A 
ATOM     70  C   UNL A   1      46.036  36.288  29.777  1.00  0.00     0.000 A 
ENDBRANCH  51  65
BRANCH  52  71
ATOM     71  C   UNL A   1      40.720  24.911  27.455  1.00  0.00    -0.014 A 
ATOM     72  C   UNL A   1      39.580  24.833  26.640  1.00  0.00     0.009 A 
ATOM     73  C   UNL A   1      41.243  23.731  28.007  1.00  0.00     0.009 A 
ATOM     74  C   UNL A   1      38.961  23.602  26.407  1.00  0.00     0.001 A 
ATOM     75  C   UNL A   1      40.638  22.500  27.749  1.00  0.00     0.001 A 
ATOM     76  C   UNL A   1      39.493  22.437  26.958  1.00  0.00     0.000 A 
ENDBRANCH  52  71
BRANCH  64  77
ATOM     77  C   UNL A   1      46.858  27.730  25.767  1.00  0.00    -0.014 A 
ATOM     78  C   UNL A   1      47.888  27.018  26.400  1.00  0.00     0.009 A 
ATOM     79  C   UNL A   1      46.913  27.912  24.376  1.00  0.00     0.009 A 
ATOM     80  C   UNL A   1      48.966  26.528  25.660  1.00  0.00     0.001 A 
ATOM     81  C   UNL A   1      47.977  27.397  23.634  1.00  0.00     0.001 A 
ATOM     82  C   UNL A   1      49.008  26.714  24.279  1.00  0.00     0.000 A 
ENDBRANCH  64  77
ENDBRANCH  38  39
ENDBRANCH  31  33
ENDBRANCH  30  31
ENDBRANCH  29  30
ENDBRANCH  28  29
ENDBRANCH  27  28
ENDBRANCH  26  27
ENDBRANCH   1  26
TORSDOF 21
ENDMDL
