MODEL 1
REMARK VINA RESULT:     -12.6      0.000      0.000
REMARK SMILES Cc1ccc(NC(=O)N2CCCC[C@@H]2C(=O)OCCOCCOCCOC(=O)c2ccc(-c3c4nc(c(-c5ccccc5)c5ccc([nH]5)c(-c5ccccc5)c5nc(c(-c6ccccc6)c6ccc3[nH]6)C=C5)C=C4)cc2)cc1
REMARK SMILES IDX 21 1 20 2 19 3 18 4 17 5 15 6 16 7 14 8 9 9 10 10 11 11
REMARK SMILES IDX 13 12 12 13 7 14 6 15 8 17 5 18 1 19 2 20 3 21 78 22 4 23
REMARK SMILES IDX 77 24 22 25 23 26 24 27 25 28 26 29 27 30 28 31 29 32 30 33
REMARK SMILES IDX 76 34 31 35 75 36 32 37 33 38 34 39 69 40 35 41 74 42 68 43
REMARK SMILES IDX 70 44 36 45 73 46 67 47 66 48 37 50 59 51 44 52 58 53 45 54
REMARK SMILES IDX 48 55 57 56 71 57 46 58 47 59 56 61 72 62 49 63 38 64 39 65
REMARK SMILES IDX 43 66 40 67 42 68 41 69 60 70 61 71 65 72 62 73 64 74 63 75
REMARK SMILES IDX 50 76 51 77 55 78 52 79 54 80 53 81
REMARK H PARENT 6 16 70 49 48 60
REMARK Flexibility Score: inf
ROOT
ATOM      1  C   UNL A   1      34.727  33.981  27.925  1.00  0.00     0.188 C 
ENDROOT
BRANCH   1   2
ATOM      2  O   UNL A   1      34.465  32.758  28.647  1.00  0.00    -0.376 OA
BRANCH   2   3
ATOM      3  C   UNL A   1      34.653  31.340  28.372  1.00  0.00     0.202 C 
BRANCH   3   4
ATOM      4  C   UNL A   1      33.915  30.083  27.270  1.00  0.00     0.261 C 
BRANCH   4   5
ATOM      5  O   UNL A   1      33.113  30.037  25.770  1.00  0.00    -0.462 OA
BRANCH   5   6
ATOM      6  C   UNL A   1      32.757  29.163  24.722  1.00  0.00     0.329 C 
ATOM      7  O   UNL A   1      33.498  28.659  23.870  1.00  0.00    -0.250 OA
BRANCH   6   8
ATOM      8  C   UNL A   1      31.350  28.663  24.465  1.00  0.00     0.196 C 
ATOM      9  N   UNL A   1      31.054  27.302  25.103  1.00  0.00    -0.311 N 
ATOM     10  C   UNL A   1      29.934  26.529  24.602  1.00  0.00     0.122 C 
ATOM     11  C   UNL A   1      29.681  26.692  23.120  1.00  0.00     0.022 C 
ATOM     12  C   UNL A   1      31.004  28.766  22.996  1.00  0.00     0.037 C 
ATOM     13  C   UNL A   1      29.637  28.164  22.742  1.00  0.00     0.005 C 
BRANCH   9  14
ATOM     14  C   UNL A   1      31.585  26.756  26.247  1.00  0.00     0.322 C 
ATOM     15  N   UNL A   1      32.485  25.752  26.305  1.00  0.00    -0.308 N 
ATOM     16  H   UNL A   1      32.480  25.324  27.191  1.00  0.00     0.171 HD
ATOM     17  O   UNL A   1      31.233  27.216  27.344  1.00  0.00    -0.248 OA
BRANCH  15  18
ATOM     18  C   UNL A   1      33.423  25.148  25.457  1.00  0.00     0.042 A 
ATOM     19  C   UNL A   1      36.341  22.947  23.140  1.00  0.00     0.044 C 
ATOM     20  C   UNL A   1      35.391  23.793  23.940  1.00  0.00    -0.051 A 
ATOM     21  C   UNL A   1      34.324  24.457  23.320  1.00  0.00     0.005 A 
ATOM     22  C   UNL A   1      35.533  23.909  25.322  1.00  0.00     0.005 A 
ATOM     23  C   UNL A   1      33.358  25.142  24.073  1.00  0.00     0.026 A 
ATOM     24  C   UNL A   1      34.544  24.562  26.070  1.00  0.00     0.026 A 
ENDBRANCH  15  18
ENDBRANCH   9  14
ENDBRANCH   6   8
ENDBRANCH   5   6
ENDBRANCH   4   5
ENDBRANCH   3   4
ENDBRANCH   2   3
ENDBRANCH   1   2
BRANCH   1  25
ATOM     25  C   UNL A   1      34.474  35.397  28.411  1.00  0.00     0.188 C 
BRANCH  25  26
ATOM     26  O   UNL A   1      33.336  35.451  29.232  1.00  0.00    -0.376 OA
BRANCH  26  27
ATOM     27  C   UNL A   1      33.308  36.563  30.109  1.00  0.00     0.202 C 
BRANCH  27  28
ATOM     28  C   UNL A   1      32.418  36.400  31.364  1.00  0.00     0.261 C 
BRANCH  28  29
ATOM     29  O   UNL A   1      32.823  35.263  32.164  1.00  0.00    -0.460 OA
BRANCH  29  30
ATOM     30  C   UNL A   1      33.916  35.409  32.998  1.00  0.00     0.338 C 
ATOM     31  O   UNL A   1      34.405  36.462  33.328  1.00  0.00    -0.246 OA
BRANCH  30  32
ATOM     32  C   UNL A   1      34.575  34.062  33.183  1.00  0.00     0.060 A 
ATOM     33  C   UNL A   1      35.487  33.730  34.196  1.00  0.00     0.016 A 
ATOM     34  C   UNL A   1      34.663  33.319  32.062  1.00  0.00     0.016 A 
ATOM     35  C   UNL A   1      36.641  32.873  33.937  1.00  0.00     0.010 A 
ATOM     36  C   UNL A   1      35.938  32.826  31.799  1.00  0.00     0.010 A 
ATOM     37  C   UNL A   1      37.028  32.489  32.651  1.00  0.00    -0.014 A 
BRANCH  37  38
ATOM     38  C   UNL A   1      38.497  31.690  32.189  1.00  0.00     0.031 A 
ATOM     39  C   UNL A   1      38.744  30.312  31.295  1.00  0.00     0.074 A 
ATOM     40  C   UNL A   1      39.698  32.261  32.443  1.00  0.00     0.049 A 
ATOM     41  N   UNL A   1      39.436  30.205  30.172  1.00  0.00    -0.248 NA
ATOM     42  C   UNL A   1      38.162  28.975  31.562  1.00  0.00     0.031 C 
ATOM     43  C   UNL A   1      41.030  31.846  31.984  1.00  0.00     0.029 A 
ATOM     44  N   UNL A   1      39.983  33.336  33.282  1.00  0.00    -0.354 N 
ATOM     45  C   UNL A   1      39.262  28.909  29.637  1.00  0.00     0.074 A 
ATOM     46  C   UNL A   1      38.178  28.330  30.403  1.00  0.00     0.031 C 
ATOM     47  C   UNL A   1      41.955  32.382  32.800  1.00  0.00     0.029 A 
ATOM     48  C   UNL A   1      41.235  33.063  33.861  1.00  0.00     0.049 A 
ATOM     49  H   UNL A   1      39.420  34.129  33.439  1.00  0.00     0.167 HD
ATOM     50  C   UNL A   1      40.248  27.982  29.445  1.00  0.00     0.031 A 
ATOM     51  C   UNL A   1      41.240  32.723  35.178  1.00  0.00     0.031 A 
ATOM     52  C   UNL A   1      41.323  28.085  30.414  1.00  0.00     0.049 A 
ATOM     53  C   UNL A   1      41.520  31.232  35.346  1.00  0.00     0.074 A 
ATOM     54  C   UNL A   1      42.582  28.640  30.371  1.00  0.00     0.029 A 
ATOM     55  N   UNL A   1      41.069  27.795  31.760  1.00  0.00    -0.354 N 
ATOM     56  N   UNL A   1      41.475  30.344  34.382  1.00  0.00    -0.248 NA
ATOM     57  C   UNL A   1      41.878  30.626  36.624  1.00  0.00     0.031 C 
ATOM     58  C   UNL A   1      43.041  28.779  31.712  1.00  0.00     0.029 A 
ATOM     59  C   UNL A   1      42.093  28.250  32.575  1.00  0.00     0.049 A 
ATOM     60  H   UNL A   1      40.266  27.328  32.085  1.00  0.00     0.167 HD
ATOM     61  C   UNL A   1      41.874  29.123  34.844  1.00  0.00     0.074 A 
ATOM     62  C   UNL A   1      42.033  29.334  36.278  1.00  0.00     0.031 C 
ATOM     63  C   UNL A   1      42.092  28.047  34.027  1.00  0.00     0.031 A 
BRANCH  50  64
ATOM     64  C   UNL A   1      40.058  26.921  28.366  1.00  0.00    -0.014 A 
ATOM     65  C   UNL A   1      39.498  25.680  28.704  1.00  0.00     0.009 A 
ATOM     66  C   UNL A   1      40.512  27.045  27.027  1.00  0.00     0.009 A 
ATOM     67  C   UNL A   1      39.454  24.611  27.787  1.00  0.00     0.001 A 
ATOM     68  C   UNL A   1      40.439  25.991  26.099  1.00  0.00     0.001 A 
ATOM     69  C   UNL A   1      39.930  24.763  26.488  1.00  0.00     0.000 A 
ENDBRANCH  50  64
BRANCH  51  70
ATOM     70  C   UNL A   1      40.267  33.567  35.957  1.00  0.00    -0.014 A 
ATOM     71  C   UNL A   1      39.147  32.958  36.569  1.00  0.00     0.009 A 
ATOM     72  C   UNL A   1      40.631  34.819  36.440  1.00  0.00     0.009 A 
ATOM     73  C   UNL A   1      38.500  33.535  37.677  1.00  0.00     0.001 A 
ATOM     74  C   UNL A   1      39.947  35.424  37.512  1.00  0.00     0.001 A 
ATOM     75  C   UNL A   1      38.913  34.766  38.162  1.00  0.00     0.000 A 
ENDBRANCH  51  70
BRANCH  63  76
ATOM     76  C   UNL A   1      42.505  26.697  34.548  1.00  0.00    -0.014 A 
ATOM     77  C   UNL A   1      43.758  26.126  34.281  1.00  0.00     0.009 A 
ATOM     78  C   UNL A   1      41.570  25.897  35.234  1.00  0.00     0.009 A 
ATOM     79  C   UNL A   1      44.087  24.847  34.745  1.00  0.00     0.001 A 
ATOM     80  C   UNL A   1      41.879  24.602  35.660  1.00  0.00     0.001 A 
ATOM     81  C   UNL A   1      43.147  24.084  35.430  1.00  0.00     0.000 A 
ENDBRANCH  63  76
ENDBRANCH  37  38
ENDBRANCH  30  32
ENDBRANCH  29  30
ENDBRANCH  28  29
ENDBRANCH  27  28
ENDBRANCH  26  27
ENDBRANCH  25  26
ENDBRANCH   1  25
TORSDOF 19
ENDMDL
MODEL 2
REMARK VINA RESULT:     -12.4      1.163      2.823
REMARK SMILES Cc1ccc(NC(=O)N2CCCC[C@@H]2C(=O)OCCOCCOCCOC(=O)c2ccc(-c3c4nc(c(-c5ccccc5)c5ccc([nH]5)c(-c5ccccc5)c5nc(c(-c6ccccc6)c6ccc3[nH]6)C=C5)C=C4)cc2)cc1
REMARK SMILES IDX 21 1 20 2 19 3 18 4 17 5 15 6 16 7 14 8 9 9 10 10 11 11
REMARK SMILES IDX 13 12 12 13 7 14 6 15 8 17 5 18 1 19 2 20 3 21 78 22 4 23
REMARK SMILES IDX 77 24 22 25 23 26 24 27 25 28 26 29 27 30 28 31 29 32 30 33
REMARK SMILES IDX 76 34 31 35 75 36 32 37 33 38 34 39 69 40 35 41 74 42 68 43
REMARK SMILES IDX 70 44 36 45 73 46 67 47 66 48 37 50 59 51 44 52 58 53 45 54
REMARK SMILES IDX 48 55 57 56 71 57 46 58 47 59 56 61 72 62 49 63 38 64 39 65
REMARK SMILES IDX 43 66 40 67 42 68 41 69 60 70 61 71 65 72 62 73 64 74 63 75
REMARK SMILES IDX 50 76 51 77 55 78 52 79 54 80 53 81
REMARK H PARENT 6 16 70 49 48 60
REMARK Flexibility Score: inf
ROOT
ATOM      1  C   UNL A   1      35.191  32.785  28.358  1.00  0.00     0.188 C 
ENDROOT
BRANCH   1   2
ATOM      2  O   UNL A   1      35.296  31.391  28.000  1.00  0.00    -0.376 OA
BRANCH   2   3
ATOM      3  C   UNL A   1      34.350  30.355  27.607  1.00  0.00     0.202 C 
BRANCH   3   4
ATOM      4  C   UNL A   1      34.312  28.954  26.435  1.00  0.00     0.261 C 
BRANCH   4   5
ATOM      5  O   UNL A   1      33.749  27.349  26.407  1.00  0.00    -0.462 OA
BRANCH   5   6
ATOM      6  C   UNL A   1      32.575  26.581  26.263  1.00  0.00     0.329 C 
ATOM      7  O   UNL A   1      31.403  26.958  26.378  1.00  0.00    -0.250 OA
BRANCH   6   8
ATOM      8  C   UNL A   1      32.555  25.107  25.911  1.00  0.00     0.196 C 
ATOM      9  N   UNL A   1      32.431  24.834  24.410  1.00  0.00    -0.311 N 
ATOM     10  C   UNL A   1      31.982  23.524  23.977  1.00  0.00     0.122 C 
ATOM     11  C   UNL A   1      30.982  22.872  24.906  1.00  0.00     0.022 C 
ATOM     12  C   UNL A   1      31.563  24.363  26.778  1.00  0.00     0.037 C 
ATOM     13  C   UNL A   1      31.478  22.914  26.342  1.00  0.00     0.005 C 
BRANCH   9  14
ATOM     14  C   UNL A   1      32.873  25.599  23.357  1.00  0.00     0.322 C 
ATOM     15  N   UNL A   1      32.140  26.492  22.661  1.00  0.00    -0.308 N 
ATOM     16  H   UNL A   1      32.549  26.679  21.785  1.00  0.00     0.171 HD
ATOM     17  O   UNL A   1      34.056  25.490  23.000  1.00  0.00    -0.248 OA
BRANCH  15  18
ATOM     18  C   UNL A   1      30.959  27.227  22.834  1.00  0.00     0.042 A 
ATOM     19  C   UNL A   1      27.395  29.679  22.964  1.00  0.00     0.044 C 
ATOM     20  C   UNL A   1      28.659  28.867  23.010  1.00  0.00    -0.051 A 
ATOM     21  C   UNL A   1      28.649  27.549  23.481  1.00  0.00     0.005 A 
ATOM     22  C   UNL A   1      29.864  29.401  22.555  1.00  0.00     0.005 A 
ATOM     23  C   UNL A   1      29.796  26.741  23.408  1.00  0.00     0.026 A 
ATOM     24  C   UNL A   1      30.993  28.579  22.448  1.00  0.00     0.026 A 
ENDBRANCH  15  18
ENDBRANCH   9  14
ENDBRANCH   6   8
ENDBRANCH   5   6
ENDBRANCH   4   5
ENDBRANCH   3   4
ENDBRANCH   2   3
ENDBRANCH   1   2
BRANCH   1  25
ATOM     25  C   UNL A   1      33.933  33.635  28.350  1.00  0.00     0.188 C 
BRANCH  25  26
ATOM     26  O   UNL A   1      34.152  34.863  28.996  1.00  0.00    -0.376 OA
BRANCH  26  27
ATOM     27  C   UNL A   1      32.966  35.570  29.312  1.00  0.00     0.202 C 
BRANCH  27  28
ATOM     28  C   UNL A   1      32.885  36.125  30.754  1.00  0.00     0.261 C 
BRANCH  28  29
ATOM     29  O   UNL A   1      32.966  35.068  31.740  1.00  0.00    -0.460 OA
BRANCH  29  30
ATOM     30  C   UNL A   1      33.752  35.278  32.858  1.00  0.00     0.338 C 
ATOM     31  O   UNL A   1      33.983  36.353  33.355  1.00  0.00    -0.246 OA
BRANCH  30  32
ATOM     32  C   UNL A   1      34.507  34.008  33.172  1.00  0.00     0.060 A 
ATOM     33  C   UNL A   1      35.514  33.873  34.139  1.00  0.00     0.016 A 
ATOM     34  C   UNL A   1      34.556  33.117  32.162  1.00  0.00     0.016 A 
ATOM     35  C   UNL A   1      36.697  33.048  33.904  1.00  0.00     0.010 A 
ATOM     36  C   UNL A   1      35.835  32.657  31.862  1.00  0.00     0.010 A 
ATOM     37  C   UNL A   1      37.007  32.504  32.655  1.00  0.00    -0.014 A 
BRANCH  37  38
ATOM     38  C   UNL A   1      38.483  31.724  32.185  1.00  0.00     0.031 A 
ATOM     39  C   UNL A   1      38.743  30.350  31.289  1.00  0.00     0.074 A 
ATOM     40  C   UNL A   1      39.678  32.310  32.433  1.00  0.00     0.049 A 
ATOM     41  N   UNL A   1      39.431  30.252  30.162  1.00  0.00    -0.248 NA
ATOM     42  C   UNL A   1      38.180  29.005  31.557  1.00  0.00     0.031 C 
ATOM     43  C   UNL A   1      41.013  31.912  31.967  1.00  0.00     0.029 A 
ATOM     44  N   UNL A   1      39.954  33.388  33.272  1.00  0.00    -0.354 N 
ATOM     45  C   UNL A   1      39.270  28.955  29.627  1.00  0.00     0.074 A 
ATOM     46  C   UNL A   1      38.198  28.362  30.398  1.00  0.00     0.031 C 
ATOM     47  C   UNL A   1      41.936  32.459  32.779  1.00  0.00     0.029 A 
ATOM     48  C   UNL A   1      41.212  33.130  33.844  1.00  0.00     0.049 A 
ATOM     49  H   UNL A   1      39.382  34.173  33.432  1.00  0.00     0.167 HD
ATOM     50  C   UNL A   1      40.267  28.041  29.429  1.00  0.00     0.031 A 
ATOM     51  C   UNL A   1      41.229  32.789  35.161  1.00  0.00     0.031 A 
ATOM     52  C   UNL A   1      41.345  28.157  30.393  1.00  0.00     0.049 A 
ATOM     53  C   UNL A   1      41.528  31.301  35.326  1.00  0.00     0.074 A 
ATOM     54  C   UNL A   1      42.597  28.727  30.343  1.00  0.00     0.029 A 
ATOM     55  N   UNL A   1      41.102  27.862  31.739  1.00  0.00    -0.354 N 
ATOM     56  N   UNL A   1      41.490  30.414  34.361  1.00  0.00    -0.248 NA
ATOM     57  C   UNL A   1      41.901  30.700  36.602  1.00  0.00     0.031 C 
ATOM     58  C   UNL A   1      43.061  28.871  31.682  1.00  0.00     0.029 A 
ATOM     59  C   UNL A   1      42.125  28.329  32.549  1.00  0.00     0.049 A 
ATOM     60  H   UNL A   1      40.307  27.385  32.068  1.00  0.00     0.167 HD
ATOM     61  C   UNL A   1      41.906  29.198  34.820  1.00  0.00     0.074 A 
ATOM     62  C   UNL A   1      42.070  29.410  36.253  1.00  0.00     0.031 C 
ATOM     63  C   UNL A   1      42.134  28.125  34.001  1.00  0.00     0.031 A 
BRANCH  50  64
ATOM     64  C   UNL A   1      40.084  26.979  28.350  1.00  0.00    -0.014 A 
ATOM     65  C   UNL A   1      39.393  25.796  28.651  1.00  0.00     0.009 A 
ATOM     66  C   UNL A   1      40.666  27.037  27.057  1.00  0.00     0.009 A 
ATOM     67  C   UNL A   1      39.340  24.717  27.746  1.00  0.00     0.001 A 
ATOM     68  C   UNL A   1      40.587  25.975  26.138  1.00  0.00     0.001 A 
ATOM     69  C   UNL A   1      39.942  24.802  26.494  1.00  0.00     0.000 A 
ENDBRANCH  50  64
BRANCH  51  70
ATOM     70  C   UNL A   1      40.249  33.620  35.946  1.00  0.00    -0.014 A 
ATOM     71  C   UNL A   1      39.166  32.990  36.601  1.00  0.00     0.009 A 
ATOM     72  C   UNL A   1      40.585  34.893  36.391  1.00  0.00     0.009 A 
ATOM     73  C   UNL A   1      38.528  33.573  37.711  1.00  0.00     0.001 A 
ATOM     74  C   UNL A   1      39.909  35.502  37.466  1.00  0.00     0.001 A 
ATOM     75  C   UNL A   1      38.914  34.827  38.158  1.00  0.00     0.000 A 
ENDBRANCH  51  70
BRANCH  63  76
ATOM     76  C   UNL A   1      42.567  26.780  34.519  1.00  0.00    -0.014 A 
ATOM     77  C   UNL A   1      43.828  26.229  34.252  1.00  0.00     0.009 A 
ATOM     78  C   UNL A   1      41.643  25.964  35.202  1.00  0.00     0.009 A 
ATOM     79  C   UNL A   1      44.177  24.954  34.712  1.00  0.00     0.001 A 
ATOM     80  C   UNL A   1      41.972  24.673  35.624  1.00  0.00     0.001 A 
ATOM     81  C   UNL A   1      43.247  24.174  35.394  1.00  0.00     0.000 A 
ENDBRANCH  63  76
ENDBRANCH  37  38
ENDBRANCH  30  32
ENDBRANCH  29  30
ENDBRANCH  28  29
ENDBRANCH  27  28
ENDBRANCH  26  27
ENDBRANCH  25  26
ENDBRANCH   1  25
TORSDOF 19
ENDMDL
MODEL 3
REMARK VINA RESULT:     -12.3      1.570      1.972
REMARK SMILES Cc1ccc(NC(=O)N2CCCC[C@@H]2C(=O)OCCOCCOCCOC(=O)c2ccc(-c3c4nc(c(-c5ccccc5)c5ccc([nH]5)c(-c5ccccc5)c5nc(c(-c6ccccc6)c6ccc3[nH]6)C=C5)C=C4)cc2)cc1
REMARK SMILES IDX 21 1 20 2 19 3 18 4 17 5 15 6 16 7 14 8 9 9 10 10 11 11
REMARK SMILES IDX 13 12 12 13 7 14 6 15 8 17 5 18 1 19 2 20 3 21 78 22 4 23
REMARK SMILES IDX 77 24 22 25 23 26 24 27 25 28 26 29 27 30 28 31 29 32 30 33
REMARK SMILES IDX 76 34 31 35 75 36 32 37 33 38 34 39 69 40 35 41 74 42 68 43
REMARK SMILES IDX 70 44 36 45 73 46 67 47 66 48 37 50 59 51 44 52 58 53 45 54
REMARK SMILES IDX 48 55 57 56 71 57 46 58 47 59 56 61 72 62 49 63 38 64 39 65
REMARK SMILES IDX 43 66 40 67 42 68 41 69 60 70 61 71 65 72 62 73 64 74 63 75
REMARK SMILES IDX 50 76 51 77 55 78 52 79 54 80 53 81
REMARK H PARENT 6 16 70 49 48 60
REMARK Flexibility Score: inf
ROOT
ATOM      1  C   UNL A   1      34.239  32.213  28.373  1.00  0.00     0.188 C 
ENDROOT
BRANCH   1   2
ATOM      2  O   UNL A   1      33.740  30.945  27.895  1.00  0.00    -0.376 OA
BRANCH   2   3
ATOM      3  C   UNL A   1      33.004  30.507  26.717  1.00  0.00     0.202 C 
BRANCH   3   4
ATOM      4  C   UNL A   1      33.341  29.507  25.226  1.00  0.00     0.261 C 
BRANCH   4   5
ATOM      5  O   UNL A   1      33.761  27.901  24.854  1.00  0.00    -0.462 OA
BRANCH   5   6
ATOM      6  C   UNL A   1      33.529  26.566  25.249  1.00  0.00     0.329 C 
ATOM      7  O   UNL A   1      34.325  25.783  25.778  1.00  0.00    -0.250 OA
BRANCH   6   8
ATOM      8  C   UNL A   1      32.203  25.848  25.097  1.00  0.00     0.196 C 
ATOM      9  N   UNL A   1      31.921  25.370  23.670  1.00  0.00    -0.311 N 
ATOM     10  C   UNL A   1      30.554  25.059  23.299  1.00  0.00     0.122 C 
ATOM     11  C   UNL A   1      29.515  25.922  23.981  1.00  0.00     0.022 C 
ATOM     12  C   UNL A   1      31.086  26.645  25.735  1.00  0.00     0.037 C 
ATOM     13  C   UNL A   1      29.756  25.965  25.481  1.00  0.00     0.005 C 
BRANCH   9  14
ATOM     14  C   UNL A   1      32.816  24.991  22.698  1.00  0.00     0.322 C 
ATOM     15  N   UNL A   1      33.415  23.787  22.595  1.00  0.00    -0.308 N 
ATOM     16  H   UNL A   1      34.225  23.842  22.038  1.00  0.00     0.171 HD
ATOM     17  O   UNL A   1      33.109  25.807  21.811  1.00  0.00    -0.248 OA
BRANCH  15  18
ATOM     18  C   UNL A   1      33.209  22.481  23.060  1.00  0.00     0.042 A 
ATOM     19  C   UNL A   1      32.612  18.617  24.914  1.00  0.00     0.044 C 
ATOM     20  C   UNL A   1      32.895  19.916  24.215  1.00  0.00    -0.051 A 
ATOM     21  C   UNL A   1      32.155  20.303  23.090  1.00  0.00     0.005 A 
ATOM     22  C   UNL A   1      33.882  20.780  24.690  1.00  0.00     0.005 A 
ATOM     23  C   UNL A   1      32.324  21.570  22.509  1.00  0.00     0.026 A 
ATOM     24  C   UNL A   1      34.018  22.056  24.130  1.00  0.00     0.026 A 
ENDBRANCH  15  18
ENDBRANCH   9  14
ENDBRANCH   6   8
ENDBRANCH   5   6
ENDBRANCH   4   5
ENDBRANCH   3   4
ENDBRANCH   2   3
ENDBRANCH   1   2
BRANCH   1  25
ATOM     25  C   UNL A   1      33.562  33.566  28.242  1.00  0.00     0.188 C 
BRANCH  25  26
ATOM     26  O   UNL A   1      33.597  34.265  29.460  1.00  0.00    -0.376 OA
BRANCH  26  27
ATOM     27  C   UNL A   1      32.883  35.488  29.445  1.00  0.00     0.202 C 
BRANCH  27  28
ATOM     28  C   UNL A   1      32.645  36.138  30.829  1.00  0.00     0.261 C 
BRANCH  28  29
ATOM     29  O   UNL A   1      32.831  35.188  31.906  1.00  0.00    -0.460 OA
BRANCH  29  30
ATOM     30  C   UNL A   1      33.794  35.465  32.860  1.00  0.00     0.338 C 
ATOM     31  O   UNL A   1      34.145  36.570  33.195  1.00  0.00    -0.246 OA
BRANCH  30  32
ATOM     32  C   UNL A   1      34.537  34.191  33.189  1.00  0.00     0.060 A 
ATOM     33  C   UNL A   1      35.556  34.064  34.145  1.00  0.00     0.016 A 
ATOM     34  C   UNL A   1      34.559  33.279  32.198  1.00  0.00     0.016 A 
ATOM     35  C   UNL A   1      36.724  33.218  33.910  1.00  0.00     0.010 A 
ATOM     36  C   UNL A   1      35.828  32.797  31.889  1.00  0.00     0.010 A 
ATOM     37  C   UNL A   1      37.009  32.644  32.669  1.00  0.00    -0.014 A 
BRANCH  37  38
ATOM     38  C   UNL A   1      38.469  31.834  32.194  1.00  0.00     0.031 A 
ATOM     39  C   UNL A   1      38.699  30.457  31.296  1.00  0.00     0.074 A 
ATOM     40  C   UNL A   1      39.676  32.396  32.441  1.00  0.00     0.049 A 
ATOM     41  N   UNL A   1      39.381  30.347  30.167  1.00  0.00    -0.248 NA
ATOM     42  C   UNL A   1      38.108  29.124  31.563  1.00  0.00     0.031 C 
ATOM     43  C   UNL A   1      41.001  31.972  31.971  1.00  0.00     0.029 A 
ATOM     44  N   UNL A   1      39.975  33.467  33.280  1.00  0.00    -0.354 N 
ATOM     45  C   UNL A   1      39.193  29.054  29.630  1.00  0.00     0.074 A 
ATOM     46  C   UNL A   1      38.111  28.482  30.403  1.00  0.00     0.031 C 
ATOM     47  C   UNL A   1      41.937  32.499  32.781  1.00  0.00     0.029 A 
ATOM     48  C   UNL A   1      41.229  33.183  33.849  1.00  0.00     0.049 A 
ATOM     49  H   UNL A   1      39.420  34.263  33.443  1.00  0.00     0.167 HD
ATOM     50  C   UNL A   1      40.170  28.120  29.429  1.00  0.00     0.031 A 
ATOM     51  C   UNL A   1      41.242  32.839  35.166  1.00  0.00     0.031 A 
ATOM     52  C   UNL A   1      41.253  28.213  30.390  1.00  0.00     0.049 A 
ATOM     53  C   UNL A   1      41.511  31.346  35.328  1.00  0.00     0.074 A 
ATOM     54  C   UNL A   1      42.516  28.758  30.339  1.00  0.00     0.029 A 
ATOM     55  N   UNL A   1      41.007  27.921  31.737  1.00  0.00    -0.354 N 
ATOM     56  N   UNL A   1      41.453  30.461  34.362  1.00  0.00    -0.248 NA
ATOM     57  C   UNL A   1      41.874  30.735  36.602  1.00  0.00     0.031 C 
ATOM     58  C   UNL A   1      42.986  28.890  31.677  1.00  0.00     0.029 A 
ATOM     59  C   UNL A   1      42.041  28.366  32.545  1.00  0.00     0.049 A 
ATOM     60  H   UNL A   1      40.203  27.459  32.067  1.00  0.00     0.167 HD
ATOM     61  C   UNL A   1      41.845  29.236  34.818  1.00  0.00     0.074 A 
ATOM     62  C   UNL A   1      42.017  29.442  36.251  1.00  0.00     0.031 C 
ATOM     63  C   UNL A   1      42.049  28.159  33.997  1.00  0.00     0.031 A 
BRANCH  50  64
ATOM     64  C   UNL A   1      39.964  27.063  28.348  1.00  0.00    -0.014 A 
ATOM     65  C   UNL A   1      39.218  25.911  28.639  1.00  0.00     0.009 A 
ATOM     66  C   UNL A   1      40.572  27.094  27.067  1.00  0.00     0.009 A 
ATOM     67  C   UNL A   1      39.137  24.833  27.736  1.00  0.00     0.001 A 
ATOM     68  C   UNL A   1      40.466  26.033  26.149  1.00  0.00     0.001 A 
ATOM     69  C   UNL A   1      39.766  24.889  26.495  1.00  0.00     0.000 A 
ENDBRANCH  50  64
BRANCH  51  70
ATOM     70  C   UNL A   1      40.281  33.689  35.953  1.00  0.00    -0.014 A 
ATOM     71  C   UNL A   1      39.160  33.087  36.570  1.00  0.00     0.009 A 
ATOM     72  C   UNL A   1      40.659  34.935  36.440  1.00  0.00     0.009 A 
ATOM     73  C   UNL A   1      38.524  33.666  37.684  1.00  0.00     0.001 A 
ATOM     74  C   UNL A   1      39.987  35.542  37.517  1.00  0.00     0.001 A 
ATOM     75  C   UNL A   1      38.952  34.891  38.171  1.00  0.00     0.000 A 
ENDBRANCH  51  70
BRANCH  63  76
ATOM     76  C   UNL A   1      42.455  26.805  34.512  1.00  0.00    -0.014 A 
ATOM     77  C   UNL A   1      43.671  26.193  34.173  1.00  0.00     0.009 A 
ATOM     78  C   UNL A   1      41.544  26.044  35.271  1.00  0.00     0.009 A 
ATOM     79  C   UNL A   1      43.992  24.911  34.635  1.00  0.00     0.001 A 
ATOM     80  C   UNL A   1      41.843  24.747  35.696  1.00  0.00     0.001 A 
ATOM     81  C   UNL A   1      43.077  24.187  35.392  1.00  0.00     0.000 A 
ENDBRANCH  63  76
ENDBRANCH  37  38
ENDBRANCH  30  32
ENDBRANCH  29  30
ENDBRANCH  28  29
ENDBRANCH  27  28
ENDBRANCH  26  27
ENDBRANCH  25  26
ENDBRANCH   1  25
TORSDOF 19
ENDMDL
