MODEL 1
REMARK VINA RESULT:      -9.6      0.000      0.000
REMARK SMILES Cc1oc2cc(OCC(=O)OCCOCCOCCOC(=O)c3ccc(-c4c5nc(c(-c6ccccc6)c6ccc([nH]6)c(-c6ccccc6)c6nc(c(-c7ccccc7)c7ccc4[nH]7)C=C6)C=C5)cc3)ccc2c(=O)c1Oc1ccc(Cl)cc1Cl
REMARK SMILES IDX 15 1 14 2 13 3 12 4 11 5 9 6 10 7 8 8 7 9 6 10 1 11 2 12
REMARK SMILES IDX 3 13 76 14 4 15 74 16 5 17 73 18 75 19 72 20 71 21 77 22
REMARK SMILES IDX 78 23 79 24 84 25 80 26 83 27 85 28 81 29 82 30 16 31 17 32
REMARK SMILES IDX 18 33 19 34 20 35 21 36 22 37 23 38 24 39 70 40 25 41 69 42
REMARK SMILES IDX 26 43 27 44 28 45 63 46 29 47 68 48 62 49 64 50 30 51 67 52
REMARK SMILES IDX 61 53 60 54 31 56 53 57 38 58 52 59 39 60 42 61 51 62 65 63
REMARK SMILES IDX 40 64 41 65 50 67 66 68 43 69 32 70 33 71 37 72 34 73 36 74
REMARK SMILES IDX 35 75 54 76 55 77 59 78 56 79 58 80 57 81 44 82 45 83 49 84
REMARK SMILES IDX 46 85 48 86 47 87
REMARK H PARENT 64 55 42 66
REMARK Flexibility Score: inf
ROOT
ATOM      1  C   UNL A   1      33.762  29.100  27.300  1.00  0.00     0.188 C 
ENDROOT
BRANCH   1   2
ATOM      2  O   UNL A   1      34.056  28.278  26.178  1.00  0.00    -0.376 OA
BRANCH   2   3
ATOM      3  C   UNL A   1      33.474  26.977  26.165  1.00  0.00     0.202 C 
BRANCH   3   4
ATOM      4  C   UNL A   1      32.640  26.672  24.912  1.00  0.00     0.261 C 
BRANCH   4   5
ATOM      5  O   UNL A   1      33.379  25.792  24.029  1.00  0.00    -0.461 OA
BRANCH   5   6
ATOM      6  C   UNL A   1      32.681  24.821  23.384  1.00  0.00     0.344 C 
ATOM      7  O   UNL A   1      32.409  24.851  22.189  1.00  0.00    -0.248 OA
BRANCH   6   8
ATOM      8  C   UNL A   1      32.442  23.568  24.264  1.00  0.00     0.351 C 
BRANCH   8   9
ATOM      9  O   UNL A   1      33.251  23.382  25.420  1.00  0.00    -0.482 OA
BRANCH   9  10
ATOM     10  C   UNL A   1      34.571  23.005  25.323  1.00  0.00     0.123 A 
ATOM     11  C   UNL A   1      39.774  24.341  27.530  1.00  0.00     0.092 C 
ATOM     12  C   UNL A   1      39.145  23.427  26.539  1.00  0.00     0.148 A 
ATOM     13  O   UNL A   1      38.042  24.027  25.916  1.00  0.00    -0.457 OA
ATOM     14  C   UNL A   1      39.522  22.146  26.353  1.00  0.00     0.213 A 
ATOM     15  C   UNL A   1      36.984  23.223  25.581  1.00  0.00     0.142 A 
ATOM     16  C   UNL A   1      38.546  21.302  25.571  1.00  0.00     0.235 A 
ATOM     17  C   UNL A   1      35.701  23.809  25.470  1.00  0.00     0.094 A 
ATOM     18  C   UNL A   1      37.172  21.864  25.413  1.00  0.00     0.069 A 
ATOM     19  O   UNL A   1      38.826  20.210  25.141  1.00  0.00    -0.285 OA
ATOM     20  C   UNL A   1      36.065  21.064  25.139  1.00  0.00     0.020 A 
ATOM     21  C   UNL A   1      34.774  21.632  25.123  1.00  0.00     0.047 A 
BRANCH  14  22
ATOM     22  O   UNL A   1      40.649  21.484  26.875  1.00  0.00    -0.448 OA
BRANCH  22  23
ATOM     23  C   UNL A   1      41.832  21.443  26.157  1.00  0.00     0.146 A 
ATOM     24  C   UNL A   1      42.458  22.637  25.765  1.00  0.00     0.050 A 
ATOM     25  C   UNL A   1      42.463  20.215  25.898  1.00  0.00     0.085 A 
ATOM     26  C   UNL A   1      43.771  22.606  25.271  1.00  0.00     0.024 A 
ATOM     27  C   UNL A   1      43.769  20.187  25.395  1.00  0.00     0.045 A 
ATOM     28  Cl  UNL A   1      41.718  18.715  26.317  1.00  0.00    -0.080 Cl
ATOM     29  C   UNL A   1      44.429  21.384  25.119  1.00  0.00     0.042 A 
ATOM     30  Cl  UNL A   1      46.085  21.355  24.648  1.00  0.00    -0.084 Cl
ENDBRANCH  22  23
ENDBRANCH  14  22
ENDBRANCH   9  10
ENDBRANCH   8   9
ENDBRANCH   6   8
ENDBRANCH   5   6
ENDBRANCH   4   5
ENDBRANCH   3   4
ENDBRANCH   2   3
ENDBRANCH   1   2
BRANCH   1  31
ATOM     31  C   UNL A   1      33.770  30.625  27.084  1.00  0.00     0.188 C 
BRANCH  31  32
ATOM     32  O   UNL A   1      34.514  31.432  27.977  1.00  0.00    -0.376 OA
BRANCH  32  33
ATOM     33  C   UNL A   1      34.039  32.740  28.259  1.00  0.00     0.202 C 
BRANCH  33  34
ATOM     34  C   UNL A   1      34.430  33.320  29.621  1.00  0.00     0.261 C 
BRANCH  34  35
ATOM     35  O   UNL A   1      34.154  34.742  29.734  1.00  0.00    -0.460 OA
BRANCH  35  36
ATOM     36  C   UNL A   1      33.472  35.064  30.852  1.00  0.00     0.338 C 
ATOM     37  O   UNL A   1      32.300  35.414  30.877  1.00  0.00    -0.246 OA
BRANCH  36  38
ATOM     38  C   UNL A   1      34.186  34.861  32.139  1.00  0.00     0.060 A 
ATOM     39  C   UNL A   1      35.486  35.389  32.198  1.00  0.00     0.016 A 
ATOM     40  C   UNL A   1      33.863  33.760  32.936  1.00  0.00     0.016 A 
ATOM     41  C   UNL A   1      36.512  34.697  32.854  1.00  0.00     0.010 A 
ATOM     42  C   UNL A   1      34.888  33.086  33.632  1.00  0.00     0.010 A 
ATOM     43  C   UNL A   1      36.238  33.487  33.508  1.00  0.00    -0.014 A 
BRANCH  43  44
ATOM     44  C   UNL A   1      37.326  32.696  34.140  1.00  0.00     0.031 A 
ATOM     45  C   UNL A   1      37.883  32.931  35.522  1.00  0.00     0.074 A 
ATOM     46  C   UNL A   1      37.874  31.738  33.384  1.00  0.00     0.049 A 
ATOM     47  N   UNL A   1      39.092  32.724  35.988  1.00  0.00    -0.248 NA
ATOM     48  C   UNL A   1      36.960  33.440  36.534  1.00  0.00     0.031 C 
ATOM     49  C   UNL A   1      37.357  31.301  32.090  1.00  0.00     0.029 A 
ATOM     50  N   UNL A   1      39.016  31.012  33.577  1.00  0.00    -0.354 N 
ATOM     51  C   UNL A   1      39.095  33.196  37.304  1.00  0.00     0.074 A 
ATOM     52  C   UNL A   1      37.760  33.686  37.566  1.00  0.00     0.031 C 
ATOM     53  C   UNL A   1      38.226  30.438  31.557  1.00  0.00     0.029 A 
ATOM     54  C   UNL A   1      39.378  30.331  32.446  1.00  0.00     0.049 A 
ATOM     55  H   UNL A   1      39.516  30.982  34.424  1.00  0.00     0.167 HD
ATOM     56  C   UNL A   1      40.108  33.183  38.207  1.00  0.00     0.031 A 
ATOM     57  C   UNL A   1      40.547  29.765  32.114  1.00  0.00     0.031 A 
ATOM     58  C   UNL A   1      41.356  32.489  37.988  1.00  0.00     0.049 A 
ATOM     59  C   UNL A   1      41.669  29.769  33.096  1.00  0.00     0.074 A 
ATOM     60  C   UNL A   1      42.426  32.327  38.854  1.00  0.00     0.029 A 
ATOM     61  N   UNL A   1      41.670  31.784  36.836  1.00  0.00    -0.354 N 
ATOM     62  N   UNL A   1      41.738  30.357  34.265  1.00  0.00    -0.248 NA
ATOM     63  C   UNL A   1      42.862  29.008  32.719  1.00  0.00     0.031 C 
ATOM     64  C   UNL A   1      43.398  31.548  38.213  1.00  0.00     0.029 A 
ATOM     65  C   UNL A   1      42.911  31.187  36.968  1.00  0.00     0.049 A 
ATOM     66  H   UNL A   1      41.093  31.717  36.042  1.00  0.00     0.167 HD
ATOM     67  C   UNL A   1      42.976  30.011  34.783  1.00  0.00     0.074 A 
ATOM     68  C   UNL A   1      43.616  29.158  33.798  1.00  0.00     0.031 C 
ATOM     69  C   UNL A   1      43.531  30.356  35.971  1.00  0.00     0.031 A 
BRANCH  56  70
ATOM     70  C   UNL A   1      39.959  33.928  39.516  1.00  0.00    -0.014 A 
ATOM     71  C   UNL A   1      39.505  33.318  40.693  1.00  0.00     0.009 A 
ATOM     72  C   UNL A   1      40.426  35.255  39.592  1.00  0.00     0.009 A 
ATOM     73  C   UNL A   1      39.503  34.021  41.906  1.00  0.00     0.001 A 
ATOM     74  C   UNL A   1      40.453  35.944  40.808  1.00  0.00     0.001 A 
ATOM     75  C   UNL A   1      39.985  35.329  41.965  1.00  0.00     0.000 A 
ENDBRANCH  56  70
BRANCH  57  76
ATOM     76  C   UNL A   1      40.664  29.189  30.758  1.00  0.00    -0.014 A 
ATOM     77  C   UNL A   1      41.232  29.944  29.727  1.00  0.00     0.009 A 
ATOM     78  C   UNL A   1      40.378  27.828  30.547  1.00  0.00     0.009 A 
ATOM     79  C   UNL A   1      41.524  29.344  28.503  1.00  0.00     0.001 A 
ATOM     80  C   UNL A   1      40.695  27.227  29.330  1.00  0.00     0.001 A 
ATOM     81  C   UNL A   1      41.268  27.986  28.311  1.00  0.00     0.000 A 
ENDBRANCH  57  76
BRANCH  69  82
ATOM     82  C   UNL A   1      44.877  29.767  36.268  1.00  0.00    -0.014 A 
ATOM     83  C   UNL A   1      44.999  28.514  36.888  1.00  0.00     0.009 A 
ATOM     84  C   UNL A   1      46.037  30.491  35.948  1.00  0.00     0.009 A 
ATOM     85  C   UNL A   1      46.257  28.020  37.230  1.00  0.00     0.001 A 
ATOM     86  C   UNL A   1      47.294  29.982  36.270  1.00  0.00     0.001 A 
ATOM     87  C   UNL A   1      47.403  28.754  36.923  1.00  0.00     0.000 A 
ENDBRANCH  69  82
ENDBRANCH  43  44
ENDBRANCH  36  38
ENDBRANCH  35  36
ENDBRANCH  34  35
ENDBRANCH  33  34
ENDBRANCH  32  33
ENDBRANCH  31  32
ENDBRANCH   1  31
TORSDOF 21
ENDMDL
MODEL 2
REMARK VINA RESULT:      -9.5      3.033      8.346
REMARK SMILES Cc1oc2cc(OCC(=O)OCCOCCOCCOC(=O)c3ccc(-c4c5nc(c(-c6ccccc6)c6ccc([nH]6)c(-c6ccccc6)c6nc(c(-c7ccccc7)c7ccc4[nH]7)C=C6)C=C5)cc3)ccc2c(=O)c1Oc1ccc(Cl)cc1Cl
REMARK SMILES IDX 15 1 14 2 13 3 12 4 11 5 9 6 10 7 8 8 7 9 6 10 1 11 2 12
REMARK SMILES IDX 3 13 76 14 4 15 74 16 5 17 73 18 75 19 72 20 71 21 77 22
REMARK SMILES IDX 78 23 79 24 84 25 80 26 83 27 85 28 81 29 82 30 16 31 17 32
REMARK SMILES IDX 18 33 19 34 20 35 21 36 22 37 23 38 24 39 70 40 25 41 69 42
REMARK SMILES IDX 26 43 27 44 28 45 63 46 29 47 68 48 62 49 64 50 30 51 67 52
REMARK SMILES IDX 61 53 60 54 31 56 53 57 38 58 52 59 39 60 42 61 51 62 65 63
REMARK SMILES IDX 40 64 41 65 50 67 66 68 43 69 32 70 33 71 37 72 34 73 36 74
REMARK SMILES IDX 35 75 54 76 55 77 59 78 56 79 58 80 57 81 44 82 45 83 49 84
REMARK SMILES IDX 46 85 48 86 47 87
REMARK H PARENT 64 55 42 66
REMARK Flexibility Score: inf
ROOT
ATOM      1  C   UNL A   1      36.895  22.775  25.033  1.00  0.00     0.188 C 
ENDROOT
BRANCH   1   2
ATOM      2  O   UNL A   1      35.493  22.998  24.960  1.00  0.00    -0.376 OA
BRANCH   2   3
ATOM      3  C   UNL A   1      34.769  22.947  26.186  1.00  0.00     0.202 C 
BRANCH   3   4
ATOM      4  C   UNL A   1      34.020  21.627  26.422  1.00  0.00     0.261 C 
BRANCH   4   5
ATOM      5  O   UNL A   1      34.109  20.792  25.242  1.00  0.00    -0.461 OA
BRANCH   5   6
ATOM      6  C   UNL A   1      32.966  20.199  24.806  1.00  0.00     0.344 C 
ATOM      7  O   UNL A   1      32.434  19.245  25.364  1.00  0.00    -0.248 OA
BRANCH   6   8
ATOM      8  C   UNL A   1      32.288  20.978  23.652  1.00  0.00     0.351 C 
BRANCH   8   9
ATOM      9  O   UNL A   1      32.993  22.058  23.052  1.00  0.00    -0.482 OA
BRANCH   9  10
ATOM     10  C   UNL A   1      32.559  23.358  23.172  1.00  0.00     0.123 A 
ATOM     11  C   UNL A   1      31.023  27.198  27.249  1.00  0.00     0.092 C 
ATOM     12  C   UNL A   1      31.139  27.074  25.771  1.00  0.00     0.148 A 
ATOM     13  O   UNL A   1      30.851  25.771  25.342  1.00  0.00    -0.457 OA
ATOM     14  C   UNL A   1      31.577  28.063  24.966  1.00  0.00     0.213 A 
ATOM     15  C   UNL A   1      31.548  25.287  24.265  1.00  0.00     0.142 A 
ATOM     16  C   UNL A   1      31.949  27.629  23.570  1.00  0.00     0.235 A 
ATOM     17  C   UNL A   1      31.702  23.887  24.137  1.00  0.00     0.094 A 
ATOM     18  C   UNL A   1      32.126  26.161  23.364  1.00  0.00     0.069 A 
ATOM     19  O   UNL A   1      32.155  28.413  22.676  1.00  0.00    -0.285 OA
ATOM     20  C   UNL A   1      32.884  25.638  22.318  1.00  0.00     0.020 A 
ATOM     21  C   UNL A   1      33.117  24.250  22.244  1.00  0.00     0.047 A 
BRANCH  14  22
ATOM     22  O   UNL A   1      31.819  29.410  25.292  1.00  0.00    -0.448 OA
BRANCH  22  23
ATOM     23  C   UNL A   1      32.852  29.748  26.149  1.00  0.00     0.146 A 
ATOM     24  C   UNL A   1      33.999  28.941  26.221  1.00  0.00     0.050 A 
ATOM     25  C   UNL A   1      32.804  30.947  26.881  1.00  0.00     0.085 A 
ATOM     26  C   UNL A   1      35.142  29.413  26.884  1.00  0.00     0.024 A 
ATOM     27  C   UNL A   1      33.943  31.409  27.550  1.00  0.00     0.045 A 
ATOM     28  Cl  UNL A   1      31.403  31.954  26.865  1.00  0.00    -0.080 Cl
ATOM     29  C   UNL A   1      35.117  30.656  27.517  1.00  0.00     0.042 A 
ATOM     30  Cl  UNL A   1      36.559  31.296  28.208  1.00  0.00    -0.084 Cl
ENDBRANCH  22  23
ENDBRANCH  14  22
ENDBRANCH   9  10
ENDBRANCH   8   9
ENDBRANCH   6   8
ENDBRANCH   5   6
ENDBRANCH   4   5
ENDBRANCH   3   4
ENDBRANCH   2   3
ENDBRANCH   1   2
BRANCH   1  31
ATOM     31  C   UNL A   1      37.620  23.231  26.314  1.00  0.00     0.188 C 
BRANCH  31  32
ATOM     32  O   UNL A   1      38.918  23.783  26.197  1.00  0.00    -0.376 OA
BRANCH  32  33
ATOM     33  C   UNL A   1      40.005  23.079  26.780  1.00  0.00     0.202 C 
BRANCH  33  34
ATOM     34  C   UNL A   1      41.400  23.644  26.502  1.00  0.00     0.261 C 
BRANCH  34  35
ATOM     35  O   UNL A   1      41.676  24.867  27.236  1.00  0.00    -0.460 OA
BRANCH  35  36
ATOM     36  C   UNL A   1      41.285  25.980  26.581  1.00  0.00     0.338 C 
ATOM     37  O   UNL A   1      41.473  26.189  25.391  1.00  0.00    -0.246 OA
BRANCH  36  38
ATOM     38  C   UNL A   1      40.473  26.950  27.360  1.00  0.00     0.060 A 
ATOM     39  C   UNL A   1      41.097  28.179  27.631  1.00  0.00     0.016 A 
ATOM     40  C   UNL A   1      39.494  26.476  28.237  1.00  0.00     0.016 A 
ATOM     41  C   UNL A   1      40.925  28.812  28.869  1.00  0.00     0.010 A 
ATOM     42  C   UNL A   1      39.290  27.137  29.466  1.00  0.00     0.010 A 
ATOM     43  C   UNL A   1      40.082  28.248  29.837  1.00  0.00    -0.014 A 
BRANCH  43  44
ATOM     44  C   UNL A   1      39.949  28.859  31.185  1.00  0.00     0.031 A 
ATOM     45  C   UNL A   1      38.869  29.828  31.600  1.00  0.00     0.074 A 
ATOM     46  C   UNL A   1      40.904  28.550  32.069  1.00  0.00     0.049 A 
ATOM     47  N   UNL A   1      38.905  30.803  32.476  1.00  0.00    -0.248 NA
ATOM     48  C   UNL A   1      37.558  29.671  30.971  1.00  0.00     0.031 C 
ATOM     49  C   UNL A   1      41.929  27.529  31.866  1.00  0.00     0.029 A 
ATOM     50  N   UNL A   1      41.195  29.111  33.281  1.00  0.00    -0.354 N 
ATOM     51  C   UNL A   1      37.665  31.444  32.406  1.00  0.00     0.074 A 
ATOM     52  C   UNL A   1      36.893  30.736  31.409  1.00  0.00     0.031 C 
ATOM     53  C   UNL A   1      42.794  27.590  32.881  1.00  0.00     0.029 A 
ATOM     54  C   UNL A   1      42.412  28.698  33.750  1.00  0.00     0.049 A 
ATOM     55  H   UNL A   1      40.601  29.735  33.758  1.00  0.00     0.167 HD
ATOM     56  C   UNL A   1      37.213  32.498  33.132  1.00  0.00     0.031 A 
ATOM     57  C   UNL A   1      43.190  29.214  34.712  1.00  0.00     0.031 A 
ATOM     58  C   UNL A   1      37.922  33.040  34.267  1.00  0.00     0.049 A 
ATOM     59  C   UNL A   1      42.705  30.386  35.497  1.00  0.00     0.074 A 
ATOM     60  C   UNL A   1      37.534  34.046  35.137  1.00  0.00     0.029 A 
ATOM     61  N   UNL A   1      39.142  32.569  34.728  1.00  0.00    -0.354 N 
ATOM     62  N   UNL A   1      41.619  31.099  35.325  1.00  0.00    -0.248 NA
ATOM     63  C   UNL A   1      43.543  30.802  36.623  1.00  0.00     0.031 C 
ATOM     64  C   UNL A   1      38.533  34.202  36.106  1.00  0.00     0.029 A 
ATOM     65  C   UNL A   1      39.520  33.261  35.865  1.00  0.00     0.049 A 
ATOM     66  H   UNL A   1      39.663  31.847  34.308  1.00  0.00     0.167 HD
ATOM     67  C   UNL A   1      41.625  32.037  36.346  1.00  0.00     0.074 A 
ATOM     68  C   UNL A   1      42.822  31.791  37.130  1.00  0.00     0.031 C 
ATOM     69  C   UNL A   1      40.718  33.007  36.619  1.00  0.00     0.031 A 
BRANCH  56  70
ATOM     70  C   UNL A   1      35.907  33.166  32.756  1.00  0.00    -0.014 A 
ATOM     71  C   UNL A   1      34.782  33.162  33.591  1.00  0.00     0.009 A 
ATOM     72  C   UNL A   1      35.863  33.942  31.581  1.00  0.00     0.009 A 
ATOM     73  C   UNL A   1      33.639  33.901  33.251  1.00  0.00     0.001 A 
ATOM     74  C   UNL A   1      34.735  34.702  31.259  1.00  0.00     0.001 A 
ATOM     75  C   UNL A   1      33.620  34.677  32.092  1.00  0.00     0.000 A 
ENDBRANCH  56  70
BRANCH  57  76
ATOM     76  C   UNL A   1      44.517  28.599  34.919  1.00  0.00    -0.014 A 
ATOM     77  C   UNL A   1      44.639  27.465  35.729  1.00  0.00     0.009 A 
ATOM     78  C   UNL A   1      45.618  29.034  34.162  1.00  0.00     0.009 A 
ATOM     79  C   UNL A   1      45.845  26.766  35.772  1.00  0.00     0.001 A 
ATOM     80  C   UNL A   1      46.814  28.318  34.189  1.00  0.00     0.001 A 
ATOM     81  C   UNL A   1      46.924  27.185  34.992  1.00  0.00     0.000 A 
ENDBRANCH  57  76
BRANCH  69  82
ATOM     82  C   UNL A   1      40.983  33.835  37.841  1.00  0.00    -0.014 A 
ATOM     83  C   UNL A   1      41.728  35.021  37.764  1.00  0.00     0.009 A 
ATOM     84  C   UNL A   1      40.503  33.405  39.088  1.00  0.00     0.009 A 
ATOM     85  C   UNL A   1      42.034  35.734  38.923  1.00  0.00     0.001 A 
ATOM     86  C   UNL A   1      40.790  34.134  40.241  1.00  0.00     0.001 A 
ATOM     87  C   UNL A   1      41.566  35.290  40.160  1.00  0.00     0.000 A 
ENDBRANCH  69  82
ENDBRANCH  43  44
ENDBRANCH  36  38
ENDBRANCH  35  36
ENDBRANCH  34  35
ENDBRANCH  33  34
ENDBRANCH  32  33
ENDBRANCH  31  32
ENDBRANCH   1  31
TORSDOF 21
ENDMDL
MODEL 3
REMARK VINA RESULT:      -9.2      3.140      8.564
REMARK SMILES Cc1oc2cc(OCC(=O)OCCOCCOCCOC(=O)c3ccc(-c4c5nc(c(-c6ccccc6)c6ccc([nH]6)c(-c6ccccc6)c6nc(c(-c7ccccc7)c7ccc4[nH]7)C=C6)C=C5)cc3)ccc2c(=O)c1Oc1ccc(Cl)cc1Cl
REMARK SMILES IDX 15 1 14 2 13 3 12 4 11 5 9 6 10 7 8 8 7 9 6 10 1 11 2 12
REMARK SMILES IDX 3 13 76 14 4 15 74 16 5 17 73 18 75 19 72 20 71 21 77 22
REMARK SMILES IDX 78 23 79 24 84 25 80 26 83 27 85 28 81 29 82 30 16 31 17 32
REMARK SMILES IDX 18 33 19 34 20 35 21 36 22 37 23 38 24 39 70 40 25 41 69 42
REMARK SMILES IDX 26 43 27 44 28 45 63 46 29 47 68 48 62 49 64 50 30 51 67 52
REMARK SMILES IDX 61 53 60 54 31 56 53 57 38 58 52 59 39 60 42 61 51 62 65 63
REMARK SMILES IDX 40 64 41 65 50 67 66 68 43 69 32 70 33 71 37 72 34 73 36 74
REMARK SMILES IDX 35 75 54 76 55 77 59 78 56 79 58 80 57 81 44 82 45 83 49 84
REMARK SMILES IDX 46 85 48 86 47 87
REMARK H PARENT 64 55 42 66
REMARK Flexibility Score: inf
ROOT
ATOM      1  C   UNL A   1      36.411  23.498  24.888  1.00  0.00     0.188 C 
ENDROOT
BRANCH   1   2
ATOM      2  O   UNL A   1      35.075  23.343  25.348  1.00  0.00    -0.376 OA
BRANCH   2   3
ATOM      3  C   UNL A   1      34.882  22.530  26.502  1.00  0.00     0.202 C 
BRANCH   3   4
ATOM      4  C   UNL A   1      34.131  21.218  26.232  1.00  0.00     0.261 C 
BRANCH   4   5
ATOM      5  O   UNL A   1      33.906  21.063  24.809  1.00  0.00    -0.461 OA
BRANCH   5   6
ATOM      6  C   UNL A   1      32.743  20.477  24.419  1.00  0.00     0.344 C 
ATOM      7  O   UNL A   1      32.120  19.670  25.101  1.00  0.00    -0.248 OA
BRANCH   6   8
ATOM      8  C   UNL A   1      32.171  21.087  23.115  1.00  0.00     0.351 C 
BRANCH   8   9
ATOM      9  O   UNL A   1      32.897  22.130  22.474  1.00  0.00    -0.482 OA
BRANCH   9  10
ATOM     10  C   UNL A   1      32.538  23.450  22.614  1.00  0.00     0.123 A 
ATOM     11  C   UNL A   1      30.700  27.174  26.674  1.00  0.00     0.092 C 
ATOM     12  C   UNL A   1      31.015  27.119  25.220  1.00  0.00     0.148 A 
ATOM     13  O   UNL A   1      30.705  25.866  24.676  1.00  0.00    -0.457 OA
ATOM     14  C   UNL A   1      31.627  28.114  24.547  1.00  0.00     0.213 A 
ATOM     15  C   UNL A   1      31.513  25.388  23.676  1.00  0.00     0.142 A 
ATOM     16  C   UNL A   1      32.164  27.727  23.191  1.00  0.00     0.235 A 
ATOM     17  C   UNL A   1      31.590  23.989  23.484  1.00  0.00     0.094 A 
ATOM     18  C   UNL A   1      32.269  26.263  22.919  1.00  0.00     0.069 A 
ATOM     19  O   UNL A   1      32.545  28.539  22.384  1.00  0.00    -0.285 OA
ATOM     20  C   UNL A   1      33.131  25.741  21.957  1.00  0.00     0.020 A 
ATOM     21  C   UNL A   1      33.279  24.345  21.829  1.00  0.00     0.047 A 
BRANCH  14  22
ATOM     22  O   UNL A   1      31.909  29.420  24.986  1.00  0.00    -0.448 OA
BRANCH  22  23
ATOM     23  C   UNL A   1      32.859  29.638  25.971  1.00  0.00     0.146 A 
ATOM     24  C   UNL A   1      33.969  28.786  26.076  1.00  0.00     0.050 A 
ATOM     25  C   UNL A   1      32.769  30.763  26.807  1.00  0.00     0.085 A 
ATOM     26  C   UNL A   1      35.051  29.150  26.893  1.00  0.00     0.024 A 
ATOM     27  C   UNL A   1      33.846  31.118  27.627  1.00  0.00     0.045 A 
ATOM     28  Cl  UNL A   1      31.405  31.819  26.751  1.00  0.00    -0.080 Cl
ATOM     29  C   UNL A   1      34.995  30.329  27.638  1.00  0.00     0.042 A 
ATOM     30  Cl  UNL A   1      36.376  30.846  28.528  1.00  0.00    -0.084 Cl
ENDBRANCH  22  23
ENDBRANCH  14  22
ENDBRANCH   9  10
ENDBRANCH   8   9
ENDBRANCH   6   8
ENDBRANCH   5   6
ENDBRANCH   4   5
ENDBRANCH   3   4
ENDBRANCH   2   3
ENDBRANCH   1   2
BRANCH   1  31
ATOM     31  C   UNL A   1      37.529  22.844  25.722  1.00  0.00     0.188 C 
BRANCH  31  32
ATOM     32  O   UNL A   1      38.584  23.658  26.197  1.00  0.00    -0.376 OA
BRANCH  32  33
ATOM     33  C   UNL A   1      39.663  23.035  26.878  1.00  0.00     0.202 C 
BRANCH  33  34
ATOM     34  C   UNL A   1      41.049  23.639  26.641  1.00  0.00     0.261 C 
BRANCH  34  35
ATOM     35  O   UNL A   1      41.440  24.588  27.670  1.00  0.00    -0.460 OA
BRANCH  35  36
ATOM     36  C   UNL A   1      41.578  25.848  27.207  1.00  0.00     0.338 C 
ATOM     37  O   UNL A   1      41.008  26.293  26.220  1.00  0.00    -0.246 OA
BRANCH  36  38
ATOM     38  C   UNL A   1      42.396  26.768  28.038  1.00  0.00     0.060 A 
ATOM     39  C   UNL A   1      42.408  26.488  29.414  1.00  0.00     0.016 A 
ATOM     40  C   UNL A   1      42.598  28.082  27.609  1.00  0.00     0.016 A 
ATOM     41  C   UNL A   1      42.385  27.524  30.356  1.00  0.00     0.010 A 
ATOM     42  C   UNL A   1      42.618  29.123  28.560  1.00  0.00     0.010 A 
ATOM     43  C   UNL A   1      42.402  28.861  29.933  1.00  0.00    -0.014 A 
BRANCH  43  44
ATOM     44  C   UNL A   1      42.296  29.975  30.911  1.00  0.00     0.031 A 
ATOM     45  C   UNL A   1      43.285  30.263  32.013  1.00  0.00     0.074 A 
ATOM     46  C   UNL A   1      41.202  30.739  30.818  1.00  0.00     0.049 A 
ATOM     47  N   UNL A   1      43.094  30.798  33.195  1.00  0.00    -0.248 NA
ATOM     48  C   UNL A   1      44.686  29.935  31.753  1.00  0.00     0.031 C 
ATOM     49  C   UNL A   1      40.231  30.674  29.729  1.00  0.00     0.029 A 
ATOM     50  N   UNL A   1      40.703  31.668  31.687  1.00  0.00    -0.354 N 
ATOM     51  C   UNL A   1      44.326  30.752  33.854  1.00  0.00     0.074 A 
ATOM     52  C   UNL A   1      45.262  30.148  32.932  1.00  0.00     0.031 C 
ATOM     53  C   UNL A   1      39.201  31.469  30.033  1.00  0.00     0.029 A 
ATOM     54  C   UNL A   1      39.423  32.027  31.362  1.00  0.00     0.049 A 
ATOM     55  H   UNL A   1      41.202  32.034  32.452  1.00  0.00     0.167 HD
ATOM     56  C   UNL A   1      44.642  31.203  35.095  1.00  0.00     0.031 A 
ATOM     57  C   UNL A   1      38.488  32.654  32.091  1.00  0.00     0.031 A 
ATOM     58  C   UNL A   1      43.744  31.997  35.901  1.00  0.00     0.049 A 
ATOM     59  C   UNL A   1      38.826  33.131  33.462  1.00  0.00     0.074 A 
ATOM     60  C   UNL A   1      43.972  32.587  37.134  1.00  0.00     0.029 A 
ATOM     61  N   UNL A   1      42.463  32.365  35.518  1.00  0.00    -0.354 N 
ATOM     62  N   UNL A   1      39.923  32.943  34.152  1.00  0.00    -0.248 NA
ATOM     63  C   UNL A   1      37.802  33.932  34.138  1.00  0.00     0.031 C 
ATOM     64  C   UNL A   1      42.819  33.288  37.508  1.00  0.00     0.029 A 
ATOM     65  C   UNL A   1      41.891  33.171  36.486  1.00  0.00     0.049 A 
ATOM     66  H   UNL A   1      42.026  32.093  34.680  1.00  0.00     0.167 HD
ATOM     67  C   UNL A   1      39.737  33.630  35.342  1.00  0.00     0.074 A 
ATOM     68  C   UNL A   1      38.422  34.241  35.268  1.00  0.00     0.031 C 
ATOM     69  C   UNL A   1      40.580  33.755  36.396  1.00  0.00     0.031 A 
BRANCH  56  70
ATOM     70  C   UNL A   1      45.992  30.873  35.695  1.00  0.00    -0.014 A 
ATOM     71  C   UNL A   1      46.254  29.670  36.365  1.00  0.00     0.009 A 
ATOM     72  C   UNL A   1      47.069  31.747  35.450  1.00  0.00     0.009 A 
ATOM     73  C   UNL A   1      47.553  29.360  36.792  1.00  0.00     0.001 A 
ATOM     74  C   UNL A   1      48.369  31.423  35.850  1.00  0.00     0.001 A 
ATOM     75  C   UNL A   1      48.610  30.231  36.526  1.00  0.00     0.000 A 
ENDBRANCH  56  70
BRANCH  57  76
ATOM     76  C   UNL A   1      37.146  32.807  31.491  1.00  0.00    -0.014 A 
ATOM     77  C   UNL A   1      36.076  32.048  31.976  1.00  0.00     0.009 A 
ATOM     78  C   UNL A   1      36.904  33.838  30.567  1.00  0.00     0.009 A 
ATOM     79  C   UNL A   1      34.777  32.325  31.554  1.00  0.00     0.001 A 
ATOM     80  C   UNL A   1      35.601  34.128  30.166  1.00  0.00     0.001 A 
ATOM     81  C   UNL A   1      34.540  33.372  30.661  1.00  0.00     0.000 A 
ENDBRANCH  57  76
BRANCH  69  82
ATOM     82  C   UNL A   1      40.105  34.621  37.524  1.00  0.00    -0.014 A 
ATOM     83  C   UNL A   1      39.399  34.075  38.607  1.00  0.00     0.009 A 
ATOM     84  C   UNL A   1      40.341  36.004  37.486  1.00  0.00     0.009 A 
ATOM     85  C   UNL A   1      38.893  34.906  39.606  1.00  0.00     0.001 A 
ATOM     86  C   UNL A   1      39.855  36.829  38.499  1.00  0.00     0.001 A 
ATOM     87  C   UNL A   1      39.120  36.282  39.551  1.00  0.00     0.000 A 
ENDBRANCH  69  82
ENDBRANCH  43  44
ENDBRANCH  36  38
ENDBRANCH  35  36
ENDBRANCH  34  35
ENDBRANCH  33  34
ENDBRANCH  32  33
ENDBRANCH  31  32
ENDBRANCH   1  31
TORSDOF 21
ENDMDL
