MODEL 1
REMARK VINA RESULT:     -10.8      0.000      0.000
REMARK SMILES O=C1CC[C@@H](CC(=O)N2CCC(Oc3ccccc3)(C(=O)OCCOCCOCCOC(=O)c3ccc(-c4c5nc(c(-c6ccccc6)c6ccc([nH]6)c(-c6ccccc6)c6nc(c(-c7ccccc7)c7ccc4[nH]7)C=C6)C=C5)cc3)CC2)N1
REMARK SMILES IDX 26 1 25 2 24 3 23 4 22 5 20 6 21 7 12 8 7 9 8 10 9 11 10 12
REMARK SMILES IDX 83 13 11 14 82 15 6 16 5 17 1 18 2 19 3 20 84 21 4 22 13 24
REMARK SMILES IDX 14 25 15 26 19 27 16 28 18 29 17 30 27 31 28 32 29 33 30 34
REMARK SMILES IDX 31 35 32 36 33 37 34 38 35 39 81 40 36 41 80 42 37 43 38 44
REMARK SMILES IDX 39 45 74 46 40 47 79 48 73 49 75 50 41 51 78 52 72 53 71 54
REMARK SMILES IDX 42 56 64 57 49 58 63 59 50 60 53 61 62 62 76 63 51 64 52 65
REMARK SMILES IDX 61 67 77 68 54 69 43 70 44 71 48 72 45 73 47 74 46 75 65 76
REMARK SMILES IDX 66 77 70 78 67 79 69 80 68 81 55 82 56 83 60 84 57 85 59 86
REMARK SMILES IDX 58 87
REMARK H PARENT 84 23 75 55 53 66
REMARK Flexibility Score: inf
ROOT
ATOM      1  C   UNL A   1      40.894  21.132  27.602  1.00  0.00     0.188 C 
ENDROOT
BRANCH   1   2
ATOM      2  O   UNL A   1      39.755  20.674  26.892  1.00  0.00    -0.376 OA
BRANCH   2   3
ATOM      3  C   UNL A   1      39.293  21.397  25.754  1.00  0.00     0.202 C 
BRANCH   3   4
ATOM      4  C   UNL A   1      38.131  22.397  25.902  1.00  0.00     0.261 C 
BRANCH   4   5
ATOM      5  O   UNL A   1      36.782  21.864  25.854  1.00  0.00    -0.460 OA
BRANCH   5   6
ATOM      6  C   UNL A   1      36.077  22.125  24.716  1.00  0.00     0.350 C 
ATOM      7  O   UNL A   1      36.629  22.440  23.662  1.00  0.00    -0.247 OA
BRANCH   6   8
ATOM      8  C   UNL A   1      34.519  22.000  24.836  1.00  0.00     0.209 C 
ATOM      9  C   UNL A   1      32.293  25.469  23.405  1.00  0.00     0.224 C 
ATOM     10  O   UNL A   1      31.510  25.333  22.450  1.00  0.00    -0.275 OA
ATOM     11  N   UNL A   1      33.124  24.414  23.733  1.00  0.00    -0.342 N 
ATOM     12  C   UNL A   1      33.063  23.187  22.932  1.00  0.00     0.124 C 
ATOM     13  C   UNL A   1      34.118  24.449  24.757  1.00  0.00     0.124 C 
ATOM     14  C   UNL A   1      33.731  21.907  23.503  1.00  0.00     0.082 C 
ATOM     15  C   UNL A   1      34.065  23.235  25.624  1.00  0.00     0.082 C 
BRANCH   9  16
ATOM     16  C   UNL A   1      32.216  26.833  24.134  1.00  0.00     0.125 C 
BRANCH  16  17
ATOM     17  C   UNL A   1      31.897  28.250  23.638  1.00  0.00     0.091 C 
ATOM     18  O   UNL A   1      29.537  29.527  21.367  1.00  0.00    -0.275 OA
ATOM     19  C   UNL A   1      30.219  29.283  22.337  1.00  0.00     0.220 C 
ATOM     20  C   UNL A   1      30.116  29.940  23.689  1.00  0.00     0.102 C 
ATOM     21  N   UNL A   1      31.192  28.308  22.391  1.00  0.00    -0.353 N 
ATOM     22  C   UNL A   1      31.165  29.229  24.547  1.00  0.00     0.035 C 
ATOM     23  H   UNL A   1      31.386  27.704  21.638  1.00  0.00     0.163 HD
ENDBRANCH  16  17
ENDBRANCH   9  16
BRANCH   8  24
ATOM     24  O   UNL A   1      34.381  20.752  25.594  1.00  0.00    -0.475 OA
BRANCH  24  25
ATOM     25  C   UNL A   1      33.999  19.674  24.835  1.00  0.00     0.121 A 
ATOM     26  C   UNL A   1      34.934  18.688  24.505  1.00  0.00     0.046 A 
ATOM     27  C   UNL A   1      32.670  19.536  24.444  1.00  0.00     0.046 A 
ATOM     28  C   UNL A   1      34.505  17.502  23.907  1.00  0.00     0.004 A 
ATOM     29  C   UNL A   1      32.244  18.353  23.842  1.00  0.00     0.004 A 
ATOM     30  C   UNL A   1      33.157  17.328  23.593  1.00  0.00     0.000 A 
ENDBRANCH  24  25
ENDBRANCH   8  24
ENDBRANCH   6   8
ENDBRANCH   5   6
ENDBRANCH   4   5
ENDBRANCH   3   4
ENDBRANCH   2   3
ENDBRANCH   1   2
BRANCH   1  31
ATOM     31  C   UNL A   1      42.289  20.732  27.109  1.00  0.00     0.188 C 
BRANCH  31  32
ATOM     32  O   UNL A   1      42.999  21.755  26.461  1.00  0.00    -0.376 OA
BRANCH  32  33
ATOM     33  C   UNL A   1      43.712  21.466  25.277  1.00  0.00     0.202 C 
BRANCH  33  34
ATOM     34  C   UNL A   1      44.247  22.584  24.362  1.00  0.00     0.261 C 
BRANCH  34  35
ATOM     35  O   UNL A   1      43.735  23.916  24.559  1.00  0.00    -0.460 OA
BRANCH  35  36
ATOM     36  C   UNL A   1      44.582  24.833  25.085  1.00  0.00     0.338 C 
ATOM     37  O   UNL A   1      45.645  25.193  24.618  1.00  0.00    -0.246 OA
BRANCH  36  38
ATOM     38  C   UNL A   1      43.911  25.494  26.234  1.00  0.00     0.060 A 
ATOM     39  C   UNL A   1      44.127  26.856  26.422  1.00  0.00     0.016 A 
ATOM     40  C   UNL A   1      43.114  24.792  27.148  1.00  0.00     0.016 A 
ATOM     41  C   UNL A   1      43.528  27.508  27.502  1.00  0.00     0.010 A 
ATOM     42  C   UNL A   1      42.518  25.463  28.241  1.00  0.00     0.010 A 
ATOM     43  C   UNL A   1      42.708  26.839  28.422  1.00  0.00    -0.014 A 
BRANCH  43  44
ATOM     44  C   UNL A   1      42.184  27.618  29.590  1.00  0.00     0.031 A 
ATOM     45  C   UNL A   1      40.804  28.219  29.517  1.00  0.00     0.074 A 
ATOM     46  C   UNL A   1      42.817  27.641  30.783  1.00  0.00     0.049 A 
ATOM     47  N   UNL A   1      40.158  28.917  30.417  1.00  0.00    -0.248 NA
ATOM     48  C   UNL A   1      40.056  27.999  28.271  1.00  0.00     0.031 C 
ATOM     49  C   UNL A   1      44.089  26.987  31.075  1.00  0.00     0.029 A 
ATOM     50  N   UNL A   1      42.413  28.139  32.008  1.00  0.00    -0.354 N 
ATOM     51  C   UNL A   1      38.967  29.300  29.814  1.00  0.00     0.074 A 
ATOM     52  C   UNL A   1      38.946  28.683  28.503  1.00  0.00     0.031 C 
ATOM     53  C   UNL A   1      44.294  27.009  32.406  1.00  0.00     0.029 A 
ATOM     54  C   UNL A   1      43.235  27.782  33.057  1.00  0.00     0.049 A 
ATOM     55  H   UNL A   1      41.612  28.698  32.122  1.00  0.00     0.167 HD
ATOM     56  C   UNL A   1      38.013  30.142  30.279  1.00  0.00     0.031 A 
ATOM     57  C   UNL A   1      43.161  28.060  34.380  1.00  0.00     0.031 A 
ATOM     58  C   UNL A   1      38.025  30.769  31.575  1.00  0.00     0.049 A 
ATOM     59  C   UNL A   1      42.111  29.032  34.871  1.00  0.00     0.074 A 
ATOM     60  C   UNL A   1      37.148  31.714  32.084  1.00  0.00     0.029 A 
ATOM     61  N   UNL A   1      38.952  30.513  32.572  1.00  0.00    -0.354 N 
ATOM     62  N   UNL A   1      41.070  29.519  34.242  1.00  0.00    -0.248 NA
ATOM     63  C   UNL A   1      42.279  29.556  36.239  1.00  0.00     0.031 C 
ATOM     64  C   UNL A   1      37.581  32.074  33.364  1.00  0.00     0.029 A 
ATOM     65  C   UNL A   1      38.683  31.300  33.681  1.00  0.00     0.049 A 
ATOM     66  H   UNL A   1      39.692  29.868  32.502  1.00  0.00     0.167 HD
ATOM     67  C   UNL A   1      40.489  30.433  35.118  1.00  0.00     0.074 A 
ATOM     68  C   UNL A   1      41.246  30.380  36.349  1.00  0.00     0.031 C 
ATOM     69  C   UNL A   1      39.447  31.271  34.901  1.00  0.00     0.031 A 
BRANCH  56  70
ATOM     70  C   UNL A   1      36.945  30.559  29.307  1.00  0.00    -0.014 A 
ATOM     71  C   UNL A   1      36.887  31.846  28.760  1.00  0.00     0.009 A 
ATOM     72  C   UNL A   1      35.978  29.611  28.930  1.00  0.00     0.009 A 
ATOM     73  C   UNL A   1      35.857  32.186  27.879  1.00  0.00     0.001 A 
ATOM     74  C   UNL A   1      34.972  29.942  28.025  1.00  0.00     0.001 A 
ATOM     75  C   UNL A   1      34.905  31.234  27.509  1.00  0.00     0.000 A 
ENDBRANCH  56  70
BRANCH  57  76
ATOM     76  C   UNL A   1      44.173  27.535  35.349  1.00  0.00    -0.014 A 
ATOM     77  C   UNL A   1      45.404  28.188  35.544  1.00  0.00     0.009 A 
ATOM     78  C   UNL A   1      43.954  26.324  36.025  1.00  0.00     0.009 A 
ATOM     79  C   UNL A   1      46.385  27.634  36.374  1.00  0.00     0.001 A 
ATOM     80  C   UNL A   1      44.913  25.798  36.894  1.00  0.00     0.001 A 
ATOM     81  C   UNL A   1      46.134  26.446  37.057  1.00  0.00     0.000 A 
ENDBRANCH  57  76
BRANCH  69  82
ATOM     82  C   UNL A   1      39.067  32.223  36.006  1.00  0.00    -0.014 A 
ATOM     83  C   UNL A   1      39.640  33.503  36.088  1.00  0.00     0.009 A 
ATOM     84  C   UNL A   1      38.089  31.862  36.946  1.00  0.00     0.009 A 
ATOM     85  C   UNL A   1      39.266  34.387  37.105  1.00  0.00     0.001 A 
ATOM     86  C   UNL A   1      37.696  32.758  37.943  1.00  0.00     0.001 A 
ATOM     87  C   UNL A   1      38.289  34.015  38.028  1.00  0.00     0.000 A 
ENDBRANCH  69  82
ENDBRANCH  43  44
ENDBRANCH  36  38
ENDBRANCH  35  36
ENDBRANCH  34  35
ENDBRANCH  33  34
ENDBRANCH  32  33
ENDBRANCH  31  32
ENDBRANCH   1  31
TORSDOF 21
ENDMDL
MODEL 2
REMARK VINA RESULT:     -10.2      5.865     10.577
REMARK SMILES O=C1CC[C@@H](CC(=O)N2CCC(Oc3ccccc3)(C(=O)OCCOCCOCCOC(=O)c3ccc(-c4c5nc(c(-c6ccccc6)c6ccc([nH]6)c(-c6ccccc6)c6nc(c(-c7ccccc7)c7ccc4[nH]7)C=C6)C=C5)cc3)CC2)N1
REMARK SMILES IDX 26 1 25 2 24 3 23 4 22 5 20 6 21 7 12 8 7 9 8 10 9 11 10 12
REMARK SMILES IDX 83 13 11 14 82 15 6 16 5 17 1 18 2 19 3 20 84 21 4 22 13 24
REMARK SMILES IDX 14 25 15 26 19 27 16 28 18 29 17 30 27 31 28 32 29 33 30 34
REMARK SMILES IDX 31 35 32 36 33 37 34 38 35 39 81 40 36 41 80 42 37 43 38 44
REMARK SMILES IDX 39 45 74 46 40 47 79 48 73 49 75 50 41 51 78 52 72 53 71 54
REMARK SMILES IDX 42 56 64 57 49 58 63 59 50 60 53 61 62 62 76 63 51 64 52 65
REMARK SMILES IDX 61 67 77 68 54 69 43 70 44 71 48 72 45 73 47 74 46 75 65 76
REMARK SMILES IDX 66 77 70 78 67 79 69 80 68 81 55 82 56 83 60 84 57 85 59 86
REMARK SMILES IDX 58 87
REMARK H PARENT 84 23 75 55 53 66
REMARK Flexibility Score: inf
ROOT
ATOM      1  C   UNL A   1      40.583  19.632  26.135  1.00  0.00     0.188 C 
ENDROOT
BRANCH   1   2
ATOM      2  O   UNL A   1      39.486  19.120  25.397  1.00  0.00    -0.376 OA
BRANCH   2   3
ATOM      3  C   UNL A   1      38.425  19.991  25.012  1.00  0.00     0.202 C 
BRANCH   3   4
ATOM      4  C   UNL A   1      38.364  21.422  25.579  1.00  0.00     0.261 C 
BRANCH   4   5
ATOM      5  O   UNL A   1      37.082  21.890  26.073  1.00  0.00    -0.460 OA
BRANCH   5   6
ATOM      6  C   UNL A   1      36.783  23.195  25.814  1.00  0.00     0.350 C 
ATOM      7  O   UNL A   1      37.589  24.104  26.015  1.00  0.00    -0.247 OA
BRANCH   6   8
ATOM      8  C   UNL A   1      35.349  23.466  25.244  1.00  0.00     0.209 C 
ATOM      9  C   UNL A   1      32.857  19.912  24.807  1.00  0.00     0.224 C 
ATOM     10  O   UNL A   1      31.800  19.829  25.456  1.00  0.00    -0.275 OA
ATOM     11  N   UNL A   1      33.725  20.950  25.086  1.00  0.00    -0.342 N 
ATOM     12  C   UNL A   1      33.377  21.901  26.147  1.00  0.00     0.124 C 
ATOM     13  C   UNL A   1      35.000  21.133  24.471  1.00  0.00     0.124 C 
ATOM     14  C   UNL A   1      34.165  23.237  26.220  1.00  0.00     0.082 C 
ATOM     15  C   UNL A   1      35.206  22.543  24.028  1.00  0.00     0.082 C 
BRANCH   9  16
ATOM     16  C   UNL A   1      33.053  18.821  23.726  1.00  0.00     0.125 C 
BRANCH  16  17
ATOM     17  C   UNL A   1      33.607  17.390  23.794  1.00  0.00     0.091 C 
ATOM     18  O   UNL A   1      36.123  15.877  25.728  1.00  0.00    -0.275 OA
ATOM     19  C   UNL A   1      35.086  16.180  25.181  1.00  0.00     0.220 C 
ATOM     20  C   UNL A   1      33.764  15.470  25.316  1.00  0.00     0.102 C 
ATOM     21  N   UNL A   1      34.917  17.278  24.364  1.00  0.00    -0.353 N 
ATOM     22  C   UNL A   1      32.794  16.290  24.462  1.00  0.00     0.035 C 
ATOM     23  H   UNL A   1      35.635  17.928  24.187  1.00  0.00     0.163 HD
ENDBRANCH  16  17
ENDBRANCH   9  16
BRANCH   8  24
ATOM     24  O   UNL A   1      35.437  24.885  24.882  1.00  0.00    -0.475 OA
BRANCH  24  25
ATOM     25  C   UNL A   1      34.221  25.499  24.716  1.00  0.00     0.121 A 
ATOM     26  C   UNL A   1      33.541  25.379  23.500  1.00  0.00     0.046 A 
ATOM     27  C   UNL A   1      33.641  26.190  25.777  1.00  0.00     0.046 A 
ATOM     28  C   UNL A   1      32.225  25.833  23.398  1.00  0.00     0.004 A 
ATOM     29  C   UNL A   1      32.329  26.647  25.671  1.00  0.00     0.004 A 
ATOM     30  C   UNL A   1      31.614  26.449  24.489  1.00  0.00     0.000 A 
ENDBRANCH  24  25
ENDBRANCH   8  24
ENDBRANCH   6   8
ENDBRANCH   5   6
ENDBRANCH   4   5
ENDBRANCH   3   4
ENDBRANCH   2   3
ENDBRANCH   1   2
BRANCH   1  31
ATOM     31  C   UNL A   1      41.917  18.879  26.102  1.00  0.00     0.188 C 
BRANCH  31  32
ATOM     32  O   UNL A   1      42.762  19.228  25.037  1.00  0.00    -0.376 OA
BRANCH  32  33
ATOM     33  C   UNL A   1      43.903  20.023  25.286  1.00  0.00     0.202 C 
BRANCH  33  34
ATOM     34  C   UNL A   1      43.796  21.543  25.513  1.00  0.00     0.261 C 
BRANCH  34  35
ATOM     35  O   UNL A   1      43.062  21.999  26.665  1.00  0.00    -0.460 OA
BRANCH  35  36
ATOM     36  C   UNL A   1      42.352  23.146  26.533  1.00  0.00     0.338 C 
ATOM     37  O   UNL A   1      41.148  23.272  26.640  1.00  0.00    -0.246 OA
BRANCH  36  38
ATOM     38  C   UNL A   1      43.303  24.283  26.437  1.00  0.00     0.060 A 
ATOM     39  C   UNL A   1      44.045  24.612  27.567  1.00  0.00     0.016 A 
ATOM     40  C   UNL A   1      43.444  25.052  25.274  1.00  0.00     0.016 A 
ATOM     41  C   UNL A   1      44.936  25.687  27.520  1.00  0.00     0.010 A 
ATOM     42  C   UNL A   1      44.345  26.142  25.243  1.00  0.00     0.010 A 
ATOM     43  C   UNL A   1      45.116  26.463  26.367  1.00  0.00    -0.014 A 
BRANCH  43  44
ATOM     44  C   UNL A   1      46.035  27.643  26.452  1.00  0.00     0.031 A 
ATOM     45  C   UNL A   1      47.477  27.487  26.044  1.00  0.00     0.074 A 
ATOM     46  C   UNL A   1      45.583  28.893  26.695  1.00  0.00     0.049 A 
ATOM     47  N   UNL A   1      48.434  28.381  26.030  1.00  0.00    -0.248 NA
ATOM     48  C   UNL A   1      47.890  26.152  25.587  1.00  0.00     0.031 C 
ATOM     49  C   UNL A   1      44.192  29.249  26.962  1.00  0.00     0.029 A 
ATOM     50  N   UNL A   1      46.230  30.113  26.635  1.00  0.00    -0.354 N 
ATOM     51  C   UNL A   1      49.583  27.698  25.655  1.00  0.00     0.074 A 
ATOM     52  C   UNL A   1      49.183  26.335  25.368  1.00  0.00     0.031 C 
ATOM     53  C   UNL A   1      44.069  30.590  26.912  1.00  0.00     0.029 A 
ATOM     54  C   UNL A   1      45.387  31.201  26.730  1.00  0.00     0.049 A 
ATOM     55  H   UNL A   1      47.205  30.199  26.533  1.00  0.00     0.167 HD
ATOM     56  C   UNL A   1      50.862  28.144  25.619  1.00  0.00     0.031 A 
ATOM     57  C   UNL A   1      45.642  32.530  26.699  1.00  0.00     0.031 A 
ATOM     58  C   UNL A   1      51.275  29.492  25.911  1.00  0.00     0.049 A 
ATOM     59  C   UNL A   1      47.078  33.005  26.696  1.00  0.00     0.074 A 
ATOM     60  C   UNL A   1      52.562  30.001  25.996  1.00  0.00     0.029 A 
ATOM     61  N   UNL A   1      50.416  30.550  26.157  1.00  0.00    -0.354 N 
ATOM     62  N   UNL A   1      48.179  32.323  26.499  1.00  0.00    -0.248 NA
ATOM     63  C   UNL A   1      47.307  34.430  26.998  1.00  0.00     0.031 C 
ATOM     64  C   UNL A   1      52.480  31.350  26.354  1.00  0.00     0.029 A 
ATOM     65  C   UNL A   1      51.143  31.700  26.419  1.00  0.00     0.049 A 
ATOM     66  H   UNL A   1      49.433  30.492  26.147  1.00  0.00     0.167 HD
ATOM     67  C   UNL A   1      49.224  33.223  26.694  1.00  0.00     0.074 A 
ATOM     68  C   UNL A   1      48.629  34.515  26.952  1.00  0.00     0.031 C 
ATOM     69  C   UNL A   1      50.558  32.985  26.701  1.00  0.00     0.031 A 
BRANCH  56  70
ATOM     70  C   UNL A   1      51.933  27.113  25.402  1.00  0.00    -0.014 A 
ATOM     71  C   UNL A   1      52.412  26.781  24.129  1.00  0.00     0.009 A 
ATOM     72  C   UNL A   1      52.478  26.468  26.527  1.00  0.00     0.009 A 
ATOM     73  C   UNL A   1      53.393  25.796  23.985  1.00  0.00     0.001 A 
ATOM     74  C   UNL A   1      53.479  25.511  26.383  1.00  0.00     0.001 A 
ATOM     75  C   UNL A   1      53.928  25.167  25.110  1.00  0.00     0.000 A 
ENDBRANCH  56  70
BRANCH  57  76
ATOM     76  C   UNL A   1      44.543  33.541  26.798  1.00  0.00    -0.014 A 
ATOM     77  C   UNL A   1      43.914  34.049  25.646  1.00  0.00     0.009 A 
ATOM     78  C   UNL A   1      44.172  34.075  28.042  1.00  0.00     0.009 A 
ATOM     79  C   UNL A   1      42.960  35.069  25.742  1.00  0.00     0.001 A 
ATOM     80  C   UNL A   1      43.182  35.055  28.141  1.00  0.00     0.001 A 
ATOM     81  C   UNL A   1      42.587  35.562  26.990  1.00  0.00     0.000 A 
ENDBRANCH  57  76
BRANCH  69  82
ATOM     82  C   UNL A   1      51.477  34.135  27.019  1.00  0.00    -0.014 A 
ATOM     83  C   UNL A   1      51.964  34.337  28.322  1.00  0.00     0.009 A 
ATOM     84  C   UNL A   1      51.907  35.001  25.999  1.00  0.00     0.009 A 
ATOM     85  C   UNL A   1      52.832  35.395  28.602  1.00  0.00     0.001 A 
ATOM     86  C   UNL A   1      52.798  36.040  26.277  1.00  0.00     0.001 A 
ATOM     87  C   UNL A   1      53.254  36.242  27.578  1.00  0.00     0.000 A 
ENDBRANCH  69  82
ENDBRANCH  43  44
ENDBRANCH  36  38
ENDBRANCH  35  36
ENDBRANCH  34  35
ENDBRANCH  33  34
ENDBRANCH  32  33
ENDBRANCH  31  32
ENDBRANCH   1  31
TORSDOF 21
ENDMDL
MODEL 3
REMARK VINA RESULT:      -9.6      2.978      5.482
REMARK SMILES O=C1CC[C@@H](CC(=O)N2CCC(Oc3ccccc3)(C(=O)OCCOCCOCCOC(=O)c3ccc(-c4c5nc(c(-c6ccccc6)c6ccc([nH]6)c(-c6ccccc6)c6nc(c(-c7ccccc7)c7ccc4[nH]7)C=C6)C=C5)cc3)CC2)N1
REMARK SMILES IDX 26 1 25 2 24 3 23 4 22 5 20 6 21 7 12 8 7 9 8 10 9 11 10 12
REMARK SMILES IDX 83 13 11 14 82 15 6 16 5 17 1 18 2 19 3 20 84 21 4 22 13 24
REMARK SMILES IDX 14 25 15 26 19 27 16 28 18 29 17 30 27 31 28 32 29 33 30 34
REMARK SMILES IDX 31 35 32 36 33 37 34 38 35 39 81 40 36 41 80 42 37 43 38 44
REMARK SMILES IDX 39 45 74 46 40 47 79 48 73 49 75 50 41 51 78 52 72 53 71 54
REMARK SMILES IDX 42 56 64 57 49 58 63 59 50 60 53 61 62 62 76 63 51 64 52 65
REMARK SMILES IDX 61 67 77 68 54 69 43 70 44 71 48 72 45 73 47 74 46 75 65 76
REMARK SMILES IDX 66 77 70 78 67 79 69 80 68 81 55 82 56 83 60 84 57 85 59 86
REMARK SMILES IDX 58 87
REMARK H PARENT 84 23 75 55 53 66
REMARK Flexibility Score: inf
ROOT
ATOM      1  C   UNL A   1      40.529  21.864  27.357  1.00  0.00     0.188 C 
ENDROOT
BRANCH   1   2
ATOM      2  O   UNL A   1      39.510  21.522  26.432  1.00  0.00    -0.376 OA
BRANCH   2   3
ATOM      3  C   UNL A   1      38.826  22.551  25.721  1.00  0.00     0.202 C 
BRANCH   3   4
ATOM      4  C   UNL A   1      37.393  22.942  26.128  1.00  0.00     0.261 C 
BRANCH   4   5
ATOM      5  O   UNL A   1      36.312  22.516  25.257  1.00  0.00    -0.460 OA
BRANCH   5   6
ATOM      6  C   UNL A   1      35.139  22.198  25.875  1.00  0.00     0.350 C 
ATOM      7  O   UNL A   1      35.072  21.993  27.087  1.00  0.00    -0.247 OA
BRANCH   6   8
ATOM      8  C   UNL A   1      33.882  22.106  24.944  1.00  0.00     0.209 C 
ATOM      9  C   UNL A   1      33.265  25.565  22.359  1.00  0.00     0.224 C 
ATOM     10  O   UNL A   1      33.296  25.413  21.126  1.00  0.00    -0.275 OA
ATOM     11  N   UNL A   1      33.639  24.507  23.166  1.00  0.00    -0.342 N 
ATOM     12  C   UNL A   1      34.075  23.255  22.537  1.00  0.00     0.124 C 
ATOM     13  C   UNL A   1      33.719  24.557  24.590  1.00  0.00     0.124 C 
ATOM     14  C   UNL A   1      34.158  21.982  23.423  1.00  0.00     0.082 C 
ATOM     15  C   UNL A   1      33.067  23.374  25.225  1.00  0.00     0.082 C 
BRANCH   9  16
ATOM     16  C   UNL A   1      32.777  26.954  22.840  1.00  0.00     0.125 C 
BRANCH  16  17
ATOM     17  C   UNL A   1      31.511  27.399  23.587  1.00  0.00     0.091 C 
ATOM     18  O   UNL A   1      28.762  29.392  22.679  1.00  0.00    -0.275 OA
ATOM     19  C   UNL A   1      29.494  28.502  23.050  1.00  0.00     0.220 C 
ATOM     20  C   UNL A   1      29.070  27.141  23.536  1.00  0.00     0.102 C 
ATOM     21  N   UNL A   1      30.871  28.562  23.047  1.00  0.00    -0.353 N 
ATOM     22  C   UNL A   1      30.381  26.407  23.828  1.00  0.00     0.035 C 
ATOM     23  H   UNL A   1      31.372  29.338  22.705  1.00  0.00     0.163 HD
ENDBRANCH  16  17
ENDBRANCH   9  16
BRANCH   8  24
ATOM     24  O   UNL A   1      33.236  20.886  25.441  1.00  0.00    -0.475 OA
BRANCH  24  25
ATOM     25  C   UNL A   1      33.355  19.806  24.602  1.00  0.00     0.121 A 
ATOM     26  C   UNL A   1      34.437  18.932  24.741  1.00  0.00     0.046 A 
ATOM     27  C   UNL A   1      32.368  19.551  23.654  1.00  0.00     0.046 A 
ATOM     28  C   UNL A   1      34.454  17.735  24.025  1.00  0.00     0.004 A 
ATOM     29  C   UNL A   1      32.389  18.356  22.936  1.00  0.00     0.004 A 
ATOM     30  C   UNL A   1      33.420  17.439  23.137  1.00  0.00     0.000 A 
ENDBRANCH  24  25
ENDBRANCH   8  24
ENDBRANCH   6   8
ENDBRANCH   5   6
ENDBRANCH   4   5
ENDBRANCH   3   4
ENDBRANCH   2   3
ENDBRANCH   1   2
BRANCH   1  31
ATOM     31  C   UNL A   1      41.937  21.294  27.156  1.00  0.00     0.188 C 
BRANCH  31  32
ATOM     32  O   UNL A   1      42.281  21.034  25.821  1.00  0.00    -0.376 OA
BRANCH  32  33
ATOM     33  C   UNL A   1      43.497  21.535  25.304  1.00  0.00     0.202 C 
BRANCH  33  34
ATOM     34  C   UNL A   1      43.539  22.783  24.401  1.00  0.00     0.261 C 
BRANCH  34  35
ATOM     35  O   UNL A   1      43.486  24.073  25.038  1.00  0.00    -0.460 OA
BRANCH  35  36
ATOM     36  C   UNL A   1      44.666  24.703  25.257  1.00  0.00     0.338 C 
ATOM     37  O   UNL A   1      45.676  24.609  24.588  1.00  0.00    -0.246 OA
BRANCH  36  38
ATOM     38  C   UNL A   1      44.475  25.702  26.341  1.00  0.00     0.060 A 
ATOM     39  C   UNL A   1      43.186  25.898  26.827  1.00  0.00     0.016 A 
ATOM     40  C   UNL A   1      45.528  26.471  26.852  1.00  0.00     0.016 A 
ATOM     41  C   UNL A   1      42.964  26.842  27.833  1.00  0.00     0.010 A 
ATOM     42  C   UNL A   1      45.288  27.427  27.866  1.00  0.00     0.010 A 
ATOM     43  C   UNL A   1      43.999  27.614  28.381  1.00  0.00    -0.014 A 
BRANCH  43  44
ATOM     44  C   UNL A   1      43.636  28.654  29.396  1.00  0.00     0.031 A 
ATOM     45  C   UNL A   1      43.593  28.279  30.854  1.00  0.00     0.074 A 
ATOM     46  C   UNL A   1      43.536  29.964  29.081  1.00  0.00     0.049 A 
ATOM     47  N   UNL A   1      43.315  29.028  31.893  1.00  0.00    -0.248 NA
ATOM     48  C   UNL A   1      43.911  26.882  31.184  1.00  0.00     0.031 C 
ATOM     49  C   UNL A   1      43.697  30.524  27.742  1.00  0.00     0.029 A 
ATOM     50  N   UNL A   1      43.393  31.077  29.888  1.00  0.00    -0.354 N 
ATOM     51  C   UNL A   1      43.331  28.174  32.988  1.00  0.00     0.074 A 
ATOM     52  C   UNL A   1      43.731  26.871  32.496  1.00  0.00     0.031 C 
ATOM     53  C   UNL A   1      43.777  31.865  27.838  1.00  0.00     0.029 A 
ATOM     54  C   UNL A   1      43.551  32.276  29.224  1.00  0.00     0.049 A 
ATOM     55  H   UNL A   1      43.197  31.019  30.851  1.00  0.00     0.167 HD
ATOM     56  C   UNL A   1      42.979  28.432  34.270  1.00  0.00     0.031 A 
ATOM     57  C   UNL A   1      43.499  33.553  29.670  1.00  0.00     0.031 A 
ATOM     58  C   UNL A   1      42.570  29.720  34.771  1.00  0.00     0.049 A 
ATOM     59  C   UNL A   1      43.068  33.820  31.095  1.00  0.00     0.074 A 
ATOM     60  C   UNL A   1      42.101  30.044  36.034  1.00  0.00     0.029 A 
ATOM     61  N   UNL A   1      42.589  30.897  34.043  1.00  0.00    -0.354 N 
ATOM     62  N   UNL A   1      42.928  32.981  32.092  1.00  0.00    -0.248 NA
ATOM     63  C   UNL A   1      42.705  35.209  31.431  1.00  0.00     0.031 C 
ATOM     64  C   UNL A   1      41.778  31.404  36.049  1.00  0.00     0.029 A 
ATOM     65  C   UNL A   1      42.116  31.943  34.820  1.00  0.00     0.049 A 
ATOM     66  H   UNL A   1      42.894  30.979  33.111  1.00  0.00     0.167 HD
ATOM     67  C   UNL A   1      42.424  33.732  33.152  1.00  0.00     0.074 A 
ATOM     68  C   UNL A   1      42.351  35.104  32.704  1.00  0.00     0.031 C 
ATOM     69  C   UNL A   1      42.017  33.308  34.373  1.00  0.00     0.031 A 
BRANCH  56  70
ATOM     70  C   UNL A   1      42.868  27.252  35.193  1.00  0.00    -0.014 A 
ATOM     71  C   UNL A   1      43.902  26.874  36.059  1.00  0.00     0.009 A 
ATOM     72  C   UNL A   1      41.673  26.512  35.190  1.00  0.00     0.009 A 
ATOM     73  C   UNL A   1      43.753  25.752  36.878  1.00  0.00     0.001 A 
ATOM     74  C   UNL A   1      41.514  25.414  36.033  1.00  0.00     0.001 A 
ATOM     75  C   UNL A   1      42.560  25.028  36.869  1.00  0.00     0.000 A 
ENDBRANCH  56  70
BRANCH  57  76
ATOM     76  C   UNL A   1      43.730  34.713  28.753  1.00  0.00    -0.014 A 
ATOM     77  C   UNL A   1      42.669  35.303  28.042  1.00  0.00     0.009 A 
ATOM     78  C   UNL A   1      45.030  35.186  28.512  1.00  0.00     0.009 A 
ATOM     79  C   UNL A   1      42.909  36.319  27.109  1.00  0.00     0.001 A 
ATOM     80  C   UNL A   1      45.262  36.235  27.620  1.00  0.00     0.001 A 
ATOM     81  C   UNL A   1      44.204  36.792  26.908  1.00  0.00     0.000 A 
ENDBRANCH  57  76
BRANCH  69  82
ATOM     82  C   UNL A   1      41.434  34.328  35.315  1.00  0.00    -0.014 A 
ATOM     83  C   UNL A   1      42.261  35.192  36.052  1.00  0.00     0.009 A 
ATOM     84  C   UNL A   1      40.041  34.469  35.432  1.00  0.00     0.009 A 
ATOM     85  C   UNL A   1      41.709  36.149  36.908  1.00  0.00     0.001 A 
ATOM     86  C   UNL A   1      39.492  35.446  36.265  1.00  0.00     0.001 A 
ATOM     87  C   UNL A   1      40.325  36.280  37.009  1.00  0.00     0.000 A 
ENDBRANCH  69  82
ENDBRANCH  43  44
ENDBRANCH  36  38
ENDBRANCH  35  36
ENDBRANCH  34  35
ENDBRANCH  33  34
ENDBRANCH  32  33
ENDBRANCH  31  32
ENDBRANCH   1  31
TORSDOF 21
ENDMDL
