MODEL 1
REMARK VINA RESULT:      -9.7      0.000      0.000
REMARK SMILES Cc1ccc(C)n1-c1ccccc1S[C@H](C)C(=O)OCCOCCOCCOC(=O)c1ccc(-c2c3nc(c(-c4ccccc4)c4ccc([nH]4)c(-c4ccccc4)c4nc(c(-c5ccccc5)c5ccc2[nH]5)C=C4)C=C3)cc1
REMARK SMILES IDX 23 1 22 2 21 3 20 4 19 5 17 6 18 7 15 8 16 9 14 10 13 11
REMARK SMILES IDX 8 12 9 13 10 14 12 15 11 16 7 17 1 18 2 19 3 20 4 21 5 22
REMARK SMILES IDX 6 23 24 24 25 25 26 26 27 27 28 28 29 29 30 30 31 31 32 32
REMARK SMILES IDX 78 33 33 34 77 35 34 36 35 37 36 38 71 39 37 40 76 41 70 42
REMARK SMILES IDX 72 43 38 44 75 45 69 46 68 47 39 49 61 50 46 51 60 52 47 53
REMARK SMILES IDX 50 54 59 55 73 56 48 57 49 58 58 60 74 61 51 62 40 63 41 64
REMARK SMILES IDX 45 65 42 66 44 67 43 68 62 69 63 70 67 71 64 72 66 73 65 74
REMARK SMILES IDX 52 75 53 76 57 77 54 78 56 79 55 80
REMARK H PARENT 72 48 50 59
REMARK Flexibility Score: inf
ROOT
ATOM      1  C   UNL A   1      32.301  30.668  26.866  1.00  0.00     0.188 C 
ENDROOT
BRANCH   1   2
ATOM      2  O   UNL A   1      32.321  30.321  25.496  1.00  0.00    -0.376 OA
BRANCH   2   3
ATOM      3  C   UNL A   1      31.233  29.647  24.868  1.00  0.00     0.202 C 
BRANCH   3   4
ATOM      4  C   UNL A   1      31.343  28.299  24.141  1.00  0.00     0.261 C 
BRANCH   4   5
ATOM      5  O   UNL A   1      30.810  27.182  24.855  1.00  0.00    -0.462 OA
BRANCH   5   6
ATOM      6  C   UNL A   1      31.544  26.816  25.949  1.00  0.00     0.319 C 
ATOM      7  O   UNL A   1      31.094  26.686  27.067  1.00  0.00    -0.251 OA
BRANCH   6   8
ATOM      8  C   UNL A   1      33.005  26.520  25.617  1.00  0.00     0.158 C 
ATOM      9  C   UNL A   1      34.083  27.441  26.173  1.00  0.00     0.032 C 
BRANCH   8  10
ATOM     10  S   UNL A   1      33.350  24.854  26.252  1.00  0.00    -0.109 SA
BRANCH  10  11
ATOM     11  C   UNL A   1      34.686  24.265  25.204  1.00  0.00     0.032 A 
ATOM     12  C   UNL A   1      34.382  23.736  23.934  1.00  0.00     0.059 A 
ATOM     13  C   UNL A   1      35.343  23.052  23.176  1.00  0.00     0.028 A 
ATOM     14  C   UNL A   1      36.645  22.939  23.658  1.00  0.00     0.002 A 
ATOM     15  C   UNL A   1      36.009  24.153  25.654  1.00  0.00     0.017 A 
ATOM     16  C   UNL A   1      36.983  23.506  24.883  1.00  0.00     0.001 A 
BRANCH  12  17
ATOM     17  N   UNL A   1      33.053  23.791  23.443  1.00  0.00    -0.317 N 
ATOM     18  C   UNL A   1      33.294  25.957  22.126  1.00  0.00     0.065 C 
ATOM     19  C   UNL A   1      32.502  24.828  22.694  1.00  0.00     0.020 A 
ATOM     20  C   UNL A   1      31.137  24.625  22.635  1.00  0.00     0.023 A 
ATOM     21  C   UNL A   1      30.847  23.434  23.331  1.00  0.00     0.023 A 
ATOM     22  C   UNL A   1      32.035  22.926  23.823  1.00  0.00     0.020 A 
ATOM     23  C   UNL A   1      32.227  21.746  24.711  1.00  0.00     0.065 C 
ENDBRANCH  12  17
ENDBRANCH  10  11
ENDBRANCH   8  10
ENDBRANCH   6   8
ENDBRANCH   5   6
ENDBRANCH   4   5
ENDBRANCH   3   4
ENDBRANCH   2   3
ENDBRANCH   1   2
BRANCH   1  24
ATOM     24  C   UNL A   1      33.444  31.506  27.461  1.00  0.00     0.188 C 
BRANCH  24  25
ATOM     25  O   UNL A   1      33.174  32.851  27.786  1.00  0.00    -0.376 OA
BRANCH  25  26
ATOM     26  C   UNL A   1      34.205  33.531  28.504  1.00  0.00     0.202 C 
BRANCH  26  27
ATOM     27  C   UNL A   1      34.279  33.433  30.061  1.00  0.00     0.261 C 
BRANCH  27  28
ATOM     28  O   UNL A   1      35.571  33.488  30.787  1.00  0.00    -0.460 OA
BRANCH  28  29
ATOM     29  C   UNL A   1      36.714  33.259  30.040  1.00  0.00     0.338 C 
ATOM     30  O   UNL A   1      37.436  34.172  29.655  1.00  0.00    -0.246 OA
BRANCH  29  31
ATOM     31  C   UNL A   1      37.067  31.796  29.665  1.00  0.00     0.060 A 
ATOM     32  C   UNL A   1      37.165  30.813  30.647  1.00  0.00     0.016 A 
ATOM     33  C   UNL A   1      37.649  31.411  28.433  1.00  0.00     0.016 A 
ATOM     34  C   UNL A   1      37.752  29.507  30.375  1.00  0.00     0.010 A 
ATOM     35  C   UNL A   1      38.299  30.095  28.178  1.00  0.00     0.010 A 
ATOM     36  C   UNL A   1      38.379  29.068  29.141  1.00  0.00    -0.014 A 
BRANCH  36  37
ATOM     37  C   UNL A   1      39.435  27.769  29.218  1.00  0.00     0.031 A 
ATOM     38  C   UNL A   1      40.257  28.129  30.405  1.00  0.00     0.074 A 
ATOM     39  C   UNL A   1      39.923  26.604  28.580  1.00  0.00     0.049 A 
ATOM     40  N   UNL A   1      40.888  29.265  30.405  1.00  0.00    -0.248 NA
ATOM     41  C   UNL A   1      40.126  27.496  31.716  1.00  0.00     0.031 C 
ATOM     42  C   UNL A   1      39.520  26.025  27.283  1.00  0.00     0.029 A 
ATOM     43  N   UNL A   1      40.934  25.620  28.943  1.00  0.00    -0.354 N 
ATOM     44  C   UNL A   1      41.477  29.385  31.635  1.00  0.00     0.074 A 
ATOM     45  C   UNL A   1      40.806  28.382  32.455  1.00  0.00     0.031 C 
ATOM     46  C   UNL A   1      40.108  24.811  27.042  1.00  0.00     0.029 A 
ATOM     47  C   UNL A   1      41.041  24.432  28.106  1.00  0.00     0.049 A 
ATOM     48  H   UNL A   1      41.520  25.752  29.724  1.00  0.00     0.167 HD
ATOM     49  C   UNL A   1      42.796  29.733  31.622  1.00  0.00     0.031 A 
ATOM     50  C   UNL A   1      41.851  23.285  28.180  1.00  0.00     0.031 A 
ATOM     51  C   UNL A   1      43.643  28.585  31.807  1.00  0.00     0.049 A 
ATOM     52  C   UNL A   1      43.064  23.671  28.910  1.00  0.00     0.074 A 
ATOM     53  C   UNL A   1      43.598  27.511  32.673  1.00  0.00     0.029 A 
ATOM     54  N   UNL A   1      44.407  28.196  30.726  1.00  0.00    -0.354 N 
ATOM     55  N   UNL A   1      44.016  24.331  28.322  1.00  0.00    -0.248 NA
ATOM     56  C   UNL A   1      43.377  23.196  30.255  1.00  0.00     0.031 C 
ATOM     57  C   UNL A   1      43.869  26.390  31.860  1.00  0.00     0.029 A 
ATOM     58  C   UNL A   1      44.436  26.820  30.667  1.00  0.00     0.049 A 
ATOM     59  H   UNL A   1      44.859  28.804  30.098  1.00  0.00     0.167 HD
ATOM     60  C   UNL A   1      44.712  24.835  29.375  1.00  0.00     0.074 A 
ATOM     61  C   UNL A   1      44.496  23.896  30.460  1.00  0.00     0.031 C 
ATOM     62  C   UNL A   1      44.804  26.188  29.425  1.00  0.00     0.031 A 
BRANCH  49  63
ATOM     63  C   UNL A   1      43.133  30.863  30.681  1.00  0.00    -0.014 A 
ATOM     64  C   UNL A   1      42.778  32.170  31.026  1.00  0.00     0.009 A 
ATOM     65  C   UNL A   1      43.697  30.641  29.406  1.00  0.00     0.009 A 
ATOM     66  C   UNL A   1      42.915  33.206  30.095  1.00  0.00     0.001 A 
ATOM     67  C   UNL A   1      43.793  31.664  28.464  1.00  0.00     0.001 A 
ATOM     68  C   UNL A   1      43.393  32.948  28.809  1.00  0.00     0.000 A 
ENDBRANCH  49  63
BRANCH  50  69
ATOM     69  C   UNL A   1      42.127  21.840  27.620  1.00  0.00    -0.014 A 
ATOM     70  C   UNL A   1      41.077  20.849  27.639  1.00  0.00     0.009 A 
ATOM     71  C   UNL A   1      43.150  21.550  26.706  1.00  0.00     0.009 A 
ATOM     72  C   UNL A   1      40.993  19.750  26.753  1.00  0.00     0.001 A 
ATOM     73  C   UNL A   1      43.087  20.416  25.835  1.00  0.00     0.001 A 
ATOM     74  C   UNL A   1      41.999  19.541  25.831  1.00  0.00     0.000 A 
ENDBRANCH  50  69
BRANCH  62  75
ATOM     75  C   UNL A   1      44.999  26.919  28.105  1.00  0.00    -0.014 A 
ATOM     76  C   UNL A   1      43.959  27.457  27.312  1.00  0.00     0.009 A 
ATOM     77  C   UNL A   1      46.301  27.031  27.605  1.00  0.00     0.009 A 
ATOM     78  C   UNL A   1      44.205  28.028  26.059  1.00  0.00     0.001 A 
ATOM     79  C   UNL A   1      46.556  27.645  26.373  1.00  0.00     0.001 A 
ATOM     80  C   UNL A   1      45.509  28.129  25.593  1.00  0.00     0.000 A 
ENDBRANCH  62  75
ENDBRANCH  36  37
ENDBRANCH  29  31
ENDBRANCH  28  29
ENDBRANCH  27  28
ENDBRANCH  26  27
ENDBRANCH  25  26
ENDBRANCH  24  25
ENDBRANCH   1  24
TORSDOF 20
ENDMDL
MODEL 2
REMARK VINA RESULT:      -9.5      3.132      8.334
REMARK SMILES Cc1ccc(C)n1-c1ccccc1S[C@H](C)C(=O)OCCOCCOCCOC(=O)c1ccc(-c2c3nc(c(-c4ccccc4)c4ccc([nH]4)c(-c4ccccc4)c4nc(c(-c5ccccc5)c5ccc2[nH]5)C=C4)C=C3)cc1
REMARK SMILES IDX 23 1 22 2 21 3 20 4 19 5 17 6 18 7 15 8 16 9 14 10 13 11
REMARK SMILES IDX 8 12 9 13 10 14 12 15 11 16 7 17 1 18 2 19 3 20 4 21 5 22
REMARK SMILES IDX 6 23 24 24 25 25 26 26 27 27 28 28 29 29 30 30 31 31 32 32
REMARK SMILES IDX 78 33 33 34 77 35 34 36 35 37 36 38 71 39 37 40 76 41 70 42
REMARK SMILES IDX 72 43 38 44 75 45 69 46 68 47 39 49 61 50 46 51 60 52 47 53
REMARK SMILES IDX 50 54 59 55 73 56 48 57 49 58 58 60 74 61 51 62 40 63 41 64
REMARK SMILES IDX 45 65 42 66 44 67 43 68 62 69 63 70 67 71 64 72 66 73 65 74
REMARK SMILES IDX 52 75 53 76 57 77 54 78 56 79 55 80
REMARK H PARENT 72 48 50 59
REMARK Flexibility Score: inf
ROOT
ATOM      1  C   UNL A   1      35.959  22.146  24.291  1.00  0.00     0.188 C 
ENDROOT
BRANCH   1   2
ATOM      2  O   UNL A   1      34.809  22.685  24.910  1.00  0.00    -0.376 OA
BRANCH   2   3
ATOM      3  C   UNL A   1      33.778  21.859  25.445  1.00  0.00     0.202 C 
BRANCH   3   4
ATOM      4  C   UNL A   1      32.275  22.086  25.229  1.00  0.00     0.261 C 
BRANCH   4   5
ATOM      5  O   UNL A   1      31.877  23.455  25.136  1.00  0.00    -0.462 OA
BRANCH   5   6
ATOM      6  C   UNL A   1      31.589  24.036  26.340  1.00  0.00     0.319 C 
ATOM      7  O   UNL A   1      30.942  23.511  27.219  1.00  0.00    -0.251 OA
BRANCH   6   8
ATOM      8  C   UNL A   1      32.221  25.416  26.505  1.00  0.00     0.158 C 
ATOM      9  C   UNL A   1      33.688  25.599  26.135  1.00  0.00     0.032 C 
BRANCH   8  10
ATOM     10  S   UNL A   1      31.264  26.551  25.460  1.00  0.00    -0.109 SA
BRANCH  10  11
ATOM     11  C   UNL A   1      32.445  27.082  24.213  1.00  0.00     0.032 A 
ATOM     12  C   UNL A   1      32.874  28.424  24.199  1.00  0.00     0.059 A 
ATOM     13  C   UNL A   1      33.601  28.949  23.121  1.00  0.00     0.028 A 
ATOM     14  C   UNL A   1      33.960  28.116  22.064  1.00  0.00     0.002 A 
ATOM     15  C   UNL A   1      32.837  26.264  23.144  1.00  0.00     0.017 A 
ATOM     16  C   UNL A   1      33.598  26.773  22.085  1.00  0.00     0.001 A 
BRANCH  12  17
ATOM     17  N   UNL A   1      32.479  29.305  25.237  1.00  0.00    -0.317 N 
ATOM     18  C   UNL A   1      30.301  30.087  24.175  1.00  0.00     0.065 C 
ATOM     19  C   UNL A   1      31.364  30.140  25.219  1.00  0.00     0.020 A 
ATOM     20  C   UNL A   1      31.474  31.010  26.287  1.00  0.00     0.023 A 
ATOM     21  C   UNL A   1      32.655  30.688  26.986  1.00  0.00     0.023 A 
ATOM     22  C   UNL A   1      33.265  29.634  26.333  1.00  0.00     0.020 A 
ATOM     23  C   UNL A   1      34.587  29.016  26.632  1.00  0.00     0.065 C 
ENDBRANCH  12  17
ENDBRANCH  10  11
ENDBRANCH   8  10
ENDBRANCH   6   8
ENDBRANCH   5   6
ENDBRANCH   4   5
ENDBRANCH   3   4
ENDBRANCH   2   3
ENDBRANCH   1   2
BRANCH   1  24
ATOM     24  C   UNL A   1      37.182  21.768  25.142  1.00  0.00     0.188 C 
BRANCH  24  25
ATOM     25  O   UNL A   1      37.729  20.480  24.976  1.00  0.00    -0.376 OA
BRANCH  25  26
ATOM     26  C   UNL A   1      39.061  20.308  25.462  1.00  0.00     0.202 C 
BRANCH  26  27
ATOM     27  C   UNL A   1      39.781  21.469  26.218  1.00  0.00     0.261 C 
BRANCH  27  28
ATOM     28  O   UNL A   1      41.163  21.324  26.738  1.00  0.00    -0.460 OA
BRANCH  28  29
ATOM     29  C   UNL A   1      42.146  22.067  26.106  1.00  0.00     0.338 C 
ATOM     30  O   UNL A   1      42.923  21.568  25.299  1.00  0.00    -0.246 OA
BRANCH  29  31
ATOM     31  C   UNL A   1      42.273  23.572  26.459  1.00  0.00     0.060 A 
ATOM     32  C   UNL A   1      42.072  24.017  27.763  1.00  0.00     0.016 A 
ATOM     33  C   UNL A   1      42.239  24.616  25.503  1.00  0.00     0.016 A 
ATOM     34  C   UNL A   1      41.915  25.431  28.080  1.00  0.00     0.010 A 
ATOM     35  C   UNL A   1      42.021  26.054  25.828  1.00  0.00     0.010 A 
ATOM     36  C   UNL A   1      41.852  26.536  27.142  1.00  0.00    -0.014 A 
BRANCH  36  37
ATOM     37  C   UNL A   1      41.148  27.966  27.661  1.00  0.00     0.031 A 
ATOM     38  C   UNL A   1      42.335  28.857  27.766  1.00  0.00     0.074 A 
ATOM     39  C   UNL A   1      39.977  28.601  28.139  1.00  0.00     0.049 A 
ATOM     40  N   UNL A   1      43.320  28.496  28.533  1.00  0.00    -0.248 NA
ATOM     41  C   UNL A   1      42.656  29.912  26.806  1.00  0.00     0.031 C 
ATOM     42  C   UNL A   1      38.645  28.014  28.384  1.00  0.00     0.029 A 
ATOM     43  N   UNL A   1      39.680  29.970  28.538  1.00  0.00    -0.354 N 
ATOM     44  C   UNL A   1      44.306  29.433  28.370  1.00  0.00     0.074 A 
ATOM     45  C   UNL A   1      43.927  30.147  27.156  1.00  0.00     0.031 C 
ATOM     46  C   UNL A   1      37.706  28.957  28.716  1.00  0.00     0.029 A 
ATOM     47  C   UNL A   1      38.287  30.299  28.810  1.00  0.00     0.049 A 
ATOM     48  H   UNL A   1      40.392  30.646  28.619  1.00  0.00     0.167 HD
ATOM     49  C   UNL A   1      44.836  29.932  29.523  1.00  0.00     0.031 A 
ATOM     50  C   UNL A   1      37.643  31.497  29.166  1.00  0.00     0.031 A 
ATOM     51  C   UNL A   1      44.270  31.213  29.850  1.00  0.00     0.049 A 
ATOM     52  C   UNL A   1      38.647  32.331  29.840  1.00  0.00     0.074 A 
ATOM     53  C   UNL A   1      43.998  32.341  29.101  1.00  0.00     0.029 A 
ATOM     54  N   UNL A   1      43.460  31.269  30.966  1.00  0.00    -0.354 N 
ATOM     55  N   UNL A   1      38.973  32.113  31.078  1.00  0.00    -0.248 NA
ATOM     56  C   UNL A   1      39.199  33.550  29.257  1.00  0.00     0.031 C 
ATOM     57  C   UNL A   1      42.705  32.732  29.508  1.00  0.00     0.029 A 
ATOM     58  C   UNL A   1      42.398  32.108  30.710  1.00  0.00     0.049 A 
ATOM     59  H   UNL A   1      43.617  30.787  31.809  1.00  0.00     0.167 HD
ATOM     60  C   UNL A   1      40.158  32.771  31.185  1.00  0.00     0.074 A 
ATOM     61  C   UNL A   1      40.089  33.843  30.210  1.00  0.00     0.031 C 
ATOM     62  C   UNL A   1      41.222  32.008  31.539  1.00  0.00     0.031 A 
BRANCH  49  63
ATOM     63  C   UNL A   1      45.165  28.887  30.562  1.00  0.00    -0.014 A 
ATOM     64  C   UNL A   1      46.480  28.433  30.683  1.00  0.00     0.009 A 
ATOM     65  C   UNL A   1      44.170  28.264  31.346  1.00  0.00     0.009 A 
ATOM     66  C   UNL A   1      46.775  27.341  31.508  1.00  0.00     0.001 A 
ATOM     67  C   UNL A   1      44.455  27.149  32.133  1.00  0.00     0.001 A 
ATOM     68  C   UNL A   1      45.761  26.683  32.207  1.00  0.00     0.000 A 
ENDBRANCH  49  63
BRANCH  50  69
ATOM     69  C   UNL A   1      36.267  32.235  29.366  1.00  0.00    -0.014 A 
ATOM     70  C   UNL A   1      35.861  32.655  30.686  1.00  0.00     0.009 A 
ATOM     71  C   UNL A   1      35.601  32.915  28.336  1.00  0.00     0.009 A 
ATOM     72  C   UNL A   1      34.976  33.725  30.952  1.00  0.00     0.001 A 
ATOM     73  C   UNL A   1      34.675  33.972  28.603  1.00  0.00     0.001 A 
ATOM     74  C   UNL A   1      34.390  34.402  29.901  1.00  0.00     0.000 A 
ENDBRANCH  50  69
BRANCH  62  75
ATOM     75  C   UNL A   1      40.984  30.922  32.576  1.00  0.00    -0.014 A 
ATOM     76  C   UNL A   1      40.996  31.117  33.977  1.00  0.00     0.009 A 
ATOM     77  C   UNL A   1      40.783  29.614  32.120  1.00  0.00     0.009 A 
ATOM     78  C   UNL A   1      40.869  30.050  34.873  1.00  0.00     0.001 A 
ATOM     79  C   UNL A   1      40.608  28.551  33.014  1.00  0.00     0.001 A 
ATOM     80  C   UNL A   1      40.666  28.765  34.389  1.00  0.00     0.000 A 
ENDBRANCH  62  75
ENDBRANCH  36  37
ENDBRANCH  29  31
ENDBRANCH  28  29
ENDBRANCH  27  28
ENDBRANCH  26  27
ENDBRANCH  25  26
ENDBRANCH  24  25
ENDBRANCH   1  24
TORSDOF 20
ENDMDL
MODEL 3
REMARK VINA RESULT:      -9.3      3.176      8.390
REMARK SMILES Cc1ccc(C)n1-c1ccccc1S[C@H](C)C(=O)OCCOCCOCCOC(=O)c1ccc(-c2c3nc(c(-c4ccccc4)c4ccc([nH]4)c(-c4ccccc4)c4nc(c(-c5ccccc5)c5ccc2[nH]5)C=C4)C=C3)cc1
REMARK SMILES IDX 23 1 22 2 21 3 20 4 19 5 17 6 18 7 15 8 16 9 14 10 13 11
REMARK SMILES IDX 8 12 9 13 10 14 12 15 11 16 7 17 1 18 2 19 3 20 4 21 5 22
REMARK SMILES IDX 6 23 24 24 25 25 26 26 27 27 28 28 29 29 30 30 31 31 32 32
REMARK SMILES IDX 78 33 33 34 77 35 34 36 35 37 36 38 71 39 37 40 76 41 70 42
REMARK SMILES IDX 72 43 38 44 75 45 69 46 68 47 39 49 61 50 46 51 60 52 47 53
REMARK SMILES IDX 50 54 59 55 73 56 48 57 49 58 58 60 74 61 51 62 40 63 41 64
REMARK SMILES IDX 45 65 42 66 44 67 43 68 62 69 63 70 67 71 64 72 66 73 65 74
REMARK SMILES IDX 52 75 53 76 57 77 54 78 56 79 55 80
REMARK H PARENT 72 48 50 59
REMARK Flexibility Score: inf
ROOT
ATOM      1  C   UNL A   1      37.088  21.202  24.669  1.00  0.00     0.188 C 
ENDROOT
BRANCH   1   2
ATOM      2  O   UNL A   1      35.839  20.931  25.272  1.00  0.00    -0.376 OA
BRANCH   2   3
ATOM      3  C   UNL A   1      35.193  21.868  26.131  1.00  0.00     0.202 C 
BRANCH   3   4
ATOM      4  C   UNL A   1      33.698  21.846  26.481  1.00  0.00     0.261 C 
BRANCH   4   5
ATOM      5  O   UNL A   1      33.215  23.015  27.144  1.00  0.00    -0.462 OA
BRANCH   5   6
ATOM      6  C   UNL A   1      31.918  23.330  26.847  1.00  0.00     0.319 C 
ATOM      7  O   UNL A   1      30.994  23.246  27.626  1.00  0.00    -0.251 OA
BRANCH   6   8
ATOM      8  C   UNL A   1      31.743  23.868  25.429  1.00  0.00     0.158 C 
ATOM      9  C   UNL A   1      31.150  22.952  24.365  1.00  0.00     0.032 C 
BRANCH   8  10
ATOM     10  S   UNL A   1      30.648  25.311  25.556  1.00  0.00    -0.109 SA
BRANCH  10  11
ATOM     11  C   UNL A   1      31.783  26.696  25.714  1.00  0.00     0.032 A 
ATOM     12  C   UNL A   1      32.594  27.049  24.619  1.00  0.00     0.059 A 
ATOM     13  C   UNL A   1      33.654  27.957  24.754  1.00  0.00     0.028 A 
ATOM     14  C   UNL A   1      33.880  28.571  25.984  1.00  0.00     0.002 A 
ATOM     15  C   UNL A   1      32.023  27.343  26.935  1.00  0.00     0.017 A 
ATOM     16  C   UNL A   1      33.054  28.281  27.066  1.00  0.00     0.001 A 
BRANCH  12  17
ATOM     17  N   UNL A   1      32.419  26.403  23.369  1.00  0.00    -0.317 N 
ATOM     18  C   UNL A   1      34.403  24.818  23.552  1.00  0.00     0.065 C 
ATOM     19  C   UNL A   1      33.270  25.450  22.816  1.00  0.00     0.020 A 
ATOM     20  C   UNL A   1      32.893  25.261  21.501  1.00  0.00     0.023 A 
ATOM     21  C   UNL A   1      31.779  26.087  21.249  1.00  0.00     0.023 A 
ATOM     22  C   UNL A   1      31.492  26.784  22.407  1.00  0.00     0.020 A 
ATOM     23  C   UNL A   1      30.473  27.853  22.603  1.00  0.00     0.065 C 
ENDBRANCH  12  17
ENDBRANCH  10  11
ENDBRANCH   8  10
ENDBRANCH   6   8
ENDBRANCH   5   6
ENDBRANCH   4   5
ENDBRANCH   3   4
ENDBRANCH   2   3
ENDBRANCH   1   2
BRANCH   1  24
ATOM     24  C   UNL A   1      38.384  21.035  25.479  1.00  0.00     0.188 C 
BRANCH  24  25
ATOM     25  O   UNL A   1      39.044  19.791  25.416  1.00  0.00    -0.376 OA
BRANCH  25  26
ATOM     26  C   UNL A   1      40.289  19.719  26.112  1.00  0.00     0.202 C 
BRANCH  26  27
ATOM     27  C   UNL A   1      40.770  20.914  26.997  1.00  0.00     0.261 C 
BRANCH  27  28
ATOM     28  O   UNL A   1      42.192  21.334  27.037  1.00  0.00    -0.460 OA
BRANCH  28  29
ATOM     29  C   UNL A   1      42.568  22.342  26.165  1.00  0.00     0.338 C 
ATOM     30  O   UNL A   1      42.884  22.114  25.002  1.00  0.00    -0.246 OA
BRANCH  29  31
ATOM     31  C   UNL A   1      42.609  23.798  26.697  1.00  0.00     0.060 A 
ATOM     32  C   UNL A   1      42.007  24.131  27.907  1.00  0.00     0.016 A 
ATOM     33  C   UNL A   1      42.912  24.926  25.897  1.00  0.00     0.016 A 
ATOM     34  C   UNL A   1      41.789  25.516  28.306  1.00  0.00     0.010 A 
ATOM     35  C   UNL A   1      42.634  26.338  26.286  1.00  0.00     0.010 A 
ATOM     36  C   UNL A   1      42.060  26.706  27.519  1.00  0.00    -0.014 A 
BRANCH  36  37
ATOM     37  C   UNL A   1      41.259  28.119  27.934  1.00  0.00     0.031 A 
ATOM     38  C   UNL A   1      42.385  29.090  27.985  1.00  0.00     0.074 A 
ATOM     39  C   UNL A   1      40.044  28.707  28.359  1.00  0.00     0.049 A 
ATOM     40  N   UNL A   1      43.383  28.847  28.782  1.00  0.00    -0.248 NA
ATOM     41  C   UNL A   1      42.648  30.096  26.958  1.00  0.00     0.031 C 
ATOM     42  C   UNL A   1      38.750  28.053  28.635  1.00  0.00     0.029 A 
ATOM     43  N   UNL A   1      39.655  30.079  28.661  1.00  0.00    -0.354 N 
ATOM     44  C   UNL A   1      44.308  29.833  28.562  1.00  0.00     0.074 A 
ATOM     45  C   UNL A   1      43.897  30.437  27.299  1.00  0.00     0.031 C 
ATOM     46  C   UNL A   1      37.749  28.954  28.895  1.00  0.00     0.029 A 
ATOM     47  C   UNL A   1      38.241  30.334  28.900  1.00  0.00     0.049 A 
ATOM     48  H   UNL A   1      40.321  30.803  28.700  1.00  0.00     0.167 HD
ATOM     49  C   UNL A   1      44.792  30.443  29.682  1.00  0.00     0.031 A 
ATOM     50  C   UNL A   1      37.517  31.509  29.168  1.00  0.00     0.031 A 
ATOM     51  C   UNL A   1      44.140  31.704  29.915  1.00  0.00     0.049 A 
ATOM     52  C   UNL A   1      38.457  32.451  29.790  1.00  0.00     0.074 A 
ATOM     53  C   UNL A   1      43.805  32.758  29.089  1.00  0.00     0.029 A 
ATOM     54  N   UNL A   1      43.316  31.783  31.019  1.00  0.00    -0.354 N 
ATOM     55  N   UNL A   1      38.783  32.339  31.042  1.00  0.00    -0.248 NA
ATOM     56  C   UNL A   1      38.937  33.661  29.128  1.00  0.00     0.031 C 
ATOM     57  C   UNL A   1      42.484  33.091  29.459  1.00  0.00     0.029 A 
ATOM     58  C   UNL A   1      42.205  32.531  30.699  1.00  0.00     0.049 A 
ATOM     59  H   UNL A   1      43.495  31.371  31.895  1.00  0.00     0.167 HD
ATOM     60  C   UNL A   1      39.922  33.078  31.112  1.00  0.00     0.074 A 
ATOM     61  C   UNL A   1      39.795  34.074  30.065  1.00  0.00     0.031 C 
ATOM     62  C   UNL A   1      41.029  32.412  31.525  1.00  0.00     0.031 A 
BRANCH  49  63
ATOM     63  C   UNL A   1      45.175  29.495  30.792  1.00  0.00    -0.014 A 
ATOM     64  C   UNL A   1      46.211  28.581  30.585  1.00  0.00     0.009 A 
ATOM     65  C   UNL A   1      44.450  29.418  32.002  1.00  0.00     0.009 A 
ATOM     66  C   UNL A   1      46.462  27.576  31.526  1.00  0.00     0.001 A 
ATOM     67  C   UNL A   1      44.672  28.391  32.918  1.00  0.00     0.001 A 
ATOM     68  C   UNL A   1      45.676  27.464  32.675  1.00  0.00     0.000 A 
ENDBRANCH  49  63
BRANCH  50  69
ATOM     69  C   UNL A   1      36.094  32.168  29.307  1.00  0.00    -0.014 A 
ATOM     70  C   UNL A   1      35.667  32.696  30.581  1.00  0.00     0.009 A 
ATOM     71  C   UNL A   1      35.377  32.688  28.221  1.00  0.00     0.009 A 
ATOM     72  C   UNL A   1      34.712  33.725  30.745  1.00  0.00     0.001 A 
ATOM     73  C   UNL A   1      34.381  33.701  28.387  1.00  0.00     0.001 A 
ATOM     74  C   UNL A   1      34.074  34.245  29.637  1.00  0.00     0.000 A 
ENDBRANCH  50  69
BRANCH  62  75
ATOM     75  C   UNL A   1      40.849  31.386  32.633  1.00  0.00    -0.014 A 
ATOM     76  C   UNL A   1      40.666  29.998  32.434  1.00  0.00     0.009 A 
ATOM     77  C   UNL A   1      40.812  31.849  33.953  1.00  0.00     0.009 A 
ATOM     78  C   UNL A   1      40.406  29.127  33.498  1.00  0.00     0.001 A 
ATOM     79  C   UNL A   1      40.599  30.973  35.025  1.00  0.00     0.001 A 
ATOM     80  C   UNL A   1      40.381  29.616  34.797  1.00  0.00     0.000 A 
ENDBRANCH  62  75
ENDBRANCH  36  37
ENDBRANCH  29  31
ENDBRANCH  28  29
ENDBRANCH  27  28
ENDBRANCH  26  27
ENDBRANCH  25  26
ENDBRANCH  24  25
ENDBRANCH   1  24
TORSDOF 20
ENDMDL
