MODEL 1
REMARK VINA RESULT:      -8.6      0.000      0.000
REMARK SMILES CCOc1cc(OCC)cc(-c2ccc([C@@H](C)C(=O)OCCOCCOCCOC(=O)c3ccc(-c4c5nc(c(-c6ccccc6)c6ccc([nH]6)c(-c6ccccc6)c6nc(c(-c7ccccc7)c7ccc4[nH]7)C=C6)C=C5)cc3)cc2F)c1
REMARK SMILES IDX 24 1 23 2 22 3 21 4 20 5 18 6 19 7 16 8 17 9 15 10 12 11
REMARK SMILES IDX 13 12 81 13 14 14 80 15 82 16 11 17 4 18 5 19 83 20 6 21
REMARK SMILES IDX 10 22 3 23 2 24 1 25 7 26 8 27 9 28 25 29 26 30 27 31 28 32
REMARK SMILES IDX 29 33 30 34 31 35 32 36 33 37 79 38 34 39 78 40 35 41 36 42
REMARK SMILES IDX 37 43 72 44 38 45 77 46 71 47 73 48 39 49 76 50 70 51 69 52
REMARK SMILES IDX 40 54 62 55 47 56 61 57 48 58 51 59 60 60 74 61 49 62 50 63
REMARK SMILES IDX 59 65 75 66 52 67 41 68 42 69 46 70 43 71 45 72 44 73 63 74
REMARK SMILES IDX 64 75 68 76 65 77 67 78 66 79 53 80 54 81 58 82 55 83 57 84
REMARK SMILES IDX 56 85
REMARK H PARENT 73 53 51 64
REMARK Flexibility Score: inf
ROOT
ATOM      1  C   UNL A   1      45.695  27.617  24.955  1.00  0.00     0.188 C 
ENDROOT
BRANCH   1   2
ATOM      2  O   UNL A   1      44.810  26.845  25.757  1.00  0.00    -0.376 OA
BRANCH   2   3
ATOM      3  C   UNL A   1      43.501  26.564  25.277  1.00  0.00     0.202 C 
BRANCH   3   4
ATOM      4  C   UNL A   1      43.060  25.094  25.163  1.00  0.00     0.261 C 
BRANCH   4   5
ATOM      5  O   UNL A   1      41.943  24.701  25.995  1.00  0.00    -0.463 OA
BRANCH   5   6
ATOM      6  C   UNL A   1      41.832  23.379  26.284  1.00  0.00     0.313 C 
ATOM      7  O   UNL A   1      42.677  22.546  25.959  1.00  0.00    -0.252 OA
BRANCH   6   8
ATOM      8  C   UNL A   1      40.585  22.954  27.070  1.00  0.00     0.126 C 
ATOM      9  C   UNL A   1      40.898  21.667  27.830  1.00  0.00     0.025 C 
BRANCH   8  10
ATOM     10  C   UNL A   1      39.219  22.852  26.393  1.00  0.00    -0.031 A 
ATOM     11  C   UNL A   1      36.664  22.537  25.131  1.00  0.00     0.018 A 
ATOM     12  C   UNL A   1      37.042  23.743  25.753  1.00  0.00     0.012 A 
ATOM     13  C   UNL A   1      37.595  21.497  25.153  1.00  0.00     0.131 A 
ATOM     14  C   UNL A   1      38.300  23.907  26.361  1.00  0.00     0.005 A 
ATOM     15  C   UNL A   1      38.849  21.647  25.759  1.00  0.00     0.044 A 
ATOM     16  F   UNL A   1      37.314  20.321  24.571  1.00  0.00    -0.206 F 
BRANCH  11  17
ATOM     17  C   UNL A   1      35.370  22.435  24.427  1.00  0.00    -0.008 A 
ATOM     18  C   UNL A   1      33.782  23.084  22.700  1.00  0.00     0.123 A 
ATOM     19  C   UNL A   1      32.901  22.085  23.114  1.00  0.00     0.092 A 
ATOM     20  C   UNL A   1      35.005  23.268  23.357  1.00  0.00     0.055 A 
ATOM     21  C   UNL A   1      33.225  21.272  24.199  1.00  0.00     0.123 A 
ATOM     22  C   UNL A   1      34.447  21.461  24.846  1.00  0.00     0.055 A 
BRANCH  18  23
ATOM     23  O   UNL A   1      33.324  23.967  21.758  1.00  0.00    -0.494 OA
BRANCH  23  24
ATOM     24  C   UNL A   1      33.275  25.331  22.187  1.00  0.00     0.226 C 
ATOM     25  C   UNL A   1      32.126  25.566  23.143  1.00  0.00     0.049 C 
ENDBRANCH  23  24
ENDBRANCH  18  23
BRANCH  21  26
ATOM     26  O   UNL A   1      32.297  20.323  24.532  1.00  0.00    -0.494 OA
BRANCH  26  27
ATOM     27  C   UNL A   1      32.657  18.951  24.349  1.00  0.00     0.226 C 
ATOM     28  C   UNL A   1      32.660  18.192  25.668  1.00  0.00     0.049 C 
ENDBRANCH  26  27
ENDBRANCH  21  26
ENDBRANCH  11  17
ENDBRANCH   8  10
ENDBRANCH   6   8
ENDBRANCH   5   6
ENDBRANCH   4   5
ENDBRANCH   3   4
ENDBRANCH   2   3
ENDBRANCH   1   2
BRANCH   1  29
ATOM     29  C   UNL A   1      47.005  26.988  24.460  1.00  0.00     0.188 C 
BRANCH  29  30
ATOM     30  O   UNL A   1      48.149  27.792  24.640  1.00  0.00    -0.376 OA
BRANCH  30  31
ATOM     31  C   UNL A   1      49.402  27.190  24.394  1.00  0.00     0.202 C 
BRANCH  31  32
ATOM     32  C   UNL A   1      50.125  26.599  25.614  1.00  0.00     0.261 C 
BRANCH  32  33
ATOM     33  O   UNL A   1      49.698  25.293  26.048  1.00  0.00    -0.460 OA
BRANCH  33  34
ATOM     34  C   UNL A   1      49.829  25.022  27.362  1.00  0.00     0.338 C 
ATOM     35  O   UNL A   1      50.786  24.483  27.900  1.00  0.00    -0.246 OA
BRANCH  34  36
ATOM     36  C   UNL A   1      48.748  25.679  28.116  1.00  0.00     0.060 A 
ATOM     37  C   UNL A   1      47.415  25.349  27.824  1.00  0.00     0.016 A 
ATOM     38  C   UNL A   1      49.046  26.633  29.088  1.00  0.00     0.016 A 
ATOM     39  C   UNL A   1      46.373  25.980  28.502  1.00  0.00     0.010 A 
ATOM     40  C   UNL A   1      48.001  27.284  29.747  1.00  0.00     0.010 A 
ATOM     41  C   UNL A   1      46.661  26.977  29.442  1.00  0.00    -0.014 A 
BRANCH  41  42
ATOM     42  C   UNL A   1      45.579  27.823  29.998  1.00  0.00     0.031 A 
ATOM     43  C   UNL A   1      45.273  29.131  29.325  1.00  0.00     0.074 A 
ATOM     44  C   UNL A   1      44.895  27.449  31.093  1.00  0.00     0.049 A 
ATOM     45  N   UNL A   1      44.462  30.087  29.697  1.00  0.00    -0.248 NA
ATOM     46  C   UNL A   1      45.986  29.397  28.065  1.00  0.00     0.031 C 
ATOM     47  C   UNL A   1      45.057  26.183  31.805  1.00  0.00     0.029 A 
ATOM     48  N   UNL A   1      43.934  28.119  31.808  1.00  0.00    -0.354 N 
ATOM     49  C   UNL A   1      44.579  31.075  28.727  1.00  0.00     0.074 A 
ATOM     50  C   UNL A   1      45.558  30.614  27.766  1.00  0.00     0.031 C 
ATOM     51  C   UNL A   1      44.233  26.174  32.867  1.00  0.00     0.029 A 
ATOM     52  C   UNL A   1      43.521  27.450  32.933  1.00  0.00     0.049 A 
ATOM     53  H   UNL A   1      43.575  28.995  31.539  1.00  0.00     0.167 HD
ATOM     54  C   UNL A   1      43.931  32.261  28.645  1.00  0.00     0.031 A 
ATOM     55  C   UNL A   1      42.690  27.838  33.921  1.00  0.00     0.031 A 
ATOM     56  C   UNL A   1      42.973  32.726  29.613  1.00  0.00     0.049 A 
ATOM     57  C   UNL A   1      42.055  29.203  33.859  1.00  0.00     0.074 A 
ATOM     58  C   UNL A   1      42.253  33.907  29.615  1.00  0.00     0.029 A 
ATOM     59  N   UNL A   1      42.609  32.034  30.758  1.00  0.00    -0.354 N 
ATOM     60  N   UNL A   1      42.159  30.125  32.932  1.00  0.00    -0.248 NA
ATOM     61  C   UNL A   1      41.184  29.579  34.983  1.00  0.00     0.031 C 
ATOM     62  C   UNL A   1      41.504  33.960  30.794  1.00  0.00     0.029 A 
ATOM     63  C   UNL A   1      41.699  32.778  31.490  1.00  0.00     0.049 A 
ATOM     64  H   UNL A   1      42.948  31.145  31.013  1.00  0.00     0.167 HD
ATOM     65  C   UNL A   1      41.341  31.171  33.342  1.00  0.00     0.074 A 
ATOM     66  C   UNL A   1      40.739  30.766  34.595  1.00  0.00     0.031 C 
ATOM     67  C   UNL A   1      41.105  32.360  32.734  1.00  0.00     0.031 A 
BRANCH  54  68
ATOM     68  C   UNL A   1      44.273  33.157  27.488  1.00  0.00    -0.014 A 
ATOM     69  C   UNL A   1      45.066  34.304  27.657  1.00  0.00     0.009 A 
ATOM     70  C   UNL A   1      43.814  32.835  26.201  1.00  0.00     0.009 A 
ATOM     71  C   UNL A   1      45.359  35.128  26.569  1.00  0.00     0.001 A 
ATOM     72  C   UNL A   1      44.136  33.643  25.110  1.00  0.00     0.001 A 
ATOM     73  C   UNL A   1      44.900  34.794  25.296  1.00  0.00     0.000 A 
ENDBRANCH  54  68
BRANCH  55  74
ATOM     74  C   UNL A   1      42.426  26.935  35.073  1.00  0.00    -0.014 A 
ATOM     75  C   UNL A   1      43.238  26.980  36.217  1.00  0.00     0.009 A 
ATOM     76  C   UNL A   1      41.378  26.001  35.025  1.00  0.00     0.009 A 
ATOM     77  C   UNL A   1      43.022  26.093  37.274  1.00  0.00     0.001 A 
ATOM     78  C   UNL A   1      41.145  25.138  36.096  1.00  0.00     0.001 A 
ATOM     79  C   UNL A   1      41.974  25.178  37.216  1.00  0.00     0.000 A 
ENDBRANCH  55  74
BRANCH  67  80
ATOM     80  C   UNL A   1      40.117  33.290  33.385  1.00  0.00    -0.014 A 
ATOM     81  C   UNL A   1      38.740  33.197  33.130  1.00  0.00     0.009 A 
ATOM     82  C   UNL A   1      40.572  34.245  34.309  1.00  0.00     0.009 A 
ATOM     83  C   UNL A   1      37.843  34.061  33.762  1.00  0.00     0.001 A 
ATOM     84  C   UNL A   1      39.670  35.086  34.965  1.00  0.00     0.001 A 
ATOM     85  C   UNL A   1      38.309  35.000  34.682  1.00  0.00     0.000 A 
ENDBRANCH  67  80
ENDBRANCH  41  42
ENDBRANCH  34  36
ENDBRANCH  33  34
ENDBRANCH  32  33
ENDBRANCH  31  32
ENDBRANCH  30  31
ENDBRANCH  29  30
ENDBRANCH   1  29
TORSDOF 23
ENDMDL
MODEL 2
REMARK VINA RESULT:      -8.2      5.189     12.359
REMARK SMILES CCOc1cc(OCC)cc(-c2ccc([C@@H](C)C(=O)OCCOCCOCCOC(=O)c3ccc(-c4c5nc(c(-c6ccccc6)c6ccc([nH]6)c(-c6ccccc6)c6nc(c(-c7ccccc7)c7ccc4[nH]7)C=C6)C=C5)cc3)cc2F)c1
REMARK SMILES IDX 24 1 23 2 22 3 21 4 20 5 18 6 19 7 16 8 17 9 15 10 12 11
REMARK SMILES IDX 13 12 81 13 14 14 80 15 82 16 11 17 4 18 5 19 83 20 6 21
REMARK SMILES IDX 10 22 3 23 2 24 1 25 7 26 8 27 9 28 25 29 26 30 27 31 28 32
REMARK SMILES IDX 29 33 30 34 31 35 32 36 33 37 79 38 34 39 78 40 35 41 36 42
REMARK SMILES IDX 37 43 72 44 38 45 77 46 71 47 73 48 39 49 76 50 70 51 69 52
REMARK SMILES IDX 40 54 62 55 47 56 61 57 48 58 51 59 60 60 74 61 49 62 50 63
REMARK SMILES IDX 59 65 75 66 52 67 41 68 42 69 46 70 43 71 45 72 44 73 63 74
REMARK SMILES IDX 64 75 68 76 65 77 67 78 66 79 53 80 54 81 58 82 55 83 57 84
REMARK SMILES IDX 56 85
REMARK H PARENT 73 53 51 64
REMARK Flexibility Score: inf
ROOT
ATOM      1  C   UNL A   1      36.055  33.869  35.563  1.00  0.00     0.188 C 
ENDROOT
BRANCH   1   2
ATOM      2  O   UNL A   1      37.115  32.992  35.924  1.00  0.00    -0.376 OA
BRANCH   2   3
ATOM      3  C   UNL A   1      37.481  31.942  35.036  1.00  0.00     0.202 C 
BRANCH   3   4
ATOM      4  C   UNL A   1      38.520  30.910  35.509  1.00  0.00     0.261 C 
BRANCH   4   5
ATOM      5  O   UNL A   1      39.589  30.615  34.580  1.00  0.00    -0.463 OA
BRANCH   5   6
ATOM      6  C   UNL A   1      40.577  29.798  35.026  1.00  0.00     0.313 C 
ATOM      7  O   UNL A   1      40.492  29.142  36.063  1.00  0.00    -0.252 OA
BRANCH   6   8
ATOM      8  C   UNL A   1      41.835  29.707  34.152  1.00  0.00     0.126 C 
ATOM      9  C   UNL A   1      41.441  29.942  32.696  1.00  0.00     0.025 C 
BRANCH   8  10
ATOM     10  C   UNL A   1      42.789  28.518  34.258  1.00  0.00    -0.031 A 
ATOM     11  C   UNL A   1      44.579  26.279  34.334  1.00  0.00     0.018 A 
ATOM     12  C   UNL A   1      44.455  27.169  35.420  1.00  0.00     0.012 A 
ATOM     13  C   UNL A   1      43.785  26.534  33.215  1.00  0.00     0.131 A 
ATOM     14  C   UNL A   1      43.568  28.260  35.392  1.00  0.00     0.005 A 
ATOM     15  C   UNL A   1      42.901  27.620  33.176  1.00  0.00     0.044 A 
ATOM     16  F   UNL A   1      43.837  25.725  32.146  1.00  0.00    -0.206 F 
BRANCH  11  17
ATOM     17  C   UNL A   1      45.456  25.097  34.437  1.00  0.00    -0.008 A 
ATOM     18  C   UNL A   1      47.631  24.015  34.609  1.00  0.00     0.123 A 
ATOM     19  C   UNL A   1      47.017  22.767  34.721  1.00  0.00     0.092 A 
ATOM     20  C   UNL A   1      46.858  25.173  34.456  1.00  0.00     0.055 A 
ATOM     21  C   UNL A   1      45.629  22.662  34.664  1.00  0.00     0.123 A 
ATOM     22  C   UNL A   1      44.867  23.822  34.516  1.00  0.00     0.055 A 
BRANCH  18  23
ATOM     23  O   UNL A   1      48.994  24.029  34.479  1.00  0.00    -0.494 OA
BRANCH  23  24
ATOM     24  C   UNL A   1      49.678  24.868  35.415  1.00  0.00     0.226 C 
ATOM     25  C   UNL A   1      49.986  24.125  36.697  1.00  0.00     0.049 C 
ENDBRANCH  23  24
ENDBRANCH  18  23
BRANCH  21  26
ATOM     26  O   UNL A   1      45.121  21.397  34.780  1.00  0.00    -0.494 OA
BRANCH  26  27
ATOM     27  C   UNL A   1      45.771  20.503  35.687  1.00  0.00     0.226 C 
ATOM     28  C   UNL A   1      45.253  19.080  35.539  1.00  0.00     0.049 C 
ENDBRANCH  26  27
ENDBRANCH  21  26
ENDBRANCH  11  17
ENDBRANCH   8  10
ENDBRANCH   6   8
ENDBRANCH   5   6
ENDBRANCH   4   5
ENDBRANCH   3   4
ENDBRANCH   2   3
ENDBRANCH   1   2
BRANCH   1  29
ATOM     29  C   UNL A   1      36.056  34.520  34.173  1.00  0.00     0.188 C 
BRANCH  29  30
ATOM     30  O   UNL A   1      34.932  35.327  33.900  1.00  0.00    -0.376 OA
BRANCH  30  31
ATOM     31  C   UNL A   1      34.861  35.916  32.619  1.00  0.00     0.202 C 
BRANCH  31  32
ATOM     32  C   UNL A   1      33.508  35.812  31.897  1.00  0.00     0.261 C 
BRANCH  32  33
ATOM     33  O   UNL A   1      33.219  34.561  31.244  1.00  0.00    -0.460 OA
BRANCH  33  34
ATOM     34  C   UNL A   1      33.591  34.455  29.953  1.00  0.00     0.338 C 
ATOM     35  O   UNL A   1      33.041  34.977  28.993  1.00  0.00    -0.246 OA
BRANCH  34  36
ATOM     36  C   UNL A   1      34.909  33.802  29.866  1.00  0.00     0.060 A 
ATOM     37  C   UNL A   1      35.270  32.862  30.846  1.00  0.00     0.016 A 
ATOM     38  C   UNL A   1      35.792  34.131  28.840  1.00  0.00     0.016 A 
ATOM     39  C   UNL A   1      36.523  32.254  30.804  1.00  0.00     0.010 A 
ATOM     40  C   UNL A   1      37.058  33.542  28.815  1.00  0.00     0.010 A 
ATOM     41  C   UNL A   1      37.437  32.617  29.808  1.00  0.00    -0.014 A 
BRANCH  41  42
ATOM     42  C   UNL A   1      38.847  32.168  29.879  1.00  0.00     0.031 A 
ATOM     43  C   UNL A   1      39.193  30.801  29.359  1.00  0.00     0.074 A 
ATOM     44  C   UNL A   1      39.800  32.949  30.416  1.00  0.00     0.049 A 
ATOM     45  N   UNL A   1      40.324  30.149  29.426  1.00  0.00    -0.248 NA
ATOM     46  C   UNL A   1      38.111  30.070  28.679  1.00  0.00     0.031 C 
ATOM     47  C   UNL A   1      39.607  34.313  30.904  1.00  0.00     0.029 A 
ATOM     48  N   UNL A   1      41.127  32.689  30.655  1.00  0.00    -0.354 N 
ATOM     49  C   UNL A   1      40.086  28.925  28.812  1.00  0.00     0.074 A 
ATOM     50  C   UNL A   1      38.698  28.916  28.404  1.00  0.00     0.031 C 
ATOM     51  C   UNL A   1      40.771  34.766  31.400  1.00  0.00     0.029 A 
ATOM     52  C   UNL A   1      41.776  33.708  31.305  1.00  0.00     0.049 A 
ATOM     53  H   UNL A   1      41.569  31.852  30.386  1.00  0.00     0.167 HD
ATOM     54  C   UNL A   1      40.947  27.900  28.608  1.00  0.00     0.031 A 
ATOM     55  C   UNL A   1      43.030  33.767  31.798  1.00  0.00     0.031 A 
ATOM     56  C   UNL A   1      42.322  27.903  29.032  1.00  0.00     0.049 A 
ATOM     57  C   UNL A   1      43.940  32.576  31.646  1.00  0.00     0.074 A 
ATOM     58  C   UNL A   1      43.278  26.918  28.863  1.00  0.00     0.029 A 
ATOM     59  N   UNL A   1      42.932  28.941  29.720  1.00  0.00    -0.354 N 
ATOM     60  N   UNL A   1      43.714  31.429  31.051  1.00  0.00    -0.248 NA
ATOM     61  C   UNL A   1      45.284  32.691  32.233  1.00  0.00     0.031 C 
ATOM     62  C   UNL A   1      44.449  27.332  29.507  1.00  0.00     0.029 A 
ATOM     63  C   UNL A   1      44.244  28.606  30.011  1.00  0.00     0.049 A 
ATOM     64  H   UNL A   1      42.497  29.790  29.965  1.00  0.00     0.167 HD
ATOM     65  C   UNL A   1      44.894  30.703  31.161  1.00  0.00     0.074 A 
ATOM     66  C   UNL A   1      45.838  31.543  31.868  1.00  0.00     0.031 C 
ATOM     67  C   UNL A   1      45.174  29.454  30.713  1.00  0.00     0.031 A 
BRANCH  54  68
ATOM     68  C   UNL A   1      40.409  26.670  27.931  1.00  0.00    -0.014 A 
ATOM     69  C   UNL A   1      39.600  25.750  28.617  1.00  0.00     0.009 A 
ATOM     70  C   UNL A   1      40.697  26.441  26.577  1.00  0.00     0.009 A 
ATOM     71  C   UNL A   1      39.123  24.608  27.970  1.00  0.00     0.001 A 
ATOM     72  C   UNL A   1      40.192  25.316  25.924  1.00  0.00     0.001 A 
ATOM     73  C   UNL A   1      39.414  24.395  26.623  1.00  0.00     0.000 A 
ENDBRANCH  54  68
BRANCH  55  74
ATOM     74  C   UNL A   1      43.498  34.987  32.508  1.00  0.00    -0.014 A 
ATOM     75  C   UNL A   1      43.316  35.122  33.894  1.00  0.00     0.009 A 
ATOM     76  C   UNL A   1      44.103  36.039  31.801  1.00  0.00     0.009 A 
ATOM     77  C   UNL A   1      43.705  36.292  34.549  1.00  0.00     0.001 A 
ATOM     78  C   UNL A   1      44.520  37.194  32.464  1.00  0.00     0.001 A 
ATOM     79  C   UNL A   1      44.311  37.324  33.835  1.00  0.00     0.000 A 
ENDBRANCH  55  74
BRANCH  67  80
ATOM     80  C   UNL A   1      46.570  28.935  30.925  1.00  0.00    -0.014 A 
ATOM     81  C   UNL A   1      47.586  29.148  29.981  1.00  0.00     0.009 A 
ATOM     82  C   UNL A   1      46.885  28.264  32.118  1.00  0.00     0.009 A 
ATOM     83  C   UNL A   1      48.879  28.671  30.212  1.00  0.00     0.001 A 
ATOM     84  C   UNL A   1      48.185  27.818  32.363  1.00  0.00     0.001 A 
ATOM     85  C   UNL A   1      49.177  28.013  31.405  1.00  0.00     0.000 A 
ENDBRANCH  67  80
ENDBRANCH  41  42
ENDBRANCH  34  36
ENDBRANCH  33  34
ENDBRANCH  32  33
ENDBRANCH  31  32
ENDBRANCH  30  31
ENDBRANCH  29  30
ENDBRANCH   1  29
TORSDOF 23
ENDMDL
MODEL 3
REMARK VINA RESULT:      -8.2      4.062      6.940
REMARK SMILES CCOc1cc(OCC)cc(-c2ccc([C@@H](C)C(=O)OCCOCCOCCOC(=O)c3ccc(-c4c5nc(c(-c6ccccc6)c6ccc([nH]6)c(-c6ccccc6)c6nc(c(-c7ccccc7)c7ccc4[nH]7)C=C6)C=C5)cc3)cc2F)c1
REMARK SMILES IDX 24 1 23 2 22 3 21 4 20 5 18 6 19 7 16 8 17 9 15 10 12 11
REMARK SMILES IDX 13 12 81 13 14 14 80 15 82 16 11 17 4 18 5 19 83 20 6 21
REMARK SMILES IDX 10 22 3 23 2 24 1 25 7 26 8 27 9 28 25 29 26 30 27 31 28 32
REMARK SMILES IDX 29 33 30 34 31 35 32 36 33 37 79 38 34 39 78 40 35 41 36 42
REMARK SMILES IDX 37 43 72 44 38 45 77 46 71 47 73 48 39 49 76 50 70 51 69 52
REMARK SMILES IDX 40 54 62 55 47 56 61 57 48 58 51 59 60 60 74 61 49 62 50 63
REMARK SMILES IDX 59 65 75 66 52 67 41 68 42 69 46 70 43 71 45 72 44 73 63 74
REMARK SMILES IDX 64 75 68 76 65 77 67 78 66 79 53 80 54 81 58 82 55 83 57 84
REMARK SMILES IDX 56 85
REMARK H PARENT 73 53 51 64
REMARK Flexibility Score: inf
ROOT
ATOM      1  C   UNL A   1      43.221  27.488  25.369  1.00  0.00     0.188 C 
ENDROOT
BRANCH   1   2
ATOM      2  O   UNL A   1      41.982  26.853  25.080  1.00  0.00    -0.376 OA
BRANCH   2   3
ATOM      3  C   UNL A   1      41.792  25.493  25.453  1.00  0.00     0.202 C 
BRANCH   3   4
ATOM      4  C   UNL A   1      43.022  24.669  25.871  1.00  0.00     0.261 C 
BRANCH   4   5
ATOM      5  O   UNL A   1      42.765  23.546  26.747  1.00  0.00    -0.463 OA
BRANCH   5   6
ATOM      6  C   UNL A   1      42.307  22.409  26.164  1.00  0.00     0.313 C 
ATOM      7  O   UNL A   1      42.831  21.902  25.173  1.00  0.00    -0.252 OA
BRANCH   6   8
ATOM      8  C   UNL A   1      41.084  21.751  26.817  1.00  0.00     0.126 C 
ATOM      9  C   UNL A   1      41.300  20.239  26.853  1.00  0.00     0.025 C 
BRANCH   8  10
ATOM     10  C   UNL A   1      39.666  22.074  26.349  1.00  0.00    -0.031 A 
ATOM     11  C   UNL A   1      36.980  22.558  25.470  1.00  0.00     0.018 A 
ATOM     12  C   UNL A   1      37.750  23.559  26.095  1.00  0.00     0.012 A 
ATOM     13  C   UNL A   1      37.588  21.314  25.293  1.00  0.00     0.131 A 
ATOM     14  C   UNL A   1      39.072  23.330  26.515  1.00  0.00     0.005 A 
ATOM     15  C   UNL A   1      38.903  21.073  25.710  1.00  0.00     0.044 A 
ATOM     16  F   UNL A   1      36.924  20.313  24.694  1.00  0.00    -0.206 F 
BRANCH  11  17
ATOM     17  C   UNL A   1      35.628  22.865  24.965  1.00  0.00    -0.008 A 
ATOM     18  C   UNL A   1      33.197  22.802  25.092  1.00  0.00     0.123 A 
ATOM     19  C   UNL A   1      33.102  23.588  23.943  1.00  0.00     0.092 A 
ATOM     20  C   UNL A   1      34.450  22.431  25.595  1.00  0.00     0.055 A 
ATOM     21  C   UNL A   1      34.257  23.997  23.278  1.00  0.00     0.123 A 
ATOM     22  C   UNL A   1      35.501  23.626  23.789  1.00  0.00     0.055 A 
BRANCH  18  23
ATOM     23  O   UNL A   1      32.032  22.277  25.585  1.00  0.00    -0.494 OA
BRANCH  23  24
ATOM     24  C   UNL A   1      30.862  23.058  25.322  1.00  0.00     0.226 C 
ATOM     25  C   UNL A   1      30.513  23.939  26.502  1.00  0.00     0.049 C 
ENDBRANCH  23  24
ENDBRANCH  18  23
BRANCH  21  26
ATOM     26  O   UNL A   1      34.062  24.763  22.161  1.00  0.00    -0.494 OA
BRANCH  26  27
ATOM     27  C   UNL A   1      33.306  25.968  22.307  1.00  0.00     0.226 C 
ATOM     28  C   UNL A   1      32.109  25.996  21.367  1.00  0.00     0.049 C 
ENDBRANCH  26  27
ENDBRANCH  21  26
ENDBRANCH  11  17
ENDBRANCH   8  10
ENDBRANCH   6   8
ENDBRANCH   5   6
ENDBRANCH   4   5
ENDBRANCH   3   4
ENDBRANCH   2   3
ENDBRANCH   1   2
BRANCH   1  29
ATOM     29  C   UNL A   1      43.325  28.418  26.587  1.00  0.00     0.188 C 
BRANCH  29  30
ATOM     30  O   UNL A   1      43.080  29.779  26.311  1.00  0.00    -0.376 OA
BRANCH  30  31
ATOM     31  C   UNL A   1      44.025  30.711  26.792  1.00  0.00     0.202 C 
BRANCH  31  32
ATOM     32  C   UNL A   1      44.286  31.935  25.901  1.00  0.00     0.261 C 
BRANCH  32  33
ATOM     33  O   UNL A   1      45.642  32.421  25.851  1.00  0.00    -0.460 OA
BRANCH  33  34
ATOM     34  C   UNL A   1      45.810  33.752  25.990  1.00  0.00     0.338 C 
ATOM     35  O   UNL A   1      46.155  34.535  25.116  1.00  0.00    -0.246 OA
BRANCH  34  36
ATOM     36  C   UNL A   1      45.294  34.185  27.300  1.00  0.00     0.060 A 
ATOM     37  C   UNL A   1      45.691  33.489  28.453  1.00  0.00     0.016 A 
ATOM     38  C   UNL A   1      44.404  35.254  27.388  1.00  0.00     0.016 A 
ATOM     39  C   UNL A   1      45.191  33.860  29.701  1.00  0.00     0.010 A 
ATOM     40  C   UNL A   1      43.884  35.607  28.634  1.00  0.00     0.010 A 
ATOM     41  C   UNL A   1      44.257  34.899  29.793  1.00  0.00    -0.014 A 
BRANCH  41  42
ATOM     42  C   UNL A   1      43.537  35.153  31.062  1.00  0.00     0.031 A 
ATOM     43  C   UNL A   1      44.242  35.917  32.147  1.00  0.00     0.074 A 
ATOM     44  C   UNL A   1      42.288  34.696  31.258  1.00  0.00     0.049 A 
ATOM     45  N   UNL A   1      43.863  36.153  33.377  1.00  0.00    -0.248 NA
ATOM     46  C   UNL A   1      45.556  36.482  31.799  1.00  0.00     0.031 C 
ATOM     47  C   UNL A   1      41.475  33.993  30.267  1.00  0.00     0.029 A 
ATOM     48  N   UNL A   1      41.492  34.746  32.375  1.00  0.00    -0.354 N 
ATOM     49  C   UNL A   1      44.899  36.879  33.953  1.00  0.00     0.074 A 
ATOM     50  C   UNL A   1      45.930  37.021  32.948  1.00  0.00     0.031 C 
ATOM     51  C   UNL A   1      40.299  33.662  30.827  1.00  0.00     0.029 A 
ATOM     52  C   UNL A   1      40.296  34.089  32.225  1.00  0.00     0.049 A 
ATOM     53  H   UNL A   1      41.754  35.208  33.204  1.00  0.00     0.167 HD
ATOM     54  C   UNL A   1      44.983  37.382  35.207  1.00  0.00     0.031 A 
ATOM     55  C   UNL A   1      39.325  33.834  33.125  1.00  0.00     0.031 A 
ATOM     56  C   UNL A   1      43.964  37.223  36.211  1.00  0.00     0.049 A 
ATOM     57  C   UNL A   1      39.485  34.318  34.543  1.00  0.00     0.074 A 
ATOM     58  C   UNL A   1      43.950  37.704  37.508  1.00  0.00     0.029 A 
ATOM     59  N   UNL A   1      42.783  36.520  36.031  1.00  0.00    -0.354 N 
ATOM     60  N   UNL A   1      40.459  35.017  35.076  1.00  0.00    -0.248 NA
ATOM     61  C   UNL A   1      38.407  33.980  35.484  1.00  0.00     0.031 C 
ATOM     62  C   UNL A   1      42.791  37.235  38.134  1.00  0.00     0.029 A 
ATOM     63  C   UNL A   1      42.047  36.527  37.204  1.00  0.00     0.049 A 
ATOM     64  H   UNL A   1      42.508  36.081  35.194  1.00  0.00     0.167 HD
ATOM     65  C   UNL A   1      40.093  35.232  36.400  1.00  0.00     0.074 A 
ATOM     66  C   UNL A   1      38.804  34.599  36.586  1.00  0.00     0.031 C 
ATOM     67  C   UNL A   1      40.763  35.896  37.374  1.00  0.00     0.031 A 
BRANCH  54  68
ATOM     68  C   UNL A   1      46.243  38.115  35.575  1.00  0.00    -0.014 A 
ATOM     69  C   UNL A   1      47.354  37.443  36.109  1.00  0.00     0.009 A 
ATOM     70  C   UNL A   1      46.329  39.500  35.361  1.00  0.00     0.009 A 
ATOM     71  C   UNL A   1      48.508  38.147  36.455  1.00  0.00     0.001 A 
ATOM     72  C   UNL A   1      47.495  40.197  35.677  1.00  0.00     0.001 A 
ATOM     73  C   UNL A   1      48.580  39.522  36.233  1.00  0.00     0.000 A 
ENDBRANCH  54  68
BRANCH  55  74
ATOM     74  C   UNL A   1      38.122  33.057  32.726  1.00  0.00    -0.014 A 
ATOM     75  C   UNL A   1      36.983  33.709  32.226  1.00  0.00     0.009 A 
ATOM     76  C   UNL A   1      38.092  31.660  32.869  1.00  0.00     0.009 A 
ATOM     77  C   UNL A   1      35.835  32.983  31.904  1.00  0.00     0.001 A 
ATOM     78  C   UNL A   1      36.953  30.933  32.517  1.00  0.00     0.001 A 
ATOM     79  C   UNL A   1      35.822  31.596  32.044  1.00  0.00     0.000 A 
ENDBRANCH  55  74
BRANCH  67  80
ATOM     80  C   UNL A   1      40.094  36.021  38.716  1.00  0.00    -0.014 A 
ATOM     81  C   UNL A   1      40.232  35.033  39.703  1.00  0.00     0.009 A 
ATOM     82  C   UNL A   1      39.353  37.176  39.014  1.00  0.00     0.009 A 
ATOM     83  C   UNL A   1      39.615  35.184  40.947  1.00  0.00     0.001 A 
ATOM     84  C   UNL A   1      38.764  37.341  40.269  1.00  0.00     0.001 A 
ATOM     85  C   UNL A   1      38.888  36.340  41.231  1.00  0.00     0.000 A 
ENDBRANCH  67  80
ENDBRANCH  41  42
ENDBRANCH  34  36
ENDBRANCH  33  34
ENDBRANCH  32  33
ENDBRANCH  31  32
ENDBRANCH  30  31
ENDBRANCH  29  30
ENDBRANCH   1  29
TORSDOF 23
ENDMDL
