MODEL 1
REMARK VINA RESULT:     -11.2      0.000      0.000
REMARK SMILES O=C(OCCOCCOCCOC(=O)c1nnn(-c2cccc(Br)c2)c1[C@@H]1COc2ccccc2O1)c1ccc(-c2c3nc(c(-c4ccccc4)c4ccc([nH]4)c(-c4ccccc4)c4nc(c(-c5ccccc5)c5ccc2[nH]5)C=C4)C=C3)cc1
REMARK SMILES IDX 7 1 6 2 5 3 4 4 3 5 2 6 1 7 37 8 38 9 84 10 39 11 83 12
REMARK SMILES IDX 40 13 41 14 42 15 77 16 43 17 82 18 76 19 78 20 44 21 81 22
REMARK SMILES IDX 75 23 74 24 45 26 67 27 52 28 66 29 53 30 56 31 65 32 79 33
REMARK SMILES IDX 54 34 55 35 64 37 80 38 57 39 46 40 47 41 51 42 48 43 50 44
REMARK SMILES IDX 49 45 68 46 69 47 73 48 70 49 72 50 71 51 58 52 59 53 63 54
REMARK SMILES IDX 60 55 62 56 61 57 8 58 9 59 10 60 11 61 12 62 13 63 14 64
REMARK SMILES IDX 15 65 16 66 26 67 17 68 18 69 27 70 28 71 36 72 29 73 35 74
REMARK SMILES IDX 30 75 34 76 31 77 33 78 32 79 19 80 20 81 25 82 21 83 23 84
REMARK SMILES IDX 22 85 24 86
REMARK H PARENT 78 25 56 36
REMARK Flexibility Score: inf
ROOT
ATOM      1  C   UNL A   1      41.469  20.963  26.299  1.00  0.00     0.188 C 
ENDROOT
BRANCH   1   2
ATOM      2  O   UNL A   1      41.712  19.578  26.526  1.00  0.00    -0.376 OA
BRANCH   2   3
ATOM      3  C   UNL A   1      43.049  19.142  26.661  1.00  0.00     0.202 C 
BRANCH   3   4
ATOM      4  C   UNL A   1      43.452  18.303  25.453  1.00  0.00     0.261 C 
BRANCH   4   5
ATOM      5  O   UNL A   1      44.568  18.839  24.716  1.00  0.00    -0.460 OA
BRANCH   5   6
ATOM      6  C   UNL A   1      44.693  19.979  23.999  1.00  0.00     0.338 C 
ATOM      7  O   UNL A   1      44.513  19.914  22.781  1.00  0.00    -0.246 OA
BRANCH   6   8
ATOM      8  C   UNL A   1      44.984  21.339  24.553  1.00  0.00     0.060 A 
ATOM      9  C   UNL A   1      45.803  21.615  25.646  1.00  0.00     0.016 A 
ATOM     10  C   UNL A   1      44.262  22.407  23.975  1.00  0.00     0.016 A 
ATOM     11  C   UNL A   1      45.776  22.863  26.250  1.00  0.00     0.010 A 
ATOM     12  C   UNL A   1      44.232  23.662  24.572  1.00  0.00     0.010 A 
ATOM     13  C   UNL A   1      44.924  23.852  25.760  1.00  0.00    -0.014 A 
BRANCH  13  14
ATOM     14  C   UNL A   1      44.728  25.019  26.605  1.00  0.00     0.031 A 
ATOM     15  C   UNL A   1      45.850  25.980  26.705  1.00  0.00     0.074 A 
ATOM     16  C   UNL A   1      43.590  25.209  27.298  1.00  0.00     0.049 A 
ATOM     17  N   UNL A   1      46.556  26.270  27.750  1.00  0.00    -0.248 NA
ATOM     18  C   UNL A   1      46.270  26.664  25.477  1.00  0.00     0.031 C 
ATOM     19  C   UNL A   1      42.310  24.515  27.138  1.00  0.00     0.029 A 
ATOM     20  N   UNL A   1      43.321  26.152  28.245  1.00  0.00    -0.354 N 
ATOM     21  C   UNL A   1      47.418  27.288  27.357  1.00  0.00     0.074 A 
ATOM     22  C   UNL A   1      47.271  27.422  25.928  1.00  0.00     0.031 C 
ATOM     23  C   UNL A   1      41.349  25.211  27.787  1.00  0.00     0.029 A 
ATOM     24  C   UNL A   1      41.972  26.306  28.512  1.00  0.00     0.049 A 
ATOM     25  H   UNL A   1      44.022  26.675  28.698  1.00  0.00     0.167 HD
ATOM     26  C   UNL A   1      48.058  28.085  28.255  1.00  0.00     0.031 A 
ATOM     27  C   UNL A   1      41.397  27.306  29.219  1.00  0.00     0.031 A 
ATOM     28  C   UNL A   1      48.074  27.530  29.580  1.00  0.00     0.049 A 
ATOM     29  C   UNL A   1      42.434  27.931  30.068  1.00  0.00     0.074 A 
ATOM     30  C   UNL A   1      48.581  26.382  30.154  1.00  0.00     0.029 A 
ATOM     31  N   UNL A   1      47.210  28.062  30.506  1.00  0.00    -0.354 N 
ATOM     32  N   UNL A   1      42.962  27.355  31.109  1.00  0.00    -0.248 NA
ATOM     33  C   UNL A   1      43.179  29.066  29.544  1.00  0.00     0.031 C 
ATOM     34  C   UNL A   1      47.655  26.039  31.181  1.00  0.00     0.029 A 
ATOM     35  C   UNL A   1      46.653  27.012  31.187  1.00  0.00     0.049 A 
ATOM     36  H   UNL A   1      47.025  29.017  30.652  1.00  0.00     0.167 HD
ATOM     37  C   UNL A   1      44.288  27.763  31.109  1.00  0.00     0.074 A 
ATOM     38  C   UNL A   1      44.328  28.908  30.206  1.00  0.00     0.031 C 
ATOM     39  C   UNL A   1      45.272  26.965  31.616  1.00  0.00     0.031 A 
BRANCH  26  40
ATOM     40  C   UNL A   1      48.360  29.540  28.002  1.00  0.00    -0.014 A 
ATOM     41  C   UNL A   1      47.298  30.431  27.769  1.00  0.00     0.009 A 
ATOM     42  C   UNL A   1      49.656  30.002  27.705  1.00  0.00     0.009 A 
ATOM     43  C   UNL A   1      47.520  31.697  27.214  1.00  0.00     0.001 A 
ATOM     44  C   UNL A   1      49.886  31.280  27.192  1.00  0.00     0.001 A 
ATOM     45  C   UNL A   1      48.814  32.119  26.921  1.00  0.00     0.000 A 
ENDBRANCH  26  40
BRANCH  27  46
ATOM     46  C   UNL A   1      40.063  27.904  29.011  1.00  0.00    -0.014 A 
ATOM     47  C   UNL A   1      39.114  27.923  30.042  1.00  0.00     0.009 A 
ATOM     48  C   UNL A   1      39.804  28.679  27.865  1.00  0.00     0.009 A 
ATOM     49  C   UNL A   1      37.962  28.715  29.940  1.00  0.00     0.001 A 
ATOM     50  C   UNL A   1      38.651  29.461  27.758  1.00  0.00     0.001 A 
ATOM     51  C   UNL A   1      37.737  29.490  28.803  1.00  0.00     0.000 A 
ENDBRANCH  27  46
BRANCH  39  52
ATOM     52  C   UNL A   1      44.861  25.759  32.425  1.00  0.00    -0.014 A 
ATOM     53  C   UNL A   1      44.592  25.829  33.804  1.00  0.00     0.009 A 
ATOM     54  C   UNL A   1      44.594  24.557  31.755  1.00  0.00     0.009 A 
ATOM     55  C   UNL A   1      44.111  24.716  34.497  1.00  0.00     0.001 A 
ATOM     56  C   UNL A   1      44.092  23.450  32.444  1.00  0.00     0.001 A 
ATOM     57  C   UNL A   1      43.857  23.528  33.816  1.00  0.00     0.000 A 
ENDBRANCH  39  52
ENDBRANCH  13  14
ENDBRANCH   6   8
ENDBRANCH   5   6
ENDBRANCH   4   5
ENDBRANCH   3   4
ENDBRANCH   2   3
ENDBRANCH   1   2
BRANCH   1  58
ATOM     58  C   UNL A   1      40.265  21.695  26.942  1.00  0.00     0.188 C 
BRANCH  58  59
ATOM     59  O   UNL A   1      39.064  21.854  26.195  1.00  0.00    -0.376 OA
BRANCH  59  60
ATOM     60  C   UNL A   1      38.567  23.155  25.896  1.00  0.00     0.202 C 
BRANCH  60  61
ATOM     61  C   UNL A   1      37.098  23.436  26.181  1.00  0.00     0.261 C 
BRANCH  61  62
ATOM     62  O   UNL A   1      36.365  22.208  26.081  1.00  0.00    -0.458 OA
BRANCH  62  63
ATOM     63  C   UNL A   1      36.066  21.821  24.814  1.00  0.00     0.361 C 
ATOM     64  O   UNL A   1      36.501  20.817  24.271  1.00  0.00    -0.244 OA
BRANCH  63  65
ATOM     65  C   UNL A   1      35.161  22.737  24.149  1.00  0.00     0.198 A 
ATOM     66  N   UNL A   1      35.578  23.640  23.198  1.00  0.00    -0.122 NA
ATOM     67  C   UNL A   1      33.806  22.909  24.364  1.00  0.00     0.123 A 
ATOM     68  N   UNL A   1      34.544  24.412  22.876  1.00  0.00    -0.061 NA
ATOM     69  N   UNL A   1      33.545  24.110  23.731  1.00  0.00    -0.213 N 
BRANCH  67  70
ATOM     70  C   UNL A   1      32.731  22.102  25.013  1.00  0.00     0.262 C 
ATOM     71  C   UNL A   1      33.128  21.261  26.222  1.00  0.00     0.281 C 
ATOM     72  O   UNL A   1      32.088  21.368  23.968  1.00  0.00    -0.477 OA
ATOM     73  O   UNL A   1      33.810  20.051  25.905  1.00  0.00    -0.485 OA
ATOM     74  C   UNL A   1      32.510  20.076  23.850  1.00  0.00     0.162 A 
ATOM     75  C   UNL A   1      33.308  19.435  24.793  1.00  0.00     0.161 A 
ATOM     76  C   UNL A   1      32.110  19.399  22.697  1.00  0.00     0.050 A 
ATOM     77  C   UNL A   1      33.700  18.113  24.588  1.00  0.00     0.050 A 
ATOM     78  C   UNL A   1      32.520  18.083  22.482  1.00  0.00     0.004 A 
ATOM     79  C   UNL A   1      33.310  17.437  23.432  1.00  0.00     0.004 A 
ENDBRANCH  67  70
BRANCH  69  80
ATOM     80  C   UNL A   1      32.516  25.026  24.038  1.00  0.00     0.068 A 
ATOM     81  C   UNL A   1      31.524  25.267  23.071  1.00  0.00     0.028 A 
ATOM     82  C   UNL A   1      32.520  25.719  25.248  1.00  0.00     0.044 A 
ATOM     83  C   UNL A   1      30.581  26.268  23.275  1.00  0.00     0.003 A 
ATOM     84  C   UNL A   1      31.584  26.740  25.425  1.00  0.00     0.020 A 
ATOM     85  C   UNL A   1      30.627  27.023  24.444  1.00  0.00     0.016 A 
ATOM     86  Br  UNL A   1      31.639  27.802  26.989  1.00  0.00    -0.051 Br
ENDBRANCH  69  80
ENDBRANCH  63  65
ENDBRANCH  62  63
ENDBRANCH  61  62
ENDBRANCH  60  61
ENDBRANCH  59  60
ENDBRANCH  58  59
ENDBRANCH   1  58
TORSDOF 19
ENDMDL
MODEL 2
REMARK VINA RESULT:     -11.2      1.428      2.026
REMARK SMILES O=C(OCCOCCOCCOC(=O)c1nnn(-c2cccc(Br)c2)c1[C@@H]1COc2ccccc2O1)c1ccc(-c2c3nc(c(-c4ccccc4)c4ccc([nH]4)c(-c4ccccc4)c4nc(c(-c5ccccc5)c5ccc2[nH]5)C=C4)C=C3)cc1
REMARK SMILES IDX 7 1 6 2 5 3 4 4 3 5 2 6 1 7 37 8 38 9 84 10 39 11 83 12
REMARK SMILES IDX 40 13 41 14 42 15 77 16 43 17 82 18 76 19 78 20 44 21 81 22
REMARK SMILES IDX 75 23 74 24 45 26 67 27 52 28 66 29 53 30 56 31 65 32 79 33
REMARK SMILES IDX 54 34 55 35 64 37 80 38 57 39 46 40 47 41 51 42 48 43 50 44
REMARK SMILES IDX 49 45 68 46 69 47 73 48 70 49 72 50 71 51 58 52 59 53 63 54
REMARK SMILES IDX 60 55 62 56 61 57 8 58 9 59 10 60 11 61 12 62 13 63 14 64
REMARK SMILES IDX 15 65 16 66 26 67 17 68 18 69 27 70 28 71 36 72 29 73 35 74
REMARK SMILES IDX 30 75 34 76 31 77 33 78 32 79 19 80 20 81 25 82 21 83 23 84
REMARK SMILES IDX 22 85 24 86
REMARK H PARENT 78 25 56 36
REMARK Flexibility Score: inf
ROOT
ATOM      1  C   UNL A   1      40.541  21.273  26.174  1.00  0.00     0.188 C 
ENDROOT
BRANCH   1   2
ATOM      2  O   UNL A   1      41.068  19.962  25.995  1.00  0.00    -0.376 OA
BRANCH   2   3
ATOM      3  C   UNL A   1      42.299  19.642  26.608  1.00  0.00     0.202 C 
BRANCH   3   4
ATOM      4  C   UNL A   1      42.908  18.408  25.950  1.00  0.00     0.261 C 
BRANCH   4   5
ATOM      5  O   UNL A   1      44.144  18.666  25.256  1.00  0.00    -0.460 OA
BRANCH   5   6
ATOM      6  C   UNL A   1      44.498  19.664  24.415  1.00  0.00     0.338 C 
ATOM      7  O   UNL A   1      44.573  19.401  23.213  1.00  0.00    -0.246 OA
BRANCH   6   8
ATOM      8  C   UNL A   1      44.763  21.086  24.799  1.00  0.00     0.060 A 
ATOM      9  C   UNL A   1      45.685  21.514  25.753  1.00  0.00     0.016 A 
ATOM     10  C   UNL A   1      43.911  22.050  24.217  1.00  0.00     0.016 A 
ATOM     11  C   UNL A   1      45.648  22.813  26.236  1.00  0.00     0.010 A 
ATOM     12  C   UNL A   1      43.869  23.356  24.692  1.00  0.00     0.010 A 
ATOM     13  C   UNL A   1      44.682  23.701  25.764  1.00  0.00    -0.014 A 
BRANCH  13  14
ATOM     14  C   UNL A   1      44.511  24.935  26.514  1.00  0.00     0.031 A 
ATOM     15  C   UNL A   1      45.589  25.945  26.412  1.00  0.00     0.074 A 
ATOM     16  C   UNL A   1      43.436  25.146  27.297  1.00  0.00     0.049 A 
ATOM     17  N   UNL A   1      46.377  26.363  27.350  1.00  0.00    -0.248 NA
ATOM     18  C   UNL A   1      45.855  26.524  25.090  1.00  0.00     0.031 C 
ATOM     19  C   UNL A   1      42.182  24.389  27.330  1.00  0.00     0.029 A 
ATOM     20  N   UNL A   1      43.214  26.164  28.175  1.00  0.00    -0.354 N 
ATOM     21  C   UNL A   1      47.146  27.371  26.781  1.00  0.00     0.074 A 
ATOM     22  C   UNL A   1      46.856  27.361  25.367  1.00  0.00     0.031 C 
ATOM     23  C   UNL A   1      41.256  25.105  28.005  1.00  0.00     0.029 A 
ATOM     24  C   UNL A   1      41.890  26.289  28.560  1.00  0.00     0.049 A 
ATOM     25  H   UNL A   1      43.929  26.756  28.505  1.00  0.00     0.167 HD
ATOM     26  C   UNL A   1      47.829  28.276  27.534  1.00  0.00     0.031 A 
ATOM     27  C   UNL A   1      41.338  27.329  29.226  1.00  0.00     0.031 A 
ATOM     28  C   UNL A   1      47.999  27.852  28.896  1.00  0.00     0.049 A 
ATOM     29  C   UNL A   1      42.420  28.074  29.906  1.00  0.00     0.074 A 
ATOM     30  C   UNL A   1      48.615  26.785  29.519  1.00  0.00     0.029 A 
ATOM     31  N   UNL A   1      47.203  28.435  29.851  1.00  0.00    -0.354 N 
ATOM     32  N   UNL A   1      43.072  27.622  30.938  1.00  0.00    -0.248 NA
ATOM     33  C   UNL A   1      43.054  29.181  29.208  1.00  0.00     0.031 C 
ATOM     34  C   UNL A   1      47.809  26.507  30.661  1.00  0.00     0.029 A 
ATOM     35  C   UNL A   1      46.766  27.435  30.677  1.00  0.00     0.049 A 
ATOM     36  H   UNL A   1      46.986  29.393  29.926  1.00  0.00     0.167 HD
ATOM     37  C   UNL A   1      44.370  28.081  30.768  1.00  0.00     0.074 A 
ATOM     38  C   UNL A   1      44.268  29.134  29.764  1.00  0.00     0.031 C 
ATOM     39  C   UNL A   1      45.437  27.374  31.245  1.00  0.00     0.031 A 
BRANCH  26  40
ATOM     40  C   UNL A   1      48.034  29.710  27.119  1.00  0.00    -0.014 A 
ATOM     41  C   UNL A   1      49.314  30.282  27.236  1.00  0.00     0.009 A 
ATOM     42  C   UNL A   1      46.962  30.591  26.888  1.00  0.00     0.009 A 
ATOM     43  C   UNL A   1      49.497  31.670  27.182  1.00  0.00     0.001 A 
ATOM     44  C   UNL A   1      47.146  31.972  26.790  1.00  0.00     0.001 A 
ATOM     45  C   UNL A   1      48.412  32.514  26.963  1.00  0.00     0.000 A 
ENDBRANCH  26  40
BRANCH  27  46
ATOM     46  C   UNL A   1      39.962  27.850  29.099  1.00  0.00    -0.014 A 
ATOM     47  C   UNL A   1      39.112  27.918  30.211  1.00  0.00     0.009 A 
ATOM     48  C   UNL A   1      39.561  28.513  27.924  1.00  0.00     0.009 A 
ATOM     49  C   UNL A   1      37.917  28.650  30.155  1.00  0.00     0.001 A 
ATOM     50  C   UNL A   1      38.366  29.234  27.864  1.00  0.00     0.001 A 
ATOM     51  C   UNL A   1      37.551  29.314  28.986  1.00  0.00     0.000 A 
ENDBRANCH  27  46
BRANCH  39  52
ATOM     52  C   UNL A   1      45.165  26.237  32.198  1.00  0.00    -0.014 A 
ATOM     53  C   UNL A   1      45.255  26.382  33.595  1.00  0.00     0.009 A 
ATOM     54  C   UNL A   1      44.661  25.033  31.686  1.00  0.00     0.009 A 
ATOM     55  C   UNL A   1      44.893  25.337  34.448  1.00  0.00     0.001 A 
ATOM     56  C   UNL A   1      44.277  23.997  32.540  1.00  0.00     0.001 A 
ATOM     57  C   UNL A   1      44.399  24.146  33.921  1.00  0.00     0.000 A 
ENDBRANCH  39  52
ENDBRANCH  13  14
ENDBRANCH   6   8
ENDBRANCH   5   6
ENDBRANCH   4   5
ENDBRANCH   3   4
ENDBRANCH   2   3
ENDBRANCH   1   2
BRANCH   1  58
ATOM     58  C   UNL A   1      39.018  21.554  26.117  1.00  0.00     0.188 C 
BRANCH  58  59
ATOM     59  O   UNL A   1      38.555  22.900  26.120  1.00  0.00    -0.376 OA
BRANCH  59  60
ATOM     60  C   UNL A   1      37.190  23.194  25.838  1.00  0.00     0.202 C 
BRANCH  60  61
ATOM     61  C   UNL A   1      36.842  23.661  24.430  1.00  0.00     0.261 C 
BRANCH  61  62
ATOM     62  O   UNL A   1      35.535  24.250  24.448  1.00  0.00    -0.458 OA
BRANCH  62  63
ATOM     63  C   UNL A   1      34.671  23.755  23.525  1.00  0.00     0.361 C 
ATOM     64  O   UNL A   1      34.633  22.590  23.160  1.00  0.00    -0.244 OA
BRANCH  63  65
ATOM     65  C   UNL A   1      33.778  24.767  22.997  1.00  0.00     0.198 A 
ATOM     66  N   UNL A   1      33.983  25.385  21.784  1.00  0.00    -0.122 NA
ATOM     67  C   UNL A   1      32.655  25.311  23.590  1.00  0.00     0.123 A 
ATOM     68  N   UNL A   1      33.071  26.342  21.646  1.00  0.00    -0.061 NA
ATOM     69  N   UNL A   1      32.415  26.435  22.821  1.00  0.00    -0.213 N 
BRANCH  67  70
ATOM     70  C   UNL A   1      31.758  24.912  24.715  1.00  0.00     0.262 C 
ATOM     71  C   UNL A   1      32.268  25.159  26.131  1.00  0.00     0.281 C 
ATOM     72  O   UNL A   1      31.362  23.562  24.458  1.00  0.00    -0.477 OA
ATOM     73  O   UNL A   1      33.227  24.211  26.591  1.00  0.00    -0.485 OA
ATOM     74  C   UNL A   1      32.075  22.628  25.150  1.00  0.00     0.162 A 
ATOM     75  C   UNL A   1      32.944  22.935  26.193  1.00  0.00     0.161 A 
ATOM     76  C   UNL A   1      31.907  21.302  24.747  1.00  0.00     0.050 A 
ATOM     77  C   UNL A   1      33.640  21.916  26.841  1.00  0.00     0.050 A 
ATOM     78  C   UNL A   1      32.620  20.284  25.382  1.00  0.00     0.004 A 
ATOM     79  C   UNL A   1      33.482  20.590  26.435  1.00  0.00     0.004 A 
ENDBRANCH  67  70
BRANCH  69  80
ATOM     80  C   UNL A   1      31.764  27.619  23.226  1.00  0.00     0.068 A 
ATOM     81  C   UNL A   1      32.381  28.422  24.202  1.00  0.00     0.028 A 
ATOM     82  C   UNL A   1      30.510  27.951  22.715  1.00  0.00     0.044 A 
ATOM     83  C   UNL A   1      31.706  29.514  24.734  1.00  0.00     0.003 A 
ATOM     84  C   UNL A   1      29.833  29.034  23.280  1.00  0.00     0.020 A 
ATOM     85  C   UNL A   1      30.418  29.806  24.290  1.00  0.00     0.016 A 
ATOM     86  Br  UNL A   1      28.073  29.436  22.719  1.00  0.00    -0.051 Br
ENDBRANCH  69  80
ENDBRANCH  63  65
ENDBRANCH  62  63
ENDBRANCH  61  62
ENDBRANCH  60  61
ENDBRANCH  59  60
ENDBRANCH  58  59
ENDBRANCH   1  58
TORSDOF 19
ENDMDL
MODEL 3
REMARK VINA RESULT:     -11.1      6.541     12.433
REMARK SMILES O=C(OCCOCCOCCOC(=O)c1nnn(-c2cccc(Br)c2)c1[C@@H]1COc2ccccc2O1)c1ccc(-c2c3nc(c(-c4ccccc4)c4ccc([nH]4)c(-c4ccccc4)c4nc(c(-c5ccccc5)c5ccc2[nH]5)C=C4)C=C3)cc1
REMARK SMILES IDX 7 1 6 2 5 3 4 4 3 5 2 6 1 7 37 8 38 9 84 10 39 11 83 12
REMARK SMILES IDX 40 13 41 14 42 15 77 16 43 17 82 18 76 19 78 20 44 21 81 22
REMARK SMILES IDX 75 23 74 24 45 26 67 27 52 28 66 29 53 30 56 31 65 32 79 33
REMARK SMILES IDX 54 34 55 35 64 37 80 38 57 39 46 40 47 41 51 42 48 43 50 44
REMARK SMILES IDX 49 45 68 46 69 47 73 48 70 49 72 50 71 51 58 52 59 53 63 54
REMARK SMILES IDX 60 55 62 56 61 57 8 58 9 59 10 60 11 61 12 62 13 63 14 64
REMARK SMILES IDX 15 65 16 66 26 67 17 68 18 69 27 70 28 71 36 72 29 73 35 74
REMARK SMILES IDX 30 75 34 76 31 77 33 78 32 79 19 80 20 81 25 82 21 83 23 84
REMARK SMILES IDX 22 85 24 86
REMARK H PARENT 78 25 56 36
REMARK Flexibility Score: inf
ROOT
ATOM      1  C   UNL A   1      33.194  35.912  30.944  1.00  0.00     0.188 C 
ENDROOT
BRANCH   1   2
ATOM      2  O   UNL A   1      33.013  34.908  29.949  1.00  0.00    -0.376 OA
BRANCH   2   3
ATOM      3  C   UNL A   1      34.115  34.094  29.607  1.00  0.00     0.202 C 
BRANCH   3   4
ATOM      4  C   UNL A   1      34.617  34.451  28.212  1.00  0.00     0.261 C 
BRANCH   4   5
ATOM      5  O   UNL A   1      35.282  33.367  27.535  1.00  0.00    -0.460 OA
BRANCH   5   6
ATOM      6  C   UNL A   1      35.293  32.038  27.786  1.00  0.00     0.338 C 
ATOM      7  O   UNL A   1      34.399  31.352  27.285  1.00  0.00    -0.246 OA
BRANCH   6   8
ATOM      8  C   UNL A   1      36.325  31.302  28.581  1.00  0.00     0.060 A 
ATOM      9  C   UNL A   1      37.478  31.857  29.133  1.00  0.00     0.016 A 
ATOM     10  C   UNL A   1      36.154  29.902  28.665  1.00  0.00     0.016 A 
ATOM     11  C   UNL A   1      38.501  31.043  29.597  1.00  0.00     0.010 A 
ATOM     12  C   UNL A   1      37.173  29.078  29.132  1.00  0.00     0.010 A 
ATOM     13  C   UNL A   1      38.376  29.657  29.512  1.00  0.00    -0.014 A 
BRANCH  13  14
ATOM     14  C   UNL A   1      39.585  28.881  29.737  1.00  0.00     0.031 A 
ATOM     15  C   UNL A   1      40.002  28.666  31.141  1.00  0.00     0.074 A 
ATOM     16  C   UNL A   1      40.319  28.401  28.715  1.00  0.00     0.049 A 
ATOM     17  N   UNL A   1      41.070  29.102  31.728  1.00  0.00    -0.248 NA
ATOM     18  C   UNL A   1      39.091  27.915  32.013  1.00  0.00     0.031 C 
ATOM     19  C   UNL A   1      39.944  28.303  27.303  1.00  0.00     0.029 A 
ATOM     20  N   UNL A   1      41.544  27.806  28.758  1.00  0.00    -0.354 N 
ATOM     21  C   UNL A   1      41.051  28.558  33.007  1.00  0.00     0.074 A 
ATOM     22  C   UNL A   1      39.766  27.920  33.163  1.00  0.00     0.031 C 
ATOM     23  C   UNL A   1      40.814  27.482  26.673  1.00  0.00     0.029 A 
ATOM     24  C   UNL A   1      41.871  27.118  27.602  1.00  0.00     0.049 A 
ATOM     25  H   UNL A   1      42.142  27.859  29.539  1.00  0.00     0.167 HD
ATOM     26  C   UNL A   1      42.164  28.502  33.789  1.00  0.00     0.031 A 
ATOM     27  C   UNL A   1      42.897  26.252  27.440  1.00  0.00     0.031 A 
ATOM     28  C   UNL A   1      43.203  29.388  33.342  1.00  0.00     0.049 A 
ATOM     29  C   UNL A   1      43.896  26.511  28.500  1.00  0.00     0.074 A 
ATOM     30  C   UNL A   1      43.321  30.753  33.176  1.00  0.00     0.029 A 
ATOM     31  N   UNL A   1      44.272  28.836  32.680  1.00  0.00    -0.354 N 
ATOM     32  N   UNL A   1      44.655  27.569  28.538  1.00  0.00    -0.248 NA
ATOM     33  C   UNL A   1      43.799  25.774  29.750  1.00  0.00     0.031 C 
ATOM     34  C   UNL A   1      44.174  30.917  32.047  1.00  0.00     0.029 A 
ATOM     35  C   UNL A   1      44.543  29.644  31.608  1.00  0.00     0.049 A 
ATOM     36  H   UNL A   1      44.752  28.013  32.928  1.00  0.00     0.167 HD
ATOM     37  C   UNL A   1      44.778  27.871  29.886  1.00  0.00     0.074 A 
ATOM     38  C   UNL A   1      44.342  26.666  30.583  1.00  0.00     0.031 C 
ATOM     39  C   UNL A   1      44.950  29.158  30.308  1.00  0.00     0.031 A 
BRANCH  26  40
ATOM     40  C   UNL A   1      42.441  27.378  34.753  1.00  0.00    -0.014 A 
ATOM     41  C   UNL A   1      42.877  26.137  34.254  1.00  0.00     0.009 A 
ATOM     42  C   UNL A   1      42.018  27.411  36.095  1.00  0.00     0.009 A 
ATOM     43  C   UNL A   1      42.835  24.981  35.044  1.00  0.00     0.001 A 
ATOM     44  C   UNL A   1      42.016  26.270  36.899  1.00  0.00     0.001 A 
ATOM     45  C   UNL A   1      42.400  25.048  36.365  1.00  0.00     0.000 A 
ENDBRANCH  26  40
BRANCH  27  46
ATOM     46  C   UNL A   1      42.939  25.058  26.573  1.00  0.00    -0.014 A 
ATOM     47  C   UNL A   1      43.696  25.049  25.393  1.00  0.00     0.009 A 
ATOM     48  C   UNL A   1      42.424  23.831  27.032  1.00  0.00     0.009 A 
ATOM     49  C   UNL A   1      43.952  23.850  24.716  1.00  0.00     0.001 A 
ATOM     50  C   UNL A   1      42.671  22.635  26.352  1.00  0.00     0.001 A 
ATOM     51  C   UNL A   1      43.448  22.644  25.201  1.00  0.00     0.000 A 
ENDBRANCH  27  46
BRANCH  39  52
ATOM     52  C   UNL A   1      45.283  30.205  29.273  1.00  0.00    -0.014 A 
ATOM     53  C   UNL A   1      44.323  30.728  28.389  1.00  0.00     0.009 A 
ATOM     54  C   UNL A   1      46.559  30.785  29.289  1.00  0.00     0.009 A 
ATOM     55  C   UNL A   1      44.644  31.771  27.518  1.00  0.00     0.001 A 
ATOM     56  C   UNL A   1      46.874  31.844  28.434  1.00  0.00     0.001 A 
ATOM     57  C   UNL A   1      45.919  32.332  27.543  1.00  0.00     0.000 A 
ENDBRANCH  39  52
ENDBRANCH  13  14
ENDBRANCH   6   8
ENDBRANCH   5   6
ENDBRANCH   4   5
ENDBRANCH   3   4
ENDBRANCH   2   3
ENDBRANCH   1   2
BRANCH   1  58
ATOM     58  C   UNL A   1      33.235  35.565  32.453  1.00  0.00     0.188 C 
BRANCH  58  59
ATOM     59  O   UNL A   1      32.903  34.248  32.877  1.00  0.00    -0.376 OA
BRANCH  59  60
ATOM     60  C   UNL A   1      33.930  33.309  33.188  1.00  0.00     0.202 C 
BRANCH  60  61
ATOM     61  C   UNL A   1      35.101  33.794  34.033  1.00  0.00     0.261 C 
BRANCH  61  62
ATOM     62  O   UNL A   1      35.957  32.681  34.319  1.00  0.00    -0.458 OA
BRANCH  62  63
ATOM     63  C   UNL A   1      36.675  32.224  33.262  1.00  0.00     0.361 C 
ATOM     64  O   UNL A   1      36.524  31.131  32.736  1.00  0.00    -0.244 OA
BRANCH  63  65
ATOM     65  C   UNL A   1      37.667  33.177  32.806  1.00  0.00     0.198 A 
ATOM     66  N   UNL A   1      37.363  34.233  31.976  1.00  0.00    -0.122 NA
ATOM     67  C   UNL A   1      39.027  33.181  33.052  1.00  0.00     0.123 A 
ATOM     68  N   UNL A   1      38.498  34.839  31.642  1.00  0.00    -0.061 NA
ATOM     69  N   UNL A   1      39.507  34.077  32.115  1.00  0.00    -0.213 N 
BRANCH  67  70
ATOM     70  C   UNL A   1      39.919  32.524  34.052  1.00  0.00     0.262 C 
ATOM     71  C   UNL A   1      39.449  31.195  34.635  1.00  0.00     0.281 C 
ATOM     72  O   UNL A   1      40.235  33.519  35.030  1.00  0.00    -0.477 OA
ATOM     73  O   UNL A   1      38.447  31.310  35.641  1.00  0.00    -0.485 OA
ATOM     74  C   UNL A   1      39.482  33.446  36.165  1.00  0.00     0.162 A 
ATOM     75  C   UNL A   1      38.650  32.374  36.474  1.00  0.00     0.161 A 
ATOM     76  C   UNL A   1      39.568  34.537  37.032  1.00  0.00     0.050 A 
ATOM     77  C   UNL A   1      37.909  32.387  37.654  1.00  0.00     0.050 A 
ATOM     78  C   UNL A   1      38.810  34.559  38.203  1.00  0.00     0.004 A 
ATOM     79  C   UNL A   1      37.985  33.479  38.519  1.00  0.00     0.004 A 
ENDBRANCH  67  70
BRANCH  69  80
ATOM     80  C   UNL A   1      40.798  34.104  31.547  1.00  0.00     0.068 A 
ATOM     81  C   UNL A   1      41.011  33.420  30.337  1.00  0.00     0.028 A 
ATOM     82  C   UNL A   1      41.849  34.742  32.203  1.00  0.00     0.044 A 
ATOM     83  C   UNL A   1      42.297  33.298  29.824  1.00  0.00     0.003 A 
ATOM     84  C   UNL A   1      43.139  34.587  31.690  1.00  0.00     0.020 A 
ATOM     85  C   UNL A   1      43.367  33.861  30.515  1.00  0.00     0.016 A 
ATOM     86  Br  UNL A   1      44.614  35.314  32.622  1.00  0.00    -0.051 Br
ENDBRANCH  69  80
ENDBRANCH  63  65
ENDBRANCH  62  63
ENDBRANCH  61  62
ENDBRANCH  60  61
ENDBRANCH  59  60
ENDBRANCH  58  59
ENDBRANCH   1  58
TORSDOF 19
ENDMDL
