MODEL 1
REMARK VINA RESULT:     -10.4      0.000      0.000
REMARK SMILES CC[C@H](C)[C@H](NC(=O)[C@H](C)Oc1ccc2c(C)c(C)c(=O)oc2c1C)C(=O)OCCOCCOCCOC(=O)c1ccc(-c2c3nc(c(-c4ccccc4)c4ccc([nH]4)c(-c4ccccc4)c4nc(c(-c5ccccc5)c5ccc2[nH]5)C=C4)C=C3)cc1
REMARK SMILES IDX 32 1 31 2 30 3 29 4 28 5 26 6 27 7 5 8 3 9 4 10 2 11 1 12
REMARK SMILES IDX 6 13 7 14 8 16 9 17 10 18 11 19 12 20 13 21 24 22 14 23
REMARK SMILES IDX 23 24 25 25 15 26 22 27 16 28 20 29 17 30 18 31 21 32 19 33
REMARK SMILES IDX 33 34 34 35 35 36 36 37 37 38 38 39 39 40 40 41 41 42 87 43
REMARK SMILES IDX 42 44 86 45 43 46 44 47 45 48 80 49 46 50 85 51 79 52 81 53
REMARK SMILES IDX 47 54 84 55 78 56 77 57 48 59 70 60 55 61 69 62 56 63 59 64
REMARK SMILES IDX 68 65 82 66 57 67 58 68 67 70 83 71 60 72 49 73 50 74 54 75
REMARK SMILES IDX 51 76 53 77 52 78 71 79 72 80 76 81 73 82 75 83 74 84 61 85
REMARK SMILES IDX 62 86 66 87 63 88 65 89 64 90
REMARK H PARENT 6 15 81 58 59 69
REMARK Flexibility Score: inf
ROOT
ATOM      1  C   UNL A   1      33.404  29.703  25.812  1.00  0.00     0.188 C 
ENDROOT
BRANCH   1   2
ATOM      2  O   UNL A   1      33.167  28.513  25.083  1.00  0.00    -0.376 OA
BRANCH   2   3
ATOM      3  C   UNL A   1      34.112  28.138  24.091  1.00  0.00     0.202 C 
BRANCH   3   4
ATOM      4  C   UNL A   1      33.640  28.115  22.634  1.00  0.00     0.261 C 
BRANCH   4   5
ATOM      5  O   UNL A   1      32.215  28.309  22.463  1.00  0.00    -0.462 OA
BRANCH   5   6
ATOM      6  C   UNL A   1      31.467  27.171  22.419  1.00  0.00     0.328 C 
ATOM      7  O   UNL A   1      31.605  26.290  21.574  1.00  0.00    -0.250 OA
BRANCH   6   8
ATOM      8  C   UNL A   1      30.295  27.145  23.428  1.00  0.00     0.195 C 
BRANCH   8   9
ATOM      9  C   UNL A   1      29.129  28.108  22.985  1.00  0.00     0.019 C 
ATOM     10  C   UNL A   1      27.736  27.690  23.484  1.00  0.00     0.010 C 
BRANCH   9  11
ATOM     11  C   UNL A   1      29.343  29.603  23.334  1.00  0.00     0.002 C 
ATOM     12  C   UNL A   1      29.425  30.468  22.094  1.00  0.00     0.004 C 
ENDBRANCH   9  11
ENDBRANCH   8   9
BRANCH   8  13
ATOM     13  N   UNL A   1      30.627  27.322  24.854  1.00  0.00    -0.339 N 
ATOM     14  C   UNL A   1      30.990  26.458  25.844  1.00  0.00     0.261 C 
ATOM     15  H   UNL A   1      30.576  28.259  25.153  1.00  0.00     0.164 HD
ATOM     16  O   UNL A   1      30.764  26.852  26.997  1.00  0.00    -0.271 OA
BRANCH  14  17
ATOM     17  C   UNL A   1      31.738  25.100  25.638  1.00  0.00     0.258 C 
ATOM     18  C   UNL A   1      32.149  24.428  26.932  1.00  0.00     0.064 C 
BRANCH  17  19
ATOM     19  O   UNL A   1      32.680  24.834  24.607  1.00  0.00    -0.480 OA
BRANCH  19  20
ATOM     20  C   UNL A   1      32.895  23.512  24.386  1.00  0.00     0.127 A 
ATOM     21  C   UNL A   1      31.839  22.668  24.043  1.00  0.00     0.047 A 
ATOM     22  C   UNL A   1      34.196  23.030  24.463  1.00  0.00     0.035 A 
ATOM     23  C   UNL A   1      32.037  21.294  23.966  1.00  0.00     0.016 A 
ATOM     24  C   UNL A   1      34.365  21.641  24.392  1.00  0.00     0.145 A 
ATOM     25  C   UNL A   1      35.374  23.955  24.585  1.00  0.00     0.052 C 
ATOM     26  C   UNL A   1      33.306  20.754  24.185  1.00  0.00     0.021 A 
ATOM     27  O   UNL A   1      35.670  21.162  24.589  1.00  0.00    -0.422 OA
ATOM     28  C   UNL A   1      33.553  19.304  24.247  1.00  0.00    -0.030 A 
ATOM     29  C   UNL A   1      35.926  19.818  24.773  1.00  0.00     0.339 A 
ATOM     30  C   UNL A   1      32.382  18.381  24.007  1.00  0.00     0.045 C 
ATOM     31  C   UNL A   1      34.791  18.875  24.574  1.00  0.00     0.038 A 
ATOM     32  O   UNL A   1      37.049  19.433  25.077  1.00  0.00    -0.246 OA
ATOM     33  C   UNL A   1      35.133  17.426  24.772  1.00  0.00     0.052 C 
ENDBRANCH  19  20
ENDBRANCH  17  19
ENDBRANCH  14  17
ENDBRANCH   8  13
ENDBRANCH   6   8
ENDBRANCH   5   6
ENDBRANCH   4   5
ENDBRANCH   3   4
ENDBRANCH   2   3
ENDBRANCH   1   2
BRANCH   1  34
ATOM     34  C   UNL A   1      32.270  30.322  26.661  1.00  0.00     0.188 C 
BRANCH  34  35
ATOM     35  O   UNL A   1      31.368  31.234  26.068  1.00  0.00    -0.376 OA
BRANCH  35  36
ATOM     36  C   UNL A   1      31.316  32.544  26.606  1.00  0.00     0.202 C 
BRANCH  36  37
ATOM     37  C   UNL A   1      32.531  33.035  27.403  1.00  0.00     0.261 C 
BRANCH  37  38
ATOM     38  O   UNL A   1      32.497  34.434  27.754  1.00  0.00    -0.460 OA
BRANCH  38  39
ATOM     39  C   UNL A   1      33.108  34.759  28.921  1.00  0.00     0.338 C 
ATOM     40  O   UNL A   1      32.687  35.525  29.777  1.00  0.00    -0.246 OA
BRANCH  39  41
ATOM     41  C   UNL A   1      34.314  33.931  29.148  1.00  0.00     0.060 A 
ATOM     42  C   UNL A   1      34.158  32.773  29.913  1.00  0.00     0.016 A 
ATOM     43  C   UNL A   1      35.585  34.292  28.696  1.00  0.00     0.016 A 
ATOM     44  C   UNL A   1      35.249  31.942  30.179  1.00  0.00     0.010 A 
ATOM     45  C   UNL A   1      36.698  33.497  29.032  1.00  0.00     0.010 A 
ATOM     46  C   UNL A   1      36.537  32.318  29.779  1.00  0.00    -0.014 A 
BRANCH  46  47
ATOM     47  C   UNL A   1      37.697  31.576  30.345  1.00  0.00     0.031 A 
ATOM     48  C   UNL A   1      38.096  31.863  31.771  1.00  0.00     0.074 A 
ATOM     49  C   UNL A   1      38.341  30.610  29.661  1.00  0.00     0.049 A 
ATOM     50  N   UNL A   1      39.059  31.338  32.483  1.00  0.00    -0.248 NA
ATOM     51  C   UNL A   1      37.279  32.849  32.501  1.00  0.00     0.031 C 
ATOM     52  C   UNL A   1      37.985  30.127  28.328  1.00  0.00     0.029 A 
ATOM     53  N   UNL A   1      39.429  29.843  30.015  1.00  0.00    -0.354 N 
ATOM     54  C   UNL A   1      38.940  31.905  33.746  1.00  0.00     0.074 A 
ATOM     55  C   UNL A   1      37.817  32.812  33.709  1.00  0.00     0.031 C 
ATOM     56  C   UNL A   1      38.844  29.152  27.975  1.00  0.00     0.029 A 
ATOM     57  C   UNL A   1      39.835  28.967  29.036  1.00  0.00     0.049 A 
ATOM     58  H   UNL A   1      39.876  29.917  30.889  1.00  0.00     0.167 HD
ATOM     59  C   UNL A   1      39.707  31.707  34.840  1.00  0.00     0.031 A 
ATOM     60  C   UNL A   1      40.893  28.131  28.989  1.00  0.00     0.031 A 
ATOM     61  C   UNL A   1      40.870  30.870  34.874  1.00  0.00     0.049 A 
ATOM     62  C   UNL A   1      41.843  28.058  30.160  1.00  0.00     0.074 A 
ATOM     63  C   UNL A   1      41.756  30.679  35.919  1.00  0.00     0.029 A 
ATOM     64  N   UNL A   1      41.319  30.104  33.813  1.00  0.00    -0.354 N 
ATOM     65  N   UNL A   1      41.752  28.646  31.328  1.00  0.00    -0.248 NA
ATOM     66  C   UNL A   1      43.045  27.223  30.003  1.00  0.00     0.031 C 
ATOM     67  C   UNL A   1      42.774  29.837  35.471  1.00  0.00     0.029 A 
ATOM     68  C   UNL A   1      42.487  29.457  34.169  1.00  0.00     0.049 A 
ATOM     69  H   UNL A   1      40.873  30.031  32.938  1.00  0.00     0.167 HD
ATOM     70  C   UNL A   1      42.871  28.240  32.048  1.00  0.00     0.074 A 
ATOM     71  C   UNL A   1      43.626  27.353  31.190  1.00  0.00     0.031 C 
ATOM     72  C   UNL A   1      43.233  28.577  33.309  1.00  0.00     0.031 A 
BRANCH  59  73
ATOM     73  C   UNL A   1      39.347  32.461  36.084  1.00  0.00    -0.014 A 
ATOM     74  C   UNL A   1      38.363  31.983  36.960  1.00  0.00     0.009 A 
ATOM     75  C   UNL A   1      40.051  33.630  36.414  1.00  0.00     0.009 A 
ATOM     76  C   UNL A   1      38.088  32.663  38.146  1.00  0.00     0.001 A 
ATOM     77  C   UNL A   1      39.787  34.297  37.610  1.00  0.00     0.001 A 
ATOM     78  C   UNL A   1      38.806  33.814  38.473  1.00  0.00     0.000 A 
ENDBRANCH  59  73
BRANCH  60  79
ATOM     79  C   UNL A   1      41.145  27.325  27.763  1.00  0.00    -0.014 A 
ATOM     80  C   UNL A   1      41.900  27.844  26.699  1.00  0.00     0.009 A 
ATOM     81  C   UNL A   1      40.635  26.021  27.655  1.00  0.00     0.009 A 
ATOM     82  C   UNL A   1      42.144  27.069  25.560  1.00  0.00     0.001 A 
ATOM     83  C   UNL A   1      40.899  25.242  26.526  1.00  0.00     0.001 A 
ATOM     84  C   UNL A   1      41.652  25.767  25.479  1.00  0.00     0.000 A 
ENDBRANCH  60  79
BRANCH  72  85
ATOM     85  C   UNL A   1      44.495  27.994  33.876  1.00  0.00    -0.014 A 
ATOM     86  C   UNL A   1      45.733  28.619  33.670  1.00  0.00     0.009 A 
ATOM     87  C   UNL A   1      44.419  26.903  34.758  1.00  0.00     0.009 A 
ATOM     88  C   UNL A   1      46.871  28.163  34.338  1.00  0.00     0.001 A 
ATOM     89  C   UNL A   1      45.554  26.465  35.442  1.00  0.00     0.001 A 
ATOM     90  C   UNL A   1      46.778  27.096  35.232  1.00  0.00     0.000 A 
ENDBRANCH  72  85
ENDBRANCH  46  47
ENDBRANCH  39  41
ENDBRANCH  38  39
ENDBRANCH  37  38
ENDBRANCH  36  37
ENDBRANCH  35  36
ENDBRANCH  34  35
ENDBRANCH   1  34
TORSDOF 23
ENDMDL
MODEL 2
REMARK VINA RESULT:     -10.0      0.950      5.740
REMARK SMILES CC[C@H](C)[C@H](NC(=O)[C@H](C)Oc1ccc2c(C)c(C)c(=O)oc2c1C)C(=O)OCCOCCOCCOC(=O)c1ccc(-c2c3nc(c(-c4ccccc4)c4ccc([nH]4)c(-c4ccccc4)c4nc(c(-c5ccccc5)c5ccc2[nH]5)C=C4)C=C3)cc1
REMARK SMILES IDX 32 1 31 2 30 3 29 4 28 5 26 6 27 7 5 8 3 9 4 10 2 11 1 12
REMARK SMILES IDX 6 13 7 14 8 16 9 17 10 18 11 19 12 20 13 21 24 22 14 23
REMARK SMILES IDX 23 24 25 25 15 26 22 27 16 28 20 29 17 30 18 31 21 32 19 33
REMARK SMILES IDX 33 34 34 35 35 36 36 37 37 38 38 39 39 40 40 41 41 42 87 43
REMARK SMILES IDX 42 44 86 45 43 46 44 47 45 48 80 49 46 50 85 51 79 52 81 53
REMARK SMILES IDX 47 54 84 55 78 56 77 57 48 59 70 60 55 61 69 62 56 63 59 64
REMARK SMILES IDX 68 65 82 66 57 67 58 68 67 70 83 71 60 72 49 73 50 74 54 75
REMARK SMILES IDX 51 76 53 77 52 78 71 79 72 80 76 81 73 82 75 83 74 84 61 85
REMARK SMILES IDX 62 86 66 87 63 88 65 89 64 90
REMARK H PARENT 6 15 81 58 59 69
REMARK Flexibility Score: inf
ROOT
ATOM      1  C   UNL A   1      33.543  29.417  25.304  1.00  0.00     0.188 C 
ENDROOT
BRANCH   1   2
ATOM      2  O   UNL A   1      33.445  28.029  25.043  1.00  0.00    -0.376 OA
BRANCH   2   3
ATOM      3  C   UNL A   1      34.229  27.491  23.989  1.00  0.00     0.202 C 
BRANCH   3   4
ATOM      4  C   UNL A   1      33.612  27.460  22.588  1.00  0.00     0.261 C 
BRANCH   4   5
ATOM      5  O   UNL A   1      32.283  28.031  22.507  1.00  0.00    -0.462 OA
BRANCH   5   6
ATOM      6  C   UNL A   1      31.265  27.136  22.368  1.00  0.00     0.328 C 
ATOM      7  O   UNL A   1      31.028  26.519  21.332  1.00  0.00    -0.250 OA
BRANCH   6   8
ATOM      8  C   UNL A   1      30.306  27.076  23.579  1.00  0.00     0.195 C 
BRANCH   8   9
ATOM      9  C   UNL A   1      29.319  28.304  23.598  1.00  0.00     0.019 C 
ATOM     10  C   UNL A   1      29.922  29.612  23.057  1.00  0.00     0.010 C 
BRANCH   9  11
ATOM     11  C   UNL A   1      27.960  28.066  22.891  1.00  0.00     0.002 C 
ATOM     12  C   UNL A   1      26.908  29.062  23.335  1.00  0.00     0.004 C 
ENDBRANCH   9  11
ENDBRANCH   8   9
BRANCH   8  13
ATOM     13  N   UNL A   1      30.908  26.849  24.907  1.00  0.00    -0.339 N 
ATOM     14  C   UNL A   1      30.868  25.807  25.785  1.00  0.00     0.261 C 
ATOM     15  H   UNL A   1      31.450  27.607  25.225  1.00  0.00     0.164 HD
ATOM     16  O   UNL A   1      31.100  26.104  26.966  1.00  0.00    -0.271 OA
BRANCH  14  17
ATOM     17  C   UNL A   1      30.661  24.304  25.407  1.00  0.00     0.258 C 
ATOM     18  C   UNL A   1      30.230  23.436  26.571  1.00  0.00     0.064 C 
BRANCH  17  19
ATOM     19  O   UNL A   1      31.475  23.571  24.501  1.00  0.00    -0.480 OA
BRANCH  19  20
ATOM     20  C   UNL A   1      32.746  23.376  24.937  1.00  0.00     0.127 A 
ATOM     21  C   UNL A   1      33.495  24.439  25.442  1.00  0.00     0.047 A 
ATOM     22  C   UNL A   1      33.265  22.087  24.915  1.00  0.00     0.035 A 
ATOM     23  C   UNL A   1      34.840  24.266  25.747  1.00  0.00     0.016 A 
ATOM     24  C   UNL A   1      34.625  21.944  25.216  1.00  0.00     0.145 A 
ATOM     25  C   UNL A   1      32.402  20.895  24.612  1.00  0.00     0.052 C 
ATOM     26  C   UNL A   1      35.440  23.015  25.594  1.00  0.00     0.021 A 
ATOM     27  O   UNL A   1      35.162  20.654  25.075  1.00  0.00    -0.422 OA
ATOM     28  C   UNL A   1      36.884  22.797  25.774  1.00  0.00    -0.030 A 
ATOM     29  C   UNL A   1      36.523  20.430  25.116  1.00  0.00     0.339 A 
ATOM     30  C   UNL A   1      37.725  23.980  26.193  1.00  0.00     0.045 C 
ATOM     31  C   UNL A   1      37.392  21.577  25.497  1.00  0.00     0.038 A 
ATOM     32  O   UNL A   1      36.981  19.322  24.857  1.00  0.00    -0.246 OA
ATOM     33  C   UNL A   1      38.861  21.269  25.540  1.00  0.00     0.052 C 
ENDBRANCH  19  20
ENDBRANCH  17  19
ENDBRANCH  14  17
ENDBRANCH   8  13
ENDBRANCH   6   8
ENDBRANCH   5   6
ENDBRANCH   4   5
ENDBRANCH   3   4
ENDBRANCH   2   3
ENDBRANCH   1   2
BRANCH   1  34
ATOM     34  C   UNL A   1      32.632  30.065  26.372  1.00  0.00     0.188 C 
BRANCH  34  35
ATOM     35  O   UNL A   1      31.665  31.018  25.983  1.00  0.00    -0.376 OA
BRANCH  35  36
ATOM     36  C   UNL A   1      31.413  32.093  26.872  1.00  0.00     0.202 C 
BRANCH  36  37
ATOM     37  C   UNL A   1      32.619  32.739  27.567  1.00  0.00     0.261 C 
BRANCH  37  38
ATOM     38  O   UNL A   1      32.544  34.175  27.694  1.00  0.00    -0.460 OA
BRANCH  38  39
ATOM     39  C   UNL A   1      33.133  34.694  28.800  1.00  0.00     0.338 C 
ATOM     40  O   UNL A   1      32.691  35.588  29.510  1.00  0.00    -0.246 OA
BRANCH  39  41
ATOM     41  C   UNL A   1      34.341  33.929  29.179  1.00  0.00     0.060 A 
ATOM     42  C   UNL A   1      34.217  33.021  30.233  1.00  0.00     0.016 A 
ATOM     43  C   UNL A   1      35.589  34.127  28.584  1.00  0.00     0.016 A 
ATOM     44  C   UNL A   1      35.312  32.265  30.656  1.00  0.00     0.010 A 
ATOM     45  C   UNL A   1      36.711  33.424  29.065  1.00  0.00     0.010 A 
ATOM     46  C   UNL A   1      36.580  32.491  30.107  1.00  0.00    -0.014 A 
BRANCH  46  47
ATOM     47  C   UNL A   1      37.762  31.900  30.791  1.00  0.00     0.031 A 
ATOM     48  C   UNL A   1      38.537  30.825  30.069  1.00  0.00     0.074 A 
ATOM     49  C   UNL A   1      38.207  32.345  31.983  1.00  0.00     0.049 A 
ATOM     50  N   UNL A   1      39.604  30.174  30.453  1.00  0.00    -0.248 NA
ATOM     51  C   UNL A   1      38.066  30.464  28.720  1.00  0.00     0.031 C 
ATOM     52  C   UNL A   1      37.646  33.465  32.737  1.00  0.00     0.029 A 
ATOM     53  N   UNL A   1      39.258  31.913  32.760  1.00  0.00    -0.354 N 
ATOM     54  C   UNL A   1      39.945  29.354  29.385  1.00  0.00     0.074 A 
ATOM     55  C   UNL A   1      38.979  29.586  28.336  1.00  0.00     0.031 C 
ATOM     56  C   UNL A   1      38.354  33.624  33.871  1.00  0.00     0.029 A 
ATOM     57  C   UNL A   1      39.393  32.597  33.945  1.00  0.00     0.049 A 
ATOM     58  H   UNL A   1      39.858  31.179  32.491  1.00  0.00     0.167 HD
ATOM     59  C   UNL A   1      40.960  28.469  29.285  1.00  0.00     0.031 A 
ATOM     60  C   UNL A   1      40.238  32.403  34.979  1.00  0.00     0.031 A 
ATOM     61  C   UNL A   1      41.882  28.169  30.341  1.00  0.00     0.049 A 
ATOM     62  C   UNL A   1      41.252  31.287  34.919  1.00  0.00     0.074 A 
ATOM     63  C   UNL A   1      42.890  27.223  30.354  1.00  0.00     0.029 A 
ATOM     64  N   UNL A   1      41.894  28.796  31.575  1.00  0.00    -0.354 N 
ATOM     65  N   UNL A   1      41.525  30.478  33.924  1.00  0.00    -0.248 NA
ATOM     66  C   UNL A   1      42.062  31.046  36.125  1.00  0.00     0.031 C 
ATOM     67  C   UNL A   1      43.479  27.239  31.619  1.00  0.00     0.029 A 
ATOM     68  C   UNL A   1      42.876  28.237  32.370  1.00  0.00     0.049 A 
ATOM     69  H   UNL A   1      41.294  29.529  31.844  1.00  0.00     0.167 HD
ATOM     70  C   UNL A   1      42.545  29.647  34.376  1.00  0.00     0.074 A 
ATOM     71  C   UNL A   1      42.848  30.050  35.733  1.00  0.00     0.031 C 
ATOM     72  C   UNL A   1      43.171  28.642  33.719  1.00  0.00     0.031 A 
BRANCH  59  73
ATOM     73  C   UNL A   1      41.092  27.707  28.001  1.00  0.00    -0.014 A 
ATOM     74  C   UNL A   1      41.683  28.293  26.872  1.00  0.00     0.009 A 
ATOM     75  C   UNL A   1      40.680  26.367  27.944  1.00  0.00     0.009 A 
ATOM     76  C   UNL A   1      41.858  27.548  25.706  1.00  0.00     0.001 A 
ATOM     77  C   UNL A   1      40.874  25.620  26.782  1.00  0.00     0.001 A 
ATOM     78  C   UNL A   1      41.461  26.211  25.665  1.00  0.00     0.000 A 
ENDBRANCH  59  73
BRANCH  60  79
ATOM     79  C   UNL A   1      40.129  33.259  36.193  1.00  0.00    -0.014 A 
ATOM     80  C   UNL A   1      40.856  34.455  36.301  1.00  0.00     0.009 A 
ATOM     81  C   UNL A   1      39.285  32.884  37.251  1.00  0.00     0.009 A 
ATOM     82  C   UNL A   1      40.731  35.258  37.440  1.00  0.00     0.001 A 
ATOM     83  C   UNL A   1      39.145  33.699  38.376  1.00  0.00     0.001 A 
ATOM     84  C   UNL A   1      39.870  34.884  38.471  1.00  0.00     0.000 A 
ENDBRANCH  60  79
BRANCH  72  85
ATOM     85  C   UNL A   1      44.261  27.889  34.424  1.00  0.00    -0.014 A 
ATOM     86  C   UNL A   1      43.972  26.744  35.179  1.00  0.00     0.009 A 
ATOM     87  C   UNL A   1      45.604  28.235  34.195  1.00  0.00     0.009 A 
ATOM     88  C   UNL A   1      45.007  25.958  35.690  1.00  0.00     0.001 A 
ATOM     89  C   UNL A   1      46.635  27.435  34.687  1.00  0.00     0.001 A 
ATOM     90  C   UNL A   1      46.337  26.297  35.433  1.00  0.00     0.000 A 
ENDBRANCH  72  85
ENDBRANCH  46  47
ENDBRANCH  39  41
ENDBRANCH  38  39
ENDBRANCH  37  38
ENDBRANCH  36  37
ENDBRANCH  35  36
ENDBRANCH  34  35
ENDBRANCH   1  34
TORSDOF 23
ENDMDL
MODEL 3
REMARK VINA RESULT:      -9.6      3.890      6.124
REMARK SMILES CC[C@H](C)[C@H](NC(=O)[C@H](C)Oc1ccc2c(C)c(C)c(=O)oc2c1C)C(=O)OCCOCCOCCOC(=O)c1ccc(-c2c3nc(c(-c4ccccc4)c4ccc([nH]4)c(-c4ccccc4)c4nc(c(-c5ccccc5)c5ccc2[nH]5)C=C4)C=C3)cc1
REMARK SMILES IDX 32 1 31 2 30 3 29 4 28 5 26 6 27 7 5 8 3 9 4 10 2 11 1 12
REMARK SMILES IDX 6 13 7 14 8 16 9 17 10 18 11 19 12 20 13 21 24 22 14 23
REMARK SMILES IDX 23 24 25 25 15 26 22 27 16 28 20 29 17 30 18 31 21 32 19 33
REMARK SMILES IDX 33 34 34 35 35 36 36 37 37 38 38 39 39 40 40 41 41 42 87 43
REMARK SMILES IDX 42 44 86 45 43 46 44 47 45 48 80 49 46 50 85 51 79 52 81 53
REMARK SMILES IDX 47 54 84 55 78 56 77 57 48 59 70 60 55 61 69 62 56 63 59 64
REMARK SMILES IDX 68 65 82 66 57 67 58 68 67 70 83 71 60 72 49 73 50 74 54 75
REMARK SMILES IDX 51 76 53 77 52 78 71 79 72 80 76 81 73 82 75 83 74 84 61 85
REMARK SMILES IDX 62 86 66 87 63 88 65 89 64 90
REMARK H PARENT 6 15 81 58 59 69
REMARK Flexibility Score: inf
ROOT
ATOM      1  C   UNL A   1      33.259  34.125  27.785  1.00  0.00     0.188 C 
ENDROOT
BRANCH   1   2
ATOM      2  O   UNL A   1      32.036  33.799  27.152  1.00  0.00    -0.376 OA
BRANCH   2   3
ATOM      3  C   UNL A   1      31.574  32.460  27.240  1.00  0.00     0.202 C 
BRANCH   3   4
ATOM      4  C   UNL A   1      30.957  31.837  25.984  1.00  0.00     0.261 C 
BRANCH   4   5
ATOM      5  O   UNL A   1      31.764  30.803  25.370  1.00  0.00    -0.462 OA
BRANCH   5   6
ATOM      6  C   UNL A   1      31.078  29.862  24.663  1.00  0.00     0.328 C 
ATOM      7  O   UNL A   1      30.080  30.101  23.987  1.00  0.00    -0.250 OA
BRANCH   6   8
ATOM      8  C   UNL A   1      31.553  28.411  24.913  1.00  0.00     0.195 C 
BRANCH   8   9
ATOM      9  C   UNL A   1      32.301  28.277  26.294  1.00  0.00     0.019 C 
ATOM     10  C   UNL A   1      31.650  27.288  27.275  1.00  0.00     0.010 C 
BRANCH   9  11
ATOM     11  C   UNL A   1      33.811  27.940  26.194  1.00  0.00     0.002 C 
ATOM     12  C   UNL A   1      34.666  28.943  26.939  1.00  0.00     0.004 C 
ENDBRANCH   9  11
ENDBRANCH   8   9
BRANCH   8  13
ATOM     13  N   UNL A   1      32.303  27.750  23.828  1.00  0.00    -0.339 N 
ATOM     14  C   UNL A   1      32.659  26.456  23.593  1.00  0.00     0.261 C 
ATOM     15  H   UNL A   1      32.610  28.373  23.130  1.00  0.00     0.164 HD
ATOM     16  O   UNL A   1      33.640  26.305  22.851  1.00  0.00    -0.271 OA
BRANCH  14  17
ATOM     17  C   UNL A   1      31.882  25.193  24.089  1.00  0.00     0.258 C 
ATOM     18  C   UNL A   1      30.446  25.132  23.610  1.00  0.00     0.064 C 
BRANCH  17  19
ATOM     19  O   UNL A   1      32.012  24.608  25.379  1.00  0.00    -0.480 OA
BRANCH  19  20
ATOM     20  C   UNL A   1      32.736  23.459  25.391  1.00  0.00     0.127 A 
ATOM     21  C   UNL A   1      34.129  23.497  25.348  1.00  0.00     0.047 A 
ATOM     22  C   UNL A   1      32.059  22.250  25.495  1.00  0.00     0.035 A 
ATOM     23  C   UNL A   1      34.857  22.321  25.210  1.00  0.00     0.016 A 
ATOM     24  C   UNL A   1      32.816  21.082  25.342  1.00  0.00     0.145 A 
ATOM     25  C   UNL A   1      30.586  22.194  25.790  1.00  0.00     0.052 C 
ATOM     26  C   UNL A   1      34.201  21.089  25.160  1.00  0.00     0.021 A 
ATOM     27  O   UNL A   1      32.101  19.873  25.332  1.00  0.00    -0.422 OA
ATOM     28  C   UNL A   1      34.902  19.825  24.885  1.00  0.00    -0.030 A 
ATOM     29  C   UNL A   1      32.696  18.685  24.960  1.00  0.00     0.339 A 
ATOM     30  C   UNL A   1      36.401  19.878  24.705  1.00  0.00     0.045 C 
ATOM     31  C   UNL A   1      34.170  18.699  24.745  1.00  0.00     0.038 A 
ATOM     32  O   UNL A   1      32.027  17.667  24.827  1.00  0.00    -0.246 OA
ATOM     33  C   UNL A   1      34.764  17.375  24.357  1.00  0.00     0.052 C 
ENDBRANCH  19  20
ENDBRANCH  17  19
ENDBRANCH  14  17
ENDBRANCH   8  13
ENDBRANCH   6   8
ENDBRANCH   5   6
ENDBRANCH   4   5
ENDBRANCH   3   4
ENDBRANCH   2   3
ENDBRANCH   1   2
BRANCH   1  34
ATOM     34  C   UNL A   1      33.425  33.886  29.304  1.00  0.00     0.188 C 
BRANCH  34  35
ATOM     35  O   UNL A   1      34.274  34.726  30.057  1.00  0.00    -0.376 OA
BRANCH  35  36
ATOM     36  C   UNL A   1      35.488  34.170  30.533  1.00  0.00     0.202 C 
BRANCH  36  37
ATOM     37  C   UNL A   1      36.138  33.060  29.697  1.00  0.00     0.261 C 
BRANCH  37  38
ATOM     38  O   UNL A   1      35.563  31.749  29.884  1.00  0.00    -0.460 OA
BRANCH  38  39
ATOM     39  C   UNL A   1      36.153  30.983  30.835  1.00  0.00     0.338 C 
ATOM     40  O   UNL A   1      35.726  30.757  31.960  1.00  0.00    -0.246 OA
BRANCH  39  41
ATOM     41  C   UNL A   1      37.339  30.277  30.301  1.00  0.00     0.060 A 
ATOM     42  C   UNL A   1      38.254  29.775  31.230  1.00  0.00     0.016 A 
ATOM     43  C   UNL A   1      37.608  30.159  28.936  1.00  0.00     0.016 A 
ATOM     44  C   UNL A   1      39.403  29.103  30.807  1.00  0.00     0.010 A 
ATOM     45  C   UNL A   1      38.806  29.553  28.511  1.00  0.00     0.010 A 
ATOM     46  C   UNL A   1      39.713  29.024  29.444  1.00  0.00    -0.014 A 
BRANCH  46  47
ATOM     47  C   UNL A   1      41.081  28.584  29.055  1.00  0.00     0.031 A 
ATOM     48  C   UNL A   1      42.205  29.585  29.158  1.00  0.00     0.074 A 
ATOM     49  C   UNL A   1      41.359  27.314  28.699  1.00  0.00     0.049 A 
ATOM     50  N   UNL A   1      43.476  29.433  28.890  1.00  0.00    -0.248 NA
ATOM     51  C   UNL A   1      41.853  30.924  29.664  1.00  0.00     0.031 C 
ATOM     52  C   UNL A   1      40.407  26.205  28.685  1.00  0.00     0.029 A 
ATOM     53  N   UNL A   1      42.545  26.741  28.298  1.00  0.00    -0.354 N 
ATOM     54  C   UNL A   1      44.074  30.642  29.223  1.00  0.00     0.074 A 
ATOM     55  C   UNL A   1      43.035  31.517  29.714  1.00  0.00     0.031 C 
ATOM     56  C   UNL A   1      41.045  25.089  28.286  1.00  0.00     0.029 A 
ATOM     57  C   UNL A   1      42.440  25.407  27.980  1.00  0.00     0.049 A 
ATOM     58  H   UNL A   1      43.391  27.242  28.242  1.00  0.00     0.167 HD
ATOM     59  C   UNL A   1      45.370  31.005  29.116  1.00  0.00     0.031 A 
ATOM     60  C   UNL A   1      43.353  24.550  27.477  1.00  0.00     0.031 A 
ATOM     61  C   UNL A   1      46.401  30.178  28.560  1.00  0.00     0.049 A 
ATOM     62  C   UNL A   1      44.756  25.029  27.196  1.00  0.00     0.074 A 
ATOM     63  C   UNL A   1      47.727  30.499  28.335  1.00  0.00     0.029 A 
ATOM     64  N   UNL A   1      46.216  28.877  28.127  1.00  0.00    -0.354 N 
ATOM     65  N   UNL A   1      45.294  26.195  27.462  1.00  0.00    -0.248 NA
ATOM     66  C   UNL A   1      45.672  24.085  26.535  1.00  0.00     0.031 C 
ATOM     67  C   UNL A   1      48.334  29.408  27.712  1.00  0.00     0.029 A 
ATOM     68  C   UNL A   1      47.399  28.388  27.608  1.00  0.00     0.049 A 
ATOM     69  H   UNL A   1      45.370  28.377  28.181  1.00  0.00     0.167 HD
ATOM     70  C   UNL A   1      46.610  26.119  27.016  1.00  0.00     0.074 A 
ATOM     71  C   UNL A   1      46.794  24.792  26.468  1.00  0.00     0.031 C 
ATOM     72  C   UNL A   1      47.575  27.068  27.063  1.00  0.00     0.031 A 
BRANCH  59  73
ATOM     73  C   UNL A   1      45.740  32.390  29.553  1.00  0.00    -0.014 A 
ATOM     74  C   UNL A   1      46.243  32.631  30.839  1.00  0.00     0.009 A 
ATOM     75  C   UNL A   1      45.646  33.454  28.642  1.00  0.00     0.009 A 
ATOM     76  C   UNL A   1      46.644  33.915  31.207  1.00  0.00     0.001 A 
ATOM     77  C   UNL A   1      46.067  34.732  29.006  1.00  0.00     0.001 A 
ATOM     78  C   UNL A   1      46.564  34.962  30.288  1.00  0.00     0.000 A 
ENDBRANCH  59  73
BRANCH  60  79
ATOM     79  C   UNL A   1      42.956  23.151  27.156  1.00  0.00    -0.014 A 
ATOM     80  C   UNL A   1      42.721  22.215  28.175  1.00  0.00     0.009 A 
ATOM     81  C   UNL A   1      42.800  22.748  25.820  1.00  0.00     0.009 A 
ATOM     82  C   UNL A   1      42.331  20.909  27.859  1.00  0.00     0.001 A 
ATOM     83  C   UNL A   1      42.388  21.450  25.509  1.00  0.00     0.001 A 
ATOM     84  C   UNL A   1      42.156  20.531  26.529  1.00  0.00     0.000 A 
ENDBRANCH  60  79
BRANCH  72  85
ATOM     85  C   UNL A   1      48.936  26.739  26.522  1.00  0.00    -0.014 A 
ATOM     86  C   UNL A   1      49.868  26.036  27.298  1.00  0.00     0.009 A 
ATOM     87  C   UNL A   1      49.224  26.992  25.170  1.00  0.00     0.009 A 
ATOM     88  C   UNL A   1      51.063  25.589  26.729  1.00  0.00     0.001 A 
ATOM     89  C   UNL A   1      50.408  26.524  24.599  1.00  0.00     0.001 A 
ATOM     90  C   UNL A   1      51.326  25.823  25.379  1.00  0.00     0.000 A 
ENDBRANCH  72  85
ENDBRANCH  46  47
ENDBRANCH  39  41
ENDBRANCH  38  39
ENDBRANCH  37  38
ENDBRANCH  36  37
ENDBRANCH  35  36
ENDBRANCH  34  35
ENDBRANCH   1  34
TORSDOF 23
ENDMDL
