MODEL 1
REMARK VINA RESULT:     -11.1      0.000      0.000
REMARK SMILES C[N@@H+]1CCN(C(=O)c2ccc3[nH]c4c(c3c2)CSCC4)C[C@H]1C(=O)OCCOCCOCCOC(=O)c1ccc(-c2c3nc(c(-c4ccccc4)c4ccc([nH]4)c(-c4ccccc4)c4nc(c(-c5ccccc5)c5ccc2[nH]5)C=C4)C=C3)cc1
REMARK SMILES IDX 29 1 28 2 27 3 26 4 25 5 23 6 24 7 22 8 1 9 2 10 3 11 4 13
REMARK SMILES IDX 21 14 5 15 6 16 7 17 8 18 9 19 16 20 10 21 15 22 11 23 14 24
REMARK SMILES IDX 12 25 13 26 17 27 20 29 18 30 19 31 30 32 31 33 32 34 33 35
REMARK SMILES IDX 34 36 35 37 36 38 37 39 38 40 84 41 39 42 83 43 40 44 41 45
REMARK SMILES IDX 42 46 77 47 43 48 82 49 76 50 78 51 44 52 81 53 75 54 74 55
REMARK SMILES IDX 45 57 67 58 52 59 66 60 53 61 56 62 65 63 79 64 54 65 55 66
REMARK SMILES IDX 64 68 80 69 57 70 46 71 47 72 51 73 48 74 50 75 49 76 68 77
REMARK SMILES IDX 69 78 73 79 70 80 72 81 71 82 58 83 59 84 63 85 60 86 62 87
REMARK SMILES IDX 61 88
REMARK H PARENT 2 12 12 28 78 56 56 67
REMARK Flexibility Score: inf
ROOT
ATOM      1  C   UNL A   1      45.200  20.368  24.846  1.00  0.00     0.188 C 
ENDROOT
BRANCH   1   2
ATOM      2  O   UNL A   1      43.935  19.830  24.590  1.00  0.00    -0.376 OA
BRANCH   2   3
ATOM      3  C   UNL A   1      43.438  18.844  25.492  1.00  0.00     0.202 C 
BRANCH   3   4
ATOM      4  C   UNL A   1      42.259  19.180  26.462  1.00  0.00     0.261 C 
BRANCH   4   5
ATOM      5  O   UNL A   1      40.945  19.768  26.004  1.00  0.00    -0.459 OA
BRANCH   5   6
ATOM      6  C   UNL A   1      40.509  20.761  26.808  1.00  0.00     0.366 C 
ATOM      7  O   UNL A   1      40.772  20.596  28.002  1.00  0.00    -0.245 OA
BRANCH   6   8
ATOM      8  C   UNL A   1      39.666  22.056  26.446  1.00  0.00     0.314 C 
ATOM      9  C   UNL A   1      40.802  23.817  27.717  1.00  0.00     0.333 C 
ATOM     10  N   UNL A   1      40.026  23.495  26.514  1.00  0.00    -0.323 N 
ATOM     11  C   UNL A   1      38.674  24.307  26.502  1.00  0.00     0.284 C 
ATOM     12  H   UNL A   1      40.617  23.738  25.719  1.00  0.00     0.348 HD
ATOM     13  C   UNL A   1      37.222  23.763  25.768  1.00  0.00     0.181 C 
ATOM     14  C   UNL A   1      38.630  21.980  25.303  1.00  0.00     0.197 C 
ATOM     15  N   UNL A   1      37.113  22.275  25.690  1.00  0.00    -0.326 N 
BRANCH  15  16
ATOM     16  C   UNL A   1      35.596  21.432  25.758  1.00  0.00     0.254 C 
ATOM     17  O   UNL A   1      35.733  20.267  25.326  1.00  0.00    -0.269 OA
BRANCH  16  18
ATOM     18  C   UNL A   1      33.783  21.841  26.343  1.00  0.00     0.040 A 
ATOM     19  C   UNL A   1      32.427  21.433  26.004  1.00  0.00     0.016 A 
ATOM     20  C   UNL A   1      33.588  23.185  26.219  1.00  0.00     0.024 A 
ATOM     21  C   UNL A   1      31.282  22.237  25.386  1.00  0.00     0.027 A 
ATOM     22  C   UNL A   1      32.571  24.195  25.492  1.00  0.00     0.004 A 
ATOM     23  C   UNL A   1      31.352  23.635  25.237  1.00  0.00     0.046 A 
ATOM     24  C   UNL A   1      32.503  25.535  24.735  1.00  0.00    -0.009 A 
ATOM     25  N   UNL A   1      30.485  24.697  25.028  1.00  0.00    -0.358 N 
ATOM     26  C   UNL A   1      31.170  25.882  24.819  1.00  0.00     0.021 A 
ATOM     27  C   UNL A   1      33.505  26.508  24.099  1.00  0.00     0.107 C 
ATOM     28  H   UNL A   1      29.504  24.619  25.029  1.00  0.00     0.166 HD
ATOM     29  C   UNL A   1      30.568  27.262  24.634  1.00  0.00     0.065 C 
ATOM     30  S   UNL A   1      32.784  27.888  23.137  1.00  0.00    -0.157 SA
ATOM     31  C   UNL A   1      31.596  28.392  24.395  1.00  0.00     0.076 C 
ENDBRANCH  16  18
ENDBRANCH  15  16
ENDBRANCH   6   8
ENDBRANCH   5   6
ENDBRANCH   4   5
ENDBRANCH   3   4
ENDBRANCH   2   3
ENDBRANCH   1   2
BRANCH   1  32
ATOM     32  C   UNL A   1      45.325  21.866  25.093  1.00  0.00     0.188 C 
BRANCH  32  33
ATOM     33  O   UNL A   1      46.358  22.489  25.811  1.00  0.00    -0.376 OA
BRANCH  33  34
ATOM     34  C   UNL A   1      46.379  23.909  25.776  1.00  0.00     0.202 C 
BRANCH  34  35
ATOM     35  C   UNL A   1      46.070  24.798  27.027  1.00  0.00     0.261 C 
BRANCH  35  36
ATOM     36  O   UNL A   1      45.859  24.124  28.290  1.00  0.00    -0.460 OA
BRANCH  36  37
ATOM     37  C   UNL A   1      44.588  23.826  28.643  1.00  0.00     0.338 C 
ATOM     38  O   UNL A   1      43.882  22.984  28.087  1.00  0.00    -0.246 OA
BRANCH  37  39
ATOM     39  C   UNL A   1      44.320  24.332  30.034  1.00  0.00     0.060 A 
ATOM     40  C   UNL A   1      44.723  25.567  30.588  1.00  0.00     0.016 A 
ATOM     41  C   UNL A   1      43.985  23.335  30.917  1.00  0.00     0.016 A 
ATOM     42  C   UNL A   1      45.104  25.671  31.975  1.00  0.00     0.010 A 
ATOM     43  C   UNL A   1      44.383  23.465  32.244  1.00  0.00     0.010 A 
ATOM     44  C   UNL A   1      45.137  24.534  32.799  1.00  0.00    -0.014 A 
BRANCH  44  45
ATOM     45  C   UNL A   1      45.396  24.498  34.367  1.00  0.00     0.031 A 
ATOM     46  C   UNL A   1      47.178  24.217  33.991  1.00  0.00     0.074 A 
ATOM     47  C   UNL A   1      44.612  24.750  35.749  1.00  0.00     0.049 A 
ATOM     48  N   UNL A   1      47.908  23.109  34.020  1.00  0.00    -0.248 NA
ATOM     49  C   UNL A   1      48.028  25.323  33.440  1.00  0.00     0.031 C 
ATOM     50  C   UNL A   1      43.305  25.071  36.655  1.00  0.00     0.029 A 
ATOM     51  N   UNL A   1      45.227  24.857  37.029  1.00  0.00    -0.354 N 
ATOM     52  C   UNL A   1      49.255  23.434  33.700  1.00  0.00     0.074 A 
ATOM     53  C   UNL A   1      49.210  24.764  33.177  1.00  0.00     0.031 C 
ATOM     54  C   UNL A   1      43.663  25.671  37.952  1.00  0.00     0.029 A 
ATOM     55  C   UNL A   1      45.173  25.621  38.196  1.00  0.00     0.049 A 
ATOM     56  H   UNL A   1      45.920  24.164  37.120  1.00  0.00     0.167 HD
ATOM     57  C   UNL A   1      50.381  22.726  34.054  1.00  0.00     0.031 A 
ATOM     58  C   UNL A   1      46.282  25.774  39.250  1.00  0.00     0.031 A 
ATOM     59  C   UNL A   1      50.100  21.692  35.001  1.00  0.00     0.049 A 
ATOM     60  C   UNL A   1      47.828  24.716  39.727  1.00  0.00     0.074 A 
ATOM     61  C   UNL A   1      49.947  20.333  34.988  1.00  0.00     0.029 A 
ATOM     62  N   UNL A   1      50.118  22.123  36.312  1.00  0.00    -0.354 N 
ATOM     63  N   UNL A   1      47.932  23.366  40.028  1.00  0.00    -0.248 NA
ATOM     64  C   UNL A   1      49.178  25.063  39.151  1.00  0.00     0.031 C 
ATOM     65  C   UNL A   1      49.829  19.960  36.363  1.00  0.00     0.029 A 
ATOM     66  C   UNL A   1      49.679  21.137  37.144  1.00  0.00     0.049 A 
ATOM     67  H   UNL A   1      50.409  23.016  36.605  1.00  0.00     0.167 HD
ATOM     68  C   UNL A   1      48.898  22.686  39.111  1.00  0.00     0.074 A 
ATOM     69  C   UNL A   1      49.759  23.869  38.835  1.00  0.00     0.031 C 
ATOM     70  C   UNL A   1      48.803  21.433  38.335  1.00  0.00     0.031 A 
BRANCH  57  71
ATOM     71  C   UNL A   1      51.898  23.031  33.960  1.00  0.00    -0.014 A 
ATOM     72  C   UNL A   1      52.678  23.640  34.948  1.00  0.00     0.009 A 
ATOM     73  C   UNL A   1      52.636  22.407  32.909  1.00  0.00     0.009 A 
ATOM     74  C   UNL A   1      54.087  23.546  34.938  1.00  0.00     0.001 A 
ATOM     75  C   UNL A   1      54.031  22.272  32.917  1.00  0.00     0.001 A 
ATOM     76  C   UNL A   1      54.760  22.830  33.951  1.00  0.00     0.000 A 
ENDBRANCH  57  71
BRANCH  58  77
ATOM     77  C   UNL A   1      46.529  27.161  39.815  1.00  0.00    -0.014 A 
ATOM     78  C   UNL A   1      46.263  27.409  41.169  1.00  0.00     0.009 A 
ATOM     79  C   UNL A   1      46.716  28.281  38.981  1.00  0.00     0.009 A 
ATOM     80  C   UNL A   1      46.121  28.711  41.662  1.00  0.00     0.001 A 
ATOM     81  C   UNL A   1      46.592  29.588  39.477  1.00  0.00     0.001 A 
ATOM     82  C   UNL A   1      46.270  29.802  40.813  1.00  0.00     0.000 A 
ENDBRANCH  58  77
BRANCH  70  83
ATOM     83  C   UNL A   1      47.637  20.250  38.197  1.00  0.00    -0.014 A 
ATOM     84  C   UNL A   1      46.609  20.141  37.264  1.00  0.00     0.009 A 
ATOM     85  C   UNL A   1      47.433  19.327  39.304  1.00  0.00     0.009 A 
ATOM     86  C   UNL A   1      45.653  19.061  37.313  1.00  0.00     0.001 A 
ATOM     87  C   UNL A   1      46.525  18.238  39.349  1.00  0.00     0.001 A 
ATOM     88  C   UNL A   1      45.668  18.063  38.296  1.00  0.00     0.000 A 
ENDBRANCH  70  83
ENDBRANCH  44  45
ENDBRANCH  37  39
ENDBRANCH  36  37
ENDBRANCH  35  36
ENDBRANCH  34  35
ENDBRANCH  33  34
ENDBRANCH  32  33
ENDBRANCH   1  32
TORSDOF 19
ENDMDL
MODEL 2
REMARK VINA RESULT:     -10.9      6.155     11.668
REMARK SMILES C[N@@H+]1CCN(C(=O)c2ccc3[nH]c4c(c3c2)CSCC4)C[C@H]1C(=O)OCCOCCOCCOC(=O)c1ccc(-c2c3nc(c(-c4ccccc4)c4ccc([nH]4)c(-c4ccccc4)c4nc(c(-c5ccccc5)c5ccc2[nH]5)C=C4)C=C3)cc1
REMARK SMILES IDX 29 1 28 2 27 3 26 4 25 5 23 6 24 7 22 8 1 9 2 10 3 11 4 13
REMARK SMILES IDX 21 14 5 15 6 16 7 17 8 18 9 19 16 20 10 21 15 22 11 23 14 24
REMARK SMILES IDX 12 25 13 26 17 27 20 29 18 30 19 31 30 32 31 33 32 34 33 35
REMARK SMILES IDX 34 36 35 37 36 38 37 39 38 40 84 41 39 42 83 43 40 44 41 45
REMARK SMILES IDX 42 46 77 47 43 48 82 49 76 50 78 51 44 52 81 53 75 54 74 55
REMARK SMILES IDX 45 57 67 58 52 59 66 60 53 61 56 62 65 63 79 64 54 65 55 66
REMARK SMILES IDX 64 68 80 69 57 70 46 71 47 72 51 73 48 74 50 75 49 76 68 77
REMARK SMILES IDX 69 78 73 79 70 80 72 81 71 82 58 83 59 84 63 85 60 86 62 87
REMARK SMILES IDX 61 88
REMARK H PARENT 2 12 12 28 78 56 56 67
REMARK Flexibility Score: inf
ROOT
ATOM      1  C   UNL A   1      30.310  32.258  25.096  1.00  0.00     0.188 C 
ENDROOT
BRANCH   1   2
ATOM      2  O   UNL A   1      29.901  31.051  24.523  1.00  0.00    -0.376 OA
BRANCH   2   3
ATOM      3  C   UNL A   1      28.906  31.105  23.502  1.00  0.00     0.202 C 
BRANCH   3   4
ATOM      4  C   UNL A   1      28.177  29.802  23.037  1.00  0.00     0.261 C 
BRANCH   4   5
ATOM      5  O   UNL A   1      28.888  28.631  22.404  1.00  0.00    -0.459 OA
BRANCH   5   6
ATOM      6  C   UNL A   1      29.516  27.849  23.309  1.00  0.00     0.366 C 
ATOM      7  O   UNL A   1      28.810  26.953  23.778  1.00  0.00    -0.245 OA
BRANCH   6   8
ATOM      8  C   UNL A   1      30.990  27.960  23.888  1.00  0.00     0.314 C 
ATOM      9  C   UNL A   1      32.124  29.357  22.224  1.00  0.00     0.333 C 
ATOM     10  N   UNL A   1      32.056  28.961  23.636  1.00  0.00    -0.323 N 
ATOM     11  C   UNL A   1      33.417  28.306  24.087  1.00  0.00     0.284 C 
ATOM     12  H   UNL A   1      31.856  29.813  24.162  1.00  0.00     0.348 HD
ATOM     13  C   UNL A   1      33.561  27.108  25.306  1.00  0.00     0.181 C 
ATOM     14  C   UNL A   1      31.269  27.464  25.325  1.00  0.00     0.197 C 
ATOM     15  N   UNL A   1      32.327  26.284  25.481  1.00  0.00    -0.326 N 
BRANCH  15  16
ATOM     16  C   UNL A   1      32.363  24.622  25.987  1.00  0.00     0.254 C 
ATOM     17  O   UNL A   1      31.218  24.125  25.906  1.00  0.00    -0.269 OA
BRANCH  16  18
ATOM     18  C   UNL A   1      33.717  23.371  26.618  1.00  0.00     0.040 A 
ATOM     19  C   UNL A   1      35.153  23.180  26.475  1.00  0.00     0.016 A 
ATOM     20  C   UNL A   1      33.344  22.114  26.242  1.00  0.00     0.024 A 
ATOM     21  C   UNL A   1      35.934  22.052  25.800  1.00  0.00     0.027 A 
ATOM     22  C   UNL A   1      33.941  20.876  25.409  1.00  0.00     0.004 A 
ATOM     23  C   UNL A   1      35.306  20.868  25.368  1.00  0.00     0.046 A 
ATOM     24  C   UNL A   1      33.557  19.772  24.406  1.00  0.00    -0.009 A 
ATOM     25  N   UNL A   1      35.666  19.575  25.019  1.00  0.00    -0.358 N 
ATOM     26  C   UNL A   1      34.588  18.862  24.523  1.00  0.00     0.021 A 
ATOM     27  C   UNL A   1      32.353  19.449  23.511  1.00  0.00     0.107 C 
ATOM     28  H   UNL A   1      36.575  19.210  25.112  1.00  0.00     0.166 HD
ATOM     29  C   UNL A   1      34.573  17.402  24.112  1.00  0.00     0.065 C 
ATOM     30  S   UNL A   1      32.567  18.050  22.351  1.00  0.00    -0.157 SA
ATOM     31  C   UNL A   1      33.217  16.894  23.571  1.00  0.00     0.076 C 
ENDBRANCH  16  18
ENDBRANCH  15  16
ENDBRANCH   6   8
ENDBRANCH   5   6
ENDBRANCH   4   5
ENDBRANCH   3   4
ENDBRANCH   2   3
ENDBRANCH   1   2
BRANCH   1  32
ATOM     32  C   UNL A   1      31.115  32.221  26.389  1.00  0.00     0.188 C 
BRANCH  32  33
ATOM     33  O   UNL A   1      31.802  33.308  26.952  1.00  0.00    -0.376 OA
BRANCH  33  34
ATOM     34  C   UNL A   1      32.992  32.999  27.664  1.00  0.00     0.202 C 
BRANCH  34  35
ATOM     35  C   UNL A   1      33.745  31.634  27.513  1.00  0.00     0.261 C 
BRANCH  35  36
ATOM     36  O   UNL A   1      34.552  31.189  28.628  1.00  0.00    -0.460 OA
BRANCH  36  37
ATOM     37  C   UNL A   1      35.613  31.950  28.983  1.00  0.00     0.338 C 
ATOM     38  O   UNL A   1      35.564  33.156  29.226  1.00  0.00    -0.246 OA
BRANCH  37  39
ATOM     39  C   UNL A   1      36.733  31.063  29.454  1.00  0.00     0.060 A 
ATOM     40  C   UNL A   1      38.013  31.463  29.897  1.00  0.00     0.016 A 
ATOM     41  C   UNL A   1      36.596  29.757  29.050  1.00  0.00     0.016 A 
ATOM     42  C   UNL A   1      39.181  30.667  29.612  1.00  0.00     0.010 A 
ATOM     43  C   UNL A   1      37.746  29.027  28.770  1.00  0.00     0.010 A 
ATOM     44  C   UNL A   1      39.084  29.500  28.836  1.00  0.00    -0.014 A 
BRANCH  44  45
ATOM     45  C   UNL A   1      40.238  28.446  28.550  1.00  0.00     0.031 A 
ATOM     46  C   UNL A   1      40.412  28.251  30.374  1.00  0.00     0.074 A 
ATOM     47  C   UNL A   1      40.922  27.674  27.314  1.00  0.00     0.049 A 
ATOM     48  N   UNL A   1      41.308  28.744  31.219  1.00  0.00    -0.248 NA
ATOM     49  C   UNL A   1      39.363  27.535  31.171  1.00  0.00     0.031 C 
ATOM     50  C   UNL A   1      41.154  27.339  25.744  1.00  0.00     0.029 A 
ATOM     51  N   UNL A   1      41.821  26.577  27.433  1.00  0.00    -0.354 N 
ATOM     52  C   UNL A   1      41.037  28.249  32.524  1.00  0.00     0.074 A 
ATOM     53  C   UNL A   1      39.730  27.674  32.445  1.00  0.00     0.031 C 
ATOM     54  C   UNL A   1      41.684  25.980  25.539  1.00  0.00     0.029 A 
ATOM     55  C   UNL A   1      42.091  25.331  26.864  1.00  0.00     0.049 A 
ATOM     56  H   UNL A   1      42.465  26.756  28.155  1.00  0.00     0.167 HD
ATOM     57  C   UNL A   1      41.932  28.120  33.561  1.00  0.00     0.031 A 
ATOM     58  C   UNL A   1      42.867  24.171  27.509  1.00  0.00     0.031 A 
ATOM     59  C   UNL A   1      43.283  28.337  33.146  1.00  0.00     0.049 A 
ATOM     60  C   UNL A   1      44.150  24.060  28.951  1.00  0.00     0.074 A 
ATOM     61  C   UNL A   1      44.210  29.340  33.226  1.00  0.00     0.029 A 
ATOM     62  N   UNL A   1      43.898  27.206  32.649  1.00  0.00    -0.354 N 
ATOM     63  N   UNL A   1      45.325  24.768  29.162  1.00  0.00    -0.248 NA
ATOM     64  C   UNL A   1      43.685  23.711  30.341  1.00  0.00     0.031 C 
ATOM     65  C   UNL A   1      45.416  28.772  32.711  1.00  0.00     0.029 A 
ATOM     66  C   UNL A   1      45.113  27.517  32.117  1.00  0.00     0.049 A 
ATOM     67  H   UNL A   1      43.512  26.301  32.675  1.00  0.00     0.167 HD
ATOM     68  C   UNL A   1      45.292  25.478  30.477  1.00  0.00     0.074 A 
ATOM     69  C   UNL A   1      44.382  24.532  31.179  1.00  0.00     0.031 C 
ATOM     70  C   UNL A   1      45.620  26.869  30.854  1.00  0.00     0.031 A 
BRANCH  57  71
ATOM     71  C   UNL A   1      41.854  27.436  34.950  1.00  0.00    -0.014 A 
ATOM     72  C   UNL A   1      41.207  26.231  35.238  1.00  0.00     0.009 A 
ATOM     73  C   UNL A   1      42.732  27.908  35.973  1.00  0.00     0.009 A 
ATOM     74  C   UNL A   1      41.491  25.504  36.415  1.00  0.00     0.001 A 
ATOM     75  C   UNL A   1      43.052  27.170  37.120  1.00  0.00     0.001 A 
ATOM     76  C   UNL A   1      42.440  25.949  37.332  1.00  0.00     0.000 A 
ENDBRANCH  57  71
BRANCH  58  77
ATOM     77  C   UNL A   1      42.319  22.768  27.323  1.00  0.00    -0.014 A 
ATOM     78  C   UNL A   1      43.000  21.869  26.492  1.00  0.00     0.009 A 
ATOM     79  C   UNL A   1      41.003  22.429  27.697  1.00  0.00     0.009 A 
ATOM     80  C   UNL A   1      42.381  20.716  25.997  1.00  0.00     0.001 A 
ATOM     81  C   UNL A   1      40.386  21.264  27.216  1.00  0.00     0.001 A 
ATOM     82  C   UNL A   1      41.067  20.420  26.345  1.00  0.00     0.000 A 
ENDBRANCH  58  77
BRANCH  70  83
ATOM     83  C   UNL A   1      46.200  28.184  30.010  1.00  0.00    -0.014 A 
ATOM     84  C   UNL A   1      45.514  29.051  29.164  1.00  0.00     0.009 A 
ATOM     85  C   UNL A   1      47.639  28.357  29.875  1.00  0.00     0.009 A 
ATOM     86  C   UNL A   1      46.185  30.127  28.475  1.00  0.00     0.001 A 
ATOM     87  C   UNL A   1      48.312  29.430  29.236  1.00  0.00     0.001 A 
ATOM     88  C   UNL A   1      47.560  30.372  28.584  1.00  0.00     0.000 A 
ENDBRANCH  70  83
ENDBRANCH  44  45
ENDBRANCH  37  39
ENDBRANCH  36  37
ENDBRANCH  35  36
ENDBRANCH  34  35
ENDBRANCH  33  34
ENDBRANCH  32  33
ENDBRANCH   1  32
TORSDOF 19
ENDMDL
MODEL 3
REMARK VINA RESULT:     -10.7      6.517     12.034
REMARK SMILES C[N@@H+]1CCN(C(=O)c2ccc3[nH]c4c(c3c2)CSCC4)C[C@H]1C(=O)OCCOCCOCCOC(=O)c1ccc(-c2c3nc(c(-c4ccccc4)c4ccc([nH]4)c(-c4ccccc4)c4nc(c(-c5ccccc5)c5ccc2[nH]5)C=C4)C=C3)cc1
REMARK SMILES IDX 29 1 28 2 27 3 26 4 25 5 23 6 24 7 22 8 1 9 2 10 3 11 4 13
REMARK SMILES IDX 21 14 5 15 6 16 7 17 8 18 9 19 16 20 10 21 15 22 11 23 14 24
REMARK SMILES IDX 12 25 13 26 17 27 20 29 18 30 19 31 30 32 31 33 32 34 33 35
REMARK SMILES IDX 34 36 35 37 36 38 37 39 38 40 84 41 39 42 83 43 40 44 41 45
REMARK SMILES IDX 42 46 77 47 43 48 82 49 76 50 78 51 44 52 81 53 75 54 74 55
REMARK SMILES IDX 45 57 67 58 52 59 66 60 53 61 56 62 65 63 79 64 54 65 55 66
REMARK SMILES IDX 64 68 80 69 57 70 46 71 47 72 51 73 48 74 50 75 49 76 68 77
REMARK SMILES IDX 69 78 73 79 70 80 72 81 71 82 58 83 59 84 63 85 60 86 62 87
REMARK SMILES IDX 61 88
REMARK H PARENT 2 12 12 28 78 56 56 67
REMARK Flexibility Score: inf
ROOT
ATOM      1  C   UNL A   1      30.174  31.375  24.803  1.00  0.00     0.188 C 
ENDROOT
BRANCH   1   2
ATOM      2  O   UNL A   1      30.293  30.176  24.094  1.00  0.00    -0.376 OA
BRANCH   2   3
ATOM      3  C   UNL A   1      29.245  29.832  23.191  1.00  0.00     0.202 C 
BRANCH   3   4
ATOM      4  C   UNL A   1      29.161  28.392  22.587  1.00  0.00     0.261 C 
BRANCH   4   5
ATOM      5  O   UNL A   1      30.260  27.771  21.759  1.00  0.00    -0.459 OA
BRANCH   5   6
ATOM      6  C   UNL A   1      31.114  27.030  22.497  1.00  0.00     0.366 C 
ATOM      7  O   UNL A   1      31.165  25.842  22.169  1.00  0.00    -0.245 OA
BRANCH   6   8
ATOM      8  C   UNL A   1      32.000  27.454  23.744  1.00  0.00     0.314 C 
ATOM      9  C   UNL A   1      33.489  29.156  22.799  1.00  0.00     0.333 C 
ATOM     10  N   UNL A   1      32.784  28.688  23.999  1.00  0.00    -0.323 N 
ATOM     11  C   UNL A   1      33.816  28.348  25.142  1.00  0.00     0.284 C 
ATOM     12  H   UNL A   1      32.155  29.443  24.273  1.00  0.00     0.348 HD
ATOM     13  C   UNL A   1      33.566  27.160  26.353  1.00  0.00     0.181 C 
ATOM     14  C   UNL A   1      31.591  26.969  25.153  1.00  0.00     0.197 C 
ATOM     15  N   UNL A   1      32.644  26.062  25.931  1.00  0.00    -0.326 N 
BRANCH  15  16
ATOM     16  C   UNL A   1      32.782  24.432  26.518  1.00  0.00     0.254 C 
ATOM     17  O   UNL A   1      31.646  23.963  26.747  1.00  0.00    -0.269 OA
BRANCH  16  18
ATOM     18  C   UNL A   1      34.233  23.184  26.880  1.00  0.00     0.040 A 
ATOM     19  C   UNL A   1      35.624  23.011  26.487  1.00  0.00     0.016 A 
ATOM     20  C   UNL A   1      33.810  21.931  26.548  1.00  0.00     0.024 A 
ATOM     21  C   UNL A   1      36.285  21.904  25.665  1.00  0.00     0.027 A 
ATOM     22  C   UNL A   1      34.263  20.715  25.600  1.00  0.00     0.004 A 
ATOM     23  C   UNL A   1      35.600  20.722  25.324  1.00  0.00     0.046 A 
ATOM     24  C   UNL A   1      33.719  19.626  24.656  1.00  0.00    -0.009 A 
ATOM     25  N   UNL A   1      35.903  19.440  24.891  1.00  0.00    -0.358 N 
ATOM     26  C   UNL A   1      34.761  18.724  24.574  1.00  0.00     0.021 A 
ATOM     27  C   UNL A   1      32.381  19.307  23.976  1.00  0.00     0.107 C 
ATOM     28  H   UNL A   1      36.817  19.082  24.819  1.00  0.00     0.166 HD
ATOM     29  C   UNL A   1      34.686  17.272  24.142  1.00  0.00     0.065 C 
ATOM     30  S   UNL A   1      32.402  17.933  22.768  1.00  0.00    -0.157 SA
ATOM     31  C   UNL A   1      33.260  16.760  23.834  1.00  0.00     0.076 C 
ENDBRANCH  16  18
ENDBRANCH  15  16
ENDBRANCH   6   8
ENDBRANCH   5   6
ENDBRANCH   4   5
ENDBRANCH   3   4
ENDBRANCH   2   3
ENDBRANCH   1   2
BRANCH   1  32
ATOM     32  C   UNL A   1      31.019  31.574  26.055  1.00  0.00     0.188 C 
BRANCH  32  33
ATOM     33  O   UNL A   1      32.329  31.102  26.237  1.00  0.00    -0.376 OA
BRANCH  33  34
ATOM     34  C   UNL A   1      32.896  31.305  27.523  1.00  0.00     0.202 C 
BRANCH  34  35
ATOM     35  C   UNL A   1      33.592  32.642  27.947  1.00  0.00     0.261 C 
BRANCH  35  36
ATOM     36  O   UNL A   1      34.608  32.570  28.975  1.00  0.00    -0.460 OA
BRANCH  36  37
ATOM     37  C   UNL A   1      35.733  33.300  28.803  1.00  0.00     0.338 C 
ATOM     38  O   UNL A   1      35.803  34.524  28.920  1.00  0.00    -0.246 OA
BRANCH  37  39
ATOM     39  C   UNL A   1      36.935  32.397  28.881  1.00  0.00     0.060 A 
ATOM     40  C   UNL A   1      36.942  30.996  29.051  1.00  0.00     0.016 A 
ATOM     41  C   UNL A   1      38.095  33.067  29.186  1.00  0.00     0.016 A 
ATOM     42  C   UNL A   1      37.969  30.346  29.827  1.00  0.00     0.010 A 
ATOM     43  C   UNL A   1      39.055  32.411  29.949  1.00  0.00     0.010 A 
ATOM     44  C   UNL A   1      38.959  31.098  30.483  1.00  0.00    -0.014 A 
BRANCH  44  45
ATOM     45  C   UNL A   1      40.229  30.536  31.255  1.00  0.00     0.031 A 
ATOM     46  C   UNL A   1      39.650  31.469  32.735  1.00  0.00     0.074 A 
ATOM     47  C   UNL A   1      41.439  29.497  31.041  1.00  0.00     0.049 A 
ATOM     48  N   UNL A   1      40.060  32.621  33.252  1.00  0.00    -0.248 NA
ATOM     49  C   UNL A   1      38.445  31.015  33.503  1.00  0.00     0.031 C 
ATOM     50  C   UNL A   1      42.334  28.445  30.190  1.00  0.00     0.029 A 
ATOM     51  N   UNL A   1      42.316  29.042  32.067  1.00  0.00    -0.354 N 
ATOM     52  C   UNL A   1      39.324  32.883  34.440  1.00  0.00     0.074 A 
ATOM     53  C   UNL A   1      38.234  31.958  34.422  1.00  0.00     0.031 C 
ATOM     54  C   UNL A   1      43.038  27.486  31.058  1.00  0.00     0.029 A 
ATOM     55  C   UNL A   1      42.924  27.876  32.534  1.00  0.00     0.049 A 
ATOM     56  H   UNL A   1      42.580  29.802  32.634  1.00  0.00     0.167 HD
ATOM     57  C   UNL A   1      39.717  33.672  35.497  1.00  0.00     0.031 A 
ATOM     58  C   UNL A   1      43.478  27.627  33.947  1.00  0.00     0.031 A 
ATOM     59  C   UNL A   1      41.089  34.066  35.403  1.00  0.00     0.049 A 
ATOM     60  C   UNL A   1      44.052  28.788  35.381  1.00  0.00     0.074 A 
ATOM     61  C   UNL A   1      41.790  35.185  35.049  1.00  0.00     0.029 A 
ATOM     62  N   UNL A   1      41.967  33.144  35.936  1.00  0.00    -0.354 N 
ATOM     63  N   UNL A   1      44.953  29.843  35.375  1.00  0.00    -0.248 NA
ATOM     64  C   UNL A   1      43.090  29.142  36.487  1.00  0.00     0.031 C 
ATOM     65  C   UNL A   1      43.153  34.882  35.354  1.00  0.00     0.029 A 
ATOM     66  C   UNL A   1      43.254  33.498  35.663  1.00  0.00     0.049 A 
ATOM     67  H   UNL A   1      41.700  32.343  36.442  1.00  0.00     0.167 HD
ATOM     68  C   UNL A   1      44.305  31.103  35.851  1.00  0.00     0.074 A 
ATOM     69  C   UNL A   1      43.289  30.469  36.735  1.00  0.00     0.031 C 
ATOM     70  C   UNL A   1      44.303  32.475  35.305  1.00  0.00     0.031 A 
BRANCH  57  71
ATOM     71  C   UNL A   1      39.142  33.905  36.917  1.00  0.00    -0.014 A 
ATOM     72  C   UNL A   1      38.773  32.912  37.829  1.00  0.00     0.009 A 
ATOM     73  C   UNL A   1      39.241  35.220  37.466  1.00  0.00     0.009 A 
ATOM     74  C   UNL A   1      38.614  33.194  39.203  1.00  0.00     0.001 A 
ATOM     75  C   UNL A   1      39.128  35.498  38.834  1.00  0.00     0.001 A 
ATOM     76  C   UNL A   1      38.832  34.472  39.712  1.00  0.00     0.000 A 
ENDBRANCH  57  71
BRANCH  58  77
ATOM     77  C   UNL A   1      43.203  26.275  34.581  1.00  0.00    -0.014 A 
ATOM     78  C   UNL A   1      44.004  25.179  34.235  1.00  0.00     0.009 A 
ATOM     79  C   UNL A   1      41.999  26.004  35.259  1.00  0.00     0.009 A 
ATOM     80  C   UNL A   1      43.596  23.864  34.490  1.00  0.00     0.001 A 
ATOM     81  C   UNL A   1      41.596  24.687  35.532  1.00  0.00     0.001 A 
ATOM     82  C   UNL A   1      42.384  23.616  35.124  1.00  0.00     0.000 A 
ENDBRANCH  58  77
BRANCH  70  83
ATOM     83  C   UNL A   1      45.042  33.195  33.996  1.00  0.00    -0.014 A 
ATOM     84  C   UNL A   1      44.598  33.278  32.678  1.00  0.00     0.009 A 
ATOM     85  C   UNL A   1      46.444  33.573  34.096  1.00  0.00     0.009 A 
ATOM     86  C   UNL A   1      45.390  33.911  31.651  1.00  0.00     0.001 A 
ATOM     87  C   UNL A   1      47.222  34.230  33.109  1.00  0.00     0.001 A 
ATOM     88  C   UNL A   1      46.654  34.467  31.885  1.00  0.00     0.000 A 
ENDBRANCH  70  83
ENDBRANCH  44  45
ENDBRANCH  37  39
ENDBRANCH  36  37
ENDBRANCH  35  36
ENDBRANCH  34  35
ENDBRANCH  33  34
ENDBRANCH  32  33
ENDBRANCH   1  32
TORSDOF 19
ENDMDL
