MODEL 1
REMARK VINA RESULT:     -10.3      0.000      0.000
REMARK SMILES C[C@H](Cc1cccc2c1OC(C)(C)C2)C(=O)OCCOCCOCCOC(=O)c1ccc(-c2c3nc(c(-c4ccccc4)c4ccc([nH]4)c(-c4ccccc4)c4nc(c(-c5ccccc5)c5ccc2[nH]5)C=C4)C=C3)cc1
REMARK SMILES IDX 21 1 20 2 19 3 18 4 17 5 15 6 16 7 2 8 1 9 3 10 4 11 5 12
REMARK SMILES IDX 9 13 6 14 8 15 10 16 7 17 14 18 11 19 12 20 13 21 22 22
REMARK SMILES IDX 23 23 24 24 25 25 26 26 27 27 28 28 29 29 30 30 76 31 31 32
REMARK SMILES IDX 75 33 32 34 33 35 34 36 69 37 35 38 74 39 68 40 70 41 36 42
REMARK SMILES IDX 73 43 67 44 66 45 37 47 59 48 44 49 58 50 45 51 48 52 57 53
REMARK SMILES IDX 71 54 46 55 47 56 56 58 72 59 49 60 38 61 39 62 43 63 40 64
REMARK SMILES IDX 42 65 41 66 60 67 61 68 65 69 62 70 64 71 63 72 50 73 51 74
REMARK SMILES IDX 55 75 52 76 54 77 53 78
REMARK H PARENT 70 46 48 57
REMARK Flexibility Score: inf
ROOT
ATOM      1  C   UNL A   1      40.024  21.740  26.447  1.00  0.00     0.188 C 
ENDROOT
BRANCH   1   2
ATOM      2  O   UNL A   1      38.825  21.902  25.694  1.00  0.00    -0.376 OA
BRANCH   2   3
ATOM      3  C   UNL A   1      37.887  22.897  26.094  1.00  0.00     0.202 C 
BRANCH   3   4
ATOM      4  C   UNL A   1      36.835  23.360  25.074  1.00  0.00     0.261 C 
BRANCH   4   5
ATOM      5  O   UNL A   1      36.177  22.303  24.340  1.00  0.00    -0.463 OA
BRANCH   5   6
ATOM      6  C   UNL A   1      35.555  21.345  25.060  1.00  0.00     0.309 C 
ATOM      7  O   UNL A   1      36.034  20.228  25.248  1.00  0.00    -0.252 OA
BRANCH   6   8
ATOM      8  C   UNL A   1      34.197  21.729  25.672  1.00  0.00     0.100 C 
ATOM      9  C   UNL A   1      34.359  21.706  27.196  1.00  0.00     0.020 C 
BRANCH   8  10
ATOM     10  C   UNL A   1      32.827  21.126  25.251  1.00  0.00     0.054 C 
BRANCH  10  11
ATOM     11  C   UNL A   1      32.642  20.232  24.050  1.00  0.00    -0.005 A 
ATOM     12  C   UNL A   1      32.201  20.713  22.811  1.00  0.00     0.007 A 
ATOM     13  C   UNL A   1      32.941  18.865  24.119  1.00  0.00     0.126 A 
ATOM     14  C   UNL A   1      31.975  19.846  21.731  1.00  0.00     0.001 A 
ATOM     15  C   UNL A   1      32.756  18.016  23.040  1.00  0.00    -0.002 A 
ATOM     16  O   UNL A   1      33.437  18.217  25.230  1.00  0.00    -0.487 OA
ATOM     17  C   UNL A   1      32.247  18.484  21.842  1.00  0.00     0.008 A 
ATOM     18  C   UNL A   1      33.183  16.638  23.373  1.00  0.00     0.087 C 
ATOM     19  C   UNL A   1      33.620  16.818  24.842  1.00  0.00     0.108 C 
ATOM     20  C   UNL A   1      32.789  15.934  25.778  1.00  0.00     0.057 C 
ATOM     21  C   UNL A   1      35.096  16.450  25.027  1.00  0.00     0.057 C 
ENDBRANCH  10  11
ENDBRANCH   8  10
ENDBRANCH   6   8
ENDBRANCH   5   6
ENDBRANCH   4   5
ENDBRANCH   3   4
ENDBRANCH   2   3
ENDBRANCH   1   2
BRANCH   1  22
ATOM     22  C   UNL A   1      40.697  20.359  26.496  1.00  0.00     0.188 C 
BRANCH  22  23
ATOM     23  O   UNL A   1      41.811  20.243  25.639  1.00  0.00    -0.376 OA
BRANCH  23  24
ATOM     24  C   UNL A   1      43.028  20.799  26.086  1.00  0.00     0.202 C 
BRANCH  24  25
ATOM     25  C   UNL A   1      43.851  21.557  25.037  1.00  0.00     0.261 C 
BRANCH  25  26
ATOM     26  O   UNL A   1      43.362  22.863  24.675  1.00  0.00    -0.460 OA
BRANCH  26  27
ATOM     27  C   UNL A   1      44.177  23.918  24.899  1.00  0.00     0.338 C 
ATOM     28  O   UNL A   1      45.213  24.185  24.308  1.00  0.00    -0.246 OA
BRANCH  27  29
ATOM     29  C   UNL A   1      43.503  24.828  25.854  1.00  0.00     0.060 A 
ATOM     30  C   UNL A   1      43.971  26.143  25.993  1.00  0.00     0.016 A 
ATOM     31  C   UNL A   1      42.410  24.391  26.606  1.00  0.00     0.016 A 
ATOM     32  C   UNL A   1      43.364  27.013  26.903  1.00  0.00     0.010 A 
ATOM     33  C   UNL A   1      41.818  25.257  27.532  1.00  0.00     0.010 A 
ATOM     34  C   UNL A   1      42.308  26.565  27.708  1.00  0.00    -0.014 A 
BRANCH  34  35
ATOM     35  C   UNL A   1      41.824  27.402  28.838  1.00  0.00     0.031 A 
ATOM     36  C   UNL A   1      42.550  27.331  30.156  1.00  0.00     0.074 A 
ATOM     37  C   UNL A   1      40.776  28.236  28.698  1.00  0.00     0.049 A 
ATOM     38  N   UNL A   1      42.289  27.945  31.285  1.00  0.00    -0.248 NA
ATOM     39  C   UNL A   1      43.729  26.452  30.209  1.00  0.00     0.031 C 
ATOM     40  C   UNL A   1      40.008  28.436  27.471  1.00  0.00     0.029 A 
ATOM     41  N   UNL A   1      40.175  29.069  29.611  1.00  0.00    -0.354 N 
ATOM     42  C   UNL A   1      43.268  27.525  32.177  1.00  0.00     0.074 A 
ATOM     43  C   UNL A   1      44.106  26.578  31.474  1.00  0.00     0.031 C 
ATOM     44  C   UNL A   1      39.031  29.329  27.710  1.00  0.00     0.029 A 
ATOM     45  C   UNL A   1      39.083  29.738  29.113  1.00  0.00     0.049 A 
ATOM     46  H   UNL A   1      40.497  29.177  30.535  1.00  0.00     0.167 HD
ATOM     47  C   UNL A   1      43.461  27.899  33.465  1.00  0.00     0.031 A 
ATOM     48  C   UNL A   1      38.212  30.566  29.724  1.00  0.00     0.031 A 
ATOM     49  C   UNL A   1      42.621  28.824  34.178  1.00  0.00     0.049 A 
ATOM     50  C   UNL A   1      38.398  30.894  31.185  1.00  0.00     0.074 A 
ATOM     51  C   UNL A   1      42.742  29.264  35.486  1.00  0.00     0.029 A 
ATOM     52  N   UNL A   1      41.503  29.447  33.650  1.00  0.00    -0.354 N 
ATOM     53  N   UNL A   1      39.343  30.512  32.008  1.00  0.00    -0.248 NA
ATOM     54  C   UNL A   1      37.397  31.783  31.795  1.00  0.00     0.031 C 
ATOM     55  C   UNL A   1      41.661  30.106  35.766  1.00  0.00     0.029 A 
ATOM     56  C   UNL A   1      40.909  30.247  34.613  1.00  0.00     0.049 A 
ATOM     57  H   UNL A   1      41.178  29.337  32.727  1.00  0.00     0.167 HD
ATOM     58  C   UNL A   1      39.067  31.136  33.220  1.00  0.00     0.074 A 
ATOM     59  C   UNL A   1      37.885  31.945  33.016  1.00  0.00     0.031 C 
ATOM     60  C   UNL A   1      39.730  31.046  34.400  1.00  0.00     0.031 A 
BRANCH  47  61
ATOM     61  C   UNL A   1      44.621  27.287  34.201  1.00  0.00    -0.014 A 
ATOM     62  C   UNL A   1      45.877  27.914  34.231  1.00  0.00     0.009 A 
ATOM     63  C   UNL A   1      44.440  26.097  34.924  1.00  0.00     0.009 A 
ATOM     64  C   UNL A   1      46.932  27.350  34.951  1.00  0.00     0.001 A 
ATOM     65  C   UNL A   1      45.488  25.552  35.668  1.00  0.00     0.001 A 
ATOM     66  C   UNL A   1      46.735  26.175  35.675  1.00  0.00     0.000 A 
ENDBRANCH  47  61
BRANCH  48  67
ATOM     67  C   UNL A   1      37.049  31.125  28.979  1.00  0.00    -0.014 A 
ATOM     68  C   UNL A   1      37.005  32.483  28.623  1.00  0.00     0.009 A 
ATOM     69  C   UNL A   1      35.944  30.313  28.679  1.00  0.00     0.009 A 
ATOM     70  C   UNL A   1      35.864  33.022  28.023  1.00  0.00     0.001 A 
ATOM     71  C   UNL A   1      34.819  30.847  28.045  1.00  0.00     0.001 A 
ATOM     72  C   UNL A   1      34.775  32.204  27.732  1.00  0.00     0.000 A 
ENDBRANCH  48  67
BRANCH  60  73
ATOM     73  C   UNL A   1      39.215  31.876  35.547  1.00  0.00    -0.014 A 
ATOM     74  C   UNL A   1      38.255  31.377  36.441  1.00  0.00     0.009 A 
ATOM     75  C   UNL A   1      39.710  33.175  35.741  1.00  0.00     0.009 A 
ATOM     76  C   UNL A   1      37.763  32.180  37.473  1.00  0.00     0.001 A 
ATOM     77  C   UNL A   1      39.245  33.963  36.796  1.00  0.00     0.001 A 
ATOM     78  C   UNL A   1      38.260  33.471  37.651  1.00  0.00     0.000 A 
ENDBRANCH  60  73
ENDBRANCH  34  35
ENDBRANCH  27  29
ENDBRANCH  26  27
ENDBRANCH  25  26
ENDBRANCH  24  25
ENDBRANCH  23  24
ENDBRANCH  22  23
ENDBRANCH   1  22
TORSDOF 19
ENDMDL
MODEL 2
REMARK VINA RESULT:     -10.0      0.634      5.903
REMARK SMILES C[C@H](Cc1cccc2c1OC(C)(C)C2)C(=O)OCCOCCOCCOC(=O)c1ccc(-c2c3nc(c(-c4ccccc4)c4ccc([nH]4)c(-c4ccccc4)c4nc(c(-c5ccccc5)c5ccc2[nH]5)C=C4)C=C3)cc1
REMARK SMILES IDX 21 1 20 2 19 3 18 4 17 5 15 6 16 7 2 8 1 9 3 10 4 11 5 12
REMARK SMILES IDX 9 13 6 14 8 15 10 16 7 17 14 18 11 19 12 20 13 21 22 22
REMARK SMILES IDX 23 23 24 24 25 25 26 26 27 27 28 28 29 29 30 30 76 31 31 32
REMARK SMILES IDX 75 33 32 34 33 35 34 36 69 37 35 38 74 39 68 40 70 41 36 42
REMARK SMILES IDX 73 43 67 44 66 45 37 47 59 48 44 49 58 50 45 51 48 52 57 53
REMARK SMILES IDX 71 54 46 55 47 56 56 58 72 59 49 60 38 61 39 62 43 63 40 64
REMARK SMILES IDX 42 65 41 66 60 67 61 68 65 69 62 70 64 71 63 72 50 73 51 74
REMARK SMILES IDX 55 75 52 76 54 77 53 78
REMARK H PARENT 70 46 48 57
REMARK Flexibility Score: inf
ROOT
ATOM      1  C   UNL A   1      40.012  22.041  26.593  1.00  0.00     0.188 C 
ENDROOT
BRANCH   1   2
ATOM      2  O   UNL A   1      38.782  22.067  25.874  1.00  0.00    -0.376 OA
BRANCH   2   3
ATOM      3  C   UNL A   1      37.873  23.141  26.098  1.00  0.00     0.202 C 
BRANCH   3   4
ATOM      4  C   UNL A   1      36.831  23.454  25.013  1.00  0.00     0.261 C 
BRANCH   4   5
ATOM      5  O   UNL A   1      36.265  22.303  24.347  1.00  0.00    -0.463 OA
BRANCH   5   6
ATOM      6  C   UNL A   1      35.608  21.407  25.115  1.00  0.00     0.309 C 
ATOM      7  O   UNL A   1      36.035  20.276  25.344  1.00  0.00    -0.252 OA
BRANCH   6   8
ATOM      8  C   UNL A   1      34.279  21.882  25.727  1.00  0.00     0.100 C 
ATOM      9  C   UNL A   1      34.387  21.706  27.246  1.00  0.00     0.020 C 
BRANCH   8  10
ATOM     10  C   UNL A   1      32.867  21.471  25.220  1.00  0.00     0.054 C 
BRANCH  10  11
ATOM     11  C   UNL A   1      32.635  20.599  24.012  1.00  0.00    -0.005 A 
ATOM     12  C   UNL A   1      32.177  21.108  22.790  1.00  0.00     0.007 A 
ATOM     13  C   UNL A   1      32.904  19.225  24.055  1.00  0.00     0.126 A 
ATOM     14  C   UNL A   1      31.908  20.261  21.703  1.00  0.00     0.001 A 
ATOM     15  C   UNL A   1      32.675  18.395  22.969  1.00  0.00    -0.002 A 
ATOM     16  O   UNL A   1      33.410  18.550  25.145  1.00  0.00    -0.487 OA
ATOM     17  C   UNL A   1      32.150  18.892  21.790  1.00  0.00     0.008 A 
ATOM     18  C   UNL A   1      33.077  17.004  23.273  1.00  0.00     0.087 C 
ATOM     19  C   UNL A   1      33.551  17.153  24.734  1.00  0.00     0.108 C 
ATOM     20  C   UNL A   1      32.722  16.275  25.676  1.00  0.00     0.057 C 
ATOM     21  C   UNL A   1      35.022  16.749  24.880  1.00  0.00     0.057 C 
ENDBRANCH  10  11
ENDBRANCH   8  10
ENDBRANCH   6   8
ENDBRANCH   5   6
ENDBRANCH   4   5
ENDBRANCH   3   4
ENDBRANCH   2   3
ENDBRANCH   1   2
BRANCH   1  22
ATOM     22  C   UNL A   1      40.893  20.784  26.525  1.00  0.00     0.188 C 
BRANCH  22  23
ATOM     23  O   UNL A   1      41.895  20.848  25.534  1.00  0.00    -0.376 OA
BRANCH  23  24
ATOM     24  C   UNL A   1      43.201  21.165  25.960  1.00  0.00     0.202 C 
BRANCH  24  25
ATOM     25  C   UNL A   1      43.968  22.174  25.096  1.00  0.00     0.261 C 
BRANCH  25  26
ATOM     26  O   UNL A   1      43.367  23.477  24.966  1.00  0.00    -0.460 OA
BRANCH  26  27
ATOM     27  C   UNL A   1      44.149  24.551  25.215  1.00  0.00     0.338 C 
ATOM     28  O   UNL A   1      45.142  24.898  24.594  1.00  0.00    -0.246 OA
BRANCH  27  29
ATOM     29  C   UNL A   1      43.484  25.373  26.254  1.00  0.00     0.060 A 
ATOM     30  C   UNL A   1      43.894  26.702  26.440  1.00  0.00     0.016 A 
ATOM     31  C   UNL A   1      42.459  24.840  27.038  1.00  0.00     0.016 A 
ATOM     32  C   UNL A   1      43.296  27.489  27.428  1.00  0.00     0.010 A 
ATOM     33  C   UNL A   1      41.877  25.624  28.041  1.00  0.00     0.010 A 
ATOM     34  C   UNL A   1      42.311  26.945  28.263  1.00  0.00    -0.014 A 
BRANCH  34  35
ATOM     35  C   UNL A   1      41.851  27.695  29.461  1.00  0.00     0.031 A 
ATOM     36  C   UNL A   1      40.621  28.559  29.349  1.00  0.00     0.074 A 
ATOM     37  C   UNL A   1      42.491  27.598  30.641  1.00  0.00     0.049 A 
ATOM     38  N   UNL A   1      40.056  29.325  30.249  1.00  0.00    -0.248 NA
ATOM     39  C   UNL A   1      39.935  28.557  28.045  1.00  0.00     0.031 C 
ATOM     40  C   UNL A   1      43.667  26.771  30.904  1.00  0.00     0.029 A 
ATOM     41  N   UNL A   1      42.237  28.213  31.844  1.00  0.00    -0.354 N 
ATOM     42  C   UNL A   1      38.954  29.893  29.623  1.00  0.00     0.074 A 
ATOM     43  C   UNL A   1      38.948  29.415  28.257  1.00  0.00     0.031 C 
ATOM     44  C   UNL A   1      44.037  26.936  32.187  1.00  0.00     0.029 A 
ATOM     45  C   UNL A   1      43.148  27.905  32.825  1.00  0.00     0.049 A 
ATOM     46  H   UNL A   1      41.473  28.818  31.989  1.00  0.00     0.167 HD
ATOM     47  C   UNL A   1      38.022  30.731  30.137  1.00  0.00     0.031 A 
ATOM     48  C   UNL A   1      43.265  28.369  34.085  1.00  0.00     0.031 A 
ATOM     49  C   UNL A   1      38.030  31.227  31.488  1.00  0.00     0.049 A 
ATOM     50  C   UNL A   1      42.264  29.373  34.604  1.00  0.00     0.074 A 
ATOM     51  C   UNL A   1      37.125  32.080  32.098  1.00  0.00     0.029 A 
ATOM     52  N   UNL A   1      38.993  30.924  32.436  1.00  0.00    -0.354 N 
ATOM     53  N   UNL A   1      41.213  29.881  34.010  1.00  0.00    -0.248 NA
ATOM     54  C   UNL A   1      42.467  29.857  35.979  1.00  0.00     0.031 C 
ATOM     55  C   UNL A   1      37.574  32.339  33.396  1.00  0.00     0.029 A 
ATOM     56  C   UNL A   1      38.718  31.592  33.618  1.00  0.00     0.049 A 
ATOM     57  H   UNL A   1      39.759  30.322  32.291  1.00  0.00     0.167 HD
ATOM     58  C   UNL A   1      40.614  30.717  34.946  1.00  0.00     0.074 A 
ATOM     59  C   UNL A   1      41.402  30.625  36.156  1.00  0.00     0.031 C 
ATOM     60  C   UNL A   1      39.511  31.496  34.817  1.00  0.00     0.031 A 
BRANCH  47  61
ATOM     61  C   UNL A   1      36.917  31.188  29.224  1.00  0.00    -0.014 A 
ATOM     62  C   UNL A   1      35.859  30.332  28.877  1.00  0.00     0.009 A 
ATOM     63  C   UNL A   1      36.902  32.510  28.754  1.00  0.00     0.009 A 
ATOM     64  C   UNL A   1      34.822  30.785  28.059  1.00  0.00     0.001 A 
ATOM     65  C   UNL A   1      35.848  32.970  27.961  1.00  0.00     0.001 A 
ATOM     66  C   UNL A   1      34.813  32.105  27.609  1.00  0.00     0.000 A 
ENDBRANCH  47  61
BRANCH  48  67
ATOM     67  C   UNL A   1      44.394  27.930  34.953  1.00  0.00    -0.014 A 
ATOM     68  C   UNL A   1      44.260  26.824  35.807  1.00  0.00     0.009 A 
ATOM     69  C   UNL A   1      45.594  28.659  34.977  1.00  0.00     0.009 A 
ATOM     70  C   UNL A   1      45.283  26.486  36.696  1.00  0.00     0.001 A 
ATOM     71  C   UNL A   1      46.630  28.296  35.840  1.00  0.00     0.001 A 
ATOM     72  C   UNL A   1      46.468  27.219  36.709  1.00  0.00     0.000 A 
ENDBRANCH  48  67
BRANCH  60  73
ATOM     73  C   UNL A   1      39.070  32.275  36.027  1.00  0.00    -0.014 A 
ATOM     74  C   UNL A   1      38.198  31.723  36.979  1.00  0.00     0.009 A 
ATOM     75  C   UNL A   1      39.545  33.582  36.224  1.00  0.00     0.009 A 
ATOM     76  C   UNL A   1      37.771  32.480  38.073  1.00  0.00     0.001 A 
ATOM     77  C   UNL A   1      39.147  34.323  37.338  1.00  0.00     0.001 A 
ATOM     78  C   UNL A   1      38.248  33.778  38.253  1.00  0.00     0.000 A 
ENDBRANCH  60  73
ENDBRANCH  34  35
ENDBRANCH  27  29
ENDBRANCH  26  27
ENDBRANCH  25  26
ENDBRANCH  24  25
ENDBRANCH  23  24
ENDBRANCH  22  23
ENDBRANCH   1  22
TORSDOF 19
ENDMDL
MODEL 3
REMARK VINA RESULT:      -9.8      2.047      3.765
REMARK SMILES C[C@H](Cc1cccc2c1OC(C)(C)C2)C(=O)OCCOCCOCCOC(=O)c1ccc(-c2c3nc(c(-c4ccccc4)c4ccc([nH]4)c(-c4ccccc4)c4nc(c(-c5ccccc5)c5ccc2[nH]5)C=C4)C=C3)cc1
REMARK SMILES IDX 21 1 20 2 19 3 18 4 17 5 15 6 16 7 2 8 1 9 3 10 4 11 5 12
REMARK SMILES IDX 9 13 6 14 8 15 10 16 7 17 14 18 11 19 12 20 13 21 22 22
REMARK SMILES IDX 23 23 24 24 25 25 26 26 27 27 28 28 29 29 30 30 76 31 31 32
REMARK SMILES IDX 75 33 32 34 33 35 34 36 69 37 35 38 74 39 68 40 70 41 36 42
REMARK SMILES IDX 73 43 67 44 66 45 37 47 59 48 44 49 58 50 45 51 48 52 57 53
REMARK SMILES IDX 71 54 46 55 47 56 56 58 72 59 49 60 38 61 39 62 43 63 40 64
REMARK SMILES IDX 42 65 41 66 60 67 61 68 65 69 62 70 64 71 63 72 50 73 51 74
REMARK SMILES IDX 55 75 52 76 54 77 53 78
REMARK H PARENT 70 46 48 57
REMARK Flexibility Score: inf
ROOT
ATOM      1  C   UNL A   1      39.458  21.880  26.159  1.00  0.00     0.188 C 
ENDROOT
BRANCH   1   2
ATOM      2  O   UNL A   1      38.559  21.015  25.470  1.00  0.00    -0.376 OA
BRANCH   2   3
ATOM      3  C   UNL A   1      37.414  21.573  24.834  1.00  0.00     0.202 C 
BRANCH   3   4
ATOM      4  C   UNL A   1      36.060  20.869  25.019  1.00  0.00     0.261 C 
BRANCH   4   5
ATOM      5  O   UNL A   1      34.964  21.423  24.258  1.00  0.00    -0.463 OA
BRANCH   5   6
ATOM      6  C   UNL A   1      34.004  22.079  24.945  1.00  0.00     0.309 C 
ATOM      7  O   UNL A   1      32.891  21.605  25.165  1.00  0.00    -0.252 OA
BRANCH   6   8
ATOM      8  C   UNL A   1      34.381  23.473  25.474  1.00  0.00     0.100 C 
ATOM      9  C   UNL A   1      33.498  23.753  26.696  1.00  0.00     0.020 C 
BRANCH   8  10
ATOM     10  C   UNL A   1      34.535  24.748  24.597  1.00  0.00     0.054 C 
BRANCH  10  11
ATOM     11  C   UNL A   1      33.389  25.402  23.867  1.00  0.00    -0.005 A 
ATOM     12  C   UNL A   1      32.843  24.873  22.690  1.00  0.00     0.007 A 
ATOM     13  C   UNL A   1      32.793  26.569  24.363  1.00  0.00     0.126 A 
ATOM     14  C   UNL A   1      31.821  25.540  21.998  1.00  0.00     0.001 A 
ATOM     15  C   UNL A   1      31.757  27.206  23.699  1.00  0.00    -0.002 A 
ATOM     16  O   UNL A   1      33.152  27.208  25.530  1.00  0.00    -0.487 OA
ATOM     17  C   UNL A   1      31.274  26.720  22.497  1.00  0.00     0.008 A 
ATOM     18  C   UNL A   1      31.293  28.389  24.457  1.00  0.00     0.087 C 
ATOM     19  C   UNL A   1      32.255  28.356  25.662  1.00  0.00     0.108 C 
ATOM     20  C   UNL A   1      33.097  29.634  25.732  1.00  0.00     0.057 C 
ATOM     21  C   UNL A   1      31.484  28.223  26.980  1.00  0.00     0.057 C 
ENDBRANCH  10  11
ENDBRANCH   8  10
ENDBRANCH   6   8
ENDBRANCH   5   6
ENDBRANCH   4   5
ENDBRANCH   3   4
ENDBRANCH   2   3
ENDBRANCH   1   2
BRANCH   1  22
ATOM     22  C   UNL A   1      40.767  21.305  26.723  1.00  0.00     0.188 C 
BRANCH  22  23
ATOM     23  O   UNL A   1      41.619  20.767  25.738  1.00  0.00    -0.376 OA
BRANCH  23  24
ATOM     24  C   UNL A   1      42.995  20.704  26.042  1.00  0.00     0.202 C 
BRANCH  24  25
ATOM     25  C   UNL A   1      43.903  21.672  25.272  1.00  0.00     0.261 C 
BRANCH  25  26
ATOM     26  O   UNL A   1      43.318  22.942  24.926  1.00  0.00    -0.460 OA
BRANCH  26  27
ATOM     27  C   UNL A   1      44.093  24.042  25.060  1.00  0.00     0.338 C 
ATOM     28  O   UNL A   1      45.069  24.340  24.389  1.00  0.00    -0.246 OA
BRANCH  27  29
ATOM     29  C   UNL A   1      43.442  24.948  26.036  1.00  0.00     0.060 A 
ATOM     30  C   UNL A   1      43.942  26.248  26.200  1.00  0.00     0.016 A 
ATOM     31  C   UNL A   1      42.341  24.522  26.781  1.00  0.00     0.016 A 
ATOM     32  C   UNL A   1      43.357  27.113  27.130  1.00  0.00     0.010 A 
ATOM     33  C   UNL A   1      41.771  25.383  27.726  1.00  0.00     0.010 A 
ATOM     34  C   UNL A   1      42.292  26.674  27.928  1.00  0.00    -0.014 A 
BRANCH  34  35
ATOM     35  C   UNL A   1      41.831  27.499  29.076  1.00  0.00     0.031 A 
ATOM     36  C   UNL A   1      42.566  27.394  30.387  1.00  0.00     0.074 A 
ATOM     37  C   UNL A   1      40.795  28.351  28.960  1.00  0.00     0.049 A 
ATOM     38  N   UNL A   1      42.324  27.992  31.528  1.00  0.00    -0.248 NA
ATOM     39  C   UNL A   1      43.732  26.495  30.415  1.00  0.00     0.031 C 
ATOM     40  C   UNL A   1      40.020  28.584  27.743  1.00  0.00     0.029 A 
ATOM     41  N   UNL A   1      40.215  29.178  29.891  1.00  0.00    -0.354 N 
ATOM     42  C   UNL A   1      43.303  27.541  32.405  1.00  0.00     0.074 A 
ATOM     43  C   UNL A   1      44.120  26.594  31.678  1.00  0.00     0.031 C 
ATOM     44  C   UNL A   1      39.060  29.489  28.005  1.00  0.00     0.029 A 
ATOM     45  C   UNL A   1      39.129  29.872  29.414  1.00  0.00     0.049 A 
ATOM     46  H   UNL A   1      40.546  29.265  30.815  1.00  0.00     0.167 HD
ATOM     47  C   UNL A   1      43.513  27.890  33.697  1.00  0.00     0.031 A 
ATOM     48  C   UNL A   1      38.277  30.703  30.046  1.00  0.00     0.031 A 
ATOM     49  C   UNL A   1      42.693  28.816  34.434  1.00  0.00     0.049 A 
ATOM     50  C   UNL A   1      38.479  31.003  31.512  1.00  0.00     0.074 A 
ATOM     51  C   UNL A   1      42.831  29.231  35.748  1.00  0.00     0.029 A 
ATOM     52  N   UNL A   1      41.581  29.465  33.925  1.00  0.00    -0.354 N 
ATOM     53  N   UNL A   1      39.425  30.591  32.320  1.00  0.00    -0.248 NA
ATOM     54  C   UNL A   1      37.497  31.897  32.145  1.00  0.00     0.031 C 
ATOM     55  C   UNL A   1      41.766  30.085  36.051  1.00  0.00     0.029 A 
ATOM     56  C   UNL A   1      41.007  30.257  34.907  1.00  0.00     0.049 A 
ATOM     57  H   UNL A   1      41.247  29.376  33.003  1.00  0.00     0.167 HD
ATOM     58  C   UNL A   1      39.168  31.199  33.545  1.00  0.00     0.074 A 
ATOM     59  C   UNL A   1      37.997  32.029  33.365  1.00  0.00     0.031 C 
ATOM     60  C   UNL A   1      39.839  31.078  34.718  1.00  0.00     0.031 A 
BRANCH  47  61
ATOM     61  C   UNL A   1      44.669  27.247  34.413  1.00  0.00    -0.014 A 
ATOM     62  C   UNL A   1      45.936  27.850  34.437  1.00  0.00     0.009 A 
ATOM     63  C   UNL A   1      44.473  26.052  35.123  1.00  0.00     0.009 A 
ATOM     64  C   UNL A   1      46.988  27.258  35.139  1.00  0.00     0.001 A 
ATOM     65  C   UNL A   1      45.518  25.477  35.849  1.00  0.00     0.001 A 
ATOM     66  C   UNL A   1      46.777  26.077  35.850  1.00  0.00     0.000 A 
ENDBRANCH  47  61
BRANCH  48  67
ATOM     67  C   UNL A   1      37.116  31.293  29.322  1.00  0.00    -0.014 A 
ATOM     68  C   UNL A   1      35.935  30.559  29.131  1.00  0.00     0.009 A 
ATOM     69  C   UNL A   1      37.210  32.576  28.760  1.00  0.00     0.009 A 
ATOM     70  C   UNL A   1      34.894  31.078  28.357  1.00  0.00     0.001 A 
ATOM     71  C   UNL A   1      36.153  33.109  28.018  1.00  0.00     0.001 A 
ATOM     72  C   UNL A   1      35.003  32.353  27.804  1.00  0.00     0.000 A 
ENDBRANCH  48  67
BRANCH  60  73
ATOM     73  C   UNL A   1      39.347  31.896  35.882  1.00  0.00    -0.014 A 
ATOM     74  C   UNL A   1      38.286  31.458  36.691  1.00  0.00     0.009 A 
ATOM     75  C   UNL A   1      39.964  33.120  36.183  1.00  0.00     0.009 A 
ATOM     76  C   UNL A   1      37.820  32.252  37.742  1.00  0.00     0.001 A 
ATOM     77  C   UNL A   1      39.522  33.896  37.256  1.00  0.00     0.001 A 
ATOM     78  C   UNL A   1      38.440  33.469  38.025  1.00  0.00     0.000 A 
ENDBRANCH  60  73
ENDBRANCH  34  35
ENDBRANCH  27  29
ENDBRANCH  26  27
ENDBRANCH  25  26
ENDBRANCH  24  25
ENDBRANCH  23  24
ENDBRANCH  22  23
ENDBRANCH   1  22
TORSDOF 19
ENDMDL
