MODEL 1
REMARK VINA RESULT:      -9.1      0.000      0.000
REMARK SMILES O=C(OCCOCCOCCOC(=O)c1ccc(-n2cc(CSc3nc4ccccc4c(=O)n3-c3ccc(Br)cc3)nn2)cc1)c1ccc(-c2c3nc(c(-c4ccccc4)c4ccc([nH]4)c(-c4ccccc4)c4nc(c(-c5ccccc5)c5ccc2[nH]5)C=C4)C=C3)cc1
REMARK SMILES IDX 9 1 8 2 7 3 6 4 5 5 4 6 3 7 2 8 1 9 46 10 47 11 93 12 48 13
REMARK SMILES IDX 92 14 49 15 50 16 51 17 86 18 52 19 91 20 85 21 87 22 53 23
REMARK SMILES IDX 90 24 84 25 83 26 54 28 76 29 61 30 75 31 62 32 65 33 74 34
REMARK SMILES IDX 88 35 63 36 64 37 73 39 89 40 66 41 55 42 56 43 60 44 57 45
REMARK SMILES IDX 59 46 58 47 77 48 78 49 82 50 79 51 81 52 80 53 67 54 68 55
REMARK SMILES IDX 72 56 69 57 71 58 70 59 10 60 11 61 12 62 13 63 14 64 15 65
REMARK SMILES IDX 16 66 45 67 17 68 44 69 18 70 19 71 20 72 43 73 21 74 42 75
REMARK SMILES IDX 22 76 23 77 24 78 25 79 34 80 26 81 32 82 27 83 31 84 33 85
REMARK SMILES IDX 28 86 30 87 29 88 35 89 36 90 41 91 37 92 40 93 38 94 39 95
REMARK H PARENT 87 27 65 38
REMARK Flexibility Score: inf
ROOT
ATOM      1  O   UNL A   1      34.892  33.352  27.680  1.00  0.00    -0.376 OA
ENDROOT
BRANCH   1   2
ATOM      2  C   UNL A   1      35.656  32.278  28.218  1.00  0.00     0.188 C 
BRANCH   2   3
ATOM      3  C   UNL A   1      36.930  32.573  29.043  1.00  0.00     0.188 C 
BRANCH   3   4
ATOM      4  O   UNL A   1      37.257  33.948  29.108  1.00  0.00    -0.376 OA
BRANCH   4   5
ATOM      5  C   UNL A   1      38.395  34.343  29.845  1.00  0.00     0.202 C 
BRANCH   5   6
ATOM      6  C   UNL A   1      38.251  34.584  31.353  1.00  0.00     0.261 C 
BRANCH   6   7
ATOM      7  O   UNL A   1      39.403  34.278  32.152  1.00  0.00    -0.460 OA
BRANCH   7   8
ATOM      8  C   UNL A   1      40.592  33.731  31.844  1.00  0.00     0.338 C 
ATOM      9  O   UNL A   1      41.600  34.433  31.911  1.00  0.00    -0.246 OA
BRANCH   8  10
ATOM     10  C   UNL A   1      40.750  32.365  31.271  1.00  0.00     0.060 A 
ATOM     11  C   UNL A   1      39.850  31.306  31.400  1.00  0.00     0.016 A 
ATOM     12  C   UNL A   1      41.957  32.143  30.574  1.00  0.00     0.016 A 
ATOM     13  C   UNL A   1      40.209  30.030  30.980  1.00  0.00     0.010 A 
ATOM     14  C   UNL A   1      42.315  30.876  30.144  1.00  0.00     0.010 A 
ATOM     15  C   UNL A   1      41.468  29.810  30.424  1.00  0.00    -0.014 A 
BRANCH  15  16
ATOM     16  C   UNL A   1      41.892  28.432  30.233  1.00  0.00     0.031 A 
ATOM     17  C   UNL A   1      42.710  27.817  31.307  1.00  0.00     0.074 A 
ATOM     18  C   UNL A   1      41.523  27.726  29.147  1.00  0.00     0.049 A 
ATOM     19  N   UNL A   1      43.921  27.370  31.224  1.00  0.00    -0.248 NA
ATOM     20  C   UNL A   1      42.124  27.734  32.651  1.00  0.00     0.031 C 
ATOM     21  C   UNL A   1      40.516  28.084  28.143  1.00  0.00     0.029 A 
ATOM     22  N   UNL A   1      41.904  26.472  28.773  1.00  0.00    -0.354 N 
ATOM     23  C   UNL A   1      44.206  26.803  32.463  1.00  0.00     0.074 A 
ATOM     24  C   UNL A   1      43.109  27.151  33.334  1.00  0.00     0.031 C 
ATOM     25  C   UNL A   1      40.199  26.985  27.425  1.00  0.00     0.029 A 
ATOM     26  C   UNL A   1      41.075  25.897  27.824  1.00  0.00     0.049 A 
ATOM     27  H   UNL A   1      42.693  26.017  29.144  1.00  0.00     0.167 HD
ATOM     28  C   UNL A   1      45.229  25.921  32.641  1.00  0.00     0.031 A 
ATOM     29  C   UNL A   1      41.059  24.599  27.442  1.00  0.00     0.031 A 
ATOM     30  C   UNL A   1      46.175  25.948  31.560  1.00  0.00     0.049 A 
ATOM     31  C   UNL A   1      42.352  23.989  27.824  1.00  0.00     0.074 A 
ATOM     32  C   UNL A   1      47.018  26.898  31.020  1.00  0.00     0.029 A 
ATOM     33  N   UNL A   1      46.122  24.926  30.644  1.00  0.00    -0.354 N 
ATOM     34  N   UNL A   1      43.483  24.276  27.248  1.00  0.00    -0.248 NA
ATOM     35  C   UNL A   1      42.461  23.340  29.120  1.00  0.00     0.031 C 
ATOM     36  C   UNL A   1      47.047  26.615  29.624  1.00  0.00     0.029 A 
ATOM     37  C   UNL A   1      46.247  25.492  29.403  1.00  0.00     0.049 A 
ATOM     38  H   UNL A   1      46.015  23.968  30.842  1.00  0.00     0.167 HD
ATOM     39  C   UNL A   1      44.418  24.246  28.271  1.00  0.00     0.074 A 
ATOM     40  C   UNL A   1      43.758  23.544  29.367  1.00  0.00     0.031 C 
ATOM     41  C   UNL A   1      45.531  25.039  28.232  1.00  0.00     0.031 A 
BRANCH  28  42
ATOM     42  C   UNL A   1      45.179  24.774  33.618  1.00  0.00    -0.014 A 
ATOM     43  C   UNL A   1      45.903  24.868  34.820  1.00  0.00     0.009 A 
ATOM     44  C   UNL A   1      44.685  23.502  33.271  1.00  0.00     0.009 A 
ATOM     45  C   UNL A   1      46.171  23.735  35.599  1.00  0.00     0.001 A 
ATOM     46  C   UNL A   1      44.915  22.378  34.068  1.00  0.00     0.001 A 
ATOM     47  C   UNL A   1      45.682  22.490  35.218  1.00  0.00     0.000 A 
ENDBRANCH  28  42
BRANCH  29  48
ATOM     48  C   UNL A   1      39.899  23.799  26.998  1.00  0.00    -0.014 A 
ATOM     49  C   UNL A   1      38.700  24.417  26.613  1.00  0.00     0.009 A 
ATOM     50  C   UNL A   1      40.052  22.428  26.714  1.00  0.00     0.009 A 
ATOM     51  C   UNL A   1      37.707  23.694  25.939  1.00  0.00     0.001 A 
ATOM     52  C   UNL A   1      39.058  21.706  26.051  1.00  0.00     0.001 A 
ATOM     53  C   UNL A   1      37.890  22.344  25.649  1.00  0.00     0.000 A 
ENDBRANCH  29  48
BRANCH  41  54
ATOM     54  C   UNL A   1      45.854  25.740  26.936  1.00  0.00    -0.014 A 
ATOM     55  C   UNL A   1      45.135  26.858  26.478  1.00  0.00     0.009 A 
ATOM     56  C   UNL A   1      47.007  25.358  26.236  1.00  0.00     0.009 A 
ATOM     57  C   UNL A   1      45.537  27.548  25.330  1.00  0.00     0.001 A 
ATOM     58  C   UNL A   1      47.423  26.062  25.103  1.00  0.00     0.001 A 
ATOM     59  C   UNL A   1      46.685  27.152  24.647  1.00  0.00     0.000 A 
ENDBRANCH  41  54
ENDBRANCH  15  16
ENDBRANCH   8  10
ENDBRANCH   7   8
ENDBRANCH   6   7
ENDBRANCH   5   6
ENDBRANCH   4   5
ENDBRANCH   3   4
ENDBRANCH   2   3
ENDBRANCH   1   2
BRANCH   1  60
ATOM     60  C   UNL A   1      33.488  33.391  27.890  1.00  0.00     0.202 C 
BRANCH  60  61
ATOM     61  C   UNL A   1      32.881  34.656  28.513  1.00  0.00     0.261 C 
BRANCH  61  62
ATOM     62  O   UNL A   1      33.805  35.464  29.264  1.00  0.00    -0.460 OA
BRANCH  62  63
ATOM     63  C   UNL A   1      33.350  35.944  30.451  1.00  0.00     0.338 C 
ATOM     64  O   UNL A   1      32.441  36.728  30.637  1.00  0.00    -0.246 OA
BRANCH  63  65
ATOM     65  C   UNL A   1      34.042  35.241  31.554  1.00  0.00     0.060 A 
ATOM     66  C   UNL A   1      34.275  35.933  32.752  1.00  0.00     0.018 A 
ATOM     67  C   UNL A   1      34.467  33.920  31.406  1.00  0.00     0.018 A 
ATOM     68  C   UNL A   1      34.940  35.307  33.811  1.00  0.00     0.029 A 
ATOM     69  C   UNL A   1      35.103  33.279  32.475  1.00  0.00     0.029 A 
ATOM     70  C   UNL A   1      35.344  33.976  33.671  1.00  0.00     0.066 A 
BRANCH  70  71
ATOM     71  N   UNL A   1      36.072  33.336  34.699  1.00  0.00    -0.220 N 
ATOM     72  C   UNL A   1      36.242  33.772  36.002  1.00  0.00     0.141 A 
ATOM     73  N   UNL A   1      36.909  32.311  34.451  1.00  0.00    -0.062 NA
ATOM     74  C   UNL A   1      37.387  33.133  36.431  1.00  0.00     0.093 A 
ATOM     75  N   UNL A   1      37.677  32.146  35.513  1.00  0.00    -0.134 NA
BRANCH  74  76
ATOM     76  C   UNL A   1      38.479  33.443  37.392  1.00  0.00     0.138 C 
BRANCH  76  77
ATOM     77  S   UNL A   1      39.944  34.414  37.173  1.00  0.00    -0.081 SA
BRANCH  77  78
ATOM     78  C   UNL A   1      41.412  33.516  36.979  1.00  0.00     0.176 A 
ATOM     79  N   UNL A   1      41.469  32.992  35.789  1.00  0.00    -0.223 NA
ATOM     80  N   UNL A   1      42.421  33.338  37.913  1.00  0.00    -0.255 N 
ATOM     81  C   UNL A   1      42.524  32.140  35.473  1.00  0.00     0.079 A 
ATOM     82  C   UNL A   1      43.041  32.079  37.834  1.00  0.00     0.266 A 
ATOM     83  C   UNL A   1      42.784  31.783  34.150  1.00  0.00     0.029 A 
ATOM     84  C   UNL A   1      43.251  31.538  36.486  1.00  0.00     0.066 A 
ATOM     85  O   UNL A   1      43.361  31.371  38.789  1.00  0.00    -0.268 OA
ATOM     86  C   UNL A   1      43.723  30.787  33.865  1.00  0.00     0.002 A 
ATOM     87  C   UNL A   1      44.154  30.507  36.224  1.00  0.00     0.016 A 
ATOM     88  C   UNL A   1      44.384  30.126  34.903  1.00  0.00     0.001 A 
BRANCH  80  89
ATOM     89  C   UNL A   1      42.818  34.236  38.988  1.00  0.00     0.051 A 
ATOM     90  C   UNL A   1      43.404  35.485  38.684  1.00  0.00     0.028 A 
ATOM     91  C   UNL A   1      42.646  33.973  40.351  1.00  0.00     0.028 A 
ATOM     92  C   UNL A   1      43.987  36.302  39.659  1.00  0.00     0.018 A 
ATOM     93  C   UNL A   1      43.269  34.756  41.338  1.00  0.00     0.018 A 
ATOM     94  C   UNL A   1      43.972  35.898  40.982  1.00  0.00     0.018 A 
ATOM     95  Br  UNL A   1      44.889  36.901  42.288  1.00  0.00    -0.051 Br
ENDBRANCH  80  89
ENDBRANCH  77  78
ENDBRANCH  76  77
ENDBRANCH  74  76
ENDBRANCH  70  71
ENDBRANCH  63  65
ENDBRANCH  62  63
ENDBRANCH  61  62
ENDBRANCH  60  61
ENDBRANCH   1  60
TORSDOF 22
ENDMDL
MODEL 2
REMARK VINA RESULT:      -9.0      5.632     11.647
REMARK SMILES O=C(OCCOCCOCCOC(=O)c1ccc(-n2cc(CSc3nc4ccccc4c(=O)n3-c3ccc(Br)cc3)nn2)cc1)c1ccc(-c2c3nc(c(-c4ccccc4)c4ccc([nH]4)c(-c4ccccc4)c4nc(c(-c5ccccc5)c5ccc2[nH]5)C=C4)C=C3)cc1
REMARK SMILES IDX 9 1 8 2 7 3 6 4 5 5 4 6 3 7 2 8 1 9 46 10 47 11 93 12 48 13
REMARK SMILES IDX 92 14 49 15 50 16 51 17 86 18 52 19 91 20 85 21 87 22 53 23
REMARK SMILES IDX 90 24 84 25 83 26 54 28 76 29 61 30 75 31 62 32 65 33 74 34
REMARK SMILES IDX 88 35 63 36 64 37 73 39 89 40 66 41 55 42 56 43 60 44 57 45
REMARK SMILES IDX 59 46 58 47 77 48 78 49 82 50 79 51 81 52 80 53 67 54 68 55
REMARK SMILES IDX 72 56 69 57 71 58 70 59 10 60 11 61 12 62 13 63 14 64 15 65
REMARK SMILES IDX 16 66 45 67 17 68 44 69 18 70 19 71 20 72 43 73 21 74 42 75
REMARK SMILES IDX 22 76 23 77 24 78 25 79 34 80 26 81 32 82 27 83 31 84 33 85
REMARK SMILES IDX 28 86 30 87 29 88 35 89 36 90 41 91 37 92 40 93 38 94 39 95
REMARK H PARENT 87 27 65 38
REMARK Flexibility Score: inf
ROOT
ATOM      1  O   UNL A   1      34.847  34.587  29.603  1.00  0.00    -0.376 OA
ENDROOT
BRANCH   1   2
ATOM      2  C   UNL A   1      34.951  34.539  31.021  1.00  0.00     0.188 C 
BRANCH   2   3
ATOM      3  C   UNL A   1      35.330  33.215  31.724  1.00  0.00     0.188 C 
BRANCH   3   4
ATOM      4  O   UNL A   1      34.623  32.990  32.928  1.00  0.00    -0.376 OA
BRANCH   4   5
ATOM      5  C   UNL A   1      34.699  33.959  33.954  1.00  0.00     0.202 C 
BRANCH   5   6
ATOM      6  C   UNL A   1      36.007  34.095  34.745  1.00  0.00     0.261 C 
BRANCH   6   7
ATOM      7  O   UNL A   1      36.332  33.002  35.614  1.00  0.00    -0.460 OA
BRANCH   7   8
ATOM      8  C   UNL A   1      37.505  32.437  35.950  1.00  0.00     0.338 C 
ATOM      9  O   UNL A   1      37.900  32.540  37.110  1.00  0.00    -0.246 OA
BRANCH   8  10
ATOM     10  C   UNL A   1      38.440  31.826  34.963  1.00  0.00     0.060 A 
ATOM     11  C   UNL A   1      39.711  31.317  35.235  1.00  0.00     0.016 A 
ATOM     12  C   UNL A   1      37.982  31.819  33.628  1.00  0.00     0.016 A 
ATOM     13  C   UNL A   1      40.554  30.953  34.193  1.00  0.00     0.010 A 
ATOM     14  C   UNL A   1      38.815  31.447  32.586  1.00  0.00     0.010 A 
ATOM     15  C   UNL A   1      40.127  31.091  32.872  1.00  0.00    -0.014 A 
BRANCH  15  16
ATOM     16  C   UNL A   1      41.121  30.938  31.821  1.00  0.00     0.031 A 
ATOM     17  C   UNL A   1      41.068  29.697  31.011  1.00  0.00     0.074 A 
ATOM     18  C   UNL A   1      42.025  31.902  31.563  1.00  0.00     0.049 A 
ATOM     19  N   UNL A   1      41.973  28.778  30.909  1.00  0.00    -0.248 NA
ATOM     20  C   UNL A   1      39.837  29.421  30.260  1.00  0.00     0.031 C 
ATOM     21  C   UNL A   1      42.045  33.276  32.075  1.00  0.00     0.029 A 
ATOM     22  N   UNL A   1      43.069  31.881  30.687  1.00  0.00    -0.354 N 
ATOM     23  C   UNL A   1      41.500  27.877  29.959  1.00  0.00     0.074 A 
ATOM     24  C   UNL A   1      40.138  28.262  29.674  1.00  0.00     0.031 C 
ATOM     25  C   UNL A   1      42.896  34.014  31.328  1.00  0.00     0.029 A 
ATOM     26  C   UNL A   1      43.574  33.137  30.389  1.00  0.00     0.049 A 
ATOM     27  H   UNL A   1      43.431  31.051  30.301  1.00  0.00     0.167 HD
ATOM     28  C   UNL A   1      42.318  26.992  29.325  1.00  0.00     0.031 A 
ATOM     29  C   UNL A   1      44.434  33.449  29.392  1.00  0.00     0.031 A 
ATOM     30  C   UNL A   1      43.577  26.826  29.997  1.00  0.00     0.049 A 
ATOM     31  C   UNL A   1      45.125  32.209  28.973  1.00  0.00     0.074 A 
ATOM     32  C   UNL A   1      43.972  26.380  31.241  1.00  0.00     0.029 A 
ATOM     33  N   UNL A   1      44.672  27.454  29.456  1.00  0.00    -0.354 N 
ATOM     34  N   UNL A   1      46.002  31.589  29.707  1.00  0.00    -0.248 NA
ATOM     35  C   UNL A   1      44.554  31.426  27.889  1.00  0.00     0.031 C 
ATOM     36  C   UNL A   1      45.114  27.166  31.570  1.00  0.00     0.029 A 
ATOM     37  C   UNL A   1      45.365  28.020  30.494  1.00  0.00     0.049 A 
ATOM     38  H   UNL A   1      44.914  27.491  28.503  1.00  0.00     0.167 HD
ATOM     39  C   UNL A   1      45.779  30.242  29.461  1.00  0.00     0.074 A 
ATOM     40  C   UNL A   1      44.970  30.208  28.247  1.00  0.00     0.031 C 
ATOM     41  C   UNL A   1      46.030  29.300  30.420  1.00  0.00     0.031 A 
BRANCH  28  42
ATOM     42  C   UNL A   1      42.121  26.553  27.897  1.00  0.00    -0.014 A 
ATOM     43  C   UNL A   1      41.815  25.205  27.633  1.00  0.00     0.009 A 
ATOM     44  C   UNL A   1      42.507  27.343  26.799  1.00  0.00     0.009 A 
ATOM     45  C   UNL A   1      41.950  24.666  26.347  1.00  0.00     0.001 A 
ATOM     46  C   UNL A   1      42.602  26.819  25.507  1.00  0.00     0.001 A 
ATOM     47  C   UNL A   1      42.350  25.472  25.286  1.00  0.00     0.000 A 
ENDBRANCH  28  42
BRANCH  29  48
ATOM     48  C   UNL A   1      44.505  34.703  28.616  1.00  0.00    -0.014 A 
ATOM     49  C   UNL A   1      45.591  35.580  28.758  1.00  0.00     0.009 A 
ATOM     50  C   UNL A   1      43.621  34.923  27.542  1.00  0.00     0.009 A 
ATOM     51  C   UNL A   1      45.799  36.617  27.839  1.00  0.00     0.001 A 
ATOM     52  C   UNL A   1      43.824  35.961  26.631  1.00  0.00     0.001 A 
ATOM     53  C   UNL A   1      44.923  36.800  26.771  1.00  0.00     0.000 A 
ENDBRANCH  29  48
BRANCH  41  54
ATOM     54  C   UNL A   1      46.805  29.725  31.643  1.00  0.00    -0.014 A 
ATOM     55  C   UNL A   1      48.203  29.604  31.735  1.00  0.00     0.009 A 
ATOM     56  C   UNL A   1      46.127  30.405  32.664  1.00  0.00     0.009 A 
ATOM     57  C   UNL A   1      48.896  30.114  32.837  1.00  0.00     0.001 A 
ATOM     58  C   UNL A   1      46.822  30.936  33.754  1.00  0.00     0.001 A 
ATOM     59  C   UNL A   1      48.204  30.785  33.843  1.00  0.00     0.000 A 
ENDBRANCH  41  54
ENDBRANCH  15  16
ENDBRANCH   8  10
ENDBRANCH   7   8
ENDBRANCH   6   7
ENDBRANCH   5   6
ENDBRANCH   4   5
ENDBRANCH   3   4
ENDBRANCH   2   3
ENDBRANCH   1   2
BRANCH   1  60
ATOM     60  C   UNL A   1      33.593  34.349  28.981  1.00  0.00     0.202 C 
BRANCH  60  61
ATOM     61  C   UNL A   1      33.512  33.263  27.898  1.00  0.00     0.261 C 
BRANCH  61  62
ATOM     62  O   UNL A   1      34.766  32.636  27.576  1.00  0.00    -0.460 OA
BRANCH  62  63
ATOM     63  C   UNL A   1      34.986  31.418  28.138  1.00  0.00     0.338 C 
ATOM     64  O   UNL A   1      35.723  31.149  29.067  1.00  0.00    -0.246 OA
BRANCH  63  65
ATOM     65  C   UNL A   1      34.057  30.434  27.540  1.00  0.00     0.060 A 
ATOM     66  C   UNL A   1      32.743  30.835  27.255  1.00  0.00     0.018 A 
ATOM     67  C   UNL A   1      34.470  29.127  27.277  1.00  0.00     0.018 A 
ATOM     68  C   UNL A   1      31.832  29.928  26.705  1.00  0.00     0.029 A 
ATOM     69  C   UNL A   1      33.572  28.226  26.696  1.00  0.00     0.029 A 
ATOM     70  C   UNL A   1      32.253  28.627  26.419  1.00  0.00     0.066 A 
BRANCH  70  71
ATOM     71  N   UNL A   1      31.340  27.670  25.922  1.00  0.00    -0.220 N 
ATOM     72  C   UNL A   1      30.938  26.497  26.538  1.00  0.00     0.141 A 
ATOM     73  N   UNL A   1      30.922  27.678  24.642  1.00  0.00    -0.062 NA
ATOM     74  C   UNL A   1      30.489  25.702  25.502  1.00  0.00     0.093 A 
ATOM     75  N   UNL A   1      30.360  26.508  24.390  1.00  0.00    -0.134 NA
BRANCH  74  76
ATOM     76  C   UNL A   1      30.431  24.241  25.233  1.00  0.00     0.138 C 
BRANCH  76  77
ATOM     77  S   UNL A   1      31.059  22.885  26.184  1.00  0.00    -0.081 SA
BRANCH  77  78
ATOM     78  C   UNL A   1      32.233  21.894  25.386  1.00  0.00     0.176 A 
ATOM     79  N   UNL A   1      31.897  20.640  25.465  1.00  0.00    -0.223 NA
ATOM     80  N   UNL A   1      33.387  22.310  24.738  1.00  0.00    -0.255 N 
ATOM     81  C   UNL A   1      32.771  19.671  24.976  1.00  0.00     0.079 A 
ATOM     82  C   UNL A   1      34.454  21.404  24.858  1.00  0.00     0.266 A 
ATOM     83  C   UNL A   1      32.346  18.358  24.781  1.00  0.00     0.029 A 
ATOM     84  C   UNL A   1      34.108  19.978  24.797  1.00  0.00     0.066 A 
ATOM     85  O   UNL A   1      35.629  21.697  25.071  1.00  0.00    -0.268 OA
ATOM     86  C   UNL A   1      33.275  17.359  24.470  1.00  0.00     0.002 A 
ATOM     87  C   UNL A   1      35.057  18.988  24.537  1.00  0.00     0.016 A 
ATOM     88  C   UNL A   1      34.634  17.668  24.381  1.00  0.00     0.001 A 
BRANCH  80  89
ATOM     89  C   UNL A   1      33.631  23.578  24.066  1.00  0.00     0.051 A 
ATOM     90  C   UNL A   1      34.047  24.704  24.811  1.00  0.00     0.028 A 
ATOM     91  C   UNL A   1      33.505  23.787  22.688  1.00  0.00     0.028 A 
ATOM     92  C   UNL A   1      34.104  25.991  24.264  1.00  0.00     0.018 A 
ATOM     93  C   UNL A   1      33.510  25.079  22.134  1.00  0.00     0.018 A 
ATOM     94  C   UNL A   1      33.771  26.180  22.936  1.00  0.00     0.018 A 
ATOM     95  Br  UNL A   1      33.686  27.924  22.221  1.00  0.00    -0.051 Br
ENDBRANCH  80  89
ENDBRANCH  77  78
ENDBRANCH  76  77
ENDBRANCH  74  76
ENDBRANCH  70  71
ENDBRANCH  63  65
ENDBRANCH  62  63
ENDBRANCH  61  62
ENDBRANCH  60  61
ENDBRANCH   1  60
TORSDOF 22
ENDMDL
MODEL 3
REMARK VINA RESULT:      -8.9      2.119      3.092
REMARK SMILES O=C(OCCOCCOCCOC(=O)c1ccc(-n2cc(CSc3nc4ccccc4c(=O)n3-c3ccc(Br)cc3)nn2)cc1)c1ccc(-c2c3nc(c(-c4ccccc4)c4ccc([nH]4)c(-c4ccccc4)c4nc(c(-c5ccccc5)c5ccc2[nH]5)C=C4)C=C3)cc1
REMARK SMILES IDX 9 1 8 2 7 3 6 4 5 5 4 6 3 7 2 8 1 9 46 10 47 11 93 12 48 13
REMARK SMILES IDX 92 14 49 15 50 16 51 17 86 18 52 19 91 20 85 21 87 22 53 23
REMARK SMILES IDX 90 24 84 25 83 26 54 28 76 29 61 30 75 31 62 32 65 33 74 34
REMARK SMILES IDX 88 35 63 36 64 37 73 39 89 40 66 41 55 42 56 43 60 44 57 45
REMARK SMILES IDX 59 46 58 47 77 48 78 49 82 50 79 51 81 52 80 53 67 54 68 55
REMARK SMILES IDX 72 56 69 57 71 58 70 59 10 60 11 61 12 62 13 63 14 64 15 65
REMARK SMILES IDX 16 66 45 67 17 68 44 69 18 70 19 71 20 72 43 73 21 74 42 75
REMARK SMILES IDX 22 76 23 77 24 78 25 79 34 80 26 81 32 82 27 83 31 84 33 85
REMARK SMILES IDX 28 86 30 87 29 88 35 89 36 90 41 91 37 92 40 93 38 94 39 95
REMARK H PARENT 87 27 65 38
REMARK Flexibility Score: inf
ROOT
ATOM      1  O   UNL A   1      35.638  31.586  27.291  1.00  0.00    -0.376 OA
ENDROOT
BRANCH   1   2
ATOM      2  C   UNL A   1      36.508  30.948  28.219  1.00  0.00     0.188 C 
BRANCH   2   3
ATOM      3  C   UNL A   1      37.489  31.792  29.065  1.00  0.00     0.188 C 
BRANCH   3   4
ATOM      4  O   UNL A   1      37.481  33.168  28.736  1.00  0.00    -0.376 OA
BRANCH   4   5
ATOM      5  C   UNL A   1      38.435  34.018  29.339  1.00  0.00     0.202 C 
BRANCH   5   6
ATOM      6  C   UNL A   1      38.151  34.566  30.744  1.00  0.00     0.261 C 
BRANCH   6   7
ATOM      7  O   UNL A   1      39.147  34.291  31.739  1.00  0.00    -0.460 OA
BRANCH   7   8
ATOM      8  C   UNL A   1      40.325  33.646  31.679  1.00  0.00     0.338 C 
ATOM      9  O   UNL A   1      41.355  34.275  31.916  1.00  0.00    -0.246 OA
BRANCH   8  10
ATOM     10  C   UNL A   1      40.478  32.249  31.185  1.00  0.00     0.060 A 
ATOM     11  C   UNL A   1      39.687  31.156  31.540  1.00  0.00     0.016 A 
ATOM     12  C   UNL A   1      41.567  32.038  30.312  1.00  0.00     0.016 A 
ATOM     13  C   UNL A   1      40.057  29.872  31.157  1.00  0.00     0.010 A 
ATOM     14  C   UNL A   1      41.934  30.761  29.919  1.00  0.00     0.010 A 
ATOM     15  C   UNL A   1      41.219  29.677  30.412  1.00  0.00    -0.014 A 
BRANCH  15  16
ATOM     16  C   UNL A   1      41.698  28.313  30.251  1.00  0.00     0.031 A 
ATOM     17  C   UNL A   1      42.496  27.737  31.360  1.00  0.00     0.074 A 
ATOM     18  C   UNL A   1      41.395  27.586  29.158  1.00  0.00     0.049 A 
ATOM     19  N   UNL A   1      43.724  27.332  31.326  1.00  0.00    -0.248 NA
ATOM     20  C   UNL A   1      41.864  27.644  32.682  1.00  0.00     0.031 C 
ATOM     21  C   UNL A   1      40.413  27.900  28.115  1.00  0.00     0.029 A 
ATOM     22  N   UNL A   1      41.833  26.343  28.811  1.00  0.00    -0.354 N 
ATOM     23  C   UNL A   1      43.983  26.786  32.580  1.00  0.00     0.074 A 
ATOM     24  C   UNL A   1      42.843  27.102  33.407  1.00  0.00     0.031 C 
ATOM     25  C   UNL A   1      40.162  26.784  27.395  1.00  0.00     0.029 A 
ATOM     26  C   UNL A   1      41.061  25.731  27.837  1.00  0.00     0.049 A 
ATOM     27  H   UNL A   1      42.623  25.919  29.215  1.00  0.00     0.167 HD
ATOM     28  C   UNL A   1      45.029  25.942  32.804  1.00  0.00     0.031 A 
ATOM     29  C   UNL A   1      41.104  24.430  27.467  1.00  0.00     0.031 A 
ATOM     30  C   UNL A   1      46.013  25.994  31.759  1.00  0.00     0.049 A 
ATOM     31  C   UNL A   1      42.403  23.870  27.903  1.00  0.00     0.074 A 
ATOM     32  C   UNL A   1      46.841  26.968  31.241  1.00  0.00     0.029 A 
ATOM     33  N   UNL A   1      46.030  24.963  30.852  1.00  0.00    -0.354 N 
ATOM     34  N   UNL A   1      43.544  24.191  27.366  1.00  0.00    -0.248 NA
ATOM     35  C   UNL A   1      42.486  23.236  29.208  1.00  0.00     0.031 C 
ATOM     36  C   UNL A   1      46.933  26.675  29.850  1.00  0.00     0.029 A 
ATOM     37  C   UNL A   1      46.181  25.523  29.610  1.00  0.00     0.049 A 
ATOM     38  H   UNL A   1      45.949  24.004  31.054  1.00  0.00     0.167 HD
ATOM     39  C   UNL A   1      44.441  24.203  28.424  1.00  0.00     0.074 A 
ATOM     40  C   UNL A   1      43.765  23.488  29.501  1.00  0.00     0.031 C 
ATOM     41  C   UNL A   1      45.525  25.035  28.418  1.00  0.00     0.031 A 
BRANCH  28  42
ATOM     42  C   UNL A   1      44.982  24.802  33.789  1.00  0.00    -0.014 A 
ATOM     43  C   UNL A   1      46.061  24.619  34.673  1.00  0.00     0.009 A 
ATOM     44  C   UNL A   1      44.061  23.744  33.683  1.00  0.00     0.009 A 
ATOM     45  C   UNL A   1      46.239  23.414  35.365  1.00  0.00     0.001 A 
ATOM     46  C   UNL A   1      44.212  22.557  34.404  1.00  0.00     0.001 A 
ATOM     47  C   UNL A   1      45.317  22.381  35.224  1.00  0.00     0.000 A 
ENDBRANCH  28  42
BRANCH  29  48
ATOM     48  C   UNL A   1      39.991  23.586  26.989  1.00  0.00    -0.014 A 
ATOM     49  C   UNL A   1      38.806  24.159  26.504  1.00  0.00     0.009 A 
ATOM     50  C   UNL A   1      40.189  22.208  26.775  1.00  0.00     0.009 A 
ATOM     51  C   UNL A   1      37.871  23.387  25.803  1.00  0.00     0.001 A 
ATOM     52  C   UNL A   1      39.253  21.436  26.083  1.00  0.00     0.001 A 
ATOM     53  C   UNL A   1      38.100  22.030  25.583  1.00  0.00     0.000 A 
ENDBRANCH  29  48
BRANCH  41  54
ATOM     54  C   UNL A   1      45.872  25.736  27.128  1.00  0.00    -0.014 A 
ATOM     55  C   UNL A   1      46.815  25.226  26.217  1.00  0.00     0.009 A 
ATOM     56  C   UNL A   1      45.120  26.857  26.750  1.00  0.00     0.009 A 
ATOM     57  C   UNL A   1      47.024  25.845  24.981  1.00  0.00     0.001 A 
ATOM     58  C   UNL A   1      45.312  27.461  25.504  1.00  0.00     0.001 A 
ATOM     59  C   UNL A   1      46.268  26.959  24.624  1.00  0.00     0.000 A 
ENDBRANCH  41  54
ENDBRANCH  15  16
ENDBRANCH   8  10
ENDBRANCH   7   8
ENDBRANCH   6   7
ENDBRANCH   5   6
ENDBRANCH   4   5
ENDBRANCH   3   4
ENDBRANCH   2   3
ENDBRANCH   1   2
BRANCH   1  60
ATOM     60  C   UNL A   1      34.233  31.408  27.406  1.00  0.00     0.202 C 
BRANCH  60  61
ATOM     61  C   UNL A   1      33.407  32.534  28.045  1.00  0.00     0.261 C 
BRANCH  61  62
ATOM     62  O   UNL A   1      34.148  33.729  28.350  1.00  0.00    -0.460 OA
BRANCH  62  63
ATOM     63  C   UNL A   1      33.629  34.520  29.325  1.00  0.00     0.338 C 
ATOM     64  O   UNL A   1      32.725  35.327  29.227  1.00  0.00    -0.246 OA
BRANCH  63  65
ATOM     65  C   UNL A   1      34.235  34.150  30.623  1.00  0.00     0.060 A 
ATOM     66  C   UNL A   1      34.358  35.136  31.614  1.00  0.00     0.018 A 
ATOM     67  C   UNL A   1      34.688  32.851  30.858  1.00  0.00     0.018 A 
ATOM     68  C   UNL A   1      34.941  34.828  32.848  1.00  0.00     0.029 A 
ATOM     69  C   UNL A   1      35.241  32.530  32.102  1.00  0.00     0.029 A 
ATOM     70  C   UNL A   1      35.372  33.521  33.091  1.00  0.00     0.066 A 
BRANCH  70  71
ATOM     71  N   UNL A   1      36.021  33.193  34.303  1.00  0.00    -0.220 N 
ATOM     72  C   UNL A   1      35.983  33.903  35.491  1.00  0.00     0.141 A 
ATOM     73  N   UNL A   1      36.972  32.243  34.371  1.00  0.00    -0.062 NA
ATOM     74  C   UNL A   1      37.119  33.503  36.165  1.00  0.00     0.093 A 
ATOM     75  N   UNL A   1      37.612  32.389  35.518  1.00  0.00    -0.134 NA
BRANCH  74  76
ATOM     76  C   UNL A   1      38.048  34.127  37.144  1.00  0.00     0.138 C 
BRANCH  76  77
ATOM     77  S   UNL A   1      39.340  33.396  38.110  1.00  0.00    -0.081 SA
BRANCH  77  78
ATOM     78  C   UNL A   1      39.049  33.329  39.816  1.00  0.00     0.176 A 
ATOM     79  N   UNL A   1      38.582  32.162  40.151  1.00  0.00    -0.223 NA
ATOM     80  N   UNL A   1      39.259  34.335  40.747  1.00  0.00    -0.255 N 
ATOM     81  C   UNL A   1      38.180  31.944  41.467  1.00  0.00     0.079 A 
ATOM     82  C   UNL A   1      38.320  34.336  41.792  1.00  0.00     0.266 A 
ATOM     83  C   UNL A   1      37.942  30.653  41.938  1.00  0.00     0.029 A 
ATOM     84  C   UNL A   1      37.892  33.021  42.286  1.00  0.00     0.066 A 
ATOM     85  O   UNL A   1      37.783  35.330  42.278  1.00  0.00    -0.268 OA
ATOM     86  C   UNL A   1      37.364  30.462  43.197  1.00  0.00     0.002 A 
ATOM     87  C   UNL A   1      37.268  32.853  43.524  1.00  0.00     0.016 A 
ATOM     88  C   UNL A   1      36.997  31.562  43.975  1.00  0.00     0.001 A 
BRANCH  80  89
ATOM     89  C   UNL A   1      40.243  35.407  40.703  1.00  0.00     0.051 A 
ATOM     90  C   UNL A   1      41.082  35.642  41.814  1.00  0.00     0.028 A 
ATOM     91  C   UNL A   1      40.456  36.248  39.605  1.00  0.00     0.028 A 
ATOM     92  C   UNL A   1      41.902  36.772  41.915  1.00  0.00     0.018 A 
ATOM     93  C   UNL A   1      41.236  37.413  39.709  1.00  0.00     0.018 A 
ATOM     94  C   UNL A   1      41.925  37.689  40.881  1.00  0.00     0.018 A 
ATOM     95  Br  UNL A   1      42.896  39.295  41.062  1.00  0.00    -0.051 Br
ENDBRANCH  80  89
ENDBRANCH  77  78
ENDBRANCH  76  77
ENDBRANCH  74  76
ENDBRANCH  70  71
ENDBRANCH  63  65
ENDBRANCH  62  63
ENDBRANCH  61  62
ENDBRANCH  60  61
ENDBRANCH   1  60
TORSDOF 22
ENDMDL
