MODEL 1
REMARK VINA RESULT:      -9.9      0.000      0.000
REMARK SMILES C[C@H](c1ccncc1)[N@H+]1[C@@H]2CC[C@H]1C[C@H](CC(=O)OCCOCCOCCOC(=O)c1ccc(-c3c4nc(c(-c5ccccc5)c5ccc([nH]5)c(-c5ccccc5)c5nc(c(-c6ccccc6)c6ccc3[nH]6)C=C5)C=C4)cc1)C2
REMARK SMILES IDX 23 1 22 2 21 3 20 4 19 5 17 6 18 7 16 8 15 9 9 10 10 11
REMARK SMILES IDX 13 12 11 14 79 15 12 16 14 17 2 18 1 19 3 20 4 21 8 22 5 23
REMARK SMILES IDX 7 24 6 25 24 26 25 27 26 28 27 29 28 30 29 31 30 32 31 33
REMARK SMILES IDX 32 34 78 35 33 36 77 37 34 38 35 39 36 40 71 41 37 42 76 43
REMARK SMILES IDX 70 44 72 45 38 46 75 47 69 48 68 49 39 51 61 52 46 53 60 54
REMARK SMILES IDX 47 55 50 56 59 57 73 58 48 59 49 60 58 62 74 63 51 64 40 65
REMARK SMILES IDX 41 66 45 67 42 68 44 69 43 70 62 71 63 72 67 73 64 74 66 75
REMARK SMILES IDX 65 76 52 77 53 78 57 79 54 80 56 81 55 82
REMARK H PARENT 9 13 72 50 50 61
REMARK Flexibility Score: inf
ROOT
ATOM      1  C   UNL A   1      35.656  22.975  24.928  1.00  0.00     0.188 C 
ENDROOT
BRANCH   1   2
ATOM      2  O   UNL A   1      34.320  22.889  25.406  1.00  0.00    -0.376 OA
BRANCH   2   3
ATOM      3  C   UNL A   1      33.442  22.013  24.699  1.00  0.00     0.202 C 
BRANCH   3   4
ATOM      4  C   UNL A   1      32.302  21.387  25.514  1.00  0.00     0.261 C 
BRANCH   4   5
ATOM      5  O   UNL A   1      31.131  22.222  25.592  1.00  0.00    -0.463 OA
BRANCH   5   6
ATOM      6  C   UNL A   1      31.153  23.177  26.553  1.00  0.00     0.306 C 
ATOM      7  O   UNL A   1      31.486  22.997  27.719  1.00  0.00    -0.252 OA
BRANCH   6   8
ATOM      8  C   UNL A   1      30.801  24.560  26.051  1.00  0.00     0.126 C 
BRANCH   8   9
ATOM      9  C   UNL A   1      31.804  25.728  26.180  1.00  0.00     0.012 C 
ATOM     10  N   UNL A   1      31.999  27.996  24.273  1.00  0.00    -0.324 N 
ATOM     11  C   UNL A   1      31.528  28.276  25.638  1.00  0.00     0.185 C 
ATOM     12  C   UNL A   1      33.190  27.166  24.522  1.00  0.00     0.185 C 
ATOM     13  H   UNL A   1      32.202  28.851  23.756  1.00  0.00     0.349 HD
ATOM     14  C   UNL A   1      32.814  28.772  26.294  1.00  0.00     0.071 C 
ATOM     15  C   UNL A   1      30.979  27.033  26.350  1.00  0.00     0.069 C 
ATOM     16  C   UNL A   1      33.911  27.964  25.618  1.00  0.00     0.071 C 
ATOM     17  C   UNL A   1      32.816  25.757  25.013  1.00  0.00     0.069 C 
BRANCH  10  18
ATOM     18  C   UNL A   1      31.015  27.440  23.320  1.00  0.00     0.212 C 
ATOM     19  C   UNL A   1      31.718  26.912  22.059  1.00  0.00     0.081 C 
BRANCH  18  20
ATOM     20  C   UNL A   1      29.935  28.448  22.944  1.00  0.00     0.012 A 
ATOM     21  C   UNL A   1      28.593  28.254  23.284  1.00  0.00     0.030 A 
ATOM     22  C   UNL A   1      30.258  29.548  22.139  1.00  0.00     0.030 A 
ATOM     23  C   UNL A   1      27.646  29.128  22.773  1.00  0.00     0.111 A 
ATOM     24  C   UNL A   1      29.239  30.357  21.667  1.00  0.00     0.111 A 
ATOM     25  N   UNL A   1      27.938  30.171  21.964  1.00  0.00    -0.265 NA
ENDBRANCH  18  20
ENDBRANCH  10  18
ENDBRANCH   8   9
ENDBRANCH   6   8
ENDBRANCH   5   6
ENDBRANCH   4   5
ENDBRANCH   3   4
ENDBRANCH   2   3
ENDBRANCH   1   2
BRANCH   1  26
ATOM     26  C   UNL A   1      36.351  21.658  24.581  1.00  0.00     0.188 C 
BRANCH  26  27
ATOM     27  O   UNL A   1      37.074  21.038  25.638  1.00  0.00    -0.376 OA
BRANCH  27  28
ATOM     28  C   UNL A   1      38.497  21.192  25.592  1.00  0.00     0.202 C 
BRANCH  28  29
ATOM     29  C   UNL A   1      39.330  19.931  25.281  1.00  0.00     0.261 C 
BRANCH  29  30
ATOM     30  O   UNL A   1      40.299  19.576  26.293  1.00  0.00    -0.460 OA
BRANCH  30  31
ATOM     31  C   UNL A   1      41.609  19.772  26.015  1.00  0.00     0.338 C 
ATOM     32  O   UNL A   1      42.310  19.085  25.293  1.00  0.00    -0.246 OA
BRANCH  31  33
ATOM     33  C   UNL A   1      41.988  21.128  26.505  1.00  0.00     0.060 A 
ATOM     34  C   UNL A   1      41.947  21.370  27.887  1.00  0.00     0.016 A 
ATOM     35  C   UNL A   1      42.471  22.118  25.643  1.00  0.00     0.016 A 
ATOM     36  C   UNL A   1      42.352  22.607  28.400  1.00  0.00     0.010 A 
ATOM     37  C   UNL A   1      42.867  23.358  26.158  1.00  0.00     0.010 A 
ATOM     38  C   UNL A   1      42.782  23.622  27.537  1.00  0.00    -0.014 A 
BRANCH  38  39
ATOM     39  C   UNL A   1      42.957  25.010  28.039  1.00  0.00     0.031 A 
ATOM     40  C   UNL A   1      44.340  25.455  28.435  1.00  0.00     0.074 A 
ATOM     41  C   UNL A   1      41.930  25.874  28.136  1.00  0.00     0.049 A 
ATOM     42  N   UNL A   1      44.735  26.598  28.937  1.00  0.00    -0.248 NA
ATOM     43  C   UNL A   1      45.421  24.477  28.233  1.00  0.00     0.031 C 
ATOM     44  C   UNL A   1      40.548  25.606  27.744  1.00  0.00     0.029 A 
ATOM     45  N   UNL A   1      41.902  27.167  28.606  1.00  0.00    -0.354 N 
ATOM     46  C   UNL A   1      46.107  26.474  29.116  1.00  0.00     0.074 A 
ATOM     47  C   UNL A   1      46.471  25.138  28.697  1.00  0.00     0.031 C 
ATOM     48  C   UNL A   1      39.805  26.699  27.996  1.00  0.00     0.029 A 
ATOM     49  C   UNL A   1      40.650  27.731  28.599  1.00  0.00     0.049 A 
ATOM     50  H   UNL A   1      42.705  27.643  28.917  1.00  0.00     0.167 HD
ATOM     51  C   UNL A   1      46.991  27.387  29.582  1.00  0.00     0.031 A 
ATOM     52  C   UNL A   1      40.228  28.931  29.048  1.00  0.00     0.031 A 
ATOM     53  C   UNL A   1      46.642  28.710  30.024  1.00  0.00     0.049 A 
ATOM     54  C   UNL A   1      41.215  29.893  29.661  1.00  0.00     0.074 A 
ATOM     55  C   UNL A   1      47.477  29.705  30.503  1.00  0.00     0.029 A 
ATOM     56  N   UNL A   1      45.354  29.219  30.052  1.00  0.00    -0.354 N 
ATOM     57  N   UNL A   1      42.513  29.774  29.801  1.00  0.00    -0.248 NA
ATOM     58  C   UNL A   1      40.673  31.160  30.178  1.00  0.00     0.031 C 
ATOM     59  C   UNL A   1      46.686  30.795  30.881  1.00  0.00     0.029 A 
ATOM     60  C   UNL A   1      45.366  30.501  30.576  1.00  0.00     0.049 A 
ATOM     61  H   UNL A   1      44.550  28.740  29.748  1.00  0.00     0.167 HD
ATOM     62  C   UNL A   1      42.943  30.957  30.393  1.00  0.00     0.074 A 
ATOM     63  C   UNL A   1      41.771  31.788  30.572  1.00  0.00     0.031 C 
ATOM     64  C   UNL A   1      44.198  31.322  30.755  1.00  0.00     0.031 A 
BRANCH  51  65
ATOM     65  C   UNL A   1      48.429  26.962  29.678  1.00  0.00    -0.014 A 
ATOM     66  C   UNL A   1      49.330  27.194  28.626  1.00  0.00     0.009 A 
ATOM     67  C   UNL A   1      48.893  26.343  30.848  1.00  0.00     0.009 A 
ATOM     68  C   UNL A   1      50.659  26.780  28.732  1.00  0.00     0.001 A 
ATOM     69  C   UNL A   1      50.229  25.958  30.963  1.00  0.00     0.001 A 
ATOM     70  C   UNL A   1      51.108  26.168  29.902  1.00  0.00     0.000 A 
ENDBRANCH  51  65
BRANCH  52  71
ATOM     71  C   UNL A   1      38.787  29.297  28.973  1.00  0.00    -0.014 A 
ATOM     72  C   UNL A   1      37.936  29.093  30.070  1.00  0.00     0.009 A 
ATOM     73  C   UNL A   1      38.246  29.807  27.782  1.00  0.00     0.009 A 
ATOM     74  C   UNL A   1      36.569  29.366  29.967  1.00  0.00     0.001 A 
ATOM     75  C   UNL A   1      36.884  30.109  27.692  1.00  0.00     0.001 A 
ATOM     76  C   UNL A   1      36.046  29.878  28.780  1.00  0.00     0.000 A 
ENDBRANCH  52  71
BRANCH  64  77
ATOM     77  C   UNL A   1      44.382  32.692  31.352  1.00  0.00    -0.014 A 
ATOM     78  C   UNL A   1      44.346  32.896  32.740  1.00  0.00     0.009 A 
ATOM     79  C   UNL A   1      44.646  33.786  30.512  1.00  0.00     0.009 A 
ATOM     80  C   UNL A   1      44.538  34.174  33.272  1.00  0.00     0.001 A 
ATOM     81  C   UNL A   1      44.867  35.057  31.049  1.00  0.00     0.001 A 
ATOM     82  C   UNL A   1      44.804  35.251  32.427  1.00  0.00     0.000 A 
ENDBRANCH  64  77
ENDBRANCH  38  39
ENDBRANCH  31  33
ENDBRANCH  30  31
ENDBRANCH  29  30
ENDBRANCH  28  29
ENDBRANCH  27  28
ENDBRANCH  26  27
ENDBRANCH   1  26
TORSDOF 20
ENDMDL
MODEL 2
REMARK VINA RESULT:      -9.9      0.666      5.789
REMARK SMILES C[C@H](c1ccncc1)[N@H+]1[C@@H]2CC[C@H]1C[C@H](CC(=O)OCCOCCOCCOC(=O)c1ccc(-c3c4nc(c(-c5ccccc5)c5ccc([nH]5)c(-c5ccccc5)c5nc(c(-c6ccccc6)c6ccc3[nH]6)C=C5)C=C4)cc1)C2
REMARK SMILES IDX 23 1 22 2 21 3 20 4 19 5 17 6 18 7 16 8 15 9 9 10 10 11
REMARK SMILES IDX 13 12 11 14 79 15 12 16 14 17 2 18 1 19 3 20 4 21 8 22 5 23
REMARK SMILES IDX 7 24 6 25 24 26 25 27 26 28 27 29 28 30 29 31 30 32 31 33
REMARK SMILES IDX 32 34 78 35 33 36 77 37 34 38 35 39 36 40 71 41 37 42 76 43
REMARK SMILES IDX 70 44 72 45 38 46 75 47 69 48 68 49 39 51 61 52 46 53 60 54
REMARK SMILES IDX 47 55 50 56 59 57 73 58 48 59 49 60 58 62 74 63 51 64 40 65
REMARK SMILES IDX 41 66 45 67 42 68 44 69 43 70 62 71 63 72 67 73 64 74 66 75
REMARK SMILES IDX 65 76 52 77 53 78 57 79 54 80 56 81 55 82
REMARK H PARENT 9 13 72 50 50 61
REMARK Flexibility Score: inf
ROOT
ATOM      1  C   UNL A   1      36.614  23.273  25.657  1.00  0.00     0.188 C 
ENDROOT
BRANCH   1   2
ATOM      2  O   UNL A   1      35.264  23.204  26.095  1.00  0.00    -0.376 OA
BRANCH   2   3
ATOM      3  C   UNL A   1      34.778  21.917  26.474  1.00  0.00     0.202 C 
BRANCH   3   4
ATOM      4  C   UNL A   1      33.315  21.849  26.936  1.00  0.00     0.261 C 
BRANCH   4   5
ATOM      5  O   UNL A   1      32.401  22.495  26.030  1.00  0.00    -0.463 OA
BRANCH   5   6
ATOM      6  C   UNL A   1      31.416  23.224  26.608  1.00  0.00     0.306 C 
ATOM      7  O   UNL A   1      30.848  22.937  27.656  1.00  0.00    -0.252 OA
BRANCH   6   8
ATOM      8  C   UNL A   1      31.107  24.518  25.887  1.00  0.00     0.126 C 
BRANCH   8   9
ATOM      9  C   UNL A   1      31.994  25.766  26.083  1.00  0.00     0.012 C 
ATOM     10  N   UNL A   1      31.816  28.232  24.438  1.00  0.00    -0.324 N 
ATOM     11  C   UNL A   1      31.425  28.313  25.854  1.00  0.00     0.185 C 
ATOM     12  C   UNL A   1      33.099  27.513  24.513  1.00  0.00     0.185 C 
ATOM     13  H   UNL A   1      31.892  29.154  24.009  1.00  0.00     0.349 HD
ATOM     14  C   UNL A   1      32.701  28.871  26.477  1.00  0.00     0.071 C 
ATOM     15  C   UNL A   1      31.059  26.949  26.453  1.00  0.00     0.069 C 
ATOM     16  C   UNL A   1      33.818  28.263  25.643  1.00  0.00     0.071 C 
ATOM     17  C   UNL A   1      32.906  26.027  24.864  1.00  0.00     0.069 C 
BRANCH  10  18
ATOM     18  C   UNL A   1      30.823  27.678  23.494  1.00  0.00     0.212 C 
ATOM     19  C   UNL A   1      31.479  27.354  22.142  1.00  0.00     0.081 C 
BRANCH  18  20
ATOM     20  C   UNL A   1      29.627  28.603  23.296  1.00  0.00     0.012 A 
ATOM     21  C   UNL A   1      29.746  29.993  23.382  1.00  0.00     0.030 A 
ATOM     22  C   UNL A   1      28.346  28.061  23.131  1.00  0.00     0.030 A 
ATOM     23  C   UNL A   1      28.593  30.761  23.350  1.00  0.00     0.111 A 
ATOM     24  C   UNL A   1      27.253  28.911  23.123  1.00  0.00     0.111 A 
ATOM     25  N   UNL A   1      27.347  30.250  23.232  1.00  0.00    -0.265 NA
ENDBRANCH  18  20
ENDBRANCH  10  18
ENDBRANCH   8   9
ENDBRANCH   6   8
ENDBRANCH   5   6
ENDBRANCH   4   5
ENDBRANCH   3   4
ENDBRANCH   2   3
ENDBRANCH   1   2
BRANCH   1  26
ATOM     26  C   UNL A   1      36.960  22.529  24.367  1.00  0.00     0.188 C 
BRANCH  26  27
ATOM     27  O   UNL A   1      37.352  21.170  24.517  1.00  0.00    -0.376 OA
BRANCH  27  28
ATOM     28  C   UNL A   1      38.454  20.934  25.403  1.00  0.00     0.202 C 
BRANCH  28  29
ATOM     29  C   UNL A   1      39.234  19.617  25.217  1.00  0.00     0.261 C 
BRANCH  29  30
ATOM     30  O   UNL A   1      40.226  19.348  26.234  1.00  0.00    -0.460 OA
BRANCH  30  31
ATOM     31  C   UNL A   1      41.511  19.684  25.972  1.00  0.00     0.338 C 
ATOM     32  O   UNL A   1      42.269  19.118  25.204  1.00  0.00    -0.246 OA
BRANCH  31  33
ATOM     33  C   UNL A   1      41.765  21.032  26.558  1.00  0.00     0.060 A 
ATOM     34  C   UNL A   1      42.191  22.058  25.701  1.00  0.00     0.016 A 
ATOM     35  C   UNL A   1      41.499  21.316  27.901  1.00  0.00     0.016 A 
ATOM     36  C   UNL A   1      42.384  23.354  26.192  1.00  0.00     0.010 A 
ATOM     37  C   UNL A   1      41.703  22.611  28.392  1.00  0.00     0.010 A 
ATOM     38  C   UNL A   1      42.175  23.633  27.548  1.00  0.00    -0.014 A 
BRANCH  38  39
ATOM     39  C   UNL A   1      42.628  24.923  28.128  1.00  0.00     0.031 A 
ATOM     40  C   UNL A   1      41.606  26.007  28.342  1.00  0.00     0.074 A 
ATOM     41  C   UNL A   1      43.909  25.145  28.476  1.00  0.00     0.049 A 
ATOM     42  N   UNL A   1      41.765  27.226  28.792  1.00  0.00    -0.248 NA
ATOM     43  C   UNL A   1      40.214  25.665  28.004  1.00  0.00     0.031 C 
ATOM     44  C   UNL A   1      45.001  24.178  28.376  1.00  0.00     0.029 A 
ATOM     45  N   UNL A   1      44.506  26.274  28.986  1.00  0.00    -0.354 N 
ATOM     46  C   UNL A   1      40.498  27.797  28.786  1.00  0.00     0.074 A 
ATOM     47  C   UNL A   1      39.587  26.803  28.261  1.00  0.00     0.031 C 
ATOM     48  C   UNL A   1      46.137  24.758  28.805  1.00  0.00     0.029 A 
ATOM     49  C   UNL A   1      45.861  26.147  29.176  1.00  0.00     0.049 A 
ATOM     50  H   UNL A   1      44.009  27.098  29.195  1.00  0.00     0.167 HD
ATOM     51  C   UNL A   1      40.119  29.034  29.184  1.00  0.00     0.031 A 
ATOM     52  C   UNL A   1      46.777  27.051  29.580  1.00  0.00     0.031 A 
ATOM     53  C   UNL A   1      41.015  30.040  29.686  1.00  0.00     0.049 A 
ATOM     54  C   UNL A   1      46.347  28.457  29.918  1.00  0.00     0.074 A 
ATOM     55  C   UNL A   1      40.715  31.320  30.121  1.00  0.00     0.029 A 
ATOM     56  N   UNL A   1      42.387  29.887  29.809  1.00  0.00    -0.354 N 
ATOM     57  N   UNL A   1      45.143  28.976  29.933  1.00  0.00    -0.248 NA
ATOM     58  C   UNL A   1      47.409  29.402  30.299  1.00  0.00     0.031 C 
ATOM     59  C   UNL A   1      41.913  31.963  30.448  1.00  0.00     0.029 A 
ATOM     60  C   UNL A   1      42.951  31.061  30.278  1.00  0.00     0.049 A 
ATOM     61  H   UNL A   1      42.885  29.066  29.592  1.00  0.00     0.167 HD
ATOM     62  C   UNL A   1      45.301  30.294  30.349  1.00  0.00     0.074 A 
ATOM     63  C   UNL A   1      46.714  30.492  30.592  1.00  0.00     0.031 C 
ATOM     64  C   UNL A   1      44.358  31.254  30.515  1.00  0.00     0.031 A 
BRANCH  51  65
ATOM     65  C   UNL A   1      38.665  29.382  29.049  1.00  0.00    -0.014 A 
ATOM     66  C   UNL A   1      38.115  29.755  27.812  1.00  0.00     0.009 A 
ATOM     67  C   UNL A   1      37.827  29.312  30.172  1.00  0.00     0.009 A 
ATOM     68  C   UNL A   1      36.763  30.086  27.712  1.00  0.00     0.001 A 
ATOM     69  C   UNL A   1      36.469  29.613  30.063  1.00  0.00     0.001 A 
ATOM     70  C   UNL A   1      35.940  30.009  28.836  1.00  0.00     0.000 A 
ENDBRANCH  51  65
BRANCH  52  71
ATOM     71  C   UNL A   1      48.216  26.677  29.661  1.00  0.00    -0.014 A 
ATOM     72  C   UNL A   1      48.706  25.935  30.745  1.00  0.00     0.009 A 
ATOM     73  C   UNL A   1      49.116  27.107  28.673  1.00  0.00     0.009 A 
ATOM     74  C   UNL A   1      50.071  25.654  30.854  1.00  0.00     0.001 A 
ATOM     75  C   UNL A   1      50.476  26.798  28.768  1.00  0.00     0.001 A 
ATOM     76  C   UNL A   1      50.953  26.082  29.863  1.00  0.00     0.000 A 
ENDBRANCH  52  71
BRANCH  64  77
ATOM     77  C   UNL A   1      44.811  32.600  31.015  1.00  0.00    -0.014 A 
ATOM     78  C   UNL A   1      44.919  32.872  32.388  1.00  0.00     0.009 A 
ATOM     79  C   UNL A   1      45.183  33.594  30.096  1.00  0.00     0.009 A 
ATOM     80  C   UNL A   1      45.358  34.123  32.828  1.00  0.00     0.001 A 
ATOM     81  C   UNL A   1      45.651  34.833  30.539  1.00  0.00     0.001 A 
ATOM     82  C   UNL A   1      45.729  35.099  31.905  1.00  0.00     0.000 A 
ENDBRANCH  64  77
ENDBRANCH  38  39
ENDBRANCH  31  33
ENDBRANCH  30  31
ENDBRANCH  29  30
ENDBRANCH  28  29
ENDBRANCH  27  28
ENDBRANCH  26  27
ENDBRANCH   1  26
TORSDOF 20
ENDMDL
MODEL 3
REMARK VINA RESULT:      -9.8      4.810      8.433
REMARK SMILES C[C@H](c1ccncc1)[N@H+]1[C@@H]2CC[C@H]1C[C@H](CC(=O)OCCOCCOCCOC(=O)c1ccc(-c3c4nc(c(-c5ccccc5)c5ccc([nH]5)c(-c5ccccc5)c5nc(c(-c6ccccc6)c6ccc3[nH]6)C=C5)C=C4)cc1)C2
REMARK SMILES IDX 23 1 22 2 21 3 20 4 19 5 17 6 18 7 16 8 15 9 9 10 10 11
REMARK SMILES IDX 13 12 11 14 79 15 12 16 14 17 2 18 1 19 3 20 4 21 8 22 5 23
REMARK SMILES IDX 7 24 6 25 24 26 25 27 26 28 27 29 28 30 29 31 30 32 31 33
REMARK SMILES IDX 32 34 78 35 33 36 77 37 34 38 35 39 36 40 71 41 37 42 76 43
REMARK SMILES IDX 70 44 72 45 38 46 75 47 69 48 68 49 39 51 61 52 46 53 60 54
REMARK SMILES IDX 47 55 50 56 59 57 73 58 48 59 49 60 58 62 74 63 51 64 40 65
REMARK SMILES IDX 41 66 45 67 42 68 44 69 43 70 62 71 63 72 67 73 64 74 66 75
REMARK SMILES IDX 65 76 52 77 53 78 57 79 54 80 56 81 55 82
REMARK H PARENT 9 13 72 50 50 61
REMARK Flexibility Score: inf
ROOT
ATOM      1  C   UNL A   1      43.547  18.296  25.888  1.00  0.00     0.188 C 
ENDROOT
BRANCH   1   2
ATOM      2  O   UNL A   1      44.723  18.160  25.102  1.00  0.00    -0.376 OA
BRANCH   2   3
ATOM      3  C   UNL A   1      45.884  18.853  25.560  1.00  0.00     0.202 C 
BRANCH   3   4
ATOM      4  C   UNL A   1      46.362  20.028  24.696  1.00  0.00     0.261 C 
BRANCH   4   5
ATOM      5  O   UNL A   1      45.324  20.586  23.869  1.00  0.00    -0.463 OA
BRANCH   5   6
ATOM      6  C   UNL A   1      45.124  21.921  23.997  1.00  0.00     0.306 C 
ATOM      7  O   UNL A   1      44.284  22.570  23.384  1.00  0.00    -0.252 OA
BRANCH   6   8
ATOM      8  C   UNL A   1      45.988  22.572  25.054  1.00  0.00     0.126 C 
BRANCH   8   9
ATOM      9  C   UNL A   1      45.461  22.777  26.491  1.00  0.00     0.012 C 
ATOM     10  N   UNL A   1      44.607  25.391  27.614  1.00  0.00    -0.324 N 
ATOM     11  C   UNL A   1      43.581  24.356  27.407  1.00  0.00     0.185 C 
ATOM     12  C   UNL A   1      45.675  24.636  28.291  1.00  0.00     0.185 C 
ATOM     13  H   UNL A   1      44.253  26.175  28.162  1.00  0.00     0.349 HD
ATOM     14  C   UNL A   1      43.476  23.767  28.811  1.00  0.00     0.071 C 
ATOM     15  C   UNL A   1      44.000  23.293  26.383  1.00  0.00     0.069 C 
ATOM     16  C   UNL A   1      44.890  23.866  29.363  1.00  0.00     0.071 C 
ATOM     17  C   UNL A   1      46.397  23.675  27.331  1.00  0.00     0.069 C 
BRANCH  10  18
ATOM     18  C   UNL A   1      45.024  26.174  26.431  1.00  0.00     0.212 C 
ATOM     19  C   UNL A   1      46.494  26.603  26.554  1.00  0.00     0.081 C 
BRANCH  18  20
ATOM     20  C   UNL A   1      44.134  27.389  26.193  1.00  0.00     0.012 A 
ATOM     21  C   UNL A   1      44.215  28.532  26.993  1.00  0.00     0.030 A 
ATOM     22  C   UNL A   1      43.126  27.335  25.222  1.00  0.00     0.030 A 
ATOM     23  C   UNL A   1      43.270  29.531  26.820  1.00  0.00     0.111 A 
ATOM     24  C   UNL A   1      42.221  28.379  25.135  1.00  0.00     0.111 A 
ATOM     25  N   UNL A   1      42.268  29.477  25.915  1.00  0.00    -0.265 NA
ENDBRANCH  18  20
ENDBRANCH  10  18
ENDBRANCH   8   9
ENDBRANCH   6   8
ENDBRANCH   5   6
ENDBRANCH   4   5
ENDBRANCH   3   4
ENDBRANCH   2   3
ENDBRANCH   1   2
BRANCH   1  26
ATOM     26  C   UNL A   1      42.749  19.590  25.719  1.00  0.00     0.188 C 
BRANCH  26  27
ATOM     27  O   UNL A   1      41.461  19.611  26.321  1.00  0.00    -0.376 OA
BRANCH  27  28
ATOM     28  C   UNL A   1      41.403  20.149  27.647  1.00  0.00     0.202 C 
BRANCH  28  29
ATOM     29  C   UNL A   1      40.783  21.553  27.809  1.00  0.00     0.261 C 
BRANCH  29  30
ATOM     30  O   UNL A   1      40.579  22.275  26.573  1.00  0.00    -0.460 OA
BRANCH  30  31
ATOM     31  C   UNL A   1      39.413  22.942  26.412  1.00  0.00     0.338 C 
ATOM     32  O   UNL A   1      38.365  22.485  25.992  1.00  0.00    -0.246 OA
BRANCH  31  33
ATOM     33  C   UNL A   1      39.535  24.259  27.100  1.00  0.00     0.060 A 
ATOM     34  C   UNL A   1      40.174  25.307  26.421  1.00  0.00     0.016 A 
ATOM     35  C   UNL A   1      38.949  24.499  28.348  1.00  0.00     0.016 A 
ATOM     36  C   UNL A   1      40.259  26.578  26.999  1.00  0.00     0.010 A 
ATOM     37  C   UNL A   1      39.044  25.769  28.930  1.00  0.00     0.010 A 
ATOM     38  C   UNL A   1      39.725  26.810  28.273  1.00  0.00    -0.014 A 
BRANCH  38  39
ATOM     39  C   UNL A   1      40.040  28.065  29.002  1.00  0.00     0.031 A 
ATOM     40  C   UNL A   1      41.372  28.171  29.696  1.00  0.00     0.074 A 
ATOM     41  C   UNL A   1      39.185  29.104  29.049  1.00  0.00     0.049 A 
ATOM     42  N   UNL A   1      41.856  29.144  30.427  1.00  0.00    -0.248 NA
ATOM     43  C   UNL A   1      42.280  27.023  29.540  1.00  0.00     0.031 C 
ATOM     44  C   UNL A   1      37.884  29.169  28.387  1.00  0.00     0.029 A 
ATOM     45  N   UNL A   1      39.295  30.312  29.697  1.00  0.00    -0.354 N 
ATOM     46  C   UNL A   1      43.120  28.723  30.821  1.00  0.00     0.074 A 
ATOM     47  C   UNL A   1      43.317  27.398  30.274  1.00  0.00     0.031 C 
ATOM     48  C   UNL A   1      37.312  30.355  28.669  1.00  0.00     0.029 A 
ATOM     49  C   UNL A   1      38.190  31.117  29.559  1.00  0.00     0.049 A 
ATOM     50  H   UNL A   1      40.091  30.576  30.213  1.00  0.00     0.167 HD
ATOM     51  C   UNL A   1      44.041  29.377  31.567  1.00  0.00     0.031 A 
ATOM     52  C   UNL A   1      37.907  32.318  30.104  1.00  0.00     0.031 A 
ATOM     53  C   UNL A   1      43.852  30.683  32.136  1.00  0.00     0.049 A 
ATOM     54  C   UNL A   1      38.907  32.981  31.019  1.00  0.00     0.074 A 
ATOM     55  C   UNL A   1      44.738  31.426  32.899  1.00  0.00     0.029 A 
ATOM     56  N   UNL A   1      42.696  31.438  32.018  1.00  0.00    -0.354 N 
ATOM     57  N   UNL A   1      40.108  32.585  31.362  1.00  0.00    -0.248 NA
ATOM     58  C   UNL A   1      38.507  34.264  31.620  1.00  0.00     0.031 C 
ATOM     59  C   UNL A   1      44.094  32.603  33.294  1.00  0.00     0.029 A 
ATOM     60  C   UNL A   1      42.832  32.622  32.723  1.00  0.00     0.049 A 
ATOM     61  H   UNL A   1      41.897  31.171  31.508  1.00  0.00     0.167 HD
ATOM     62  C   UNL A   1      40.615  33.579  32.193  1.00  0.00     0.074 A 
ATOM     63  C   UNL A   1      39.598  34.605  32.290  1.00  0.00     0.031 C 
ATOM     64  C   UNL A   1      41.816  33.637  32.819  1.00  0.00     0.031 A 
BRANCH  51  65
ATOM     65  C   UNL A   1      45.331  28.660  31.846  1.00  0.00    -0.014 A 
ATOM     66  C   UNL A   1      45.608  28.121  33.112  1.00  0.00     0.009 A 
ATOM     67  C   UNL A   1      46.274  28.503  30.818  1.00  0.00     0.009 A 
ATOM     68  C   UNL A   1      46.818  27.469  33.352  1.00  0.00     0.001 A 
ATOM     69  C   UNL A   1      47.470  27.824  31.053  1.00  0.00     0.001 A 
ATOM     70  C   UNL A   1      47.745  27.316  32.321  1.00  0.00     0.000 A 
ENDBRANCH  51  65
BRANCH  52  71
ATOM     71  C   UNL A   1      36.599  32.975  29.836  1.00  0.00    -0.014 A 
ATOM     72  C   UNL A   1      36.387  33.695  28.650  1.00  0.00     0.009 A 
ATOM     73  C   UNL A   1      35.571  32.927  30.791  1.00  0.00     0.009 A 
ATOM     74  C   UNL A   1      35.183  34.375  28.439  1.00  0.00     0.001 A 
ATOM     75  C   UNL A   1      34.358  33.581  30.564  1.00  0.00     0.001 A 
ATOM     76  C   UNL A   1      34.169  34.313  29.394  1.00  0.00     0.000 A 
ENDBRANCH  52  71
BRANCH  64  77
ATOM     77  C   UNL A   1      42.119  34.862  33.640  1.00  0.00    -0.014 A 
ATOM     78  C   UNL A   1      41.786  34.932  35.002  1.00  0.00     0.009 A 
ATOM     79  C   UNL A   1      42.792  35.945  33.050  1.00  0.00     0.009 A 
ATOM     80  C   UNL A   1      42.093  36.072  35.747  1.00  0.00     0.001 A 
ATOM     81  C   UNL A   1      43.124  37.072  33.806  1.00  0.00     0.001 A 
ATOM     82  C   UNL A   1      42.766  37.138  35.151  1.00  0.00     0.000 A 
ENDBRANCH  64  77
ENDBRANCH  38  39
ENDBRANCH  31  33
ENDBRANCH  30  31
ENDBRANCH  29  30
ENDBRANCH  28  29
ENDBRANCH  27  28
ENDBRANCH  26  27
ENDBRANCH   1  26
TORSDOF 20
ENDMDL
