MODEL 1
REMARK VINA RESULT:     -11.1      0.000      0.000
REMARK SMILES O=C(OCCOCCOCCOC(=O)c1ccc(-c2c3nc(c(-c4ccccc4)c4ccc([nH]4)c(-c4ccccc4)c4nc(c(-c5ccccc5)c5ccc2[nH]5)C=C4)C=C3)cc1)c1ccc(NS(=O)(=O)C2=Cc3ccccc3CC2)cc1
REMARK SMILES IDX 7 1 6 2 5 3 4 4 3 5 2 6 1 7 63 8 64 9 82 10 65 11 81 12
REMARK SMILES IDX 66 13 67 14 68 16 69 17 70 18 71 19 72 20 80 21 73 22 79 23
REMARK SMILES IDX 74 24 78 25 75 26 77 27 76 28 8 29 9 30 10 31 11 32 12 33
REMARK SMILES IDX 13 34 14 35 15 36 16 37 62 38 17 39 61 40 18 41 19 42 20 43
REMARK SMILES IDX 55 44 21 45 60 46 54 47 56 48 22 49 59 50 53 51 52 52 23 54
REMARK SMILES IDX 45 55 30 56 44 57 31 58 34 59 43 60 57 61 32 62 33 63 42 65
REMARK SMILES IDX 58 66 35 67 24 68 25 69 29 70 26 71 28 72 27 73 46 74 47 75
REMARK SMILES IDX 51 76 48 77 50 78 49 79 36 80 37 81 41 82 38 83 40 84 39 85
REMARK H PARENT 67 15 56 53 34 64
REMARK Flexibility Score: inf
ROOT
ATOM      1  C   UNL A   1      42.467  18.449  26.193  1.00  0.00     0.188 C 
ENDROOT
BRANCH   1   2
ATOM      2  O   UNL A   1      41.792  19.577  25.631  1.00  0.00    -0.376 OA
BRANCH   2   3
ATOM      3  C   UNL A   1      40.533  19.857  26.234  1.00  0.00     0.202 C 
BRANCH   3   4
ATOM      4  C   UNL A   1      40.184  21.328  26.475  1.00  0.00     0.261 C 
BRANCH   4   5
ATOM      5  O   UNL A   1      38.812  21.739  26.309  1.00  0.00    -0.460 OA
BRANCH   5   6
ATOM      6  C   UNL A   1      38.261  22.942  26.039  1.00  0.00     0.338 C 
ATOM      7  O   UNL A   1      38.839  23.963  26.403  1.00  0.00    -0.246 OA
BRANCH   6   8
ATOM      8  C   UNL A   1      36.933  23.081  25.397  1.00  0.00     0.060 A 
ATOM      9  C   UNL A   1      35.748  23.297  26.090  1.00  0.00     0.018 A 
ATOM     10  C   UNL A   1      36.869  22.920  24.004  1.00  0.00     0.018 A 
ATOM     11  C   UNL A   1      34.564  23.536  25.387  1.00  0.00     0.027 A 
ATOM     12  C   UNL A   1      35.683  23.180  23.309  1.00  0.00     0.027 A 
ATOM     13  C   UNL A   1      34.548  23.593  23.998  1.00  0.00     0.049 A 
BRANCH  13  14
ATOM     14  N   UNL A   1      33.496  24.169  23.236  1.00  0.00    -0.280 N 
ATOM     15  H   UNL A   1      32.825  23.556  22.856  1.00  0.00     0.180 HD
BRANCH  14  16
ATOM     16  S   UNL A   1      33.303  25.810  22.928  1.00  0.00     0.258 S 
ATOM     17  O   UNL A   1      34.132  26.439  23.940  1.00  0.00    -0.202 OA
ATOM     18  O   UNL A   1      33.623  26.002  21.528  1.00  0.00    -0.202 OA
BRANCH  16  19
ATOM     19  C   UNL A   1      31.583  26.215  23.220  1.00  0.00     0.066 C 
ATOM     20  C   UNL A   1      31.171  26.066  24.502  1.00  0.00     0.026 C 
ATOM     21  C   UNL A   1      31.094  27.513  22.597  1.00  0.00     0.055 C 
ATOM     22  C   UNL A   1      31.456  27.250  25.374  1.00  0.00    -0.021 A 
ATOM     23  C   UNL A   1      31.716  28.718  23.310  1.00  0.00     0.041 C 
ATOM     24  C   UNL A   1      31.414  27.115  26.762  1.00  0.00     0.008 A 
ATOM     25  C   UNL A   1      31.768  28.508  24.805  1.00  0.00    -0.040 A 
ATOM     26  C   UNL A   1      31.751  28.195  27.579  1.00  0.00     0.001 A 
ATOM     27  C   UNL A   1      32.150  29.569  25.633  1.00  0.00     0.004 A 
ATOM     28  C   UNL A   1      32.145  29.409  27.016  1.00  0.00     0.000 A 
ENDBRANCH  16  19
ENDBRANCH  14  16
ENDBRANCH  13  14
ENDBRANCH   6   8
ENDBRANCH   5   6
ENDBRANCH   4   5
ENDBRANCH   3   4
ENDBRANCH   2   3
ENDBRANCH   1   2
BRANCH   1  29
ATOM     29  C   UNL A   1      43.975  18.477  25.927  1.00  0.00     0.188 C 
BRANCH  29  30
ATOM     30  O   UNL A   1      44.359  18.298  24.564  1.00  0.00    -0.376 OA
BRANCH  30  31
ATOM     31  C   UNL A   1      44.896  19.425  23.876  1.00  0.00     0.202 C 
BRANCH  31  32
ATOM     32  C   UNL A   1      45.096  20.698  24.703  1.00  0.00     0.261 C 
BRANCH  32  33
ATOM     33  O   UNL A   1      44.136  21.723  24.377  1.00  0.00    -0.460 OA
BRANCH  33  34
ATOM     34  C   UNL A   1      44.647  22.974  24.335  1.00  0.00     0.338 C 
ATOM     35  O   UNL A   1      45.652  23.346  23.752  1.00  0.00    -0.246 OA
BRANCH  34  36
ATOM     36  C   UNL A   1      43.787  23.929  25.050  1.00  0.00     0.060 A 
ATOM     37  C   UNL A   1      44.107  25.289  24.966  1.00  0.00     0.016 A 
ATOM     38  C   UNL A   1      42.875  23.468  25.999  1.00  0.00     0.016 A 
ATOM     39  C   UNL A   1      43.586  26.182  25.901  1.00  0.00     0.010 A 
ATOM     40  C   UNL A   1      42.349  24.366  26.935  1.00  0.00     0.010 A 
ATOM     41  C   UNL A   1      42.760  25.712  26.931  1.00  0.00    -0.014 A 
BRANCH  41  42
ATOM     42  C   UNL A   1      42.506  26.579  28.111  1.00  0.00     0.031 A 
ATOM     43  C   UNL A   1      43.509  26.596  29.236  1.00  0.00     0.074 A 
ATOM     44  C   UNL A   1      41.430  27.381  28.167  1.00  0.00     0.049 A 
ATOM     45  N   UNL A   1      43.501  27.295  30.343  1.00  0.00    -0.248 NA
ATOM     46  C   UNL A   1      44.677  25.711  29.092  1.00  0.00     0.031 C 
ATOM     47  C   UNL A   1      40.408  27.497  27.131  1.00  0.00     0.029 A 
ATOM     48  N   UNL A   1      41.025  28.255  29.143  1.00  0.00    -0.354 N 
ATOM     49  C   UNL A   1      44.651  26.927  31.031  1.00  0.00     0.074 A 
ATOM     50  C   UNL A   1      45.320  25.924  30.232  1.00  0.00     0.031 C 
ATOM     51  C   UNL A   1      39.487  28.393  27.526  1.00  0.00     0.029 A 
ATOM     52  C   UNL A   1      39.848  28.897  28.851  1.00  0.00     0.049 A 
ATOM     53  H   UNL A   1      41.530  28.408  29.974  1.00  0.00     0.167 HD
ATOM     54  C   UNL A   1      45.117  27.386  32.218  1.00  0.00     0.031 A 
ATOM     55  C   UNL A   1      39.138  29.787  29.571  1.00  0.00     0.031 A 
ATOM     56  C   UNL A   1      44.461  28.381  33.022  1.00  0.00     0.049 A 
ATOM     57  C   UNL A   1      39.648  30.238  30.913  1.00  0.00     0.074 A 
ATOM     58  C   UNL A   1      44.873  28.924  34.228  1.00  0.00     0.029 A 
ATOM     59  N   UNL A   1      43.254  28.980  32.706  1.00  0.00    -0.354 N 
ATOM     60  N   UNL A   1      40.755  29.908  31.534  1.00  0.00    -0.248 NA
ATOM     61  C   UNL A   1      38.813  31.203  31.645  1.00  0.00     0.031 C 
ATOM     62  C   UNL A   1      43.890  29.818  34.665  1.00  0.00     0.029 A 
ATOM     63  C   UNL A   1      42.893  29.872  33.703  1.00  0.00     0.049 A 
ATOM     64  H   UNL A   1      42.729  28.800  31.892  1.00  0.00     0.167 HD
ATOM     65  C   UNL A   1      40.766  30.652  32.708  1.00  0.00     0.074 A 
ATOM     66  C   UNL A   1      39.561  31.454  32.710  1.00  0.00     0.031 C 
ATOM     67  C   UNL A   1      41.697  30.672  33.694  1.00  0.00     0.031 A 
BRANCH  54  68
ATOM     68  C   UNL A   1      46.395  26.787  32.733  1.00  0.00    -0.014 A 
ATOM     69  C   UNL A   1      47.641  27.359  32.435  1.00  0.00     0.009 A 
ATOM     70  C   UNL A   1      46.347  25.650  33.556  1.00  0.00     0.009 A 
ATOM     71  C   UNL A   1      48.817  26.785  32.924  1.00  0.00     0.001 A 
ATOM     72  C   UNL A   1      47.522  25.094  34.064  1.00  0.00     0.001 A 
ATOM     73  C   UNL A   1      48.755  25.656  33.740  1.00  0.00     0.000 A 
ENDBRANCH  54  68
BRANCH  55  74
ATOM     74  C   UNL A   1      37.861  30.324  29.038  1.00  0.00    -0.014 A 
ATOM     75  C   UNL A   1      37.737  31.685  28.722  1.00  0.00     0.009 A 
ATOM     76  C   UNL A   1      36.751  29.482  28.873  1.00  0.00     0.009 A 
ATOM     77  C   UNL A   1      36.518  32.199  28.278  1.00  0.00     0.001 A 
ATOM     78  C   UNL A   1      35.540  29.994  28.403  1.00  0.00     0.001 A 
ATOM     79  C   UNL A   1      35.421  31.352  28.115  1.00  0.00     0.000 A 
ENDBRANCH  55  74
BRANCH  67  80
ATOM     80  C   UNL A   1      41.478  31.629  34.831  1.00  0.00    -0.014 A 
ATOM     81  C   UNL A   1      40.801  31.241  35.998  1.00  0.00     0.009 A 
ATOM     82  C   UNL A   1      41.984  32.935  34.743  1.00  0.00     0.009 A 
ATOM     83  C   UNL A   1      40.604  32.153  37.036  1.00  0.00     0.001 A 
ATOM     84  C   UNL A   1      41.810  33.838  35.793  1.00  0.00     0.001 A 
ATOM     85  C   UNL A   1      41.111  33.449  36.935  1.00  0.00     0.000 A 
ENDBRANCH  67  80
ENDBRANCH  41  42
ENDBRANCH  34  36
ENDBRANCH  33  34
ENDBRANCH  32  33
ENDBRANCH  31  32
ENDBRANCH  30  31
ENDBRANCH  29  30
ENDBRANCH   1  29
TORSDOF 20
ENDMDL
MODEL 2
REMARK VINA RESULT:     -10.4      1.843      6.193
REMARK SMILES O=C(OCCOCCOCCOC(=O)c1ccc(-c2c3nc(c(-c4ccccc4)c4ccc([nH]4)c(-c4ccccc4)c4nc(c(-c5ccccc5)c5ccc2[nH]5)C=C4)C=C3)cc1)c1ccc(NS(=O)(=O)C2=Cc3ccccc3CC2)cc1
REMARK SMILES IDX 7 1 6 2 5 3 4 4 3 5 2 6 1 7 63 8 64 9 82 10 65 11 81 12
REMARK SMILES IDX 66 13 67 14 68 16 69 17 70 18 71 19 72 20 80 21 73 22 79 23
REMARK SMILES IDX 74 24 78 25 75 26 77 27 76 28 8 29 9 30 10 31 11 32 12 33
REMARK SMILES IDX 13 34 14 35 15 36 16 37 62 38 17 39 61 40 18 41 19 42 20 43
REMARK SMILES IDX 55 44 21 45 60 46 54 47 56 48 22 49 59 50 53 51 52 52 23 54
REMARK SMILES IDX 45 55 30 56 44 57 31 58 34 59 43 60 57 61 32 62 33 63 42 65
REMARK SMILES IDX 58 66 35 67 24 68 25 69 29 70 26 71 28 72 27 73 46 74 47 75
REMARK SMILES IDX 51 76 48 77 50 78 49 79 36 80 37 81 41 82 38 83 40 84 39 85
REMARK H PARENT 67 15 56 53 34 64
REMARK Flexibility Score: inf
ROOT
ATOM      1  C   UNL A   1      44.489  18.982  25.009  1.00  0.00     0.188 C 
ENDROOT
BRANCH   1   2
ATOM      2  O   UNL A   1      43.866  18.399  26.156  1.00  0.00    -0.376 OA
BRANCH   2   3
ATOM      3  C   UNL A   1      42.447  18.497  26.155  1.00  0.00     0.202 C 
BRANCH   3   4
ATOM      4  C   UNL A   1      41.815  19.521  27.103  1.00  0.00     0.261 C 
BRANCH   4   5
ATOM      5  O   UNL A   1      40.610  20.189  26.679  1.00  0.00    -0.460 OA
BRANCH   5   6
ATOM      6  C   UNL A   1      40.207  21.472  26.794  1.00  0.00     0.338 C 
ATOM      7  O   UNL A   1      40.819  22.231  27.542  1.00  0.00    -0.246 OA
BRANCH   6   8
ATOM      8  C   UNL A   1      38.990  21.986  26.121  1.00  0.00     0.060 A 
ATOM      9  C   UNL A   1      38.481  23.268  26.296  1.00  0.00     0.018 A 
ATOM     10  C   UNL A   1      38.278  21.094  25.305  1.00  0.00     0.018 A 
ATOM     11  C   UNL A   1      37.399  23.699  25.525  1.00  0.00     0.027 A 
ATOM     12  C   UNL A   1      37.207  21.540  24.523  1.00  0.00     0.027 A 
ATOM     13  C   UNL A   1      36.832  22.879  24.556  1.00  0.00     0.049 A 
BRANCH  13  14
ATOM     14  N   UNL A   1      35.990  23.345  23.510  1.00  0.00    -0.280 N 
ATOM     15  H   UNL A   1      36.392  23.447  22.617  1.00  0.00     0.180 HD
BRANCH  14  16
ATOM     16  S   UNL A   1      34.364  23.739  23.674  1.00  0.00     0.258 S 
ATOM     17  O   UNL A   1      33.956  24.046  22.315  1.00  0.00    -0.202 OA
ATOM     18  O   UNL A   1      33.744  22.630  24.369  1.00  0.00    -0.202 OA
BRANCH  16  19
ATOM     19  C   UNL A   1      34.267  25.219  24.681  1.00  0.00     0.066 C 
ATOM     20  C   UNL A   1      33.791  26.314  24.042  1.00  0.00     0.026 C 
ATOM     21  C   UNL A   1      33.659  25.040  26.063  1.00  0.00     0.055 C 
ATOM     22  C   UNL A   1      32.296  26.400  24.013  1.00  0.00    -0.021 A 
ATOM     23  C   UNL A   1      32.156  24.761  25.956  1.00  0.00     0.041 C 
ATOM     24  C   UNL A   1      31.668  27.259  23.111  1.00  0.00     0.008 A 
ATOM     25  C   UNL A   1      31.510  25.619  24.893  1.00  0.00    -0.040 A 
ATOM     26  C   UNL A   1      30.275  27.288  23.029  1.00  0.00     0.001 A 
ATOM     27  C   UNL A   1      30.117  25.622  24.769  1.00  0.00     0.004 A 
ATOM     28  C   UNL A   1      29.503  26.452  23.835  1.00  0.00     0.000 A 
ENDBRANCH  16  19
ENDBRANCH  14  16
ENDBRANCH  13  14
ENDBRANCH   6   8
ENDBRANCH   5   6
ENDBRANCH   4   5
ENDBRANCH   3   4
ENDBRANCH   2   3
ENDBRANCH   1   2
BRANCH   1  29
ATOM     29  C   UNL A   1      44.776  20.475  25.193  1.00  0.00     0.188 C 
BRANCH  29  30
ATOM     30  O   UNL A   1      43.999  21.353  24.379  1.00  0.00    -0.376 OA
BRANCH  30  31
ATOM     31  C   UNL A   1      44.699  22.254  23.524  1.00  0.00     0.202 C 
BRANCH  31  32
ATOM     32  C   UNL A   1      45.623  23.265  24.209  1.00  0.00     0.261 C 
BRANCH  32  33
ATOM     33  O   UNL A   1      44.905  24.397  24.738  1.00  0.00    -0.460 OA
BRANCH  33  34
ATOM     34  C   UNL A   1      45.186  24.683  26.029  1.00  0.00     0.338 C 
ATOM     35  O   UNL A   1      46.167  24.340  26.669  1.00  0.00    -0.246 OA
BRANCH  34  36
ATOM     36  C   UNL A   1      44.165  25.562  26.619  1.00  0.00     0.060 A 
ATOM     37  C   UNL A   1      44.451  26.929  26.707  1.00  0.00     0.016 A 
ATOM     38  C   UNL A   1      43.092  25.011  27.319  1.00  0.00     0.016 A 
ATOM     39  C   UNL A   1      43.718  27.735  27.577  1.00  0.00     0.010 A 
ATOM     40  C   UNL A   1      42.354  25.822  28.189  1.00  0.00     0.010 A 
ATOM     41  C   UNL A   1      42.712  27.170  28.373  1.00  0.00    -0.014 A 
BRANCH  41  42
ATOM     42  C   UNL A   1      42.192  27.935  29.536  1.00  0.00     0.031 A 
ATOM     43  C   UNL A   1      40.858  28.626  29.418  1.00  0.00     0.074 A 
ATOM     44  C   UNL A   1      42.862  27.977  30.699  1.00  0.00     0.049 A 
ATOM     45  N   UNL A   1      40.204  29.324  30.314  1.00  0.00    -0.248 NA
ATOM     46  C   UNL A   1      40.168  28.515  28.122  1.00  0.00     0.031 C 
ATOM     47  C   UNL A   1      44.137  27.316  30.963  1.00  0.00     0.029 A 
ATOM     48  N   UNL A   1      42.554  28.604  31.879  1.00  0.00    -0.354 N 
ATOM     49  C   UNL A   1      39.036  29.742  29.688  1.00  0.00     0.074 A 
ATOM     50  C   UNL A   1      39.081  29.245  28.330  1.00  0.00     0.031 C 
ATOM     51  C   UNL A   1      44.507  27.573  32.229  1.00  0.00     0.029 A 
ATOM     52  C   UNL A   1      43.503  28.432  32.856  1.00  0.00     0.049 A 
ATOM     53  H   UNL A   1      41.731  29.127  32.013  1.00  0.00     0.167 HD
ATOM     54  C   UNL A   1      38.010  30.468  30.195  1.00  0.00     0.031 A 
ATOM     55  C   UNL A   1      43.557  28.916  34.111  1.00  0.00     0.031 A 
ATOM     56  C   UNL A   1      37.954  30.969  31.542  1.00  0.00     0.049 A 
ATOM     57  C   UNL A   1      42.433  29.768  34.634  1.00  0.00     0.074 A 
ATOM     58  C   UNL A   1      36.943  31.694  32.150  1.00  0.00     0.029 A 
ATOM     59  N   UNL A   1      38.951  30.802  32.488  1.00  0.00    -0.354 N 
ATOM     60  N   UNL A   1      41.319  30.125  34.042  1.00  0.00    -0.248 NA
ATOM     61  C   UNL A   1      42.569  30.269  36.010  1.00  0.00     0.031 C 
ATOM     62  C   UNL A   1      37.349  32.006  33.452  1.00  0.00     0.029 A 
ATOM     63  C   UNL A   1      38.590  31.428  33.670  1.00  0.00     0.049 A 
ATOM     64  H   UNL A   1      39.791  30.310  32.342  1.00  0.00     0.167 HD
ATOM     65  C   UNL A   1      40.607  30.858  34.985  1.00  0.00     0.074 A 
ATOM     66  C   UNL A   1      41.411  30.889  36.188  1.00  0.00     0.031 C 
ATOM     67  C   UNL A   1      39.392  31.448  34.865  1.00  0.00     0.031 A 
BRANCH  54  68
ATOM     68  C   UNL A   1      36.871  30.789  29.270  1.00  0.00    -0.014 A 
ATOM     69  C   UNL A   1      36.712  32.074  28.728  1.00  0.00     0.009 A 
ATOM     70  C   UNL A   1      35.962  29.781  28.911  1.00  0.00     0.009 A 
ATOM     71  C   UNL A   1      35.646  32.351  27.868  1.00  0.00     0.001 A 
ATOM     72  C   UNL A   1      34.913  30.055  28.032  1.00  0.00     0.001 A 
ATOM     73  C   UNL A   1      34.751  31.340  27.520  1.00  0.00     0.000 A 
ENDBRANCH  54  68
BRANCH  55  74
ATOM     74  C   UNL A   1      44.722  28.604  34.977  1.00  0.00    -0.014 A 
ATOM     75  C   UNL A   1      45.860  29.424  34.964  1.00  0.00     0.009 A 
ATOM     76  C   UNL A   1      44.713  27.465  35.796  1.00  0.00     0.009 A 
ATOM     77  C   UNL A   1      46.977  29.095  35.734  1.00  0.00     0.001 A 
ATOM     78  C   UNL A   1      45.821  27.152  36.585  1.00  0.00     0.001 A 
ATOM     79  C   UNL A   1      46.955  27.961  36.546  1.00  0.00     0.000 A 
ENDBRANCH  55  74
BRANCH  67  80
ATOM     80  C   UNL A   1      38.833  32.130  36.081  1.00  0.00    -0.014 A 
ATOM     81  C   UNL A   1      38.006  31.449  36.989  1.00  0.00     0.009 A 
ATOM     82  C   UNL A   1      39.165  33.469  36.338  1.00  0.00     0.009 A 
ATOM     83  C   UNL A   1      37.494  32.109  38.108  1.00  0.00     0.001 A 
ATOM     84  C   UNL A   1      38.674  34.118  37.471  1.00  0.00     0.001 A 
ATOM     85  C   UNL A   1      37.830  33.441  38.350  1.00  0.00     0.000 A 
ENDBRANCH  67  80
ENDBRANCH  41  42
ENDBRANCH  34  36
ENDBRANCH  33  34
ENDBRANCH  32  33
ENDBRANCH  31  32
ENDBRANCH  30  31
ENDBRANCH  29  30
ENDBRANCH   1  29
TORSDOF 20
ENDMDL
MODEL 3
REMARK VINA RESULT:     -10.4      1.619      6.028
REMARK SMILES O=C(OCCOCCOCCOC(=O)c1ccc(-c2c3nc(c(-c4ccccc4)c4ccc([nH]4)c(-c4ccccc4)c4nc(c(-c5ccccc5)c5ccc2[nH]5)C=C4)C=C3)cc1)c1ccc(NS(=O)(=O)C2=Cc3ccccc3CC2)cc1
REMARK SMILES IDX 7 1 6 2 5 3 4 4 3 5 2 6 1 7 63 8 64 9 82 10 65 11 81 12
REMARK SMILES IDX 66 13 67 14 68 16 69 17 70 18 71 19 72 20 80 21 73 22 79 23
REMARK SMILES IDX 74 24 78 25 75 26 77 27 76 28 8 29 9 30 10 31 11 32 12 33
REMARK SMILES IDX 13 34 14 35 15 36 16 37 62 38 17 39 61 40 18 41 19 42 20 43
REMARK SMILES IDX 55 44 21 45 60 46 54 47 56 48 22 49 59 50 53 51 52 52 23 54
REMARK SMILES IDX 45 55 30 56 44 57 31 58 34 59 43 60 57 61 32 62 33 63 42 65
REMARK SMILES IDX 58 66 35 67 24 68 25 69 29 70 26 71 28 72 27 73 46 74 47 75
REMARK SMILES IDX 51 76 48 77 50 78 49 79 36 80 37 81 41 82 38 83 40 84 39 85
REMARK H PARENT 67 15 56 53 34 64
REMARK Flexibility Score: inf
ROOT
ATOM      1  C   UNL A   1      41.204  19.750  26.408  1.00  0.00     0.188 C 
ENDROOT
BRANCH   1   2
ATOM      2  O   UNL A   1      40.252  19.220  25.482  1.00  0.00    -0.376 OA
BRANCH   2   3
ATOM      3  C   UNL A   1      38.907  19.595  25.757  1.00  0.00     0.202 C 
BRANCH   3   4
ATOM      4  C   UNL A   1      38.407  20.907  25.144  1.00  0.00     0.261 C 
BRANCH   4   5
ATOM      5  O   UNL A   1      38.401  22.087  25.973  1.00  0.00    -0.460 OA
BRANCH   5   6
ATOM      6  C   UNL A   1      37.760  23.268  25.848  1.00  0.00     0.338 C 
ATOM      7  O   UNL A   1      38.248  24.275  26.355  1.00  0.00    -0.246 OA
BRANCH   6   8
ATOM      8  C   UNL A   1      36.433  23.387  25.196  1.00  0.00     0.060 A 
ATOM      9  C   UNL A   1      35.234  23.532  25.883  1.00  0.00     0.018 A 
ATOM     10  C   UNL A   1      36.390  23.282  23.796  1.00  0.00     0.018 A 
ATOM     11  C   UNL A   1      34.050  23.758  25.176  1.00  0.00     0.027 A 
ATOM     12  C   UNL A   1      35.203  23.528  23.099  1.00  0.00     0.027 A 
ATOM     13  C   UNL A   1      34.047  23.872  23.791  1.00  0.00     0.049 A 
BRANCH  13  14
ATOM     14  N   UNL A   1      32.983  24.441  23.040  1.00  0.00    -0.280 N 
ATOM     15  H   UNL A   1      32.283  23.831  22.712  1.00  0.00     0.180 HD
BRANCH  14  16
ATOM     16  S   UNL A   1      32.822  26.071  22.664  1.00  0.00     0.258 S 
ATOM     17  O   UNL A   1      33.733  26.720  23.590  1.00  0.00    -0.202 OA
ATOM     18  O   UNL A   1      33.056  26.186  21.239  1.00  0.00    -0.202 OA
BRANCH  16  19
ATOM     19  C   UNL A   1      31.137  26.548  23.045  1.00  0.00     0.066 C 
ATOM     20  C   UNL A   1      30.765  26.355  24.333  1.00  0.00     0.026 C 
ATOM     21  C   UNL A   1      30.694  27.899  22.507  1.00  0.00     0.055 C 
ATOM     22  C   UNL A   1      31.145  27.477  25.250  1.00  0.00    -0.021 A 
ATOM     23  C   UNL A   1      31.405  29.033  23.253  1.00  0.00     0.041 C 
ATOM     24  C   UNL A   1      31.148  27.273  26.630  1.00  0.00     0.008 A 
ATOM     25  C   UNL A   1      31.501  28.744  24.732  1.00  0.00    -0.040 A 
ATOM     26  C   UNL A   1      31.572  28.291  27.485  1.00  0.00     0.001 A 
ATOM     27  C   UNL A   1      31.970  29.741  25.595  1.00  0.00     0.004 A 
ATOM     28  C   UNL A   1      32.008  29.511  26.968  1.00  0.00     0.000 A 
ENDBRANCH  16  19
ENDBRANCH  14  16
ENDBRANCH  13  14
ENDBRANCH   6   8
ENDBRANCH   5   6
ENDBRANCH   4   5
ENDBRANCH   3   4
ENDBRANCH   2   3
ENDBRANCH   1   2
BRANCH   1  29
ATOM     29  C   UNL A   1      42.598  19.144  26.227  1.00  0.00     0.188 C 
BRANCH  29  30
ATOM     30  O   UNL A   1      43.491  19.896  25.407  1.00  0.00    -0.376 OA
BRANCH  30  31
ATOM     31  C   UNL A   1      43.265  21.299  25.299  1.00  0.00     0.202 C 
BRANCH  31  32
ATOM     32  C   UNL A   1      44.281  22.210  25.995  1.00  0.00     0.261 C 
BRANCH  32  33
ATOM     33  O   UNL A   1      43.655  23.324  26.662  1.00  0.00    -0.460 OA
BRANCH  33  34
ATOM     34  C   UNL A   1      43.613  24.460  25.929  1.00  0.00     0.338 C 
ATOM     35  O   UNL A   1      44.128  24.662  24.841  1.00  0.00    -0.246 OA
BRANCH  34  36
ATOM     36  C   UNL A   1      42.775  25.483  26.573  1.00  0.00     0.060 A 
ATOM     37  C   UNL A   1      43.255  26.797  26.607  1.00  0.00     0.016 A 
ATOM     38  C   UNL A   1      41.693  25.098  27.366  1.00  0.00     0.016 A 
ATOM     39  C   UNL A   1      42.712  27.710  27.511  1.00  0.00     0.010 A 
ATOM     40  C   UNL A   1      41.147  26.016  28.270  1.00  0.00     0.010 A 
ATOM     41  C   UNL A   1      41.703  27.302  28.394  1.00  0.00    -0.014 A 
BRANCH  41  42
ATOM     42  C   UNL A   1      41.388  28.148  29.574  1.00  0.00     0.031 A 
ATOM     43  C   UNL A   1      40.206  29.081  29.510  1.00  0.00     0.074 A 
ATOM     44  C   UNL A   1      42.103  28.057  30.707  1.00  0.00     0.049 A 
ATOM     45  N   UNL A   1      39.736  29.887  30.430  1.00  0.00    -0.248 NA
ATOM     46  C   UNL A   1      39.453  29.108  28.246  1.00  0.00     0.031 C 
ATOM     47  C   UNL A   1      43.239  27.165  30.920  1.00  0.00     0.029 A 
ATOM     48  N   UNL A   1      41.971  28.727  31.897  1.00  0.00    -0.354 N 
ATOM     49  C   UNL A   1      38.643  30.523  29.852  1.00  0.00     0.074 A 
ATOM     50  C   UNL A   1      38.535  30.031  28.496  1.00  0.00     0.031 C 
ATOM     51  C   UNL A   1      43.704  27.342  32.168  1.00  0.00     0.029 A 
ATOM     52  C   UNL A   1      42.910  28.375  32.833  1.00  0.00     0.049 A 
ATOM     53  H   UNL A   1      41.269  29.397  32.064  1.00  0.00     0.167 HD
ATOM     54  C   UNL A   1      37.797  31.429  30.400  1.00  0.00     0.031 A 
ATOM     55  C   UNL A   1      43.109  28.835  34.083  1.00  0.00     0.031 A 
ATOM     56  C   UNL A   1      37.894  31.926  31.745  1.00  0.00     0.049 A 
ATOM     57  C   UNL A   1      42.190  29.883  34.649  1.00  0.00     0.074 A 
ATOM     58  C   UNL A   1      37.067  32.829  32.393  1.00  0.00     0.029 A 
ATOM     59  N   UNL A   1      38.881  31.569  32.649  1.00  0.00    -0.354 N 
ATOM     60  N   UNL A   1      41.141  30.448  34.103  1.00  0.00    -0.248 NA
ATOM     61  C   UNL A   1      42.478  30.343  36.016  1.00  0.00     0.031 C 
ATOM     62  C   UNL A   1      37.581  33.053  33.674  1.00  0.00     0.029 A 
ATOM     63  C   UNL A   1      38.697  32.248  33.842  1.00  0.00     0.049 A 
ATOM     64  H   UNL A   1      39.606  30.927  32.470  1.00  0.00     0.167 HD
ATOM     65  C   UNL A   1      40.622  31.299  35.072  1.00  0.00     0.074 A 
ATOM     66  C   UNL A   1      41.468  31.173  36.240  1.00  0.00     0.031 C 
ATOM     67  C   UNL A   1      39.538  32.110  35.001  1.00  0.00     0.031 A 
BRANCH  54  68
ATOM     68  C   UNL A   1      36.702  31.964  29.522  1.00  0.00    -0.014 A 
ATOM     69  C   UNL A   1      35.526  31.233  29.295  1.00  0.00     0.009 A 
ATOM     70  C   UNL A   1      36.835  33.235  28.941  1.00  0.00     0.009 A 
ATOM     71  C   UNL A   1      34.519  31.750  28.475  1.00  0.00     0.001 A 
ATOM     72  C   UNL A   1      35.817  33.760  28.144  1.00  0.00     0.001 A 
ATOM     73  C   UNL A   1      34.666  33.014  27.905  1.00  0.00     0.000 A 
ENDBRANCH  54  68
BRANCH  55  74
ATOM     74  C   UNL A   1      44.228  28.303  34.900  1.00  0.00    -0.014 A 
ATOM     75  C   UNL A   1      45.527  28.813  34.748  1.00  0.00     0.009 A 
ATOM     76  C   UNL A   1      44.009  27.261  35.813  1.00  0.00     0.009 A 
ATOM     77  C   UNL A   1      46.589  28.270  35.473  1.00  0.00     0.001 A 
ATOM     78  C   UNL A   1      45.068  26.737  36.556  1.00  0.00     0.001 A 
ATOM     79  C   UNL A   1      46.358  27.235  36.379  1.00  0.00     0.000 A 
ENDBRANCH  55  74
BRANCH  67  80
ATOM     80  C   UNL A   1      39.171  32.882  36.238  1.00  0.00    -0.014 A 
ATOM     81  C   UNL A   1      38.279  32.363  37.189  1.00  0.00     0.009 A 
ATOM     82  C   UNL A   1      39.754  34.138  36.468  1.00  0.00     0.009 A 
ATOM     83  C   UNL A   1      37.949  33.104  38.325  1.00  0.00     0.001 A 
ATOM     84  C   UNL A   1      39.444  34.865  37.618  1.00  0.00     0.001 A 
ATOM     85  C   UNL A   1      38.534  34.352  38.541  1.00  0.00     0.000 A 
ENDBRANCH  67  80
ENDBRANCH  41  42
ENDBRANCH  34  36
ENDBRANCH  33  34
ENDBRANCH  32  33
ENDBRANCH  31  32
ENDBRANCH  30  31
ENDBRANCH  29  30
ENDBRANCH   1  29
TORSDOF 20
ENDMDL
