MODEL 1
REMARK VINA RESULT:      -9.4      0.000      0.000
REMARK SMILES C[C@@H]1CC[C@@]1(SC1CCCCC1)C(=O)OCCOCCOCCOC(=O)c1ccc(-c2c3nc(c(-c4ccccc4)c4ccc([nH]4)c(-c4ccccc4)c4nc(c(-c5ccccc5)c5ccc2[nH]5)C=C4)C=C3)cc1
REMARK SMILES IDX 19 1 18 2 17 3 16 4 15 5 13 6 14 7 5 8 1 9 2 10 3 11 4 12
REMARK SMILES IDX 6 13 7 14 8 15 12 16 9 17 11 18 10 19 20 20 21 21 22 22
REMARK SMILES IDX 23 23 24 24 25 25 26 26 27 27 28 28 74 29 29 30 73 31 30 32
REMARK SMILES IDX 31 33 32 34 67 35 33 36 72 37 66 38 68 39 34 40 71 41 65 42
REMARK SMILES IDX 64 43 35 45 57 46 42 47 56 48 43 49 46 50 55 51 69 52 44 53
REMARK SMILES IDX 45 54 54 56 70 57 47 58 36 59 37 60 41 61 38 62 40 63 39 64
REMARK SMILES IDX 58 65 59 66 63 67 60 68 62 69 61 70 48 71 49 72 53 73 50 74
REMARK SMILES IDX 52 75 51 76
REMARK H PARENT 68 44 46 55
REMARK Flexibility Score: inf
ROOT
ATOM      1  C   UNL A   1      34.663  31.731  28.466  1.00  0.00     0.188 C 
ENDROOT
BRANCH   1   2
ATOM      2  O   UNL A   1      33.658  31.082  27.710  1.00  0.00    -0.376 OA
BRANCH   2   3
ATOM      3  C   UNL A   1      33.981  30.014  26.844  1.00  0.00     0.202 C 
BRANCH   3   4
ATOM      4  C   UNL A   1      33.586  28.592  27.233  1.00  0.00     0.261 C 
BRANCH   4   5
ATOM      5  O   UNL A   1      32.974  27.820  26.192  1.00  0.00    -0.462 OA
BRANCH   5   6
ATOM      6  C   UNL A   1      31.910  27.038  26.570  1.00  0.00     0.322 C 
ATOM      7  O   UNL A   1      31.019  27.456  27.310  1.00  0.00    -0.251 OA
BRANCH   6   8
ATOM      8  C   UNL A   1      31.989  25.584  25.960  1.00  0.00     0.116 C 
ATOM      9  C   UNL A   1      34.030  25.232  24.144  1.00  0.00     0.010 C 
ATOM     10  C   UNL A   1      33.467  25.163  25.552  1.00  0.00     0.013 C 
ATOM     11  C   UNL A   1      33.184  23.751  26.087  1.00  0.00     0.007 C 
ATOM     12  C   UNL A   1      31.992  24.317  26.873  1.00  0.00     0.030 C 
BRANCH   8  13
ATOM     13  S   UNL A   1      30.793  25.389  24.538  1.00  0.00    -0.140 SA
BRANCH  13  14
ATOM     14  C   UNL A   1      30.455  27.106  23.970  1.00  0.00     0.048 C 
ATOM     15  C   UNL A   1      31.489  27.567  22.938  1.00  0.00     0.014 C 
ATOM     16  C   UNL A   1      29.035  27.435  23.501  1.00  0.00     0.014 C 
ATOM     17  C   UNL A   1      31.316  29.048  22.604  1.00  0.00     0.001 C 
ATOM     18  C   UNL A   1      28.863  28.911  23.147  1.00  0.00     0.001 C 
ATOM     19  C   UNL A   1      29.901  29.345  22.117  1.00  0.00     0.000 C 
ENDBRANCH  13  14
ENDBRANCH   8  13
ENDBRANCH   6   8
ENDBRANCH   5   6
ENDBRANCH   4   5
ENDBRANCH   3   4
ENDBRANCH   2   3
ENDBRANCH   1   2
BRANCH   1  20
ATOM     20  C   UNL A   1      35.277  33.078  28.027  1.00  0.00     0.188 C 
BRANCH  20  21
ATOM     21  O   UNL A   1      34.460  34.215  27.831  1.00  0.00    -0.376 OA
BRANCH  21  22
ATOM     22  C   UNL A   1      33.281  34.347  28.608  1.00  0.00     0.202 C 
BRANCH  22  23
ATOM     23  C   UNL A   1      33.163  35.560  29.539  1.00  0.00     0.261 C 
BRANCH  23  24
ATOM     24  O   UNL A   1      32.311  35.328  30.678  1.00  0.00    -0.460 OA
BRANCH  24  25
ATOM     25  C   UNL A   1      32.715  35.868  31.849  1.00  0.00     0.338 C 
ATOM     26  O   UNL A   1      32.163  36.771  32.477  1.00  0.00    -0.246 OA
BRANCH  25  27
ATOM     27  C   UNL A   1      33.842  35.099  32.412  1.00  0.00     0.060 A 
ATOM     28  C   UNL A   1      35.119  35.678  32.406  1.00  0.00     0.016 A 
ATOM     29  C   UNL A   1      33.665  33.799  32.890  1.00  0.00     0.016 A 
ATOM     30  C   UNL A   1      36.224  34.955  32.858  1.00  0.00     0.010 A 
ATOM     31  C   UNL A   1      34.779  33.067  33.322  1.00  0.00     0.010 A 
ATOM     32  C   UNL A   1      36.069  33.632  33.289  1.00  0.00    -0.014 A 
BRANCH  32  33
ATOM     33  C   UNL A   1      37.262  32.792  33.569  1.00  0.00     0.031 A 
ATOM     34  C   UNL A   1      38.028  33.010  34.846  1.00  0.00     0.074 A 
ATOM     35  C   UNL A   1      37.667  31.838  32.711  1.00  0.00     0.049 A 
ATOM     36  N   UNL A   1      39.149  32.465  35.247  1.00  0.00    -0.248 NA
ATOM     37  C   UNL A   1      37.447  33.969  35.798  1.00  0.00     0.031 C 
ATOM     38  C   UNL A   1      36.985  31.465  31.473  1.00  0.00     0.029 A 
ATOM     39  N   UNL A   1      38.768  31.015  32.752  1.00  0.00    -0.354 N 
ATOM     40  C   UNL A   1      39.419  33.030  36.487  1.00  0.00     0.074 A 
ATOM     41  C   UNL A   1      38.351  33.967  36.766  1.00  0.00     0.031 C 
ATOM     42  C   UNL A   1      37.695  30.501  30.861  1.00  0.00     0.029 A 
ATOM     43  C   UNL A   1      38.902  30.223  31.638  1.00  0.00     0.049 A 
ATOM     44  H   UNL A   1      39.399  30.996  33.507  1.00  0.00     0.167 HD
ATOM     45  C   UNL A   1      40.465  32.798  37.317  1.00  0.00     0.031 A 
ATOM     46  C   UNL A   1      39.902  29.398  31.266  1.00  0.00     0.031 A 
ATOM     47  C   UNL A   1      41.538  31.881  37.039  1.00  0.00     0.049 A 
ATOM     48  C   UNL A   1      41.105  29.232  32.156  1.00  0.00     0.074 A 
ATOM     49  C   UNL A   1      42.632  31.571  37.830  1.00  0.00     0.029 A 
ATOM     50  N   UNL A   1      41.663  31.137  35.877  1.00  0.00    -0.354 N 
ATOM     51  N   UNL A   1      41.348  29.762  33.331  1.00  0.00    -0.248 NA
ATOM     52  C   UNL A   1      42.180  28.353  31.664  1.00  0.00     0.031 C 
ATOM     53  C   UNL A   1      43.454  30.693  37.115  1.00  0.00     0.029 A 
ATOM     54  C   UNL A   1      42.837  30.404  35.909  1.00  0.00     0.049 A 
ATOM     55  H   UNL A   1      41.013  31.133  35.138  1.00  0.00     0.167 HD
ATOM     56  C   UNL A   1      42.587  29.270  33.724  1.00  0.00     0.074 A 
ATOM     57  C   UNL A   1      43.039  28.382  32.673  1.00  0.00     0.031 C 
ATOM     58  C   UNL A   1      43.288  29.531  34.855  1.00  0.00     0.031 A 
BRANCH  45  59
ATOM     59  C   UNL A   1      40.530  33.605  38.584  1.00  0.00    -0.014 A 
ATOM     60  C   UNL A   1      41.160  34.858  38.630  1.00  0.00     0.009 A 
ATOM     61  C   UNL A   1      39.928  33.105  39.750  1.00  0.00     0.009 A 
ATOM     62  C   UNL A   1      41.219  35.574  39.828  1.00  0.00     0.001 A 
ATOM     63  C   UNL A   1      39.962  33.835  40.937  1.00  0.00     0.001 A 
ATOM     64  C   UNL A   1      40.618  35.065  40.979  1.00  0.00     0.000 A 
ENDBRANCH  45  59
BRANCH  46  65
ATOM     65  C   UNL A   1      39.839  28.705  29.951  1.00  0.00    -0.014 A 
ATOM     66  C   UNL A   1      40.249  29.349  28.774  1.00  0.00     0.009 A 
ATOM     67  C   UNL A   1      39.342  27.394  29.867  1.00  0.00     0.009 A 
ATOM     68  C   UNL A   1      40.146  28.700  27.539  1.00  0.00     0.001 A 
ATOM     69  C   UNL A   1      39.269  26.737  28.637  1.00  0.00     0.001 A 
ATOM     70  C   UNL A   1      39.662  27.395  27.474  1.00  0.00     0.000 A 
ENDBRANCH  46  65
BRANCH  58  71
ATOM     71  C   UNL A   1      44.611  28.836  35.031  1.00  0.00    -0.014 A 
ATOM     72  C   UNL A   1      45.811  29.434  34.613  1.00  0.00     0.009 A 
ATOM     73  C   UNL A   1      44.664  27.587  35.670  1.00  0.00     0.009 A 
ATOM     74  C   UNL A   1      47.031  28.781  34.805  1.00  0.00     0.001 A 
ATOM     75  C   UNL A   1      45.887  26.950  35.888  1.00  0.00     0.001 A 
ATOM     76  C   UNL A   1      47.069  27.543  35.447  1.00  0.00     0.000 A 
ENDBRANCH  58  71
ENDBRANCH  32  33
ENDBRANCH  25  27
ENDBRANCH  24  25
ENDBRANCH  23  24
ENDBRANCH  22  23
ENDBRANCH  21  22
ENDBRANCH  20  21
ENDBRANCH   1  20
TORSDOF 19
ENDMDL
MODEL 2
REMARK VINA RESULT:      -9.3      4.279      9.276
REMARK SMILES C[C@@H]1CC[C@@]1(SC1CCCCC1)C(=O)OCCOCCOCCOC(=O)c1ccc(-c2c3nc(c(-c4ccccc4)c4ccc([nH]4)c(-c4ccccc4)c4nc(c(-c5ccccc5)c5ccc2[nH]5)C=C4)C=C3)cc1
REMARK SMILES IDX 19 1 18 2 17 3 16 4 15 5 13 6 14 7 5 8 1 9 2 10 3 11 4 12
REMARK SMILES IDX 6 13 7 14 8 15 12 16 9 17 11 18 10 19 20 20 21 21 22 22
REMARK SMILES IDX 23 23 24 24 25 25 26 26 27 27 28 28 74 29 29 30 73 31 30 32
REMARK SMILES IDX 31 33 32 34 67 35 33 36 72 37 66 38 68 39 34 40 71 41 65 42
REMARK SMILES IDX 64 43 35 45 57 46 42 47 56 48 43 49 46 50 55 51 69 52 44 53
REMARK SMILES IDX 45 54 54 56 70 57 47 58 36 59 37 60 41 61 38 62 40 63 39 64
REMARK SMILES IDX 58 65 59 66 63 67 60 68 62 69 61 70 48 71 49 72 53 73 50 74
REMARK SMILES IDX 52 75 51 76
REMARK H PARENT 68 44 46 55
REMARK Flexibility Score: inf
ROOT
ATOM      1  C   UNL A   1      40.408  21.682  27.163  1.00  0.00     0.188 C 
ENDROOT
BRANCH   1   2
ATOM      2  O   UNL A   1      39.384  22.484  26.607  1.00  0.00    -0.376 OA
BRANCH   2   3
ATOM      3  C   UNL A   1      38.409  21.923  25.751  1.00  0.00     0.202 C 
BRANCH   3   4
ATOM      4  C   UNL A   1      37.298  22.811  25.202  1.00  0.00     0.261 C 
BRANCH   4   5
ATOM      5  O   UNL A   1      36.271  22.127  24.472  1.00  0.00    -0.462 OA
BRANCH   5   6
ATOM      6  C   UNL A   1      35.742  22.804  23.400  1.00  0.00     0.322 C 
ATOM      7  O   UNL A   1      36.370  22.966  22.353  1.00  0.00    -0.251 OA
BRANCH   6   8
ATOM      8  C   UNL A   1      34.283  23.334  23.686  1.00  0.00     0.116 C 
ATOM      9  C   UNL A   1      34.158  25.314  25.598  1.00  0.00     0.010 C 
ATOM     10  C   UNL A   1      34.258  24.854  24.155  1.00  0.00     0.013 C 
ATOM     11  C   UNL A   1      32.999  25.068  23.299  1.00  0.00     0.007 C 
ATOM     12  C   UNL A   1      33.338  23.784  22.527  1.00  0.00     0.030 C 
BRANCH   8  13
ATOM     13  S   UNL A   1      33.391  22.220  24.893  1.00  0.00    -0.140 SA
BRANCH  13  14
ATOM     14  C   UNL A   1      33.388  20.566  24.090  1.00  0.00     0.048 C 
ATOM     15  C   UNL A   1      33.642  19.450  25.108  1.00  0.00     0.014 C 
ATOM     16  C   UNL A   1      32.204  20.215  23.184  1.00  0.00     0.014 C 
ATOM     17  C   UNL A   1      33.820  18.098  24.418  1.00  0.00     0.001 C 
ATOM     18  C   UNL A   1      32.369  18.855  22.507  1.00  0.00     0.001 C 
ATOM     19  C   UNL A   1      32.618  17.762  23.541  1.00  0.00     0.000 C 
ENDBRANCH  13  14
ENDBRANCH   8  13
ENDBRANCH   6   8
ENDBRANCH   5   6
ENDBRANCH   4   5
ENDBRANCH   3   4
ENDBRANCH   2   3
ENDBRANCH   1   2
BRANCH   1  20
ATOM     20  C   UNL A   1      40.863  20.361  26.504  1.00  0.00     0.188 C 
BRANCH  20  21
ATOM     21  O   UNL A   1      42.066  20.299  25.764  1.00  0.00    -0.376 OA
BRANCH  21  22
ATOM     22  C   UNL A   1      42.714  21.512  25.418  1.00  0.00     0.202 C 
BRANCH  22  23
ATOM     23  C   UNL A   1      44.236  21.589  25.582  1.00  0.00     0.261 C 
BRANCH  23  24
ATOM     24  O   UNL A   1      44.678  22.766  26.288  1.00  0.00    -0.460 OA
BRANCH  24  25
ATOM     25  C   UNL A   1      44.483  23.948  25.663  1.00  0.00     0.338 C 
ATOM     26  O   UNL A   1      44.718  24.210  24.484  1.00  0.00    -0.246 OA
BRANCH  25  27
ATOM     27  C   UNL A   1      43.755  24.884  26.543  1.00  0.00     0.060 A 
ATOM     28  C   UNL A   1      44.089  26.245  26.497  1.00  0.00     0.016 A 
ATOM     29  C   UNL A   1      42.794  24.429  27.447  1.00  0.00     0.016 A 
ATOM     30  C   UNL A   1      43.479  27.151  27.367  1.00  0.00     0.010 A 
ATOM     31  C   UNL A   1      42.200  25.336  28.335  1.00  0.00     0.010 A 
ATOM     32  C   UNL A   1      42.554  26.699  28.315  1.00  0.00    -0.014 A 
BRANCH  32  33
ATOM     33  C   UNL A   1      42.063  27.616  29.377  1.00  0.00     0.031 A 
ATOM     34  C   UNL A   1      42.775  27.649  30.703  1.00  0.00     0.074 A 
ATOM     35  C   UNL A   1      41.004  28.420  29.176  1.00  0.00     0.049 A 
ATOM     36  N   UNL A   1      42.462  28.293  31.799  1.00  0.00    -0.248 NA
ATOM     37  C   UNL A   1      44.006  26.849  30.801  1.00  0.00     0.031 C 
ATOM     38  C   UNL A   1      40.262  28.550  27.924  1.00  0.00     0.029 A 
ATOM     39  N   UNL A   1      40.362  29.276  30.040  1.00  0.00    -0.354 N 
ATOM     40  C   UNL A   1      43.444  27.961  32.724  1.00  0.00     0.074 A 
ATOM     41  C   UNL A   1      44.356  27.050  32.063  1.00  0.00     0.031 C 
ATOM     42  C   UNL A   1      39.251  29.418  28.106  1.00  0.00     0.029 A 
ATOM     43  C   UNL A   1      39.247  29.868  29.498  1.00  0.00     0.049 A 
ATOM     44  H   UNL A   1      40.670  29.447  30.959  1.00  0.00     0.167 HD
ATOM     45  C   UNL A   1      43.574  28.369  34.009  1.00  0.00     0.031 A 
ATOM     46  C   UNL A   1      38.306  30.650  30.066  1.00  0.00     0.031 A 
ATOM     47  C   UNL A   1      42.664  29.261  34.677  1.00  0.00     0.049 A 
ATOM     48  C   UNL A   1      38.414  31.009  31.525  1.00  0.00     0.074 A 
ATOM     49  C   UNL A   1      42.726  29.741  35.975  1.00  0.00     0.029 A 
ATOM     50  N   UNL A   1      41.519  29.796  34.108  1.00  0.00    -0.354 N 
ATOM     51  N   UNL A   1      39.351  30.698  32.388  1.00  0.00    -0.248 NA
ATOM     52  C   UNL A   1      37.327  31.826  32.090  1.00  0.00     0.031 C 
ATOM     53  C   UNL A   1      41.581  30.510  36.212  1.00  0.00     0.029 A 
ATOM     54  C   UNL A   1      40.843  30.564  35.041  1.00  0.00     0.049 A 
ATOM     55  H   UNL A   1      41.231  29.651  33.179  1.00  0.00     0.167 HD
ATOM     56  C   UNL A   1      38.977  31.294  33.588  1.00  0.00     0.074 A 
ATOM     57  C   UNL A   1      37.739  32.002  33.338  1.00  0.00     0.031 C 
ATOM     58  C   UNL A   1      39.604  31.256  34.790  1.00  0.00     0.031 A 
BRANCH  45  59
ATOM     59  C   UNL A   1      44.717  27.796  34.801  1.00  0.00    -0.014 A 
ATOM     60  C   UNL A   1      44.595  26.590  35.506  1.00  0.00     0.009 A 
ATOM     61  C   UNL A   1      45.948  28.473  34.820  1.00  0.00     0.009 A 
ATOM     62  C   UNL A   1      45.670  26.094  36.247  1.00  0.00     0.001 A 
ATOM     63  C   UNL A   1      47.028  27.961  35.537  1.00  0.00     0.001 A 
ATOM     64  C   UNL A   1      46.886  26.777  36.260  1.00  0.00     0.000 A 
ENDBRANCH  45  59
BRANCH  46  65
ATOM     65  C   UNL A   1      37.137  31.102  29.266  1.00  0.00    -0.014 A 
ATOM     66  C   UNL A   1      36.104  30.214  28.929  1.00  0.00     0.009 A 
ATOM     67  C   UNL A   1      37.062  32.430  28.813  1.00  0.00     0.009 A 
ATOM     68  C   UNL A   1      35.031  30.643  28.141  1.00  0.00     0.001 A 
ATOM     69  C   UNL A   1      35.975  32.863  28.053  1.00  0.00     0.001 A 
ATOM     70  C   UNL A   1      34.965  31.966  27.710  1.00  0.00     0.000 A 
ENDBRANCH  46  65
BRANCH  58  71
ATOM     71  C   UNL A   1      38.977  32.017  35.927  1.00  0.00    -0.014 A 
ATOM     72  C   UNL A   1      38.151  31.377  36.865  1.00  0.00     0.009 A 
ATOM     73  C   UNL A   1      39.258  33.383  36.092  1.00  0.00     0.009 A 
ATOM     74  C   UNL A   1      37.596  32.098  37.926  1.00  0.00     0.001 A 
ATOM     75  C   UNL A   1      38.726  34.093  37.170  1.00  0.00     0.001 A 
ATOM     76  C   UNL A   1      37.888  33.452  38.081  1.00  0.00     0.000 A 
ENDBRANCH  58  71
ENDBRANCH  32  33
ENDBRANCH  25  27
ENDBRANCH  24  25
ENDBRANCH  23  24
ENDBRANCH  22  23
ENDBRANCH  21  22
ENDBRANCH  20  21
ENDBRANCH   1  20
TORSDOF 19
ENDMDL
MODEL 3
REMARK VINA RESULT:      -9.3      5.180     10.193
REMARK SMILES C[C@@H]1CC[C@@]1(SC1CCCCC1)C(=O)OCCOCCOCCOC(=O)c1ccc(-c2c3nc(c(-c4ccccc4)c4ccc([nH]4)c(-c4ccccc4)c4nc(c(-c5ccccc5)c5ccc2[nH]5)C=C4)C=C3)cc1
REMARK SMILES IDX 19 1 18 2 17 3 16 4 15 5 13 6 14 7 5 8 1 9 2 10 3 11 4 12
REMARK SMILES IDX 6 13 7 14 8 15 12 16 9 17 11 18 10 19 20 20 21 21 22 22
REMARK SMILES IDX 23 23 24 24 25 25 26 26 27 27 28 28 74 29 29 30 73 31 30 32
REMARK SMILES IDX 31 33 32 34 67 35 33 36 72 37 66 38 68 39 34 40 71 41 65 42
REMARK SMILES IDX 64 43 35 45 57 46 42 47 56 48 43 49 46 50 55 51 69 52 44 53
REMARK SMILES IDX 45 54 54 56 70 57 47 58 36 59 37 60 41 61 38 62 40 63 39 64
REMARK SMILES IDX 58 65 59 66 63 67 60 68 62 69 61 70 48 71 49 72 53 73 50 74
REMARK SMILES IDX 52 75 51 76
REMARK H PARENT 68 44 46 55
REMARK Flexibility Score: inf
ROOT
ATOM      1  C   UNL A   1      35.133  20.682  24.913  1.00  0.00     0.188 C 
ENDROOT
BRANCH   1   2
ATOM      2  O   UNL A   1      34.019  21.283  25.546  1.00  0.00    -0.376 OA
BRANCH   2   3
ATOM      3  C   UNL A   1      34.168  21.969  26.773  1.00  0.00     0.202 C 
BRANCH   3   4
ATOM      4  C   UNL A   1      32.943  22.196  27.654  1.00  0.00     0.261 C 
BRANCH   4   5
ATOM      5  O   UNL A   1      32.343  23.493  27.544  1.00  0.00    -0.462 OA
BRANCH   5   6
ATOM      6  C   UNL A   1      31.180  23.559  26.816  1.00  0.00     0.322 C 
ATOM      7  O   UNL A   1      30.165  22.944  27.145  1.00  0.00    -0.251 OA
BRANCH   6   8
ATOM      8  C   UNL A   1      31.321  24.482  25.543  1.00  0.00     0.116 C 
ATOM      9  C   UNL A   1      32.113  23.148  23.266  1.00  0.00     0.010 C 
ATOM     10  C   UNL A   1      31.040  23.707  24.183  1.00  0.00     0.013 C 
ATOM     11  C   UNL A   1      30.299  24.948  23.661  1.00  0.00     0.007 C 
ATOM     12  C   UNL A   1      30.175  25.449  25.108  1.00  0.00     0.030 C 
BRANCH   8  13
ATOM     13  S   UNL A   1      32.978  25.343  25.522  1.00  0.00    -0.140 SA
BRANCH  13  14
ATOM     14  C   UNL A   1      32.587  27.121  25.784  1.00  0.00     0.048 C 
ATOM     15  C   UNL A   1      32.159  27.392  27.230  1.00  0.00     0.014 C 
ATOM     16  C   UNL A   1      33.618  28.154  25.320  1.00  0.00     0.014 C 
ATOM     17  C   UNL A   1      31.661  28.826  27.402  1.00  0.00     0.001 C 
ATOM     18  C   UNL A   1      33.132  29.590  25.508  1.00  0.00     0.001 C 
ATOM     19  C   UNL A   1      32.715  29.835  26.955  1.00  0.00     0.000 C 
ENDBRANCH  13  14
ENDBRANCH   8  13
ENDBRANCH   6   8
ENDBRANCH   5   6
ENDBRANCH   4   5
ENDBRANCH   3   4
ENDBRANCH   2   3
ENDBRANCH   1   2
BRANCH   1  20
ATOM     20  C   UNL A   1      36.581  20.938  25.385  1.00  0.00     0.188 C 
BRANCH  20  21
ATOM     21  O   UNL A   1      37.649  20.146  24.906  1.00  0.00    -0.376 OA
BRANCH  21  22
ATOM     22  C   UNL A   1      38.960  20.416  25.376  1.00  0.00     0.202 C 
BRANCH  22  23
ATOM     23  C   UNL A   1      39.803  19.237  25.876  1.00  0.00     0.261 C 
BRANCH  23  24
ATOM     24  O   UNL A   1      41.139  19.216  25.333  1.00  0.00    -0.460 OA
BRANCH  24  25
ATOM     25  C   UNL A   1      42.144  19.452  26.204  1.00  0.00     0.338 C 
ATOM     26  O   UNL A   1      43.066  18.689  26.495  1.00  0.00    -0.246 OA
BRANCH  25  27
ATOM     27  C   UNL A   1      42.119  20.856  26.656  1.00  0.00     0.060 A 
ATOM     28  C   UNL A   1      42.414  21.865  25.728  1.00  0.00     0.016 A 
ATOM     29  C   UNL A   1      41.864  21.185  27.989  1.00  0.00     0.016 A 
ATOM     30  C   UNL A   1      42.476  23.201  26.132  1.00  0.00     0.010 A 
ATOM     31  C   UNL A   1      41.949  22.522  28.397  1.00  0.00     0.010 A 
ATOM     32  C   UNL A   1      42.278  23.537  27.477  1.00  0.00    -0.014 A 
BRANCH  32  33
ATOM     33  C   UNL A   1      42.550  24.919  27.950  1.00  0.00     0.031 A 
ATOM     34  C   UNL A   1      43.952  25.293  28.348  1.00  0.00     0.074 A 
ATOM     35  C   UNL A   1      41.574  25.841  28.022  1.00  0.00     0.049 A 
ATOM     36  N   UNL A   1      44.397  26.403  28.881  1.00  0.00    -0.248 NA
ATOM     37  C   UNL A   1      44.990  24.278  28.109  1.00  0.00     0.031 C 
ATOM     38  C   UNL A   1      40.188  25.645  27.604  1.00  0.00     0.029 A 
ATOM     39  N   UNL A   1      41.606  27.133  28.492  1.00  0.00    -0.354 N 
ATOM     40  C   UNL A   1      45.762  26.214  29.061  1.00  0.00     0.074 A 
ATOM     41  C   UNL A   1      46.068  24.879  28.591  1.00  0.00     0.031 C 
ATOM     42  C   UNL A   1      39.496  26.771  27.854  1.00  0.00     0.029 A 
ATOM     43  C   UNL A   1      40.377  27.747  28.494  1.00  0.00     0.049 A 
ATOM     44  H   UNL A   1      42.431  27.576  28.798  1.00  0.00     0.167 HD
ATOM     45  C   UNL A   1      46.677  27.069  29.578  1.00  0.00     0.031 A 
ATOM     46  C   UNL A   1      39.996  28.941  28.990  1.00  0.00     0.031 A 
ATOM     47  C   UNL A   1      46.377  28.390  30.062  1.00  0.00     0.049 A 
ATOM     48  C   UNL A   1      41.011  29.835  29.653  1.00  0.00     0.074 A 
ATOM     49  C   UNL A   1      47.246  29.331  30.588  1.00  0.00     0.029 A 
ATOM     50  N   UNL A   1      45.112  28.953  30.093  1.00  0.00    -0.354 N 
ATOM     51  N   UNL A   1      42.300  29.652  29.810  1.00  0.00    -0.248 NA
ATOM     52  C   UNL A   1      40.515  31.102  30.215  1.00  0.00     0.031 C 
ATOM     53  C   UNL A   1      46.494  30.436  31.003  1.00  0.00     0.029 A 
ATOM     54  C   UNL A   1      45.168  30.210  30.671  1.00  0.00     0.049 A 
ATOM     55  H   UNL A   1      44.294  28.522  29.755  1.00  0.00     0.167 HD
ATOM     56  C   UNL A   1      42.769  30.783  30.469  1.00  0.00     0.074 A 
ATOM     57  C   UNL A   1      41.631  31.657  30.664  1.00  0.00     0.031 C 
ATOM     58  C   UNL A   1      44.031  31.071  30.875  1.00  0.00     0.031 A 
BRANCH  45  59
ATOM     59  C   UNL A   1      48.090  26.569  29.706  1.00  0.00    -0.014 A 
ATOM     60  C   UNL A   1      48.524  25.865  30.840  1.00  0.00     0.009 A 
ATOM     61  C   UNL A   1      48.996  26.792  28.656  1.00  0.00     0.009 A 
ATOM     62  C   UNL A   1      49.847  25.430  30.936  1.00  0.00     0.001 A 
ATOM     63  C   UNL A   1      50.309  26.331  28.742  1.00  0.00     0.001 A 
ATOM     64  C   UNL A   1      50.738  25.660  29.886  1.00  0.00     0.000 A 
ENDBRANCH  45  59
BRANCH  46  65
ATOM     65  C   UNL A   1      38.564  29.343  28.935  1.00  0.00    -0.014 A 
ATOM     66  C   UNL A   1      37.985  29.790  27.738  1.00  0.00     0.009 A 
ATOM     67  C   UNL A   1      37.775  29.304  30.096  1.00  0.00     0.009 A 
ATOM     68  C   UNL A   1      36.649  30.205  27.710  1.00  0.00     0.001 A 
ATOM     69  C   UNL A   1      36.434  29.689  30.058  1.00  0.00     0.001 A 
ATOM     70  C   UNL A   1      35.875  30.148  28.867  1.00  0.00     0.000 A 
ENDBRANCH  46  65
BRANCH  58  71
ATOM     71  C   UNL A   1      44.259  32.393  31.556  1.00  0.00    -0.014 A 
ATOM     72  C   UNL A   1      44.145  32.526  32.950  1.00  0.00     0.009 A 
ATOM     73  C   UNL A   1      44.642  33.512  30.798  1.00  0.00     0.009 A 
ATOM     74  C   UNL A   1      44.382  33.758  33.564  1.00  0.00     0.001 A 
ATOM     75  C   UNL A   1      44.907  34.734  31.419  1.00  0.00     0.001 A 
ATOM     76  C   UNL A   1      44.768  34.858  32.800  1.00  0.00     0.000 A 
ENDBRANCH  58  71
ENDBRANCH  32  33
ENDBRANCH  25  27
ENDBRANCH  24  25
ENDBRANCH  23  24
ENDBRANCH  22  23
ENDBRANCH  21  22
ENDBRANCH  20  21
ENDBRANCH   1  20
TORSDOF 19
ENDMDL
