MODEL 1
REMARK VINA RESULT:     -10.4      0.000      0.000
REMARK SMILES CC(C)(C)c1ccc(NS(=O)(=O)c2cccc(C(=O)OCCOCCOCCOC(=O)c3ccc(-c4c5nc(c(-c6ccccc6)c6ccc([nH]6)c(-c6ccccc6)c6nc(c(-c7ccccc7)c7ccc4[nH]7)C=C6)C=C5)cc3)c2)cc1
REMARK SMILES IDX 24 1 23 2 22 3 21 4 20 5 18 6 19 7 17 8 13 9 14 10 80 11
REMARK SMILES IDX 15 12 16 13 10 14 11 15 12 16 9 17 8 19 5 20 6 21 82 22 7 23
REMARK SMILES IDX 81 24 2 25 1 26 3 27 4 28 25 29 26 30 27 31 28 32 29 33
REMARK SMILES IDX 30 34 31 35 32 36 33 37 79 38 34 39 78 40 35 41 36 42 37 43
REMARK SMILES IDX 72 44 38 45 77 46 71 47 73 48 39 49 76 50 70 51 69 52 40 54
REMARK SMILES IDX 62 55 47 56 61 57 48 58 51 59 60 60 74 61 49 62 50 63 59 65
REMARK SMILES IDX 75 66 52 67 41 68 42 69 46 70 43 71 45 72 44 73 63 74 64 75
REMARK SMILES IDX 68 76 65 77 67 78 66 79 53 80 54 81 58 82 55 83 57 84 56 85
REMARK H PARENT 9 18 73 53 51 64
REMARK Flexibility Score: inf
ROOT
ATOM      1  C   UNL A   1      40.780  21.460  26.726  1.00  0.00     0.188 C 
ENDROOT
BRANCH   1   2
ATOM      2  O   UNL A   1      39.742  21.963  25.908  1.00  0.00    -0.376 OA
BRANCH   2   3
ATOM      3  C   UNL A   1      38.593  21.175  25.636  1.00  0.00     0.202 C 
BRANCH   3   4
ATOM      4  C   UNL A   1      37.253  21.770  25.164  1.00  0.00     0.261 C 
BRANCH   4   5
ATOM      5  O   UNL A   1      36.083  21.376  25.898  1.00  0.00    -0.460 OA
BRANCH   5   6
ATOM      6  C   UNL A   1      35.101  20.828  25.143  1.00  0.00     0.338 C 
ATOM      7  O   UNL A   1      35.006  19.652  24.825  1.00  0.00    -0.246 OA
BRANCH   6   8
ATOM      8  C   UNL A   1      34.007  21.797  24.868  1.00  0.00     0.061 A 
ATOM      9  C   UNL A   1      32.942  23.968  24.953  1.00  0.00     0.088 A 
ATOM     10  C   UNL A   1      32.016  23.543  23.992  1.00  0.00     0.022 A 
ATOM     11  C   UNL A   1      33.963  23.101  25.384  1.00  0.00     0.038 A 
ATOM     12  C   UNL A   1      32.002  22.219  23.567  1.00  0.00     0.002 A 
ATOM     13  C   UNL A   1      32.997  21.350  24.002  1.00  0.00     0.016 A 
BRANCH   9  14
ATOM     14  S   UNL A   1      32.902  25.672  25.473  1.00  0.00     0.261 S 
ATOM     15  O   UNL A   1      34.148  25.934  26.163  1.00  0.00    -0.201 OA
ATOM     16  O   UNL A   1      31.640  25.889  26.151  1.00  0.00    -0.201 OA
BRANCH  14  17
ATOM     17  N   UNL A   1      32.865  26.695  24.106  1.00  0.00    -0.280 N 
ATOM     18  H   UNL A   1      33.660  26.763  23.530  1.00  0.00     0.180 HD
BRANCH  17  19
ATOM     19  C   UNL A   1      31.693  27.458  23.782  1.00  0.00     0.049 A 
ATOM     20  C   UNL A   1      29.409  29.032  23.152  1.00  0.00    -0.042 A 
ATOM     21  C   UNL A   1      30.583  29.605  23.677  1.00  0.00     0.006 A 
ATOM     22  C   UNL A   1      29.423  27.643  22.934  1.00  0.00     0.006 A 
ATOM     23  C   UNL A   1      31.719  28.838  23.945  1.00  0.00     0.027 A 
ATOM     24  C   UNL A   1      30.547  26.860  23.259  1.00  0.00     0.027 A 
BRANCH  20  25
ATOM     25  C   UNL A   1      28.186  29.925  22.865  1.00  0.00    -0.013 C 
ATOM     26  C   UNL A   1      26.873  29.141  23.101  1.00  0.00     0.016 C 
ATOM     27  C   UNL A   1      28.239  30.380  21.391  1.00  0.00     0.016 C 
ATOM     28  C   UNL A   1      28.108  31.194  23.744  1.00  0.00     0.016 C 
ENDBRANCH  20  25
ENDBRANCH  17  19
ENDBRANCH  14  17
ENDBRANCH   9  14
ENDBRANCH   6   8
ENDBRANCH   5   6
ENDBRANCH   4   5
ENDBRANCH   3   4
ENDBRANCH   2   3
ENDBRANCH   1   2
BRANCH   1  29
ATOM     29  C   UNL A   1      41.841  20.510  26.139  1.00  0.00     0.188 C 
BRANCH  29  30
ATOM     30  O   UNL A   1      43.183  20.766  26.466  1.00  0.00    -0.376 OA
BRANCH  30  31
ATOM     31  C   UNL A   1      44.149  20.996  25.454  1.00  0.00     0.202 C 
BRANCH  31  32
ATOM     32  C   UNL A   1      44.100  22.093  24.370  1.00  0.00     0.261 C 
BRANCH  32  33
ATOM     33  O   UNL A   1      43.435  23.322  24.668  1.00  0.00    -0.460 OA
BRANCH  33  34
ATOM     34  C   UNL A   1      44.234  24.353  25.020  1.00  0.00     0.338 C 
ATOM     35  O   UNL A   1      45.340  24.630  24.566  1.00  0.00    -0.246 OA
BRANCH  34  36
ATOM     36  C   UNL A   1      43.498  25.235  25.938  1.00  0.00     0.060 A 
ATOM     37  C   UNL A   1      43.896  26.573  26.052  1.00  0.00     0.016 A 
ATOM     38  C   UNL A   1      42.450  24.734  26.710  1.00  0.00     0.016 A 
ATOM     39  C   UNL A   1      43.253  27.415  26.958  1.00  0.00     0.010 A 
ATOM     40  C   UNL A   1      41.822  25.573  27.633  1.00  0.00     0.010 A 
ATOM     41  C   UNL A   1      42.239  26.909  27.781  1.00  0.00    -0.014 A 
BRANCH  41  42
ATOM     42  C   UNL A   1      41.732  27.720  28.912  1.00  0.00     0.031 A 
ATOM     43  C   UNL A   1      42.461  27.658  30.226  1.00  0.00     0.074 A 
ATOM     44  C   UNL A   1      40.650  28.506  28.778  1.00  0.00     0.049 A 
ATOM     45  N   UNL A   1      42.172  28.232  31.365  1.00  0.00    -0.248 NA
ATOM     46  C   UNL A   1      43.683  26.837  30.256  1.00  0.00     0.031 C 
ATOM     47  C   UNL A   1      39.883  28.692  27.548  1.00  0.00     0.029 A 
ATOM     48  N   UNL A   1      40.003  29.288  29.703  1.00  0.00    -0.354 N 
ATOM     49  C   UNL A   1      43.164  27.832  32.250  1.00  0.00     0.074 A 
ATOM     50  C   UNL A   1      44.050  26.947  31.524  1.00  0.00     0.031 C 
ATOM     51  C   UNL A   1      38.859  29.529  27.798  1.00  0.00     0.029 A 
ATOM     52  C   UNL A   1      38.877  29.903  29.211  1.00  0.00     0.049 A 
ATOM     53  H   UNL A   1      40.316  29.398  30.629  1.00  0.00     0.167 HD
ATOM     54  C   UNL A   1      43.326  28.170  33.551  1.00  0.00     0.031 A 
ATOM     55  C   UNL A   1      37.955  30.658  29.837  1.00  0.00     0.031 A 
ATOM     56  C   UNL A   1      42.434  29.030  34.281  1.00  0.00     0.049 A 
ATOM     57  C   UNL A   1      38.107  30.946  31.309  1.00  0.00     0.074 A 
ATOM     58  C   UNL A   1      42.521  29.443  35.599  1.00  0.00     0.029 A 
ATOM     59  N   UNL A   1      41.283  29.599  33.758  1.00  0.00    -0.354 N 
ATOM     60  N   UNL A   1      39.064  30.587  32.130  1.00  0.00    -0.248 NA
ATOM     61  C   UNL A   1      37.047  31.749  31.939  1.00  0.00     0.031 C 
ATOM     62  C   UNL A   1      41.389  30.210  35.892  1.00  0.00     0.029 A 
ATOM     63  C   UNL A   1      40.635  30.334  34.736  1.00  0.00     0.049 A 
ATOM     64  H   UNL A   1      40.974  29.496  32.829  1.00  0.00     0.167 HD
ATOM     65  C   UNL A   1      38.741  31.147  33.360  1.00  0.00     0.074 A 
ATOM     66  C   UNL A   1      37.507  31.880  33.176  1.00  0.00     0.031 C 
ATOM     67  C   UNL A   1      39.407  31.062  34.538  1.00  0.00     0.031 A 
BRANCH  54  68
ATOM     68  C   UNL A   1      44.495  27.569  34.280  1.00  0.00    -0.014 A 
ATOM     69  C   UNL A   1      44.328  26.499  35.174  1.00  0.00     0.009 A 
ATOM     70  C   UNL A   1      45.788  28.064  34.048  1.00  0.00     0.009 A 
ATOM     71  C   UNL A   1      45.428  25.962  35.848  1.00  0.00     0.001 A 
ATOM     72  C   UNL A   1      46.889  27.506  34.699  1.00  0.00     0.001 A 
ATOM     73  C   UNL A   1      46.708  26.462  35.605  1.00  0.00     0.000 A 
ENDBRANCH  54  68
BRANCH  55  74
ATOM     74  C   UNL A   1      36.781  31.182  29.087  1.00  0.00    -0.014 A 
ATOM     75  C   UNL A   1      35.756  30.319  28.668  1.00  0.00     0.009 A 
ATOM     76  C   UNL A   1      36.698  32.544  28.757  1.00  0.00     0.009 A 
ATOM     77  C   UNL A   1      34.686  30.806  27.912  1.00  0.00     0.001 A 
ATOM     78  C   UNL A   1      35.612  33.033  28.028  1.00  0.00     0.001 A 
ATOM     79  C   UNL A   1      34.613  32.163  27.597  1.00  0.00     0.000 A 
ENDBRANCH  55  74
BRANCH  67  80
ATOM     80  C   UNL A   1      38.843  31.818  35.711  1.00  0.00    -0.014 A 
ATOM     81  C   UNL A   1      38.079  31.178  36.699  1.00  0.00     0.009 A 
ATOM     82  C   UNL A   1      39.121  33.188  35.850  1.00  0.00     0.009 A 
ATOM     83  C   UNL A   1      37.575  31.903  37.783  1.00  0.00     0.001 A 
ATOM     84  C   UNL A   1      38.646  33.902  36.951  1.00  0.00     0.001 A 
ATOM     85  C   UNL A   1      37.865  33.261  37.911  1.00  0.00     0.000 A 
ENDBRANCH  67  80
ENDBRANCH  41  42
ENDBRANCH  34  36
ENDBRANCH  33  34
ENDBRANCH  32  33
ENDBRANCH  31  32
ENDBRANCH  30  31
ENDBRANCH  29  30
ENDBRANCH   1  29
TORSDOF 21
ENDMDL
MODEL 2
REMARK VINA RESULT:     -10.1      5.888     13.201
REMARK SMILES CC(C)(C)c1ccc(NS(=O)(=O)c2cccc(C(=O)OCCOCCOCCOC(=O)c3ccc(-c4c5nc(c(-c6ccccc6)c6ccc([nH]6)c(-c6ccccc6)c6nc(c(-c7ccccc7)c7ccc4[nH]7)C=C6)C=C5)cc3)c2)cc1
REMARK SMILES IDX 24 1 23 2 22 3 21 4 20 5 18 6 19 7 17 8 13 9 14 10 80 11
REMARK SMILES IDX 15 12 16 13 10 14 11 15 12 16 9 17 8 19 5 20 6 21 82 22 7 23
REMARK SMILES IDX 81 24 2 25 1 26 3 27 4 28 25 29 26 30 27 31 28 32 29 33
REMARK SMILES IDX 30 34 31 35 32 36 33 37 79 38 34 39 78 40 35 41 36 42 37 43
REMARK SMILES IDX 72 44 38 45 77 46 71 47 73 48 39 49 76 50 70 51 69 52 40 54
REMARK SMILES IDX 62 55 47 56 61 57 48 58 51 59 60 60 74 61 49 62 50 63 59 65
REMARK SMILES IDX 75 66 52 67 41 68 42 69 46 70 43 71 45 72 44 73 63 74 64 75
REMARK SMILES IDX 68 76 65 77 67 78 66 79 53 80 54 81 58 82 55 83 57 84 56 85
REMARK H PARENT 9 18 73 53 51 64
REMARK Flexibility Score: inf
ROOT
ATOM      1  C   UNL A   1      36.231  34.118  33.887  1.00  0.00     0.188 C 
ENDROOT
BRANCH   1   2
ATOM      2  O   UNL A   1      36.469  32.924  34.606  1.00  0.00    -0.376 OA
BRANCH   2   3
ATOM      3  C   UNL A   1      37.336  31.928  34.084  1.00  0.00     0.202 C 
BRANCH   3   4
ATOM      4  C   UNL A   1      38.702  31.586  34.708  1.00  0.00     0.261 C 
BRANCH   4   5
ATOM      5  O   UNL A   1      39.000  30.190  34.873  1.00  0.00    -0.460 OA
BRANCH   5   6
ATOM      6  C   UNL A   1      40.116  29.771  34.229  1.00  0.00     0.338 C 
ATOM      7  O   UNL A   1      40.312  29.810  33.024  1.00  0.00    -0.246 OA
BRANCH   6   8
ATOM      8  C   UNL A   1      41.197  29.402  35.182  1.00  0.00     0.061 A 
ATOM      9  C   UNL A   1      42.699  27.863  36.289  1.00  0.00     0.088 A 
ATOM     10  C   UNL A   1      43.441  28.948  36.775  1.00  0.00     0.022 A 
ATOM     11  C   UNL A   1      41.579  28.083  35.468  1.00  0.00     0.038 A 
ATOM     12  C   UNL A   1      42.995  30.249  36.576  1.00  0.00     0.002 A 
ATOM     13  C   UNL A   1      41.877  30.475  35.779  1.00  0.00     0.016 A 
BRANCH   9  14
ATOM     14  S   UNL A   1      43.310  26.216  36.589  1.00  0.00     0.261 S 
ATOM     15  O   UNL A   1      42.183  25.417  37.021  1.00  0.00    -0.201 OA
ATOM     16  O   UNL A   1      44.480  26.335  37.436  1.00  0.00    -0.201 OA
BRANCH  14  17
ATOM     17  N   UNL A   1      43.875  25.532  35.129  1.00  0.00    -0.280 N 
ATOM     18  H   UNL A   1      43.701  25.994  34.278  1.00  0.00     0.180 HD
BRANCH  17  19
ATOM     19  C   UNL A   1      44.602  24.295  35.122  1.00  0.00     0.049 A 
ATOM     20  C   UNL A   1      46.013  21.825  35.174  1.00  0.00    -0.042 A 
ATOM     21  C   UNL A   1      45.290  22.290  36.288  1.00  0.00     0.006 A 
ATOM     22  C   UNL A   1      45.991  22.631  34.021  1.00  0.00     0.006 A 
ATOM     23  C   UNL A   1      44.562  23.481  36.248  1.00  0.00     0.027 A 
ATOM     24  C   UNL A   1      45.305  23.861  33.998  1.00  0.00     0.027 A 
BRANCH  20  25
ATOM     25  C   UNL A   1      46.793  20.499  35.268  1.00  0.00    -0.013 C 
ATOM     26  C   UNL A   1      45.841  19.333  35.628  1.00  0.00     0.016 C 
ATOM     27  C   UNL A   1      47.865  20.629  36.370  1.00  0.00     0.016 C 
ATOM     28  C   UNL A   1      47.512  20.093  33.961  1.00  0.00     0.016 C 
ENDBRANCH  20  25
ENDBRANCH  17  19
ENDBRANCH  14  17
ENDBRANCH   9  14
ENDBRANCH   6   8
ENDBRANCH   5   6
ENDBRANCH   4   5
ENDBRANCH   3   4
ENDBRANCH   2   3
ENDBRANCH   1   2
BRANCH   1  29
ATOM     29  C   UNL A   1      34.823  34.744  33.865  1.00  0.00     0.188 C 
BRANCH  29  30
ATOM     30  O   UNL A   1      34.471  35.493  32.730  1.00  0.00    -0.376 OA
BRANCH  30  31
ATOM     31  C   UNL A   1      33.114  35.642  32.346  1.00  0.00     0.202 C 
BRANCH  31  32
ATOM     32  C   UNL A   1      32.591  35.985  30.936  1.00  0.00     0.261 C 
BRANCH  32  33
ATOM     33  O   UNL A   1      33.473  35.835  29.823  1.00  0.00    -0.460 OA
BRANCH  33  34
ATOM     34  C   UNL A   1      33.392  34.659  29.162  1.00  0.00     0.338 C 
ATOM     35  O   UNL A   1      32.497  34.283  28.412  1.00  0.00    -0.246 OA
BRANCH  34  36
ATOM     36  C   UNL A   1      34.656  33.927  29.338  1.00  0.00     0.060 A 
ATOM     37  C   UNL A   1      34.761  33.006  30.389  1.00  0.00     0.016 A 
ATOM     38  C   UNL A   1      35.740  34.177  28.497  1.00  0.00     0.016 A 
ATOM     39  C   UNL A   1      35.966  32.342  30.613  1.00  0.00     0.010 A 
ATOM     40  C   UNL A   1      36.953  33.527  28.737  1.00  0.00     0.010 A 
ATOM     41  C   UNL A   1      37.079  32.628  29.813  1.00  0.00    -0.014 A 
BRANCH  41  42
ATOM     42  C   UNL A   1      38.417  32.125  30.201  1.00  0.00     0.031 A 
ATOM     43  C   UNL A   1      38.867  30.792  29.670  1.00  0.00     0.074 A 
ATOM     44  C   UNL A   1      39.226  32.839  31.003  1.00  0.00     0.049 A 
ATOM     45  N   UNL A   1      39.966  30.127  29.917  1.00  0.00    -0.248 NA
ATOM     46  C   UNL A   1      37.952  30.120  28.733  1.00  0.00     0.031 C 
ATOM     47  C   UNL A   1      38.930  34.163  31.545  1.00  0.00     0.029 A 
ATOM     48  N   UNL A   1      40.465  32.535  31.509  1.00  0.00    -0.354 N 
ATOM     49  C   UNL A   1      39.869  28.954  29.179  1.00  0.00     0.074 A 
ATOM     50  C   UNL A   1      38.594  28.987  28.495  1.00  0.00     0.031 C 
ATOM     51  C   UNL A   1      39.958  34.554  32.320  1.00  0.00     0.029 A 
ATOM     52  C   UNL A   1      40.962  33.493  32.359  1.00  0.00     0.049 A 
ATOM     53  H   UNL A   1      40.952  31.709  31.285  1.00  0.00     0.167 HD
ATOM     54  C   UNL A   1      40.761  27.941  29.078  1.00  0.00     0.031 A 
ATOM     55  C   UNL A   1      42.085  33.498  33.103  1.00  0.00     0.031 A 
ATOM     56  C   UNL A   1      42.018  27.896  29.776  1.00  0.00     0.049 A 
ATOM     57  C   UNL A   1      43.019  32.316  33.044  1.00  0.00     0.074 A 
ATOM     58  C   UNL A   1      42.995  26.917  29.728  1.00  0.00     0.029 A 
ATOM     59  N   UNL A   1      42.465  28.866  30.658  1.00  0.00    -0.354 N 
ATOM     60  N   UNL A   1      42.932  31.225  32.321  1.00  0.00    -0.248 NA
ATOM     61  C   UNL A   1      44.210  32.371  33.906  1.00  0.00     0.031 C 
ATOM     62  C   UNL A   1      44.006  27.265  30.630  1.00  0.00     0.029 A 
ATOM     63  C   UNL A   1      43.690  28.495  31.186  1.00  0.00     0.049 A 
ATOM     64  H   UNL A   1      41.983  29.696  30.878  1.00  0.00     0.167 HD
ATOM     65  C   UNL A   1      44.070  30.483  32.615  1.00  0.00     0.074 A 
ATOM     66  C   UNL A   1      44.838  31.252  33.571  1.00  0.00     0.031 C 
ATOM     67  C   UNL A   1      44.446  29.271  32.135  1.00  0.00     0.031 A 
BRANCH  54  68
ATOM     68  C   UNL A   1      40.383  26.773  28.210  1.00  0.00    -0.014 A 
ATOM     69  C   UNL A   1      39.552  25.746  28.686  1.00  0.00     0.009 A 
ATOM     70  C   UNL A   1      40.845  26.714  26.886  1.00  0.00     0.009 A 
ATOM     71  C   UNL A   1      39.222  24.665  27.863  1.00  0.00     0.001 A 
ATOM     72  C   UNL A   1      40.489  25.649  26.057  1.00  0.00     0.001 A 
ATOM     73  C   UNL A   1      39.686  24.621  26.548  1.00  0.00     0.000 A 
ENDBRANCH  54  68
BRANCH  55  74
ATOM     74  C   UNL A   1      42.387  34.650  33.995  1.00  0.00    -0.014 A 
ATOM     75  C   UNL A   1      41.970  34.647  35.335  1.00  0.00     0.009 A 
ATOM     76  C   UNL A   1      43.066  35.774  33.499  1.00  0.00     0.009 A 
ATOM     77  C   UNL A   1      42.203  35.757  36.151  1.00  0.00     0.001 A 
ATOM     78  C   UNL A   1      43.325  36.869  34.326  1.00  0.00     0.001 A 
ATOM     79  C   UNL A   1      42.885  36.865  35.647  1.00  0.00     0.000 A 
ENDBRANCH  55  74
BRANCH  67  80
ATOM     80  C   UNL A   1      45.768  28.722  32.598  1.00  0.00    -0.014 A 
ATOM     81  C   UNL A   1      45.862  27.871  33.711  1.00  0.00     0.009 A 
ATOM     82  C   UNL A   1      46.935  29.025  31.877  1.00  0.00     0.009 A 
ATOM     83  C   UNL A   1      47.101  27.367  34.113  1.00  0.00     0.001 A 
ATOM     84  C   UNL A   1      48.167  28.494  32.261  1.00  0.00     0.001 A 
ATOM     85  C   UNL A   1      48.251  27.673  33.384  1.00  0.00     0.000 A 
ENDBRANCH  67  80
ENDBRANCH  41  42
ENDBRANCH  34  36
ENDBRANCH  33  34
ENDBRANCH  32  33
ENDBRANCH  31  32
ENDBRANCH  30  31
ENDBRANCH  29  30
ENDBRANCH   1  29
TORSDOF 21
ENDMDL
MODEL 3
REMARK VINA RESULT:     -10.0      1.339      5.860
REMARK SMILES CC(C)(C)c1ccc(NS(=O)(=O)c2cccc(C(=O)OCCOCCOCCOC(=O)c3ccc(-c4c5nc(c(-c6ccccc6)c6ccc([nH]6)c(-c6ccccc6)c6nc(c(-c7ccccc7)c7ccc4[nH]7)C=C6)C=C5)cc3)c2)cc1
REMARK SMILES IDX 24 1 23 2 22 3 21 4 20 5 18 6 19 7 17 8 13 9 14 10 80 11
REMARK SMILES IDX 15 12 16 13 10 14 11 15 12 16 9 17 8 19 5 20 6 21 82 22 7 23
REMARK SMILES IDX 81 24 2 25 1 26 3 27 4 28 25 29 26 30 27 31 28 32 29 33
REMARK SMILES IDX 30 34 31 35 32 36 33 37 79 38 34 39 78 40 35 41 36 42 37 43
REMARK SMILES IDX 72 44 38 45 77 46 71 47 73 48 39 49 76 50 70 51 69 52 40 54
REMARK SMILES IDX 62 55 47 56 61 57 48 58 51 59 60 60 74 61 49 62 50 63 59 65
REMARK SMILES IDX 75 66 52 67 41 68 42 69 46 70 43 71 45 72 44 73 63 74 64 75
REMARK SMILES IDX 68 76 65 77 67 78 66 79 53 80 54 81 58 82 55 83 57 84 56 85
REMARK H PARENT 9 18 73 53 51 64
REMARK Flexibility Score: inf
ROOT
ATOM      1  C   UNL A   1      39.210  22.027  26.193  1.00  0.00     0.188 C 
ENDROOT
BRANCH   1   2
ATOM      2  O   UNL A   1      38.083  21.941  25.343  1.00  0.00    -0.376 OA
BRANCH   2   3
ATOM      3  C   UNL A   1      37.011  21.064  25.654  1.00  0.00     0.202 C 
BRANCH   3   4
ATOM      4  C   UNL A   1      35.702  21.009  24.844  1.00  0.00     0.261 C 
BRANCH   4   5
ATOM      5  O   UNL A   1      34.696  20.098  25.313  1.00  0.00    -0.460 OA
BRANCH   5   6
ATOM      6  C   UNL A   1      33.685  19.875  24.439  1.00  0.00     0.338 C 
ATOM      7  O   UNL A   1      33.417  18.810  23.902  1.00  0.00    -0.246 OA
BRANCH   6   8
ATOM      8  C   UNL A   1      32.786  21.053  24.320  1.00  0.00     0.061 A 
ATOM      9  C   UNL A   1      31.587  22.977  25.164  1.00  0.00     0.088 A 
ATOM     10  C   UNL A   1      31.346  23.395  23.848  1.00  0.00     0.022 A 
ATOM     11  C   UNL A   1      32.330  21.809  25.410  1.00  0.00     0.038 A 
ATOM     12  C   UNL A   1      31.707  22.585  22.777  1.00  0.00     0.002 A 
ATOM     13  C   UNL A   1      32.427  21.419  23.013  1.00  0.00     0.016 A 
BRANCH   9  14
ATOM     14  S   UNL A   1      31.086  24.048  26.497  1.00  0.00     0.261 S 
ATOM     15  O   UNL A   1      31.665  23.512  27.712  1.00  0.00    -0.201 OA
ATOM     16  O   UNL A   1      29.651  24.226  26.397  1.00  0.00    -0.201 OA
BRANCH  14  17
ATOM     17  N   UNL A   1      31.752  25.605  26.273  1.00  0.00    -0.280 N 
ATOM     18  H   UNL A   1      32.600  25.837  26.715  1.00  0.00     0.180 HD
BRANCH  17  19
ATOM     19  C   UNL A   1      31.097  26.581  25.449  1.00  0.00     0.049 A 
ATOM     20  C   UNL A   1      29.854  28.560  23.828  1.00  0.00    -0.042 A 
ATOM     21  C   UNL A   1      31.018  28.833  24.571  1.00  0.00     0.006 A 
ATOM     22  C   UNL A   1      29.341  27.253  23.908  1.00  0.00     0.006 A 
ATOM     23  C   UNL A   1      31.652  27.849  25.332  1.00  0.00     0.027 A 
ATOM     24  C   UNL A   1      29.947  26.276  24.721  1.00  0.00     0.027 A 
BRANCH  20  25
ATOM     25  C   UNL A   1      29.199  29.680  22.996  1.00  0.00    -0.013 C 
ATOM     26  C   UNL A   1      29.913  29.832  21.631  1.00  0.00     0.016 C 
ATOM     27  C   UNL A   1      29.314  31.009  23.772  1.00  0.00     0.016 C 
ATOM     28  C   UNL A   1      27.703  29.447  22.687  1.00  0.00     0.016 C 
ENDBRANCH  20  25
ENDBRANCH  17  19
ENDBRANCH  14  17
ENDBRANCH   9  14
ENDBRANCH   6   8
ENDBRANCH   5   6
ENDBRANCH   4   5
ENDBRANCH   3   4
ENDBRANCH   2   3
ENDBRANCH   1   2
BRANCH   1  29
ATOM     29  C   UNL A   1      40.244  20.885  26.230  1.00  0.00     0.188 C 
BRANCH  29  30
ATOM     30  O   UNL A   1      41.401  21.093  27.000  1.00  0.00    -0.376 OA
BRANCH  30  31
ATOM     31  C   UNL A   1      42.660  21.304  26.381  1.00  0.00     0.202 C 
BRANCH  31  32
ATOM     32  C   UNL A   1      43.013  22.417  25.373  1.00  0.00     0.261 C 
BRANCH  32  33
ATOM     33  O   UNL A   1      42.334  23.670  25.471  1.00  0.00    -0.460 OA
BRANCH  33  34
ATOM     34  C   UNL A   1      43.125  24.759  25.598  1.00  0.00     0.338 C 
ATOM     35  O   UNL A   1      44.094  25.063  24.909  1.00  0.00    -0.246 OA
BRANCH  34  36
ATOM     36  C   UNL A   1      42.543  25.655  26.608  1.00  0.00     0.060 A 
ATOM     37  C   UNL A   1      43.034  26.963  26.713  1.00  0.00     0.016 A 
ATOM     38  C   UNL A   1      41.548  25.195  27.471  1.00  0.00     0.016 A 
ATOM     39  C   UNL A   1      42.541  27.814  27.701  1.00  0.00     0.010 A 
ATOM     40  C   UNL A   1      41.071  26.043  28.474  1.00  0.00     0.010 A 
ATOM     41  C   UNL A   1      41.585  27.345  28.611  1.00  0.00    -0.014 A 
BRANCH  41  42
ATOM     42  C   UNL A   1      41.247  28.150  29.808  1.00  0.00     0.031 A 
ATOM     43  C   UNL A   1      40.101  29.119  29.724  1.00  0.00     0.074 A 
ATOM     44  C   UNL A   1      41.938  28.020  30.954  1.00  0.00     0.049 A 
ATOM     45  N   UNL A   1      39.661  29.965  30.620  1.00  0.00    -0.248 NA
ATOM     46  C   UNL A   1      39.350  29.135  28.458  1.00  0.00     0.031 C 
ATOM     47  C   UNL A   1      43.038  27.085  31.181  1.00  0.00     0.029 A 
ATOM     48  N   UNL A   1      41.815  28.694  32.143  1.00  0.00    -0.354 N 
ATOM     49  C   UNL A   1      38.592  30.622  30.022  1.00  0.00     0.074 A 
ATOM     50  C   UNL A   1      38.466  30.095  28.680  1.00  0.00     0.031 C 
ATOM     51  C   UNL A   1      43.499  27.253  32.434  1.00  0.00     0.029 A 
ATOM     52  C   UNL A   1      42.753  28.332  33.079  1.00  0.00     0.049 A 
ATOM     53  H   UNL A   1      41.122  29.372  32.310  1.00  0.00     0.167 HD
ATOM     54  C   UNL A   1      37.787  31.578  30.542  1.00  0.00     0.031 A 
ATOM     55  C   UNL A   1      42.998  28.834  34.305  1.00  0.00     0.031 A 
ATOM     56  C   UNL A   1      37.926  32.120  31.868  1.00  0.00     0.049 A 
ATOM     57  C   UNL A   1      42.146  29.962  34.828  1.00  0.00     0.074 A 
ATOM     58  C   UNL A   1      37.151  33.081  32.491  1.00  0.00     0.029 A 
ATOM     59  N   UNL A   1      38.914  31.756  32.769  1.00  0.00    -0.354 N 
ATOM     60  N   UNL A   1      41.120  30.556  34.267  1.00  0.00    -0.248 NA
ATOM     61  C   UNL A   1      42.486  30.485  36.160  1.00  0.00     0.031 C 
ATOM     62  C   UNL A   1      37.708  33.346  33.746  1.00  0.00     0.029 A 
ATOM     63  C   UNL A   1      38.787  32.496  33.932  1.00  0.00     0.049 A 
ATOM     64  H   UNL A   1      39.603  31.072  32.607  1.00  0.00     0.167 HD
ATOM     65  C   UNL A   1      40.675  31.497  35.188  1.00  0.00     0.074 A 
ATOM     66  C   UNL A   1      41.531  31.386  36.349  1.00  0.00     0.031 C 
ATOM     67  C   UNL A   1      39.646  32.374  35.082  1.00  0.00     0.031 A 
BRANCH  54  68
ATOM     68  C   UNL A   1      36.708  32.130  29.654  1.00  0.00    -0.014 A 
ATOM     69  C   UNL A   1      36.934  33.249  28.837  1.00  0.00     0.009 A 
ATOM     70  C   UNL A   1      35.453  31.504  29.615  1.00  0.00     0.009 A 
ATOM     71  C   UNL A   1      35.912  33.751  28.026  1.00  0.00     0.001 A 
ATOM     72  C   UNL A   1      34.443  31.988  28.781  1.00  0.00     0.001 A 
ATOM     73  C   UNL A   1      34.671  33.116  27.995  1.00  0.00     0.000 A 
ENDBRANCH  54  68
BRANCH  55  74
ATOM     74  C   UNL A   1      44.117  28.296  35.125  1.00  0.00    -0.014 A 
ATOM     75  C   UNL A   1      43.901  27.246  36.030  1.00  0.00     0.009 A 
ATOM     76  C   UNL A   1      45.402  28.853  35.027  1.00  0.00     0.009 A 
ATOM     77  C   UNL A   1      44.942  26.784  36.841  1.00  0.00     0.001 A 
ATOM     78  C   UNL A   1      46.448  28.369  35.816  1.00  0.00     0.001 A 
ATOM     79  C   UNL A   1      46.215  27.343  36.729  1.00  0.00     0.000 A 
ENDBRANCH  55  74
BRANCH  67  80
ATOM     80  C   UNL A   1      39.358  33.253  36.270  1.00  0.00    -0.014 A 
ATOM     81  C   UNL A   1      38.542  32.818  37.325  1.00  0.00     0.009 A 
ATOM     82  C   UNL A   1      39.955  34.522  36.353  1.00  0.00     0.009 A 
ATOM     83  C   UNL A   1      38.300  33.650  38.421  1.00  0.00     0.001 A 
ATOM     84  C   UNL A   1      39.739  35.338  37.464  1.00  0.00     0.001 A 
ATOM     85  C   UNL A   1      38.904  34.906  38.492  1.00  0.00     0.000 A 
ENDBRANCH  67  80
ENDBRANCH  41  42
ENDBRANCH  34  36
ENDBRANCH  33  34
ENDBRANCH  32  33
ENDBRANCH  31  32
ENDBRANCH  30  31
ENDBRANCH  29  30
ENDBRANCH   1  29
TORSDOF 21
ENDMDL
