MODEL 1
REMARK VINA RESULT:     -10.7      0.000      0.000
REMARK SMILES O=C(OCCOCCOCCOC(=O)c1cccc2c(C(F)(F)F)cc(Br)nc12)c1ccc(-c2c3nc(c(-c4ccccc4)c4ccc([nH]4)c(-c4ccccc4)c4nc(c(-c5ccccc5)c5ccc2[nH]5)C=C4)C=C3)cc1
REMARK SMILES IDX 7 1 6 2 5 3 4 4 3 5 2 6 1 7 30 8 31 9 77 10 32 11 76 12
REMARK SMILES IDX 33 13 34 14 35 15 70 16 36 17 75 18 69 19 71 20 37 21 74 22
REMARK SMILES IDX 68 23 67 24 38 26 60 27 45 28 59 29 46 30 49 31 58 32 72 33
REMARK SMILES IDX 47 34 48 35 57 37 73 38 50 39 39 40 40 41 44 42 41 43 43 44
REMARK SMILES IDX 42 45 61 46 62 47 66 48 63 49 65 50 64 51 51 52 52 53 56 54
REMARK SMILES IDX 53 55 55 56 54 57 8 58 9 59 10 60 11 61 12 62 13 63 14 64
REMARK SMILES IDX 15 65 16 66 29 67 17 68 19 69 28 70 18 71 20 72 26 73 25 74
REMARK SMILES IDX 27 75 21 76 22 77 23 78 24 79
REMARK H PARENT 71 25 49 36
REMARK Flexibility Score: inf
ROOT
ATOM      1  C   UNL A   1      32.075  29.722  26.845  1.00  0.00     0.188 C 
ENDROOT
BRANCH   1   2
ATOM      2  O   UNL A   1      33.266  30.095  27.543  1.00  0.00    -0.376 OA
BRANCH   2   3
ATOM      3  C   UNL A   1      33.547  31.485  27.445  1.00  0.00     0.202 C 
BRANCH   3   4
ATOM      4  C   UNL A   1      32.302  32.379  27.342  1.00  0.00     0.261 C 
BRANCH   4   5
ATOM      5  O   UNL A   1      32.518  33.794  27.503  1.00  0.00    -0.460 OA
BRANCH   5   6
ATOM      6  C   UNL A   1      33.080  34.494  28.517  1.00  0.00     0.338 C 
ATOM      7  O   UNL A   1      32.513  35.523  28.888  1.00  0.00    -0.246 OA
BRANCH   6   8
ATOM      8  C   UNL A   1      34.385  34.161  29.175  1.00  0.00     0.060 A 
ATOM      9  C   UNL A   1      34.318  33.608  30.473  1.00  0.00     0.016 A 
ATOM     10  C   UNL A   1      35.648  34.306  28.602  1.00  0.00     0.016 A 
ATOM     11  C   UNL A   1      35.469  33.207  31.164  1.00  0.00     0.010 A 
ATOM     12  C   UNL A   1      36.803  33.938  29.294  1.00  0.00     0.010 A 
ATOM     13  C   UNL A   1      36.720  33.357  30.564  1.00  0.00    -0.014 A 
BRANCH  13  14
ATOM     14  C   UNL A   1      37.924  32.684  31.093  1.00  0.00     0.031 A 
ATOM     15  C   UNL A   1      38.414  31.377  30.568  1.00  0.00     0.074 A 
ATOM     16  C   UNL A   1      38.461  33.201  32.212  1.00  0.00     0.049 A 
ATOM     17  N   UNL A   1      39.469  30.696  30.939  1.00  0.00    -0.248 NA
ATOM     18  C   UNL A   1      37.622  30.740  29.508  1.00  0.00     0.031 C 
ATOM     19  C   UNL A   1      38.001  34.425  32.871  1.00  0.00     0.029 A 
ATOM     20  N   UNL A   1      39.452  32.727  33.029  1.00  0.00    -0.354 N 
ATOM     21  C   UNL A   1      39.511  29.589  30.109  1.00  0.00     0.074 A 
ATOM     22  C   UNL A   1      38.330  29.640  29.279  1.00  0.00     0.031 C 
ATOM     23  C   UNL A   1      38.664  34.571  34.026  1.00  0.00     0.029 A 
ATOM     24  C   UNL A   1      39.593  33.455  34.182  1.00  0.00     0.049 A 
ATOM     25  H   UNL A   1      40.008  31.945  32.810  1.00  0.00     0.167 HD
ATOM     26  C   UNL A   1      40.460  28.627  30.042  1.00  0.00     0.031 A 
ATOM     27  C   UNL A   1      40.363  33.241  35.263  1.00  0.00     0.031 A 
ATOM     28  C   UNL A   1      41.545  28.507  30.977  1.00  0.00     0.049 A 
ATOM     29  C   UNL A   1      41.312  32.084  35.268  1.00  0.00     0.074 A 
ATOM     30  C   UNL A   1      42.598  27.610  30.968  1.00  0.00     0.029 A 
ATOM     31  N   UNL A   1      41.666  29.260  32.135  1.00  0.00    -0.354 N 
ATOM     32  N   UNL A   1      41.500  31.178  34.339  1.00  0.00    -0.248 NA
ATOM     33  C   UNL A   1      42.171  31.927  36.448  1.00  0.00     0.031 C 
ATOM     34  C   UNL A   1      43.293  27.751  32.175  1.00  0.00     0.029 A 
ATOM     35  C   UNL A   1      42.716  28.785  32.898  1.00  0.00     0.049 A 
ATOM     36  H   UNL A   1      41.088  30.019  32.378  1.00  0.00     0.167 HD
ATOM     37  C   UNL A   1      42.514  30.356  34.808  1.00  0.00     0.074 A 
ATOM     38  C   UNL A   1      42.900  30.870  36.108  1.00  0.00     0.031 C 
ATOM     39  C   UNL A   1      43.077  29.281  34.203  1.00  0.00     0.031 A 
BRANCH  26  40
ATOM     40  C   UNL A   1      40.374  27.624  28.929  1.00  0.00    -0.014 A 
ATOM     41  C   UNL A   1      40.942  27.898  27.676  1.00  0.00     0.009 A 
ATOM     42  C   UNL A   1      39.626  26.446  29.093  1.00  0.00     0.009 A 
ATOM     43  C   UNL A   1      40.770  27.011  26.612  1.00  0.00     0.001 A 
ATOM     44  C   UNL A   1      39.466  25.554  28.030  1.00  0.00     0.001 A 
ATOM     45  C   UNL A   1      40.036  25.839  26.789  1.00  0.00     0.000 A 
ENDBRANCH  26  40
BRANCH  27  46
ATOM     46  C   UNL A   1      40.256  34.201  36.387  1.00  0.00    -0.014 A 
ATOM     47  C   UNL A   1      39.312  33.995  37.407  1.00  0.00     0.009 A 
ATOM     48  C   UNL A   1      40.963  35.410  36.345  1.00  0.00     0.009 A 
ATOM     49  C   UNL A   1      39.048  35.000  38.340  1.00  0.00     0.001 A 
ATOM     50  C   UNL A   1      40.710  36.406  37.291  1.00  0.00     0.001 A 
ATOM     51  C   UNL A   1      39.744  36.206  38.276  1.00  0.00     0.000 A 
ENDBRANCH  27  46
BRANCH  39  52
ATOM     52  C   UNL A   1      44.163  28.547  34.933  1.00  0.00    -0.014 A 
ATOM     53  C   UNL A   1      45.506  28.901  34.727  1.00  0.00     0.009 A 
ATOM     54  C   UNL A   1      43.865  27.419  35.711  1.00  0.00     0.009 A 
ATOM     55  C   UNL A   1      46.532  28.119  35.258  1.00  0.00     0.001 A 
ATOM     56  C   UNL A   1      44.894  26.655  36.264  1.00  0.00     0.001 A 
ATOM     57  C   UNL A   1      46.225  26.997  36.025  1.00  0.00     0.000 A 
ENDBRANCH  39  52
ENDBRANCH  13  14
ENDBRANCH   6   8
ENDBRANCH   5   6
ENDBRANCH   4   5
ENDBRANCH   3   4
ENDBRANCH   2   3
ENDBRANCH   1   2
BRANCH   1  58
ATOM     58  C   UNL A   1      32.230  28.524  25.912  1.00  0.00     0.188 C 
BRANCH  58  59
ATOM     59  O   UNL A   1      31.030  28.250  25.194  1.00  0.00    -0.376 OA
BRANCH  59  60
ATOM     60  C   UNL A   1      30.875  26.864  24.882  1.00  0.00     0.202 C 
BRANCH  60  61
ATOM     61  C   UNL A   1      30.329  26.018  26.044  1.00  0.00     0.261 C 
BRANCH  61  62
ATOM     62  O   UNL A   1      31.314  25.286  26.808  1.00  0.00    -0.460 OA
BRANCH  62  63
ATOM     63  C   UNL A   1      31.175  23.942  26.821  1.00  0.00     0.340 C 
ATOM     64  O   UNL A   1      30.194  23.315  27.201  1.00  0.00    -0.246 OA
BRANCH  63  65
ATOM     65  C   UNL A   1      32.481  23.304  26.610  1.00  0.00     0.086 A 
ATOM     66  C   UNL A   1      32.920  22.525  27.692  1.00  0.00     0.018 A 
ATOM     67  C   UNL A   1      33.213  23.428  25.419  1.00  0.00     0.087 A 
ATOM     68  C   UNL A   1      34.126  21.857  27.612  1.00  0.00     0.002 A 
ATOM     69  C   UNL A   1      34.476  22.779  25.368  1.00  0.00     0.013 A 
ATOM     70  N   UNL A   1      32.739  24.108  24.347  1.00  0.00    -0.240 NA
ATOM     71  C   UNL A   1      34.905  22.000  26.470  1.00  0.00     0.011 A 
ATOM     72  C   UNL A   1      35.265  22.923  24.199  1.00  0.00     0.068 A 
ATOM     73  C   UNL A   1      33.488  24.179  23.225  1.00  0.00     0.107 A 
ATOM     74  C   UNL A   1      34.749  23.636  23.114  1.00  0.00     0.049 A 
ATOM     75  Br  UNL A   1      32.750  25.019  21.690  1.00  0.00    -0.029 Br
BRANCH  72  76
ATOM     76  C   UNL A   1      36.643  22.318  24.077  1.00  0.00     0.417 C 
ATOM     77  F   UNL A   1      37.143  22.411  22.816  1.00  0.00    -0.166 F 
ATOM     78  F   UNL A   1      37.552  22.916  24.894  1.00  0.00    -0.166 F 
ATOM     79  F   UNL A   1      36.682  20.993  24.391  1.00  0.00    -0.166 F 
ENDBRANCH  72  76
ENDBRANCH  63  65
ENDBRANCH  62  63
ENDBRANCH  61  62
ENDBRANCH  60  61
ENDBRANCH  59  60
ENDBRANCH  58  59
ENDBRANCH   1  58
TORSDOF 18
ENDMDL
MODEL 2
REMARK VINA RESULT:     -10.4      1.503      2.116
REMARK SMILES O=C(OCCOCCOCCOC(=O)c1cccc2c(C(F)(F)F)cc(Br)nc12)c1ccc(-c2c3nc(c(-c4ccccc4)c4ccc([nH]4)c(-c4ccccc4)c4nc(c(-c5ccccc5)c5ccc2[nH]5)C=C4)C=C3)cc1
REMARK SMILES IDX 7 1 6 2 5 3 4 4 3 5 2 6 1 7 30 8 31 9 77 10 32 11 76 12
REMARK SMILES IDX 33 13 34 14 35 15 70 16 36 17 75 18 69 19 71 20 37 21 74 22
REMARK SMILES IDX 68 23 67 24 38 26 60 27 45 28 59 29 46 30 49 31 58 32 72 33
REMARK SMILES IDX 47 34 48 35 57 37 73 38 50 39 39 40 40 41 44 42 41 43 43 44
REMARK SMILES IDX 42 45 61 46 62 47 66 48 63 49 65 50 64 51 51 52 52 53 56 54
REMARK SMILES IDX 53 55 55 56 54 57 8 58 9 59 10 60 11 61 12 62 13 63 14 64
REMARK SMILES IDX 15 65 16 66 29 67 17 68 19 69 28 70 18 71 20 72 26 73 25 74
REMARK SMILES IDX 27 75 21 76 22 77 23 78 24 79
REMARK H PARENT 71 25 49 36
REMARK Flexibility Score: inf
ROOT
ATOM      1  C   UNL A   1      31.779  29.188  26.311  1.00  0.00     0.188 C 
ENDROOT
BRANCH   1   2
ATOM      2  O   UNL A   1      31.910  30.204  27.309  1.00  0.00    -0.376 OA
BRANCH   2   3
ATOM      3  C   UNL A   1      31.584  31.499  26.819  1.00  0.00     0.202 C 
BRANCH   3   4
ATOM      4  C   UNL A   1      32.691  32.547  27.009  1.00  0.00     0.261 C 
BRANCH   4   5
ATOM      5  O   UNL A   1      32.304  33.771  27.663  1.00  0.00    -0.460 OA
BRANCH   5   6
ATOM      6  C   UNL A   1      32.972  34.555  28.542  1.00  0.00     0.338 C 
ATOM      7  O   UNL A   1      32.505  35.667  28.790  1.00  0.00    -0.246 OA
BRANCH   6   8
ATOM      8  C   UNL A   1      34.284  34.209  29.180  1.00  0.00     0.060 A 
ATOM      9  C   UNL A   1      34.230  33.627  30.466  1.00  0.00     0.016 A 
ATOM     10  C   UNL A   1      35.541  34.370  28.599  1.00  0.00     0.016 A 
ATOM     11  C   UNL A   1      35.388  33.214  31.137  1.00  0.00     0.010 A 
ATOM     12  C   UNL A   1      36.703  33.989  29.272  1.00  0.00     0.010 A 
ATOM     13  C   UNL A   1      36.633  33.380  30.529  1.00  0.00    -0.014 A 
BRANCH  13  14
ATOM     14  C   UNL A   1      37.843  32.697  31.032  1.00  0.00     0.031 A 
ATOM     15  C   UNL A   1      38.312  31.386  30.497  1.00  0.00     0.074 A 
ATOM     16  C   UNL A   1      38.409  33.211  32.138  1.00  0.00     0.049 A 
ATOM     17  N   UNL A   1      39.369  30.698  30.845  1.00  0.00    -0.248 NA
ATOM     18  C   UNL A   1      37.492  30.755  29.455  1.00  0.00     0.031 C 
ATOM     19  C   UNL A   1      37.973  34.438  32.807  1.00  0.00     0.029 A 
ATOM     20  N   UNL A   1      39.414  32.730  32.934  1.00  0.00    -0.354 N 
ATOM     21  C   UNL A   1      39.385  29.590  30.015  1.00  0.00     0.074 A 
ATOM     22  C   UNL A   1      38.185  29.649  29.211  1.00  0.00     0.031 C 
ATOM     23  C   UNL A   1      38.662  34.579  33.947  1.00  0.00     0.029 A 
ATOM     24  C   UNL A   1      39.586  33.456  34.083  1.00  0.00     0.049 A 
ATOM     25  H   UNL A   1      39.958  31.943  32.703  1.00  0.00     0.167 HD
ATOM     26  C   UNL A   1      40.324  28.620  29.927  1.00  0.00     0.031 A 
ATOM     27  C   UNL A   1      40.378  33.237  35.147  1.00  0.00     0.031 A 
ATOM     28  C   UNL A   1      41.429  28.493  30.838  1.00  0.00     0.049 A 
ATOM     29  C   UNL A   1      41.318  32.073  35.132  1.00  0.00     0.074 A 
ATOM     30  C   UNL A   1      42.474  27.587  30.807  1.00  0.00     0.029 A 
ATOM     31  N   UNL A   1      41.580  29.245  31.993  1.00  0.00    -0.354 N 
ATOM     32  N   UNL A   1      41.478  31.165  34.199  1.00  0.00    -0.248 NA
ATOM     33  C   UNL A   1      42.202  31.910  36.293  1.00  0.00     0.031 C 
ATOM     34  C   UNL A   1      43.196  27.723  31.998  1.00  0.00     0.029 A 
ATOM     35  C   UNL A   1      42.644  28.762  32.733  1.00  0.00     0.049 A 
ATOM     36  H   UNL A   1      41.014  30.009  32.248  1.00  0.00     0.167 HD
ATOM     37  C   UNL A   1      42.496  30.335  34.646  1.00  0.00     0.074 A 
ATOM     38  C   UNL A   1      42.915  30.846  35.937  1.00  0.00     0.031 C 
ATOM     39  C   UNL A   1      43.037  29.256  34.029  1.00  0.00     0.031 A 
BRANCH  26  40
ATOM     40  C   UNL A   1      40.206  27.617  28.817  1.00  0.00    -0.014 A 
ATOM     41  C   UNL A   1      39.595  26.375  29.041  1.00  0.00     0.009 A 
ATOM     42  C   UNL A   1      40.803  27.866  27.570  1.00  0.00     0.009 A 
ATOM     43  C   UNL A   1      39.580  25.403  28.038  1.00  0.00     0.001 A 
ATOM     44  C   UNL A   1      40.776  26.897  26.565  1.00  0.00     0.001 A 
ATOM     45  C   UNL A   1      40.166  25.666  26.801  1.00  0.00     0.000 A 
ENDBRANCH  26  40
BRANCH  27  46
ATOM     46  C   UNL A   1      40.304  34.198  36.273  1.00  0.00    -0.014 A 
ATOM     47  C   UNL A   1      39.387  33.994  37.318  1.00  0.00     0.009 A 
ATOM     48  C   UNL A   1      41.010  35.406  36.210  1.00  0.00     0.009 A 
ATOM     49  C   UNL A   1      39.151  35.000  38.257  1.00  0.00     0.001 A 
ATOM     50  C   UNL A   1      40.785  36.403  37.161  1.00  0.00     0.001 A 
ATOM     51  C   UNL A   1      39.846  36.206  38.173  1.00  0.00     0.000 A 
ENDBRANCH  27  46
BRANCH  39  52
ATOM     52  C   UNL A   1      44.134  28.514  34.736  1.00  0.00    -0.014 A 
ATOM     53  C   UNL A   1      45.475  28.787  34.424  1.00  0.00     0.009 A 
ATOM     54  C   UNL A   1      43.835  27.451  35.601  1.00  0.00     0.009 A 
ATOM     55  C   UNL A   1      46.496  27.987  34.939  1.00  0.00     0.001 A 
ATOM     56  C   UNL A   1      44.861  26.671  36.137  1.00  0.00     0.001 A 
ATOM     57  C   UNL A   1      46.188  26.930  35.793  1.00  0.00     0.000 A 
ENDBRANCH  39  52
ENDBRANCH  13  14
ENDBRANCH   6   8
ENDBRANCH   5   6
ENDBRANCH   4   5
ENDBRANCH   3   4
ENDBRANCH   2   3
ENDBRANCH   1   2
BRANCH   1  58
ATOM     58  C   UNL A   1      31.985  29.670  24.878  1.00  0.00     0.188 C 
BRANCH  58  59
ATOM     59  O   UNL A   1      31.037  29.096  23.981  1.00  0.00    -0.376 OA
BRANCH  59  60
ATOM     60  C   UNL A   1      31.606  28.763  22.712  1.00  0.00     0.202 C 
BRANCH  60  61
ATOM     61  C   UNL A   1      30.915  27.586  22.006  1.00  0.00     0.261 C 
BRANCH  61  62
ATOM     62  O   UNL A   1      31.439  26.274  22.308  1.00  0.00    -0.460 OA
BRANCH  62  63
ATOM     63  C   UNL A   1      32.784  26.151  22.275  1.00  0.00     0.340 C 
ATOM     64  O   UNL A   1      33.501  26.260  21.289  1.00  0.00    -0.246 OA
BRANCH  63  65
ATOM     65  C   UNL A   1      33.261  25.555  23.530  1.00  0.00     0.086 A 
ATOM     66  C   UNL A   1      33.705  26.491  24.477  1.00  0.00     0.018 A 
ATOM     67  C   UNL A   1      33.241  24.175  23.781  1.00  0.00     0.087 A 
ATOM     68  C   UNL A   1      34.162  26.061  25.706  1.00  0.00     0.002 A 
ATOM     69  C   UNL A   1      33.762  23.739  25.029  1.00  0.00     0.013 A 
ATOM     70  N   UNL A   1      32.725  23.287  22.897  1.00  0.00    -0.240 NA
ATOM     71  C   UNL A   1      34.209  24.697  25.971  1.00  0.00     0.011 A 
ATOM     72  C   UNL A   1      33.803  22.347  25.297  1.00  0.00     0.068 A 
ATOM     73  C   UNL A   1      32.725  21.972  23.204  1.00  0.00     0.107 A 
ATOM     74  C   UNL A   1      33.268  21.459  24.361  1.00  0.00     0.049 A 
ATOM     75  Br  UNL A   1      31.878  20.759  22.014  1.00  0.00    -0.029 Br
BRANCH  72  76
ATOM     76  C   UNL A   1      34.391  21.789  26.571  1.00  0.00     0.417 C 
ATOM     77  F   UNL A   1      35.696  21.433  26.430  1.00  0.00    -0.166 F 
ATOM     78  F   UNL A   1      34.346  22.676  27.602  1.00  0.00    -0.166 F 
ATOM     79  F   UNL A   1      33.751  20.672  27.019  1.00  0.00    -0.166 F 
ENDBRANCH  72  76
ENDBRANCH  63  65
ENDBRANCH  62  63
ENDBRANCH  61  62
ENDBRANCH  60  61
ENDBRANCH  59  60
ENDBRANCH  58  59
ENDBRANCH   1  58
TORSDOF 18
ENDMDL
MODEL 3
REMARK VINA RESULT:     -10.4      0.513      5.827
REMARK SMILES O=C(OCCOCCOCCOC(=O)c1cccc2c(C(F)(F)F)cc(Br)nc12)c1ccc(-c2c3nc(c(-c4ccccc4)c4ccc([nH]4)c(-c4ccccc4)c4nc(c(-c5ccccc5)c5ccc2[nH]5)C=C4)C=C3)cc1
REMARK SMILES IDX 7 1 6 2 5 3 4 4 3 5 2 6 1 7 30 8 31 9 77 10 32 11 76 12
REMARK SMILES IDX 33 13 34 14 35 15 70 16 36 17 75 18 69 19 71 20 37 21 74 22
REMARK SMILES IDX 68 23 67 24 38 26 60 27 45 28 59 29 46 30 49 31 58 32 72 33
REMARK SMILES IDX 47 34 48 35 57 37 73 38 50 39 39 40 40 41 44 42 41 43 43 44
REMARK SMILES IDX 42 45 61 46 62 47 66 48 63 49 65 50 64 51 51 52 52 53 56 54
REMARK SMILES IDX 53 55 55 56 54 57 8 58 9 59 10 60 11 61 12 62 13 63 14 64
REMARK SMILES IDX 15 65 16 66 29 67 17 68 19 69 28 70 18 71 20 72 26 73 25 74
REMARK SMILES IDX 27 75 21 76 22 77 23 78 24 79
REMARK H PARENT 71 25 49 36
REMARK Flexibility Score: inf
ROOT
ATOM      1  C   UNL A   1      32.119  29.749  26.967  1.00  0.00     0.188 C 
ENDROOT
BRANCH   1   2
ATOM      2  O   UNL A   1      33.348  30.191  27.549  1.00  0.00    -0.376 OA
BRANCH   2   3
ATOM      3  C   UNL A   1      33.551  31.591  27.404  1.00  0.00     0.202 C 
BRANCH   3   4
ATOM      4  C   UNL A   1      32.269  32.432  27.500  1.00  0.00     0.261 C 
BRANCH   4   5
ATOM      5  O   UNL A   1      32.449  33.856  27.624  1.00  0.00    -0.460 OA
BRANCH   5   6
ATOM      6  C   UNL A   1      33.055  34.592  28.585  1.00  0.00     0.338 C 
ATOM      7  O   UNL A   1      32.580  35.697  28.848  1.00  0.00    -0.246 OA
BRANCH   6   8
ATOM      8  C   UNL A   1      34.313  34.203  29.303  1.00  0.00     0.060 A 
ATOM      9  C   UNL A   1      34.170  33.754  30.634  1.00  0.00     0.016 A 
ATOM     10  C   UNL A   1      35.596  34.203  28.757  1.00  0.00     0.016 A 
ATOM     11  C   UNL A   1      35.267  33.314  31.385  1.00  0.00     0.010 A 
ATOM     12  C   UNL A   1      36.701  33.795  29.508  1.00  0.00     0.010 A 
ATOM     13  C   UNL A   1      36.541  33.317  30.812  1.00  0.00    -0.014 A 
BRANCH  13  14
ATOM     14  C   UNL A   1      37.672  32.589  31.423  1.00  0.00     0.031 A 
ATOM     15  C   UNL A   1      38.523  33.176  32.498  1.00  0.00     0.074 A 
ATOM     16  C   UNL A   1      38.036  31.437  30.834  1.00  0.00     0.049 A 
ATOM     17  N   UNL A   1      39.532  32.627  33.125  1.00  0.00    -0.248 NA
ATOM     18  C   UNL A   1      38.223  34.550  32.916  1.00  0.00     0.031 C 
ATOM     19  C   UNL A   1      37.334  30.815  29.709  1.00  0.00     0.029 A 
ATOM     20  N   UNL A   1      39.120  30.627  31.045  1.00  0.00    -0.354 N 
ATOM     21  C   UNL A   1      39.942  33.559  34.064  1.00  0.00     0.074 A 
ATOM     22  C   UNL A   1      39.134  34.740  33.863  1.00  0.00     0.031 C 
ATOM     23  C   UNL A   1      38.040  29.759  29.287  1.00  0.00     0.029 A 
ATOM     24  C   UNL A   1      39.238  29.631  30.112  1.00  0.00     0.049 A 
ATOM     25  H   UNL A   1      39.749  30.749  31.792  1.00  0.00     0.167 HD
ATOM     26  C   UNL A   1      40.897  33.430  35.013  1.00  0.00     0.031 A 
ATOM     27  C   UNL A   1      40.212  28.724  29.919  1.00  0.00     0.031 A 
ATOM     28  C   UNL A   1      41.794  32.310  35.097  1.00  0.00     0.049 A 
ATOM     29  C   UNL A   1      41.361  28.670  30.876  1.00  0.00     0.074 A 
ATOM     30  C   UNL A   1      42.758  32.045  36.054  1.00  0.00     0.029 A 
ATOM     31  N   UNL A   1      41.890  31.312  34.140  1.00  0.00    -0.354 N 
ATOM     32  N   UNL A   1      41.593  29.431  31.918  1.00  0.00    -0.248 NA
ATOM     33  C   UNL A   1      42.369  27.626  30.653  1.00  0.00     0.031 C 
ATOM     34  C   UNL A   1      43.506  30.946  35.618  1.00  0.00     0.029 A 
ATOM     35  C   UNL A   1      42.959  30.484  34.429  1.00  0.00     0.049 A 
ATOM     36  H   UNL A   1      41.286  31.208  33.369  1.00  0.00     0.167 HD
ATOM     37  C   UNL A   1      42.759  28.946  32.492  1.00  0.00     0.074 A 
ATOM     38  C   UNL A   1      43.189  27.825  31.679  1.00  0.00     0.031 C 
ATOM     39  C   UNL A   1      43.401  29.389  33.601  1.00  0.00     0.031 A 
BRANCH  26  40
ATOM     40  C   UNL A   1      41.031  34.521  36.035  1.00  0.00    -0.014 A 
ATOM     41  C   UNL A   1      41.997  35.526  35.882  1.00  0.00     0.009 A 
ATOM     42  C   UNL A   1      40.267  34.486  37.214  1.00  0.00     0.009 A 
ATOM     43  C   UNL A   1      42.192  36.478  36.885  1.00  0.00     0.001 A 
ATOM     44  C   UNL A   1      40.456  35.446  38.210  1.00  0.00     0.001 A 
ATOM     45  C   UNL A   1      41.420  36.440  38.045  1.00  0.00     0.000 A 
ENDBRANCH  26  40
BRANCH  27  46
ATOM     46  C   UNL A   1      40.069  27.791  28.776  1.00  0.00    -0.014 A 
ATOM     47  C   UNL A   1      39.494  26.523  28.965  1.00  0.00     0.009 A 
ATOM     48  C   UNL A   1      40.672  28.092  27.548  1.00  0.00     0.009 A 
ATOM     49  C   UNL A   1      39.562  25.559  27.956  1.00  0.00     0.001 A 
ATOM     50  C   UNL A   1      40.721  27.132  26.535  1.00  0.00     0.001 A 
ATOM     51  C   UNL A   1      40.181  25.864  26.745  1.00  0.00     0.000 A 
ENDBRANCH  27  46
BRANCH  39  52
ATOM     52  C   UNL A   1      44.663  28.691  34.013  1.00  0.00    -0.014 A 
ATOM     53  C   UNL A   1      44.605  27.617  34.915  1.00  0.00     0.009 A 
ATOM     54  C   UNL A   1      45.915  29.187  33.620  1.00  0.00     0.009 A 
ATOM     55  C   UNL A   1      45.777  27.073  35.443  1.00  0.00     0.001 A 
ATOM     56  C   UNL A   1      47.086  28.623  34.128  1.00  0.00     0.001 A 
ATOM     57  C   UNL A   1      47.016  27.577  35.050  1.00  0.00     0.000 A 
ENDBRANCH  39  52
ENDBRANCH  13  14
ENDBRANCH   6   8
ENDBRANCH   5   6
ENDBRANCH   4   5
ENDBRANCH   3   4
ENDBRANCH   2   3
ENDBRANCH   1   2
BRANCH   1  58
ATOM     58  C   UNL A   1      32.256  28.579  25.997  1.00  0.00     0.188 C 
BRANCH  58  59
ATOM     59  O   UNL A   1      31.055  28.350  25.265  1.00  0.00    -0.376 OA
BRANCH  59  60
ATOM     60  C   UNL A   1      30.897  26.984  24.873  1.00  0.00     0.202 C 
BRANCH  60  61
ATOM     61  C   UNL A   1      30.326  26.077  25.975  1.00  0.00     0.261 C 
BRANCH  61  62
ATOM     62  O   UNL A   1      31.298  25.356  26.765  1.00  0.00    -0.460 OA
BRANCH  62  63
ATOM     63  C   UNL A   1      31.147  24.014  26.809  1.00  0.00     0.340 C 
ATOM     64  O   UNL A   1      30.167  23.404  27.218  1.00  0.00    -0.246 OA
BRANCH  63  65
ATOM     65  C   UNL A   1      32.444  23.360  26.592  1.00  0.00     0.086 A 
ATOM     66  C   UNL A   1      32.877  22.572  27.669  1.00  0.00     0.018 A 
ATOM     67  C   UNL A   1      33.173  23.479  25.398  1.00  0.00     0.087 A 
ATOM     68  C   UNL A   1      34.074  21.889  27.583  1.00  0.00     0.002 A 
ATOM     69  C   UNL A   1      34.428  22.813  25.341  1.00  0.00     0.013 A 
ATOM     70  N   UNL A   1      32.704  24.167  24.330  1.00  0.00    -0.240 NA
ATOM     71  C   UNL A   1      34.851  22.026  26.439  1.00  0.00     0.011 A 
ATOM     72  C   UNL A   1      35.214  22.951  24.169  1.00  0.00     0.068 A 
ATOM     73  C   UNL A   1      33.450  24.233  23.206  1.00  0.00     0.107 A 
ATOM     74  C   UNL A   1      34.703  23.674  23.088  1.00  0.00     0.049 A 
ATOM     75  Br  UNL A   1      32.718  25.087  21.676  1.00  0.00    -0.029 Br
BRANCH  72  76
ATOM     76  C   UNL A   1      36.584  22.329  24.041  1.00  0.00     0.417 C 
ATOM     77  F   UNL A   1      37.501  22.912  24.859  1.00  0.00    -0.166 F 
ATOM     78  F   UNL A   1      36.588  21.003  24.345  1.00  0.00    -0.166 F 
ATOM     79  F   UNL A   1      37.103  22.418  22.784  1.00  0.00    -0.166 F 
ENDBRANCH  72  76
ENDBRANCH  63  65
ENDBRANCH  62  63
ENDBRANCH  61  62
ENDBRANCH  60  61
ENDBRANCH  59  60
ENDBRANCH  58  59
ENDBRANCH   1  58
TORSDOF 18
ENDMDL
