MODEL 1
REMARK VINA RESULT:     -13.0      0.000      0.000
REMARK SMILES Cc1ccc(NC(=O)c2ccccc2NC(=O)[C@H]2CCCC[C@H]2C(=O)OCCOCCOCCOC(=O)c2ccc(-c3c4nc(c(-c5ccccc5)c5ccc([nH]5)c(-c5ccccc5)c5nc(c(-c6ccccc6)c6ccc3[nH]6)C=C5)C=C4)cc2)cc1
REMARK SMILES IDX 30 1 29 2 28 3 27 4 26 5 24 6 25 7 23 8 18 9 19 10 20 11
REMARK SMILES IDX 22 12 21 13 16 14 15 15 17 17 14 18 9 19 10 20 11 21 13 22
REMARK SMILES IDX 12 23 7 24 6 25 8 27 5 28 1 29 2 30 3 31 87 32 4 33 86 34
REMARK SMILES IDX 31 35 32 36 33 37 34 38 35 39 36 40 37 41 38 42 39 43 85 44
REMARK SMILES IDX 40 45 84 46 41 47 42 48 43 49 78 50 44 51 83 52 77 53 79 54
REMARK SMILES IDX 45 55 82 56 76 57 75 58 46 60 68 61 53 62 67 63 54 64 57 65
REMARK SMILES IDX 66 66 80 67 55 68 56 69 65 71 81 72 58 73 47 74 48 75 52 76
REMARK SMILES IDX 49 77 51 78 50 79 69 80 70 81 74 82 71 83 73 84 72 85 59 86
REMARK SMILES IDX 60 87 64 88 61 89 63 90 62 91
REMARK H PARENT 15 16 6 26 79 59 57 70
REMARK Flexibility Score: inf
ROOT
ATOM      1  C   UNL A   1      39.371  21.924  26.165  1.00  0.00     0.188 C 
ENDROOT
BRANCH   1   2
ATOM      2  O   UNL A   1      38.564  21.072  25.386  1.00  0.00    -0.376 OA
BRANCH   2   3
ATOM      3  C   UNL A   1      37.353  21.655  24.858  1.00  0.00     0.202 C 
BRANCH   3   4
ATOM      4  C   UNL A   1      37.216  23.229  25.068  1.00  0.00     0.261 C 
BRANCH   4   5
ATOM      5  O   UNL A   1      35.858  24.266  25.043  1.00  0.00    -0.463 OA
BRANCH   5   6
ATOM      6  C   UNL A   1      34.582  24.778  25.370  1.00  0.00     0.309 C 
ATOM      7  O   UNL A   1      34.577  26.001  25.599  1.00  0.00    -0.252 OA
BRANCH   6   8
ATOM      8  C   UNL A   1      33.023  24.112  25.614  1.00  0.00     0.111 C 
ATOM      9  C   UNL A   1      31.847  24.225  26.783  1.00  0.00     0.093 C 
ATOM     10  C   UNL A   1      31.154  22.821  26.926  1.00  0.00     0.014 C 
ATOM     11  C   UNL A   1      30.673  22.198  25.607  1.00  0.00     0.001 C 
ATOM     12  C   UNL A   1      32.455  23.457  24.324  1.00  0.00     0.016 C 
ATOM     13  C   UNL A   1      31.796  22.095  24.585  1.00  0.00     0.001 C 
BRANCH   9  14
ATOM     14  C   UNL A   1      30.618  25.205  26.617  1.00  0.00     0.228 C 
ATOM     15  N   UNL A   1      30.611  26.548  26.293  1.00  0.00    -0.325 N 
ATOM     16  H   UNL A   1      29.687  26.857  26.151  1.00  0.00     0.169 HD
ATOM     17  O   UNL A   1      29.481  24.739  26.776  1.00  0.00    -0.274 OA
BRANCH  15  18
ATOM     18  C   UNL A   1      31.526  27.625  26.101  1.00  0.00     0.054 A 
ATOM     19  C   UNL A   1      32.047  28.025  24.806  1.00  0.00     0.063 A 
ATOM     20  C   UNL A   1      33.106  28.973  24.779  1.00  0.00     0.016 A 
ATOM     21  C   UNL A   1      33.661  29.501  25.938  1.00  0.00     0.001 A 
ATOM     22  C   UNL A   1      32.033  28.277  27.237  1.00  0.00     0.027 A 
ATOM     23  C   UNL A   1      33.115  29.163  27.163  1.00  0.00     0.002 A 
BRANCH  19  24
ATOM     24  C   UNL A   1      31.901  27.412  23.411  1.00  0.00     0.257 C 
ATOM     25  N   UNL A   1      30.803  27.489  22.596  1.00  0.00    -0.322 N 
ATOM     26  H   UNL A   1      30.691  26.734  21.975  1.00  0.00     0.170 HD
ATOM     27  O   UNL A   1      32.797  26.664  22.993  1.00  0.00    -0.269 OA
BRANCH  25  28
ATOM     28  C   UNL A   1      29.828  28.464  22.513  1.00  0.00     0.041 A 
ATOM     29  C   UNL A   1      27.294  31.720  23.462  1.00  0.00     0.044 C 
ATOM     30  C   UNL A   1      28.075  30.545  22.964  1.00  0.00    -0.051 A 
ATOM     31  C   UNL A   1      29.250  30.766  22.236  1.00  0.00     0.005 A 
ATOM     32  C   UNL A   1      27.719  29.243  23.336  1.00  0.00     0.005 A 
ATOM     33  C   UNL A   1      30.120  29.719  21.992  1.00  0.00     0.026 A 
ATOM     34  C   UNL A   1      28.587  28.188  23.084  1.00  0.00     0.026 A 
ENDBRANCH  25  28
ENDBRANCH  19  24
ENDBRANCH  15  18
ENDBRANCH   9  14
ENDBRANCH   6   8
ENDBRANCH   5   6
ENDBRANCH   4   5
ENDBRANCH   3   4
ENDBRANCH   2   3
ENDBRANCH   1   2
BRANCH   1  35
ATOM     35  C   UNL A   1      40.525  21.061  26.656  1.00  0.00     0.188 C 
BRANCH  35  36
ATOM     36  O   UNL A   1      40.959  21.204  27.980  1.00  0.00    -0.376 OA
BRANCH  36  37
ATOM     37  C   UNL A   1      42.176  21.905  28.106  1.00  0.00     0.202 C 
BRANCH  37  38
ATOM     38  C   UNL A   1      42.789  22.783  26.988  1.00  0.00     0.261 C 
BRANCH  38  39
ATOM     39  O   UNL A   1      42.399  24.154  26.585  1.00  0.00    -0.460 OA
BRANCH  39  40
ATOM     40  C   UNL A   1      42.137  25.403  26.246  1.00  0.00     0.338 C 
ATOM     41  O   UNL A   1      43.020  26.009  25.634  1.00  0.00    -0.246 OA
BRANCH  40  42
ATOM     42  C   UNL A   1      40.971  26.213  26.764  1.00  0.00     0.060 A 
ATOM     43  C   UNL A   1      41.050  27.539  26.460  1.00  0.00     0.016 A 
ATOM     44  C   UNL A   1      39.835  25.880  27.526  1.00  0.00     0.016 A 
ATOM     45  C   UNL A   1      40.215  28.452  27.132  1.00  0.00     0.010 A 
ATOM     46  C   UNL A   1      39.046  26.843  28.254  1.00  0.00     0.010 A 
ATOM     47  C   UNL A   1      39.323  28.202  28.199  1.00  0.00    -0.014 A 
BRANCH  47  48
ATOM     48  C   UNL A   1      38.951  29.115  29.425  1.00  0.00     0.031 A 
ATOM     49  C   UNL A   1      38.189  30.385  29.250  1.00  0.00     0.074 A 
ATOM     50  C   UNL A   1      39.104  28.883  30.782  1.00  0.00     0.049 A 
ATOM     51  N   UNL A   1      38.159  31.340  30.135  1.00  0.00    -0.248 NA
ATOM     52  C   UNL A   1      37.513  30.735  28.017  1.00  0.00     0.031 C 
ATOM     53  C   UNL A   1      38.112  29.130  31.854  1.00  0.00     0.029 A 
ATOM     54  N   UNL A   1      40.133  28.366  31.538  1.00  0.00    -0.354 N 
ATOM     55  C   UNL A   1      37.216  32.244  29.718  1.00  0.00     0.074 A 
ATOM     56  C   UNL A   1      37.016  31.937  28.321  1.00  0.00     0.031 C 
ATOM     57  C   UNL A   1      38.591  28.731  33.056  1.00  0.00     0.029 A 
ATOM     58  C   UNL A   1      39.972  28.293  32.904  1.00  0.00     0.049 A 
ATOM     59  H   UNL A   1      40.964  28.055  31.111  1.00  0.00     0.167 HD
ATOM     60  C   UNL A   1      36.522  33.004  30.615  1.00  0.00     0.031 A 
ATOM     61  C   UNL A   1      41.012  28.210  33.793  1.00  0.00     0.031 A 
ATOM     62  C   UNL A   1      36.907  32.735  32.010  1.00  0.00     0.049 A 
ATOM     63  C   UNL A   1      41.017  29.548  34.463  1.00  0.00     0.074 A 
ATOM     64  C   UNL A   1      36.292  31.993  33.007  1.00  0.00     0.029 A 
ATOM     65  N   UNL A   1      38.194  33.011  32.478  1.00  0.00    -0.354 N 
ATOM     66  N   UNL A   1      40.214  30.486  34.056  1.00  0.00    -0.248 NA
ATOM     67  C   UNL A   1      41.869  29.984  35.560  1.00  0.00     0.031 C 
ATOM     68  C   UNL A   1      37.218  31.802  34.063  1.00  0.00     0.029 A 
ATOM     69  C   UNL A   1      38.390  32.464  33.740  1.00  0.00     0.049 A 
ATOM     70  H   UNL A   1      38.872  33.523  31.980  1.00  0.00     0.167 HD
ATOM     71  C   UNL A   1      40.382  31.601  34.787  1.00  0.00     0.074 A 
ATOM     72  C   UNL A   1      41.444  31.255  35.719  1.00  0.00     0.031 C 
ATOM     73  C   UNL A   1      39.619  32.690  34.511  1.00  0.00     0.031 A 
BRANCH  60  74
ATOM     74  C   UNL A   1      35.210  33.661  30.208  1.00  0.00    -0.014 A 
ATOM     75  C   UNL A   1      34.706  33.513  28.903  1.00  0.00     0.009 A 
ATOM     76  C   UNL A   1      34.463  34.504  31.052  1.00  0.00     0.009 A 
ATOM     77  C   UNL A   1      33.612  34.260  28.435  1.00  0.00     0.001 A 
ATOM     78  C   UNL A   1      33.408  35.298  30.579  1.00  0.00     0.001 A 
ATOM     79  C   UNL A   1      32.990  35.186  29.263  1.00  0.00     0.000 A 
ENDBRANCH  60  74
BRANCH  61  80
ATOM     80  C   UNL A   1      42.239  27.401  33.413  1.00  0.00    -0.014 A 
ATOM     81  C   UNL A   1      43.107  27.900  32.420  1.00  0.00     0.009 A 
ATOM     82  C   UNL A   1      42.751  26.362  34.193  1.00  0.00     0.009 A 
ATOM     83  C   UNL A   1      44.488  27.585  32.402  1.00  0.00     0.001 A 
ATOM     84  C   UNL A   1      44.134  26.053  34.186  1.00  0.00     0.001 A 
ATOM     85  C   UNL A   1      45.018  26.725  33.349  1.00  0.00     0.000 A 
ENDBRANCH  61  80
BRANCH  73  86
ATOM     86  C   UNL A   1      39.905  34.043  35.057  1.00  0.00    -0.014 A 
ATOM     87  C   UNL A   1      39.531  34.444  36.345  1.00  0.00     0.009 A 
ATOM     88  C   UNL A   1      40.708  34.917  34.302  1.00  0.00     0.009 A 
ATOM     89  C   UNL A   1      39.906  35.692  36.842  1.00  0.00     0.001 A 
ATOM     90  C   UNL A   1      41.126  36.141  34.815  1.00  0.00     0.001 A 
ATOM     91  C   UNL A   1      40.713  36.533  36.082  1.00  0.00     0.000 A 
ENDBRANCH  73  86
ENDBRANCH  47  48
ENDBRANCH  40  42
ENDBRANCH  39  40
ENDBRANCH  38  39
ENDBRANCH  37  38
ENDBRANCH  36  37
ENDBRANCH  35  36
ENDBRANCH   1  35
TORSDOF 21
ENDMDL
MODEL 2
REMARK VINA RESULT:     -11.5      1.572      2.487
REMARK SMILES Cc1ccc(NC(=O)c2ccccc2NC(=O)[C@H]2CCCC[C@H]2C(=O)OCCOCCOCCOC(=O)c2ccc(-c3c4nc(c(-c5ccccc5)c5ccc([nH]5)c(-c5ccccc5)c5nc(c(-c6ccccc6)c6ccc3[nH]6)C=C5)C=C4)cc2)cc1
REMARK SMILES IDX 30 1 29 2 28 3 27 4 26 5 24 6 25 7 23 8 18 9 19 10 20 11
REMARK SMILES IDX 22 12 21 13 16 14 15 15 17 17 14 18 9 19 10 20 11 21 13 22
REMARK SMILES IDX 12 23 7 24 6 25 8 27 5 28 1 29 2 30 3 31 87 32 4 33 86 34
REMARK SMILES IDX 31 35 32 36 33 37 34 38 35 39 36 40 37 41 38 42 39 43 85 44
REMARK SMILES IDX 40 45 84 46 41 47 42 48 43 49 78 50 44 51 83 52 77 53 79 54
REMARK SMILES IDX 45 55 82 56 76 57 75 58 46 60 68 61 53 62 67 63 54 64 57 65
REMARK SMILES IDX 66 66 80 67 55 68 56 69 65 71 81 72 58 73 47 74 48 75 52 76
REMARK SMILES IDX 49 77 51 78 50 79 69 80 70 81 74 82 71 83 73 84 72 85 59 86
REMARK SMILES IDX 60 87 64 88 61 89 63 90 62 91
REMARK H PARENT 15 16 6 26 79 59 57 70
REMARK Flexibility Score: inf
ROOT
ATOM      1  C   UNL A   1      39.626  22.182  26.434  1.00  0.00     0.188 C 
ENDROOT
BRANCH   1   2
ATOM      2  O   UNL A   1      38.908  21.016  26.101  1.00  0.00    -0.376 OA
BRANCH   2   3
ATOM      3  C   UNL A   1      37.765  21.200  25.239  1.00  0.00     0.202 C 
BRANCH   3   4
ATOM      4  C   UNL A   1      37.440  22.716  24.865  1.00  0.00     0.261 C 
BRANCH   4   5
ATOM      5  O   UNL A   1      35.964  23.569  24.756  1.00  0.00    -0.463 OA
BRANCH   5   6
ATOM      6  C   UNL A   1      34.840  24.321  25.169  1.00  0.00     0.309 C 
ATOM      7  O   UNL A   1      35.093  25.519  25.387  1.00  0.00    -0.252 OA
BRANCH   6   8
ATOM      8  C   UNL A   1      33.202  23.975  25.527  1.00  0.00     0.111 C 
ATOM      9  C   UNL A   1      32.035  24.624  26.517  1.00  0.00     0.093 C 
ATOM     10  C   UNL A   1      31.155  23.449  27.081  1.00  0.00     0.014 C 
ATOM     11  C   UNL A   1      30.613  22.478  26.021  1.00  0.00     0.001 C 
ATOM     12  C   UNL A   1      32.568  22.996  24.500  1.00  0.00     0.016 C 
ATOM     13  C   UNL A   1      31.726  21.895  25.163  1.00  0.00     0.001 C 
BRANCH   9  14
ATOM     14  C   UNL A   1      30.954  25.631  25.959  1.00  0.00     0.228 C 
ATOM     15  N   UNL A   1      31.007  27.010  25.875  1.00  0.00    -0.325 N 
ATOM     16  H   UNL A   1      30.229  27.349  25.376  1.00  0.00     0.169 HD
ATOM     17  O   UNL A   1      29.900  25.159  25.508  1.00  0.00    -0.274 OA
BRANCH  15  18
ATOM     18  C   UNL A   1      31.838  28.093  26.288  1.00  0.00     0.054 A 
ATOM     19  C   UNL A   1      31.760  29.432  25.732  1.00  0.00     0.063 A 
ATOM     20  C   UNL A   1      32.781  30.357  26.082  1.00  0.00     0.016 A 
ATOM     21  C   UNL A   1      33.843  30.015  26.909  1.00  0.00     0.001 A 
ATOM     22  C   UNL A   1      32.859  27.831  27.216  1.00  0.00     0.027 A 
ATOM     23  C   UNL A   1      33.873  28.758  27.485  1.00  0.00     0.002 A 
BRANCH  19  24
ATOM     24  C   UNL A   1      30.948  30.012  24.571  1.00  0.00     0.257 C 
ATOM     25  N   UNL A   1      31.128  29.751  23.238  1.00  0.00    -0.322 N 
ATOM     26  H   UNL A   1      30.857  30.477  22.632  1.00  0.00     0.170 HD
ATOM     27  O   UNL A   1      30.117  30.900  24.812  1.00  0.00    -0.269 OA
BRANCH  25  28
ATOM     28  C   UNL A   1      31.632  28.626  22.616  1.00  0.00     0.041 A 
ATOM     29  C   UNL A   1      33.406  24.839  21.958  1.00  0.00     0.044 C 
ATOM     30  C   UNL A   1      32.789  26.202  21.991  1.00  0.00    -0.051 A 
ATOM     31  C   UNL A   1      31.395  26.317  22.049  1.00  0.00     0.005 A 
ATOM     32  C   UNL A   1      33.590  27.344  22.107  1.00  0.00     0.005 A 
ATOM     33  C   UNL A   1      30.814  27.537  22.343  1.00  0.00     0.026 A 
ATOM     34  C   UNL A   1      33.007  28.574  22.392  1.00  0.00     0.026 A 
ENDBRANCH  25  28
ENDBRANCH  19  24
ENDBRANCH  15  18
ENDBRANCH   9  14
ENDBRANCH   6   8
ENDBRANCH   5   6
ENDBRANCH   4   5
ENDBRANCH   3   4
ENDBRANCH   2   3
ENDBRANCH   1   2
BRANCH   1  35
ATOM     35  C   UNL A   1      41.079  21.882  26.094  1.00  0.00     0.188 C 
BRANCH  35  36
ATOM     36  O   UNL A   1      42.057  22.078  27.078  1.00  0.00    -0.376 OA
BRANCH  36  37
ATOM     37  C   UNL A   1      43.242  22.664  26.591  1.00  0.00     0.202 C 
BRANCH  37  38
ATOM     38  C   UNL A   1      43.290  23.685  25.429  1.00  0.00     0.261 C 
BRANCH  38  39
ATOM     39  O   UNL A   1      42.643  25.016  25.354  1.00  0.00    -0.460 OA
BRANCH  39  40
ATOM     40  C   UNL A   1      42.149  26.240  25.304  1.00  0.00     0.338 C 
ATOM     41  O   UNL A   1      42.713  27.035  24.550  1.00  0.00    -0.246 OA
BRANCH  40  42
ATOM     42  C   UNL A   1      41.132  26.801  26.271  1.00  0.00     0.060 A 
ATOM     43  C   UNL A   1      40.928  28.141  26.130  1.00  0.00     0.016 A 
ATOM     44  C   UNL A   1      40.376  26.226  27.309  1.00  0.00     0.016 A 
ATOM     45  C   UNL A   1      40.258  28.848  27.147  1.00  0.00     0.010 A 
ATOM     46  C   UNL A   1      39.762  26.985  28.370  1.00  0.00     0.010 A 
ATOM     47  C   UNL A   1      39.821  28.371  28.403  1.00  0.00    -0.014 A 
BRANCH  47  48
ATOM     48  C   UNL A   1      39.771  29.113  29.791  1.00  0.00     0.031 A 
ATOM     49  C   UNL A   1      38.903  30.306  30.006  1.00  0.00     0.074 A 
ATOM     50  C   UNL A   1      40.340  28.763  31.004  1.00  0.00     0.049 A 
ATOM     51  N   UNL A   1      39.072  31.159  30.976  1.00  0.00    -0.248 NA
ATOM     52  C   UNL A   1      37.865  30.705  29.077  1.00  0.00     0.031 C 
ATOM     53  C   UNL A   1      39.701  28.795  32.340  1.00  0.00     0.029 A 
ATOM     54  N   UNL A   1      41.582  28.284  31.358  1.00  0.00    -0.354 N 
ATOM     55  C   UNL A   1      37.986  31.995  30.968  1.00  0.00     0.074 A 
ATOM     56  C   UNL A   1      37.398  31.810  29.662  1.00  0.00     0.031 C 
ATOM     57  C   UNL A   1      40.545  28.330  33.291  1.00  0.00     0.029 A 
ATOM     58  C   UNL A   1      41.845  28.058  32.690  1.00  0.00     0.049 A 
ATOM     59  H   UNL A   1      42.267  28.107  30.672  1.00  0.00     0.167 HD
ATOM     60  C   UNL A   1      37.541  32.584  32.117  1.00  0.00     0.031 A 
ATOM     61  C   UNL A   1      43.106  27.997  33.222  1.00  0.00     0.031 A 
ATOM     62  C   UNL A   1      38.344  32.219  33.294  1.00  0.00     0.049 A 
ATOM     63  C   UNL A   1      43.217  29.254  34.026  1.00  0.00     0.074 A 
ATOM     64  C   UNL A   1      38.111  31.320  34.325  1.00  0.00     0.029 A 
ATOM     65  N   UNL A   1      39.690  32.581  33.400  1.00  0.00    -0.354 N 
ATOM     66  N   UNL A   1      42.264  30.138  33.991  1.00  0.00    -0.248 NA
ATOM     67  C   UNL A   1      44.326  29.665  34.875  1.00  0.00     0.031 C 
ATOM     68  C   UNL A   1      39.323  31.123  35.033  1.00  0.00     0.029 A 
ATOM     69  C   UNL A   1      40.294  31.935  34.471  1.00  0.00     0.049 A 
ATOM     70  H   UNL A   1      40.149  33.209  32.797  1.00  0.00     0.167 HD
ATOM     71  C   UNL A   1      42.565  31.186  34.779  1.00  0.00     0.074 A 
ATOM     72  C   UNL A   1      43.879  30.861  35.311  1.00  0.00     0.031 C 
ATOM     73  C   UNL A   1      41.679  32.210  34.876  1.00  0.00     0.031 A 
BRANCH  60  74
ATOM     74  C   UNL A   1      36.124  33.137  32.194  1.00  0.00    -0.014 A 
ATOM     75  C   UNL A   1      35.693  34.139  31.306  1.00  0.00     0.009 A 
ATOM     76  C   UNL A   1      35.189  32.757  33.176  1.00  0.00     0.009 A 
ATOM     77  C   UNL A   1      34.470  34.809  31.472  1.00  0.00     0.001 A 
ATOM     78  C   UNL A   1      33.993  33.459  33.386  1.00  0.00     0.001 A 
ATOM     79  C   UNL A   1      33.638  34.498  32.540  1.00  0.00     0.000 A 
ENDBRANCH  60  74
BRANCH  61  80
ATOM     80  C   UNL A   1      44.217  27.364  32.403  1.00  0.00    -0.014 A 
ATOM     81  C   UNL A   1      44.318  25.958  32.356  1.00  0.00     0.009 A 
ATOM     82  C   UNL A   1      44.950  28.053  31.435  1.00  0.00     0.009 A 
ATOM     83  C   UNL A   1      44.873  25.282  31.243  1.00  0.00     0.001 A 
ATOM     84  C   UNL A   1      45.496  27.380  30.313  1.00  0.00     0.001 A 
ATOM     85  C   UNL A   1      45.383  26.002  30.175  1.00  0.00     0.000 A 
ENDBRANCH  61  80
BRANCH  73  86
ATOM     86  C   UNL A   1      42.018  33.524  35.482  1.00  0.00    -0.014 A 
ATOM     87  C   UNL A   1      41.203  34.166  36.424  1.00  0.00     0.009 A 
ATOM     88  C   UNL A   1      43.277  34.087  35.208  1.00  0.00     0.009 A 
ATOM     89  C   UNL A   1      41.613  35.353  37.032  1.00  0.00     0.001 A 
ATOM     90  C   UNL A   1      43.709  35.242  35.851  1.00  0.00     0.001 A 
ATOM     91  C   UNL A   1      42.870  35.882  36.755  1.00  0.00     0.000 A 
ENDBRANCH  73  86
ENDBRANCH  47  48
ENDBRANCH  40  42
ENDBRANCH  39  40
ENDBRANCH  38  39
ENDBRANCH  37  38
ENDBRANCH  36  37
ENDBRANCH  35  36
ENDBRANCH   1  35
TORSDOF 21
ENDMDL
MODEL 3
REMARK VINA RESULT:     -11.4      4.462      9.018
REMARK SMILES Cc1ccc(NC(=O)c2ccccc2NC(=O)[C@H]2CCCC[C@H]2C(=O)OCCOCCOCCOC(=O)c2ccc(-c3c4nc(c(-c5ccccc5)c5ccc([nH]5)c(-c5ccccc5)c5nc(c(-c6ccccc6)c6ccc3[nH]6)C=C5)C=C4)cc2)cc1
REMARK SMILES IDX 30 1 29 2 28 3 27 4 26 5 24 6 25 7 23 8 18 9 19 10 20 11
REMARK SMILES IDX 22 12 21 13 16 14 15 15 17 17 14 18 9 19 10 20 11 21 13 22
REMARK SMILES IDX 12 23 7 24 6 25 8 27 5 28 1 29 2 30 3 31 87 32 4 33 86 34
REMARK SMILES IDX 31 35 32 36 33 37 34 38 35 39 36 40 37 41 38 42 39 43 85 44
REMARK SMILES IDX 40 45 84 46 41 47 42 48 43 49 78 50 44 51 83 52 77 53 79 54
REMARK SMILES IDX 45 55 82 56 76 57 75 58 46 60 68 61 53 62 67 63 54 64 57 65
REMARK SMILES IDX 66 66 80 67 55 68 56 69 65 71 81 72 58 73 47 74 48 75 52 76
REMARK SMILES IDX 49 77 51 78 50 79 69 80 70 81 74 82 71 83 73 84 72 85 59 86
REMARK SMILES IDX 60 87 64 88 61 89 63 90 62 91
REMARK H PARENT 15 16 6 26 79 59 57 70
REMARK Flexibility Score: inf
ROOT
ATOM      1  C   UNL A   1      44.073  32.440  28.355  1.00  0.00     0.188 C 
ENDROOT
BRANCH   1   2
ATOM      2  O   UNL A   1      42.941  32.862  29.081  1.00  0.00    -0.376 OA
BRANCH   2   3
ATOM      3  C   UNL A   1      42.936  34.244  29.499  1.00  0.00     0.202 C 
BRANCH   3   4
ATOM      4  C   UNL A   1      41.600  34.723  30.226  1.00  0.00     0.261 C 
BRANCH   4   5
ATOM      5  O   UNL A   1      39.951  34.481  29.852  1.00  0.00    -0.463 OA
BRANCH   5   6
ATOM      6  C   UNL A   1      38.629  33.996  29.969  1.00  0.00     0.309 C 
ATOM      7  O   UNL A   1      38.163  33.552  28.904  1.00  0.00    -0.252 OA
BRANCH   6   8
ATOM      8  C   UNL A   1      37.454  33.935  31.213  1.00  0.00     0.111 C 
ATOM      9  C   UNL A   1      35.794  33.926  31.288  1.00  0.00     0.093 C 
ATOM     10  C   UNL A   1      35.350  34.742  32.556  1.00  0.00     0.014 C 
ATOM     11  C   UNL A   1      36.041  34.332  33.866  1.00  0.00     0.001 C 
ATOM     12  C   UNL A   1      38.067  33.525  32.582  1.00  0.00     0.016 C 
ATOM     13  C   UNL A   1      37.558  34.385  33.748  1.00  0.00     0.001 C 
BRANCH   9  14
ATOM     14  C   UNL A   1      34.988  32.576  31.443  1.00  0.00     0.228 C 
ATOM     15  N   UNL A   1      35.285  31.320  30.949  1.00  0.00    -0.325 N 
ATOM     16  H   UNL A   1      34.654  30.656  31.309  1.00  0.00     0.169 HD
ATOM     17  O   UNL A   1      33.942  32.599  32.108  1.00  0.00    -0.274 OA
BRANCH  15  18
ATOM     18  C   UNL A   1      36.224  30.688  30.080  1.00  0.00     0.054 A 
ATOM     19  C   UNL A   1      36.209  30.824  28.635  1.00  0.00     0.063 A 
ATOM     20  C   UNL A   1      37.067  29.978  27.879  1.00  0.00     0.016 A 
ATOM     21  C   UNL A   1      37.886  29.028  28.474  1.00  0.00     0.001 A 
ATOM     22  C   UNL A   1      37.158  29.802  30.642  1.00  0.00     0.027 A 
ATOM     23  C   UNL A   1      37.941  28.951  29.854  1.00  0.00     0.002 A 
BRANCH  19  24
ATOM     24  C   UNL A   1      35.223  31.502  27.681  1.00  0.00     0.257 C 
ATOM     25  N   UNL A   1      34.332  30.877  26.849  1.00  0.00    -0.322 N 
ATOM     26  H   UNL A   1      34.100  31.379  26.034  1.00  0.00     0.170 HD
ATOM     27  O   UNL A   1      35.290  32.731  27.530  1.00  0.00    -0.269 OA
BRANCH  25  28
ATOM     28  C   UNL A   1      33.709  29.651  26.977  1.00  0.00     0.041 A 
ATOM     29  C   UNL A   1      31.292  26.260  26.217  1.00  0.00     0.044 C 
ATOM     30  C   UNL A   1      32.177  27.379  26.667  1.00  0.00    -0.051 A 
ATOM     31  C   UNL A   1      33.530  27.363  26.310  1.00  0.00     0.005 A 
ATOM     32  C   UNL A   1      31.639  28.497  27.314  1.00  0.00     0.005 A 
ATOM     33  C   UNL A   1      34.304  28.497  26.483  1.00  0.00     0.026 A 
ATOM     34  C   UNL A   1      32.417  29.634  27.499  1.00  0.00     0.026 A 
ENDBRANCH  25  28
ENDBRANCH  19  24
ENDBRANCH  15  18
ENDBRANCH   9  14
ENDBRANCH   6   8
ENDBRANCH   5   6
ENDBRANCH   4   5
ENDBRANCH   3   4
ENDBRANCH   2   3
ENDBRANCH   1   2
BRANCH   1  35
ATOM     35  C   UNL A   1      43.974  30.923  28.286  1.00  0.00     0.188 C 
BRANCH  35  36
ATOM     36  O   UNL A   1      45.148  30.177  28.115  1.00  0.00    -0.376 OA
BRANCH  36  37
ATOM     37  C   UNL A   1      45.411  29.833  26.774  1.00  0.00     0.202 C 
BRANCH  37  38
ATOM     38  C   UNL A   1      44.965  28.504  26.119  1.00  0.00     0.261 C 
BRANCH  38  39
ATOM     39  O   UNL A   1      45.275  27.121  26.550  1.00  0.00    -0.460 OA
BRANCH  39  40
ATOM     40  C   UNL A   1      45.604  25.880  26.860  1.00  0.00     0.338 C 
ATOM     41  O   UNL A   1      45.612  25.061  25.937  1.00  0.00    -0.246 OA
BRANCH  40  42
ATOM     42  C   UNL A   1      45.713  25.341  28.267  1.00  0.00     0.060 A 
ATOM     43  C   UNL A   1      44.671  24.539  28.627  1.00  0.00     0.016 A 
ATOM     44  C   UNL A   1      46.657  25.525  29.295  1.00  0.00     0.016 A 
ATOM     45  C   UNL A   1      44.480  24.224  29.986  1.00  0.00     0.010 A 
ATOM     46  C   UNL A   1      46.395  25.252  30.686  1.00  0.00     0.010 A 
ATOM     47  C   UNL A   1      45.186  24.715  31.107  1.00  0.00    -0.014 A 
BRANCH  47  48
ATOM     48  C   UNL A   1      44.662  25.036  32.556  1.00  0.00     0.031 A 
ATOM     49  C   UNL A   1      44.048  26.353  32.889  1.00  0.00     0.074 A 
ATOM     50  C   UNL A   1      44.538  24.206  33.658  1.00  0.00     0.049 A 
ATOM     51  N   UNL A   1      43.926  26.810  34.102  1.00  0.00    -0.248 NA
ATOM     52  C   UNL A   1      43.645  27.313  31.880  1.00  0.00     0.031 C 
ATOM     53  C   UNL A   1      43.385  24.104  34.581  1.00  0.00     0.029 A 
ATOM     54  N   UNL A   1      45.363  23.255  34.217  1.00  0.00    -0.354 N 
ATOM     55  C   UNL A   1      43.151  27.939  34.030  1.00  0.00     0.074 A 
ATOM     56  C   UNL A   1      43.195  28.317  32.637  1.00  0.00     0.031 C 
ATOM     57  C   UNL A   1      43.596  23.145  35.513  1.00  0.00     0.029 A 
ATOM     58  C   UNL A   1      44.943  22.611  35.360  1.00  0.00     0.049 A 
ATOM     59  H   UNL A   1      46.233  23.041  33.809  1.00  0.00     0.167 HD
ATOM     60  C   UNL A   1      42.361  28.321  35.076  1.00  0.00     0.031 A 
ATOM     61  C   UNL A   1      45.786  21.984  36.238  1.00  0.00     0.031 A 
ATOM     62  C   UNL A   1      42.455  27.407  36.226  1.00  0.00     0.049 A 
ATOM     63  C   UNL A   1      45.769  22.868  37.445  1.00  0.00     0.074 A 
ATOM     64  C   UNL A   1      41.607  26.405  36.676  1.00  0.00     0.029 A 
ATOM     65  N   UNL A   1      43.648  27.243  36.934  1.00  0.00    -0.354 N 
ATOM     66  N   UNL A   1      45.133  24.001  37.416  1.00  0.00    -0.248 NA
ATOM     67  C   UNL A   1      46.431  22.635  38.721  1.00  0.00     0.031 C 
ATOM     68  C   UNL A   1      42.300  25.625  37.635  1.00  0.00     0.029 A 
ATOM     69  C   UNL A   1      43.560  26.172  37.813  1.00  0.00     0.049 A 
ATOM     70  H   UNL A   1      44.446  27.810  36.823  1.00  0.00     0.167 HD
ATOM     71  C   UNL A   1      45.246  24.636  38.595  1.00  0.00     0.074 A 
ATOM     72  C   UNL A   1      46.083  23.753  39.392  1.00  0.00     0.031 C 
ATOM     73  C   UNL A   1      44.636  25.838  38.756  1.00  0.00     0.031 A 
BRANCH  60  74
ATOM     74  C   UNL A   1      41.205  29.285  34.850  1.00  0.00    -0.014 A 
ATOM     75  C   UNL A   1      40.798  30.171  35.864  1.00  0.00     0.009 A 
ATOM     76  C   UNL A   1      40.428  29.312  33.676  1.00  0.00     0.009 A 
ATOM     77  C   UNL A   1      39.620  30.929  35.765  1.00  0.00     0.001 A 
ATOM     78  C   UNL A   1      39.219  30.019  33.591  1.00  0.00     0.001 A 
ATOM     79  C   UNL A   1      38.807  30.820  34.644  1.00  0.00     0.000 A 
ENDBRANCH  60  74
BRANCH  61  80
ATOM     80  C   UNL A   1      46.997  21.247  35.693  1.00  0.00    -0.014 A 
ATOM     81  C   UNL A   1      46.799  20.099  34.897  1.00  0.00     0.009 A 
ATOM     82  C   UNL A   1      48.279  21.797  35.647  1.00  0.00     0.009 A 
ATOM     83  C   UNL A   1      47.728  19.705  33.904  1.00  0.00     0.001 A 
ATOM     84  C   UNL A   1      49.206  21.414  34.646  1.00  0.00     0.001 A 
ATOM     85  C   UNL A   1      48.897  20.425  33.720  1.00  0.00     0.000 A 
ENDBRANCH  61  80
BRANCH  73  86
ATOM     86  C   UNL A   1      44.918  26.748  39.898  1.00  0.00    -0.014 A 
ATOM     87  C   UNL A   1      45.635  27.944  39.766  1.00  0.00     0.009 A 
ATOM     88  C   UNL A   1      44.321  26.472  41.141  1.00  0.00     0.009 A 
ATOM     89  C   UNL A   1      45.791  28.807  40.850  1.00  0.00     0.001 A 
ATOM     90  C   UNL A   1      44.431  27.356  42.209  1.00  0.00     0.001 A 
ATOM     91  C   UNL A   1      45.178  28.518  42.066  1.00  0.00     0.000 A 
ENDBRANCH  73  86
ENDBRANCH  47  48
ENDBRANCH  40  42
ENDBRANCH  39  40
ENDBRANCH  38  39
ENDBRANCH  37  38
ENDBRANCH  36  37
ENDBRANCH  35  36
ENDBRANCH   1  35
TORSDOF 21
ENDMDL
