MODEL 1
REMARK VINA RESULT:      -9.5      0.000      0.000
REMARK SMILES C=CCOc1ccccc1/C=C/c1cc(C(=O)OCCOCCOCCOC(=O)c2ccc(-c3c4nc(c(-c5ccccc5)c5ccc([nH]5)c(-c5ccccc5)c5nc(c(-c6ccccc6)c6ccc3[nH]6)C=C5)C=C4)cc2)ncn1
REMARK SMILES IDX 21 1 20 2 19 3 18 4 16 5 17 6 15 7 13 8 14 9 80 10 79 11
REMARK SMILES IDX 78 12 12 13 11 14 10 15 5 16 6 17 7 18 9 19 8 20 4 21 3 22
REMARK SMILES IDX 2 23 1 24 22 25 23 26 24 27 25 28 26 29 27 30 28 31 29 32
REMARK SMILES IDX 30 33 31 34 77 35 32 36 76 37 33 38 34 39 35 40 70 41 36 42
REMARK SMILES IDX 75 43 69 44 71 45 37 46 74 47 68 48 67 49 38 51 60 52 45 53
REMARK SMILES IDX 59 54 46 55 49 56 58 57 72 58 47 59 48 60 57 62 73 63 50 64
REMARK SMILES IDX 39 65 40 66 44 67 41 68 43 69 42 70 61 71 62 72 66 73 63 74
REMARK SMILES IDX 65 75 64 76 51 77 52 78 56 79 53 80 55 81 54 82
REMARK H PARENT 71 50 49 61
REMARK Flexibility Score: inf
ROOT
ATOM      1  O   UNL A   1      35.398  31.304  27.916  1.00  0.00    -0.376 OA
ENDROOT
BRANCH   1   2
ATOM      2  C   UNL A   1      34.052  31.047  27.530  1.00  0.00     0.202 C 
BRANCH   2   3
ATOM      3  C   UNL A   1      33.627  29.649  27.051  1.00  0.00     0.261 C 
BRANCH   3   4
ATOM      4  O   UNL A   1      33.272  29.585  25.661  1.00  0.00    -0.459 OA
BRANCH   4   5
ATOM      5  C   UNL A   1      31.958  29.782  25.372  1.00  0.00     0.357 C 
ATOM      6  O   UNL A   1      31.212  30.582  25.912  1.00  0.00    -0.244 OA
BRANCH   5   7
ATOM      7  C   UNL A   1      31.587  28.965  24.181  1.00  0.00     0.152 A 
ATOM      8  C   UNL A   1      31.757  27.045  22.863  1.00  0.00     0.067 A 
ATOM      9  C   UNL A   1      32.264  27.801  23.899  1.00  0.00     0.064 A 
ATOM     10  N   UNL A   1      30.746  27.481  22.085  1.00  0.00    -0.237 NA
ATOM     11  C   UNL A   1      30.203  28.664  22.408  1.00  0.00     0.223 A 
ATOM     12  N   UNL A   1      30.557  29.431  23.440  1.00  0.00    -0.229 NA
BRANCH   8  13
ATOM     13  C   UNL A   1      32.069  25.612  22.707  1.00  0.00     0.029 C 
ATOM     14  C   UNL A   1      33.070  25.003  23.361  1.00  0.00     0.014 C 
BRANCH  14  15
ATOM     15  C   UNL A   1      33.120  23.567  23.661  1.00  0.00     0.017 A 
ATOM     16  C   UNL A   1      34.037  23.119  24.635  1.00  0.00     0.126 A 
ATOM     17  C   UNL A   1      34.175  21.762  24.923  1.00  0.00     0.047 A 
ATOM     18  C   UNL A   1      33.363  20.836  24.271  1.00  0.00     0.004 A 
ATOM     19  C   UNL A   1      32.304  22.629  23.023  1.00  0.00     0.012 A 
ATOM     20  C   UNL A   1      32.423  21.269  23.332  1.00  0.00     0.001 A 
BRANCH  16  21
ATOM     21  O   UNL A   1      34.864  24.017  25.273  1.00  0.00    -0.489 OA
BRANCH  21  22
ATOM     22  C   UNL A   1      35.855  23.355  26.075  1.00  0.00     0.257 C 
BRANCH  22  23
ATOM     23  C   UNL A   1      37.197  23.988  25.841  1.00  0.00     0.006 C 
ATOM     24  C   UNL A   1      38.359  23.486  26.284  1.00  0.00     0.007 C 
ENDBRANCH  22  23
ENDBRANCH  21  22
ENDBRANCH  16  21
ENDBRANCH  14  15
ENDBRANCH   8  13
ENDBRANCH   5   7
ENDBRANCH   4   5
ENDBRANCH   3   4
ENDBRANCH   2   3
ENDBRANCH   1   2
BRANCH   1  25
ATOM     25  C   UNL A   1      35.875  32.641  27.996  1.00  0.00     0.188 C 
BRANCH  25  26
ATOM     26  C   UNL A   1      35.057  33.701  28.764  1.00  0.00     0.188 C 
BRANCH  26  27
ATOM     27  O   UNL A   1      34.753  34.860  28.031  1.00  0.00    -0.376 OA
BRANCH  27  28
ATOM     28  C   UNL A   1      33.995  35.890  28.643  1.00  0.00     0.202 C 
BRANCH  28  29
ATOM     29  C   UNL A   1      32.915  35.678  29.730  1.00  0.00     0.261 C 
BRANCH  29  30
ATOM     30  O   UNL A   1      33.072  36.328  30.995  1.00  0.00    -0.460 OA
BRANCH  30  31
ATOM     31  C   UNL A   1      32.726  35.620  32.092  1.00  0.00     0.338 C 
ATOM     32  O   UNL A   1      31.597  35.446  32.537  1.00  0.00    -0.246 OA
BRANCH  31  33
ATOM     33  C   UNL A   1      33.920  34.913  32.588  1.00  0.00     0.060 A 
ATOM     34  C   UNL A   1      35.183  35.496  32.407  1.00  0.00     0.016 A 
ATOM     35  C   UNL A   1      33.797  33.673  33.217  1.00  0.00     0.016 A 
ATOM     36  C   UNL A   1      36.330  34.829  32.837  1.00  0.00     0.010 A 
ATOM     37  C   UNL A   1      34.950  32.996  33.626  1.00  0.00     0.010 A 
ATOM     38  C   UNL A   1      36.223  33.557  33.414  1.00  0.00    -0.014 A 
BRANCH  38  39
ATOM     39  C   UNL A   1      37.438  32.739  33.640  1.00  0.00     0.031 A 
ATOM     40  C   UNL A   1      38.234  32.964  34.896  1.00  0.00     0.074 A 
ATOM     41  C   UNL A   1      37.836  31.816  32.749  1.00  0.00     0.049 A 
ATOM     42  N   UNL A   1      39.361  32.419  35.275  1.00  0.00    -0.248 NA
ATOM     43  C   UNL A   1      37.684  33.943  35.848  1.00  0.00     0.031 C 
ATOM     44  C   UNL A   1      37.136  31.472  31.513  1.00  0.00     0.029 A 
ATOM     45  N   UNL A   1      38.948  31.009  32.745  1.00  0.00    -0.354 N 
ATOM     46  C   UNL A   1      39.665  33.002  36.499  1.00  0.00     0.074 A 
ATOM     47  C   UNL A   1      38.618  33.958  36.786  1.00  0.00     0.031 C 
ATOM     48  C   UNL A   1      37.844  30.534  30.860  1.00  0.00     0.029 A 
ATOM     49  C   UNL A   1      39.064  30.241  31.612  1.00  0.00     0.049 A 
ATOM     50  H   UNL A   1      39.598  30.982  33.484  1.00  0.00     0.167 HD
ATOM     51  C   UNL A   1      40.724  32.765  37.311  1.00  0.00     0.031 A 
ATOM     52  C   UNL A   1      40.055  29.420  31.214  1.00  0.00     0.031 A 
ATOM     53  C   UNL A   1      41.775  31.829  37.016  1.00  0.00     0.049 A 
ATOM     54  C   UNL A   1      41.258  29.223  32.099  1.00  0.00     0.074 A 
ATOM     55  C   UNL A   1      42.873  31.495  37.789  1.00  0.00     0.029 A 
ATOM     56  N   UNL A   1      41.869  31.089  35.847  1.00  0.00    -0.354 N 
ATOM     57  N   UNL A   1      41.518  29.748  33.272  1.00  0.00    -0.248 NA
ATOM     58  C   UNL A   1      42.302  28.313  31.605  1.00  0.00     0.031 C 
ATOM     59  C   UNL A   1      43.668  30.606  37.059  1.00  0.00     0.029 A 
ATOM     60  C   UNL A   1      43.027  30.329  35.862  1.00  0.00     0.049 A 
ATOM     61  H   UNL A   1      41.210  31.102  35.116  1.00  0.00     0.167 HD
ATOM     62  C   UNL A   1      42.738  29.211  33.669  1.00  0.00     0.074 A 
ATOM     63  C   UNL A   1      43.159  28.309  32.617  1.00  0.00     0.031 C 
ATOM     64  C   UNL A   1      43.442  29.440  34.805  1.00  0.00     0.031 A 
BRANCH  51  65
ATOM     65  C   UNL A   1      40.818  33.579  38.573  1.00  0.00    -0.014 A 
ATOM     66  C   UNL A   1      41.395  34.858  38.585  1.00  0.00     0.009 A 
ATOM     67  C   UNL A   1      40.307  33.054  39.771  1.00  0.00     0.009 A 
ATOM     68  C   UNL A   1      41.499  35.576  39.778  1.00  0.00     0.001 A 
ATOM     69  C   UNL A   1      40.382  33.787  40.957  1.00  0.00     0.001 A 
ATOM     70  C   UNL A   1      40.990  35.042  40.962  1.00  0.00     0.000 A 
ENDBRANCH  51  65
BRANCH  52  71
ATOM     71  C   UNL A   1      39.962  28.737  29.897  1.00  0.00    -0.014 A 
ATOM     72  C   UNL A   1      40.373  29.383  28.721  1.00  0.00     0.009 A 
ATOM     73  C   UNL A   1      39.458  27.429  29.810  1.00  0.00     0.009 A 
ATOM     74  C   UNL A   1      40.266  28.740  27.486  1.00  0.00     0.001 A 
ATOM     75  C   UNL A   1      39.380  26.778  28.577  1.00  0.00     0.001 A 
ATOM     76  C   UNL A   1      39.776  27.435  27.416  1.00  0.00     0.000 A 
ENDBRANCH  52  71
BRANCH  64  77
ATOM     77  C   UNL A   1      44.725  28.677  34.994  1.00  0.00    -0.014 A 
ATOM     78  C   UNL A   1      45.950  29.172  34.522  1.00  0.00     0.009 A 
ATOM     79  C   UNL A   1      44.712  27.463  35.701  1.00  0.00     0.009 A 
ATOM     80  C   UNL A   1      47.129  28.451  34.726  1.00  0.00     0.001 A 
ATOM     81  C   UNL A   1      45.895  26.761  35.932  1.00  0.00     0.001 A 
ATOM     82  C   UNL A   1      47.102  27.250  35.435  1.00  0.00     0.000 A 
ENDBRANCH  64  77
ENDBRANCH  38  39
ENDBRANCH  31  33
ENDBRANCH  30  31
ENDBRANCH  29  30
ENDBRANCH  28  29
ENDBRANCH  27  28
ENDBRANCH  26  27
ENDBRANCH  25  26
ENDBRANCH   1  25
TORSDOF 22
ENDMDL
MODEL 2
REMARK VINA RESULT:      -9.3      1.412      2.332
REMARK SMILES C=CCOc1ccccc1/C=C/c1cc(C(=O)OCCOCCOCCOC(=O)c2ccc(-c3c4nc(c(-c5ccccc5)c5ccc([nH]5)c(-c5ccccc5)c5nc(c(-c6ccccc6)c6ccc3[nH]6)C=C5)C=C4)cc2)ncn1
REMARK SMILES IDX 21 1 20 2 19 3 18 4 16 5 17 6 15 7 13 8 14 9 80 10 79 11
REMARK SMILES IDX 78 12 12 13 11 14 10 15 5 16 6 17 7 18 9 19 8 20 4 21 3 22
REMARK SMILES IDX 2 23 1 24 22 25 23 26 24 27 25 28 26 29 27 30 28 31 29 32
REMARK SMILES IDX 30 33 31 34 77 35 32 36 76 37 33 38 34 39 35 40 70 41 36 42
REMARK SMILES IDX 75 43 69 44 71 45 37 46 74 47 68 48 67 49 38 51 60 52 45 53
REMARK SMILES IDX 59 54 46 55 49 56 58 57 72 58 47 59 48 60 57 62 73 63 50 64
REMARK SMILES IDX 39 65 40 66 44 67 41 68 43 69 42 70 61 71 62 72 66 73 63 74
REMARK SMILES IDX 65 75 64 76 51 77 52 78 56 79 53 80 55 81 54 82
REMARK H PARENT 71 50 49 61
REMARK Flexibility Score: inf
ROOT
ATOM      1  O   UNL A   1      33.611  30.892  27.577  1.00  0.00    -0.376 OA
ENDROOT
BRANCH   1   2
ATOM      2  C   UNL A   1      32.487  30.545  26.776  1.00  0.00     0.202 C 
BRANCH   2   3
ATOM      3  C   UNL A   1      32.656  29.669  25.523  1.00  0.00     0.261 C 
BRANCH   3   4
ATOM      4  O   UNL A   1      31.433  29.402  24.821  1.00  0.00    -0.459 OA
BRANCH   4   5
ATOM      5  C   UNL A   1      31.501  28.454  23.847  1.00  0.00     0.357 C 
ATOM      6  O   UNL A   1      31.638  28.654  22.652  1.00  0.00    -0.244 OA
BRANCH   5   7
ATOM      7  C   UNL A   1      31.526  27.102  24.476  1.00  0.00     0.152 A 
ATOM      8  C   UNL A   1      32.608  25.110  25.040  1.00  0.00     0.067 A 
ATOM      9  C   UNL A   1      32.616  26.279  24.306  1.00  0.00     0.064 A 
ATOM     10  N   UNL A   1      31.541  24.731  25.772  1.00  0.00    -0.237 NA
ATOM     11  C   UNL A   1      30.504  25.579  25.813  1.00  0.00     0.223 A 
ATOM     12  N   UNL A   1      30.445  26.771  25.215  1.00  0.00    -0.229 NA
BRANCH   8  13
ATOM     13  C   UNL A   1      33.837  24.345  25.316  1.00  0.00     0.029 C 
ATOM     14  C   UNL A   1      33.859  23.008  25.437  1.00  0.00     0.014 C 
BRANCH  14  15
ATOM     15  C   UNL A   1      35.036  22.166  25.196  1.00  0.00     0.017 A 
ATOM     16  C   UNL A   1      34.861  20.766  25.159  1.00  0.00     0.126 A 
ATOM     17  C   UNL A   1      35.948  19.909  24.994  1.00  0.00     0.047 A 
ATOM     18  C   UNL A   1      37.222  20.444  24.815  1.00  0.00     0.004 A 
ATOM     19  C   UNL A   1      36.318  22.689  25.004  1.00  0.00     0.012 A 
ATOM     20  C   UNL A   1      37.405  21.829  24.810  1.00  0.00     0.001 A 
BRANCH  16  21
ATOM     21  O   UNL A   1      33.612  20.219  25.358  1.00  0.00    -0.489 OA
BRANCH  21  22
ATOM     22  C   UNL A   1      33.396  19.066  24.529  1.00  0.00     0.257 C 
BRANCH  22  23
ATOM     23  C   UNL A   1      32.817  17.954  25.356  1.00  0.00     0.006 C 
ATOM     24  C   UNL A   1      33.317  16.711  25.412  1.00  0.00     0.007 C 
ENDBRANCH  22  23
ENDBRANCH  21  22
ENDBRANCH  16  21
ENDBRANCH  14  15
ENDBRANCH   8  13
ENDBRANCH   5   7
ENDBRANCH   4   5
ENDBRANCH   3   4
ENDBRANCH   2   3
ENDBRANCH   1   2
BRANCH   1  25
ATOM     25  C   UNL A   1      33.818  32.242  27.970  1.00  0.00     0.188 C 
BRANCH  25  26
ATOM     26  C   UNL A   1      34.668  32.555  29.220  1.00  0.00     0.188 C 
BRANCH  26  27
ATOM     27  O   UNL A   1      34.841  33.922  29.493  1.00  0.00    -0.376 OA
BRANCH  27  28
ATOM     28  C   UNL A   1      33.974  34.866  28.886  1.00  0.00     0.202 C 
BRANCH  28  29
ATOM     29  C   UNL A   1      32.856  35.648  29.614  1.00  0.00     0.261 C 
BRANCH  29  30
ATOM     30  O   UNL A   1      33.173  36.329  30.833  1.00  0.00    -0.460 OA
BRANCH  30  31
ATOM     31  C   UNL A   1      32.810  35.720  31.984  1.00  0.00     0.338 C 
ATOM     32  O   UNL A   1      31.681  35.631  32.452  1.00  0.00    -0.246 OA
BRANCH  31  33
ATOM     33  C   UNL A   1      33.978  34.998  32.519  1.00  0.00     0.060 A 
ATOM     34  C   UNL A   1      35.246  35.591  32.431  1.00  0.00     0.016 A 
ATOM     35  C   UNL A   1      33.826  33.733  33.092  1.00  0.00     0.016 A 
ATOM     36  C   UNL A   1      36.370  34.910  32.899  1.00  0.00     0.010 A 
ATOM     37  C   UNL A   1      34.957  33.045  33.539  1.00  0.00     0.010 A 
ATOM     38  C   UNL A   1      36.237  33.617  33.420  1.00  0.00    -0.014 A 
BRANCH  38  39
ATOM     39  C   UNL A   1      37.441  32.794  33.682  1.00  0.00     0.031 A 
ATOM     40  C   UNL A   1      38.218  33.037  34.947  1.00  0.00     0.074 A 
ATOM     41  C   UNL A   1      37.848  31.851  32.816  1.00  0.00     0.049 A 
ATOM     42  N   UNL A   1      39.334  32.491  35.356  1.00  0.00    -0.248 NA
ATOM     43  C   UNL A   1      37.660  34.037  35.871  1.00  0.00     0.031 C 
ATOM     44  C   UNL A   1      37.166  31.489  31.575  1.00  0.00     0.029 A 
ATOM     45  N   UNL A   1      38.952  31.035  32.846  1.00  0.00    -0.354 N 
ATOM     46  C   UNL A   1      39.622  33.094  36.574  1.00  0.00     0.074 A 
ATOM     47  C   UNL A   1      38.578  34.063  36.825  1.00  0.00     0.031 C 
ATOM     48  C   UNL A   1      37.877  30.533  30.952  1.00  0.00     0.029 A 
ATOM     49  C   UNL A   1      39.081  30.245  31.730  1.00  0.00     0.049 A 
ATOM     50  H   UNL A   1      39.589  31.018  33.597  1.00  0.00     0.167 HD
ATOM     51  C   UNL A   1      40.664  32.865  37.408  1.00  0.00     0.031 A 
ATOM     52  C   UNL A   1      40.073  29.408  31.365  1.00  0.00     0.031 A 
ATOM     53  C   UNL A   1      41.713  31.915  37.149  1.00  0.00     0.049 A 
ATOM     54  C   UNL A   1      41.259  29.220  32.274  1.00  0.00     0.074 A 
ATOM     55  C   UNL A   1      42.795  31.587  37.947  1.00  0.00     0.029 A 
ATOM     56  N   UNL A   1      41.821  31.152  35.996  1.00  0.00    -0.354 N 
ATOM     57  N   UNL A   1      41.503  29.764  33.441  1.00  0.00    -0.248 NA
ATOM     58  C   UNL A   1      42.304  28.292  31.816  1.00  0.00     0.031 C 
ATOM     59  C   UNL A   1      43.595  30.678  37.247  1.00  0.00     0.029 A 
ATOM     60  C   UNL A   1      42.972  30.383  36.045  1.00  0.00     0.049 A 
ATOM     61  H   UNL A   1      41.175  31.156  35.254  1.00  0.00     0.167 HD
ATOM     62  C   UNL A   1      42.711  29.226  33.869  1.00  0.00     0.074 A 
ATOM     63  C   UNL A   1      43.143  28.301  32.842  1.00  0.00     0.031 C 
ATOM     64  C   UNL A   1      43.398  29.471  35.013  1.00  0.00     0.031 A 
BRANCH  51  65
ATOM     65  C   UNL A   1      40.744  33.701  38.655  1.00  0.00    -0.014 A 
ATOM     66  C   UNL A   1      40.165  33.281  39.864  1.00  0.00     0.009 A 
ATOM     67  C   UNL A   1      41.421  34.931  38.619  1.00  0.00     0.009 A 
ATOM     68  C   UNL A   1      40.226  34.095  40.998  1.00  0.00     0.001 A 
ATOM     69  C   UNL A   1      41.509  35.727  39.763  1.00  0.00     0.001 A 
ATOM     70  C   UNL A   1      40.901  35.315  40.947  1.00  0.00     0.000 A 
ENDBRANCH  51  65
BRANCH  52  71
ATOM     71  C   UNL A   1      39.997  28.702  30.060  1.00  0.00    -0.014 A 
ATOM     72  C   UNL A   1      39.398  27.437  29.960  1.00  0.00     0.009 A 
ATOM     73  C   UNL A   1      40.529  29.292  28.901  1.00  0.00     0.009 A 
ATOM     74  C   UNL A   1      39.348  26.773  28.732  1.00  0.00     0.001 A 
ATOM     75  C   UNL A   1      40.450  28.639  27.670  1.00  0.00     0.001 A 
ATOM     76  C   UNL A   1      39.867  27.377  27.587  1.00  0.00     0.000 A 
ENDBRANCH  52  71
BRANCH  64  77
ATOM     77  C   UNL A   1      44.672  28.702  35.238  1.00  0.00    -0.014 A 
ATOM     78  C   UNL A   1      45.905  29.166  34.756  1.00  0.00     0.009 A 
ATOM     79  C   UNL A   1      44.641  27.516  35.990  1.00  0.00     0.009 A 
ATOM     80  C   UNL A   1      47.075  28.440  34.994  1.00  0.00     0.001 A 
ATOM     81  C   UNL A   1      45.815  26.810  36.254  1.00  0.00     0.001 A 
ATOM     82  C   UNL A   1      47.030  27.267  35.747  1.00  0.00     0.000 A 
ENDBRANCH  64  77
ENDBRANCH  38  39
ENDBRANCH  31  33
ENDBRANCH  30  31
ENDBRANCH  29  30
ENDBRANCH  28  29
ENDBRANCH  27  28
ENDBRANCH  26  27
ENDBRANCH  25  26
ENDBRANCH   1  25
TORSDOF 22
ENDMDL
MODEL 3
REMARK VINA RESULT:      -9.2      4.291      6.524
REMARK SMILES C=CCOc1ccccc1/C=C/c1cc(C(=O)OCCOCCOCCOC(=O)c2ccc(-c3c4nc(c(-c5ccccc5)c5ccc([nH]5)c(-c5ccccc5)c5nc(c(-c6ccccc6)c6ccc3[nH]6)C=C5)C=C4)cc2)ncn1
REMARK SMILES IDX 21 1 20 2 19 3 18 4 16 5 17 6 15 7 13 8 14 9 80 10 79 11
REMARK SMILES IDX 78 12 12 13 11 14 10 15 5 16 6 17 7 18 9 19 8 20 4 21 3 22
REMARK SMILES IDX 2 23 1 24 22 25 23 26 24 27 25 28 26 29 27 30 28 31 29 32
REMARK SMILES IDX 30 33 31 34 77 35 32 36 76 37 33 38 34 39 35 40 70 41 36 42
REMARK SMILES IDX 75 43 69 44 71 45 37 46 74 47 68 48 67 49 38 51 60 52 45 53
REMARK SMILES IDX 59 54 46 55 49 56 58 57 72 58 47 59 48 60 57 62 73 63 50 64
REMARK SMILES IDX 39 65 40 66 44 67 41 68 43 69 42 70 61 71 62 72 66 73 63 74
REMARK SMILES IDX 65 75 64 76 51 77 52 78 56 79 53 80 55 81 54 82
REMARK H PARENT 71 50 49 61
REMARK Flexibility Score: inf
ROOT
ATOM      1  O   UNL A   1      33.256  31.031  27.870  1.00  0.00    -0.376 OA
ENDROOT
BRANCH   1   2
ATOM      2  C   UNL A   1      32.554  30.342  26.841  1.00  0.00     0.202 C 
BRANCH   2   3
ATOM      3  C   UNL A   1      33.318  29.550  25.766  1.00  0.00     0.261 C 
BRANCH   3   4
ATOM      4  O   UNL A   1      32.576  29.331  24.556  1.00  0.00    -0.459 OA
BRANCH   4   5
ATOM      5  C   UNL A   1      32.968  28.270  23.801  1.00  0.00     0.357 C 
ATOM      6  O   UNL A   1      34.080  28.086  23.336  1.00  0.00    -0.244 OA
BRANCH   5   7
ATOM      7  C   UNL A   1      31.860  27.273  23.739  1.00  0.00     0.152 A 
ATOM      8  C   UNL A   1      31.065  25.086  23.548  1.00  0.00     0.067 A 
ATOM      9  C   UNL A   1      32.130  25.956  23.442  1.00  0.00     0.064 A 
ATOM     10  N   UNL A   1      29.810  25.514  23.794  1.00  0.00    -0.237 NA
ATOM     11  C   UNL A   1      29.651  26.829  24.001  1.00  0.00     0.223 A 
ATOM     12  N   UNL A   1      30.623  27.742  24.010  1.00  0.00    -0.229 NA
BRANCH   8  13
ATOM     13  C   UNL A   1      31.248  23.630  23.693  1.00  0.00     0.029 C 
ATOM     14  C   UNL A   1      32.268  22.959  23.134  1.00  0.00     0.014 C 
BRANCH  14  15
ATOM     15  C   UNL A   1      32.800  21.683  23.629  1.00  0.00     0.017 A 
ATOM     16  C   UNL A   1      33.960  21.709  24.431  1.00  0.00     0.126 A 
ATOM     17  C   UNL A   1      34.548  20.528  24.882  1.00  0.00     0.047 A 
ATOM     18  C   UNL A   1      33.956  19.305  24.575  1.00  0.00     0.004 A 
ATOM     19  C   UNL A   1      32.210  20.451  23.338  1.00  0.00     0.012 A 
ATOM     20  C   UNL A   1      32.785  19.267  23.814  1.00  0.00     0.001 A 
BRANCH  16  21
ATOM     21  O   UNL A   1      34.573  22.907  24.725  1.00  0.00    -0.489 OA
BRANCH  21  22
ATOM     22  C   UNL A   1      34.960  22.986  26.105  1.00  0.00     0.257 C 
BRANCH  22  23
ATOM     23  C   UNL A   1      33.766  23.345  26.943  1.00  0.00     0.006 C 
ATOM     24  C   UNL A   1      33.125  22.491  27.754  1.00  0.00     0.007 C 
ENDBRANCH  22  23
ENDBRANCH  21  22
ENDBRANCH  16  21
ENDBRANCH  14  15
ENDBRANCH   8  13
ENDBRANCH   5   7
ENDBRANCH   4   5
ENDBRANCH   3   4
ENDBRANCH   2   3
ENDBRANCH   1   2
BRANCH   1  25
ATOM     25  C   UNL A   1      33.546  32.416  27.731  1.00  0.00     0.188 C 
BRANCH  25  26
ATOM     26  C   UNL A   1      34.939  32.950  28.126  1.00  0.00     0.188 C 
BRANCH  26  27
ATOM     27  O   UNL A   1      34.930  34.164  28.834  1.00  0.00    -0.376 OA
BRANCH  27  28
ATOM     28  C   UNL A   1      34.067  34.311  29.949  1.00  0.00     0.202 C 
BRANCH  28  29
ATOM     29  C   UNL A   1      34.420  33.931  31.406  1.00  0.00     0.261 C 
BRANCH  29  30
ATOM     30  O   UNL A   1      35.795  33.928  31.805  1.00  0.00    -0.460 OA
BRANCH  30  31
ATOM     31  C   UNL A   1      36.199  32.908  32.593  1.00  0.00     0.338 C 
ATOM     32  O   UNL A   1      35.718  32.565  33.667  1.00  0.00    -0.246 OA
BRANCH  31  33
ATOM     33  C   UNL A   1      37.216  32.129  31.865  1.00  0.00     0.060 A 
ATOM     34  C   UNL A   1      37.955  31.158  32.556  1.00  0.00     0.016 A 
ATOM     35  C   UNL A   1      37.451  32.366  30.509  1.00  0.00     0.016 A 
ATOM     36  C   UNL A   1      38.948  30.433  31.896  1.00  0.00     0.010 A 
ATOM     37  C   UNL A   1      38.461  31.654  29.856  1.00  0.00     0.010 A 
ATOM     38  C   UNL A   1      39.233  30.705  30.552  1.00  0.00    -0.014 A 
BRANCH  38  39
ATOM     39  C   UNL A   1      40.441  30.127  29.917  1.00  0.00     0.031 A 
ATOM     40  C   UNL A   1      41.640  31.012  29.712  1.00  0.00     0.074 A 
ATOM     41  C   UNL A   1      40.478  28.844  29.520  1.00  0.00     0.049 A 
ATOM     42  N   UNL A   1      42.777  30.749  29.121  1.00  0.00    -0.248 NA
ATOM     43  C   UNL A   1      41.536  32.382  30.241  1.00  0.00     0.031 C 
ATOM     44  C   UNL A   1      39.402  27.871  29.695  1.00  0.00     0.029 A 
ATOM     45  N   UNL A   1      41.465  28.145  28.869  1.00  0.00    -0.354 N 
ATOM     46  C   UNL A   1      43.515  31.924  29.190  1.00  0.00     0.074 A 
ATOM     47  C   UNL A   1      42.689  32.906  29.857  1.00  0.00     0.031 C 
ATOM     48  C   UNL A   1      39.781  26.703  29.147  1.00  0.00     0.029 A 
ATOM     49  C   UNL A   1      41.107  26.858  28.552  1.00  0.00     0.049 A 
ATOM     50  H   UNL A   1      42.345  28.530  28.652  1.00  0.00     0.167 HD
ATOM     51  C   UNL A   1      44.768  32.165  28.735  1.00  0.00     0.031 A 
ATOM     52  C   UNL A   1      41.763  25.922  27.837  1.00  0.00     0.031 A 
ATOM     53  C   UNL A   1      45.583  31.194  28.054  1.00  0.00     0.049 A 
ATOM     54  C   UNL A   1      43.127  26.233  27.279  1.00  0.00     0.074 A 
ATOM     55  C   UNL A   1      46.876  31.333  27.583  1.00  0.00     0.029 A 
ATOM     56  N   UNL A   1      45.174  29.909  27.730  1.00  0.00    -0.354 N 
ATOM     57  N   UNL A   1      43.833  27.333  27.383  1.00  0.00    -0.248 NA
ATOM     58  C   UNL A   1      43.787  25.168  26.510  1.00  0.00     0.031 C 
ATOM     59  C   UNL A   1      47.226  30.156  26.913  1.00  0.00     0.029 A 
ATOM     60  C   UNL A   1      46.178  29.257  27.032  1.00  0.00     0.049 A 
ATOM     61  H   UNL A   1      44.301  29.518  27.963  1.00  0.00     0.167 HD
ATOM     62  C   UNL A   1      45.029  27.083  26.720  1.00  0.00     0.074 A 
ATOM     63  C   UNL A   1      44.958  25.723  26.229  1.00  0.00     0.031 C 
ATOM     64  C   UNL A   1      46.093  27.905  26.540  1.00  0.00     0.031 A 
BRANCH  51  65
ATOM     65  C   UNL A   1      45.309  33.557  28.916  1.00  0.00    -0.014 A 
ATOM     66  C   UNL A   1      45.107  34.558  27.953  1.00  0.00     0.009 A 
ATOM     67  C   UNL A   1      46.026  33.872  30.082  1.00  0.00     0.009 A 
ATOM     68  C   UNL A   1      45.650  35.833  28.133  1.00  0.00     0.001 A 
ATOM     69  C   UNL A   1      46.540  35.156  30.275  1.00  0.00     0.001 A 
ATOM     70  C   UNL A   1      46.363  36.131  29.295  1.00  0.00     0.000 A 
ENDBRANCH  51  65
BRANCH  52  71
ATOM     71  C   UNL A   1      41.123  24.604  27.586  1.00  0.00    -0.014 A 
ATOM     72  C   UNL A   1      39.981  24.501  26.778  1.00  0.00     0.009 A 
ATOM     73  C   UNL A   1      41.655  23.437  28.158  1.00  0.00     0.009 A 
ATOM     74  C   UNL A   1      39.377  23.260  26.562  1.00  0.00     0.001 A 
ATOM     75  C   UNL A   1      41.067  22.194  27.916  1.00  0.00     0.001 A 
ATOM     76  C   UNL A   1      39.924  22.107  27.125  1.00  0.00     0.000 A 
ENDBRANCH  52  71
BRANCH  64  77
ATOM     77  C   UNL A   1      47.287  27.348  25.812  1.00  0.00    -0.014 A 
ATOM     78  C   UNL A   1      48.192  26.480  26.442  1.00  0.00     0.009 A 
ATOM     79  C   UNL A   1      47.479  27.659  24.456  1.00  0.00     0.009 A 
ATOM     80  C   UNL A   1      49.283  25.964  25.738  1.00  0.00     0.001 A 
ATOM     81  C   UNL A   1      48.550  27.116  23.746  1.00  0.00     0.001 A 
ATOM     82  C   UNL A   1      49.458  26.277  24.390  1.00  0.00     0.000 A 
ENDBRANCH  64  77
ENDBRANCH  38  39
ENDBRANCH  31  33
ENDBRANCH  30  31
ENDBRANCH  29  30
ENDBRANCH  28  29
ENDBRANCH  27  28
ENDBRANCH  26  27
ENDBRANCH  25  26
ENDBRANCH   1  25
TORSDOF 22
ENDMDL
