MODEL 1
REMARK VINA RESULT:     -10.8      0.000      0.000
REMARK SMILES O=C(OCCOCCOCCOC(=O)[C@H](c1ccccc1)C(c1ccccc1)c1ccccc1)c1ccc(-c2c3nc(c(-c4ccccc4)c4ccc([nH]4)c(-c4ccccc4)c4nc(c(-c5ccccc5)c5ccc2[nH]5)C=C4)C=C3)cc1
REMARK SMILES IDX 7 1 6 2 5 3 4 4 3 5 2 6 1 7 35 8 36 9 82 10 37 11 81 12
REMARK SMILES IDX 38 13 39 14 40 15 75 16 41 17 80 18 74 19 76 20 42 21 79 22
REMARK SMILES IDX 73 23 72 24 43 26 65 27 50 28 64 29 51 30 54 31 63 32 77 33
REMARK SMILES IDX 52 34 53 35 62 37 78 38 55 39 44 40 45 41 49 42 46 43 48 44
REMARK SMILES IDX 47 45 66 46 67 47 71 48 68 49 70 50 69 51 56 52 57 53 61 54
REMARK SMILES IDX 58 55 60 56 59 57 8 58 9 59 10 60 11 61 12 62 13 63 14 64
REMARK SMILES IDX 15 65 22 66 23 67 24 68 28 69 25 70 27 71 26 72 29 73 30 74
REMARK SMILES IDX 34 75 31 76 33 77 32 78 16 79 17 80 21 81 18 82 20 83 19 84
REMARK H PARENT 76 25 54 36
REMARK Flexibility Score: inf
ROOT
ATOM      1  C   UNL A   1      40.593  20.034  26.306  1.00  0.00     0.188 C 
ENDROOT
BRANCH   1   2
ATOM      2  O   UNL A   1      41.632  20.085  25.332  1.00  0.00    -0.376 OA
BRANCH   2   3
ATOM      3  C   UNL A   1      42.965  19.962  25.811  1.00  0.00     0.202 C 
BRANCH   3   4
ATOM      4  C   UNL A   1      43.846  21.205  25.628  1.00  0.00     0.261 C 
BRANCH   4   5
ATOM      5  O   UNL A   1      43.182  22.306  24.993  1.00  0.00    -0.460 OA
BRANCH   5   6
ATOM      6  C   UNL A   1      43.621  23.590  24.947  1.00  0.00     0.338 C 
ATOM      7  O   UNL A   1      44.634  23.837  24.294  1.00  0.00    -0.246 OA
BRANCH   6   8
ATOM      8  C   UNL A   1      43.039  24.692  25.794  1.00  0.00     0.060 A 
ATOM      9  C   UNL A   1      43.544  25.988  25.926  1.00  0.00     0.016 A 
ATOM     10  C   UNL A   1      41.870  24.384  26.514  1.00  0.00     0.016 A 
ATOM     11  C   UNL A   1      42.910  26.961  26.696  1.00  0.00     0.010 A 
ATOM     12  C   UNL A   1      41.253  25.332  27.338  1.00  0.00     0.010 A 
ATOM     13  C   UNL A   1      41.790  26.622  27.443  1.00  0.00    -0.014 A 
BRANCH  13  14
ATOM     14  C   UNL A   1      41.423  27.491  28.576  1.00  0.00     0.031 A 
ATOM     15  C   UNL A   1      42.274  27.371  29.806  1.00  0.00     0.074 A 
ATOM     16  C   UNL A   1      40.443  28.405  28.494  1.00  0.00     0.049 A 
ATOM     17  N   UNL A   1      42.128  27.920  30.979  1.00  0.00    -0.248 NA
ATOM     18  C   UNL A   1      43.465  26.510  29.683  1.00  0.00     0.031 C 
ATOM     19  C   UNL A   1      39.673  28.716  27.292  1.00  0.00     0.029 A 
ATOM     20  N   UNL A   1      39.927  29.238  29.451  1.00  0.00    -0.354 N 
ATOM     21  C   UNL A   1      43.188  27.443  31.739  1.00  0.00     0.074 A 
ATOM     22  C   UNL A   1      43.958  26.553  30.906  1.00  0.00     0.031 C 
ATOM     23  C   UNL A   1      38.740  29.635  27.597  1.00  0.00     0.029 A 
ATOM     24  C   UNL A   1      38.838  29.955  29.019  1.00  0.00     0.049 A 
ATOM     25  H   UNL A   1      40.300  29.317  30.358  1.00  0.00     0.167 HD
ATOM     26  C   UNL A   1      43.486  27.721  33.028  1.00  0.00     0.031 A 
ATOM     27  C   UNL A   1      38.002  30.750  29.713  1.00  0.00     0.031 A 
ATOM     28  C   UNL A   1      42.687  28.590  33.841  1.00  0.00     0.049 A 
ATOM     29  C   UNL A   1      38.277  30.965  31.179  1.00  0.00     0.074 A 
ATOM     30  C   UNL A   1      42.845  28.921  35.172  1.00  0.00     0.029 A 
ATOM     31  N   UNL A   1      41.561  29.263  33.383  1.00  0.00    -0.354 N 
ATOM     32  N   UNL A   1      39.252  30.481  31.912  1.00  0.00    -0.248 NA
ATOM     33  C   UNL A   1      37.350  31.836  31.913  1.00  0.00     0.031 C 
ATOM     34  C   UNL A   1      41.779  29.751  35.534  1.00  0.00     0.029 A 
ATOM     35  C   UNL A   1      40.997  29.992  34.411  1.00  0.00     0.049 A 
ATOM     36  H   UNL A   1      41.217  29.226  32.461  1.00  0.00     0.167 HD
ATOM     37  C   UNL A   1      39.080  31.012  33.183  1.00  0.00     0.074 A 
ATOM     38  C   UNL A   1      37.901  31.855  33.119  1.00  0.00     0.031 C 
ATOM     39  C   UNL A   1      39.828  30.828  34.299  1.00  0.00     0.031 A 
BRANCH  26  40
ATOM     40  C   UNL A   1      44.653  26.982  33.619  1.00  0.00    -0.014 A 
ATOM     41  C   UNL A   1      44.504  25.725  34.228  1.00  0.00     0.009 A 
ATOM     42  C   UNL A   1      45.909  27.606  33.652  1.00  0.00     0.009 A 
ATOM     43  C   UNL A   1      45.571  25.142  34.918  1.00  0.00     0.001 A 
ATOM     44  C   UNL A   1      46.982  27.005  34.311  1.00  0.00     0.001 A 
ATOM     45  C   UNL A   1      46.807  25.784  34.961  1.00  0.00     0.000 A 
ENDBRANCH  26  40
BRANCH  27  46
ATOM     46  C   UNL A   1      36.821  31.354  29.036  1.00  0.00    -0.014 A 
ATOM     47  C   UNL A   1      36.828  32.692  28.620  1.00  0.00     0.009 A 
ATOM     48  C   UNL A   1      35.683  30.572  28.773  1.00  0.00     0.009 A 
ATOM     49  C   UNL A   1      35.718  33.236  27.962  1.00  0.00     0.001 A 
ATOM     50  C   UNL A   1      34.586  31.109  28.094  1.00  0.00     0.001 A 
ATOM     51  C   UNL A   1      34.603  32.443  27.694  1.00  0.00     0.000 A 
ENDBRANCH  27  46
BRANCH  39  52
ATOM     52  C   UNL A   1      39.434  31.588  35.531  1.00  0.00    -0.014 A 
ATOM     53  C   UNL A   1      39.986  32.843  35.821  1.00  0.00     0.009 A 
ATOM     54  C   UNL A   1      38.403  31.086  36.343  1.00  0.00     0.009 A 
ATOM     55  C   UNL A   1      39.516  33.580  36.910  1.00  0.00     0.001 A 
ATOM     56  C   UNL A   1      37.917  31.836  37.412  1.00  0.00     0.001 A 
ATOM     57  C   UNL A   1      38.476  33.082  37.696  1.00  0.00     0.000 A 
ENDBRANCH  39  52
ENDBRANCH  13  14
ENDBRANCH   6   8
ENDBRANCH   5   6
ENDBRANCH   4   5
ENDBRANCH   3   4
ENDBRANCH   2   3
ENDBRANCH   1   2
BRANCH   1  58
ATOM     58  C   UNL A   1      40.500  21.250  27.220  1.00  0.00     0.188 C 
BRANCH  58  59
ATOM     59  O   UNL A   1      39.425  22.121  26.884  1.00  0.00    -0.376 OA
BRANCH  59  60
ATOM     60  C   UNL A   1      38.570  21.690  25.834  1.00  0.00     0.202 C 
BRANCH  60  61
ATOM     61  C   UNL A   1      37.526  22.711  25.354  1.00  0.00     0.261 C 
BRANCH  61  62
ATOM     62  O   UNL A   1      36.296  22.272  24.729  1.00  0.00    -0.463 OA
BRANCH  62  63
ATOM     63  C   UNL A   1      35.918  22.722  23.505  1.00  0.00     0.314 C 
ATOM     64  O   UNL A   1      36.680  23.132  22.643  1.00  0.00    -0.252 OA
BRANCH  63  65
ATOM     65  C   UNL A   1      34.400  22.681  23.344  1.00  0.00     0.141 C 
BRANCH  65  66
ATOM     66  C   UNL A   1      33.776  22.120  24.681  1.00  0.00     0.068 C 
BRANCH  66  67
ATOM     67  C   UNL A   1      32.805  23.160  25.269  1.00  0.00    -0.039 A 
ATOM     68  C   UNL A   1      31.468  23.276  24.850  1.00  0.00     0.004 A 
ATOM     69  C   UNL A   1      33.306  24.131  26.154  1.00  0.00     0.004 A 
ATOM     70  C   UNL A   1      30.644  24.286  25.350  1.00  0.00     0.000 A 
ATOM     71  C   UNL A   1      32.493  25.164  26.622  1.00  0.00     0.000 A 
ATOM     72  C   UNL A   1      31.158  25.232  26.233  1.00  0.00     0.000 A 
ENDBRANCH  66  67
BRANCH  66  73
ATOM     73  C   UNL A   1      33.228  20.667  24.551  1.00  0.00    -0.039 A 
ATOM     74  C   UNL A   1      33.215  19.802  25.666  1.00  0.00     0.004 A 
ATOM     75  C   UNL A   1      32.680  20.144  23.370  1.00  0.00     0.004 A 
ATOM     76  C   UNL A   1      32.830  18.461  25.575  1.00  0.00     0.000 A 
ATOM     77  C   UNL A   1      32.271  18.805  23.276  1.00  0.00     0.000 A 
ATOM     78  C   UNL A   1      32.373  17.956  24.370  1.00  0.00     0.000 A 
ENDBRANCH  66  73
ENDBRANCH  65  66
BRANCH  65  79
ATOM     79  C   UNL A   1      33.881  24.058  22.889  1.00  0.00    -0.033 A 
ATOM     80  C   UNL A   1      32.937  24.134  21.851  1.00  0.00     0.004 A 
ATOM     81  C   UNL A   1      34.297  25.262  23.482  1.00  0.00     0.004 A 
ATOM     82  C   UNL A   1      32.450  25.364  21.404  1.00  0.00     0.000 A 
ATOM     83  C   UNL A   1      33.840  26.495  23.004  1.00  0.00     0.000 A 
ATOM     84  C   UNL A   1      32.919  26.546  21.963  1.00  0.00     0.000 A 
ENDBRANCH  65  79
ENDBRANCH  63  65
ENDBRANCH  62  63
ENDBRANCH  61  62
ENDBRANCH  60  61
ENDBRANCH  59  60
ENDBRANCH  58  59
ENDBRANCH   1  58
TORSDOF 21
ENDMDL
MODEL 2
REMARK VINA RESULT:     -10.5      4.086      9.196
REMARK SMILES O=C(OCCOCCOCCOC(=O)[C@H](c1ccccc1)C(c1ccccc1)c1ccccc1)c1ccc(-c2c3nc(c(-c4ccccc4)c4ccc([nH]4)c(-c4ccccc4)c4nc(c(-c5ccccc5)c5ccc2[nH]5)C=C4)C=C3)cc1
REMARK SMILES IDX 7 1 6 2 5 3 4 4 3 5 2 6 1 7 35 8 36 9 82 10 37 11 81 12
REMARK SMILES IDX 38 13 39 14 40 15 75 16 41 17 80 18 74 19 76 20 42 21 79 22
REMARK SMILES IDX 73 23 72 24 43 26 65 27 50 28 64 29 51 30 54 31 63 32 77 33
REMARK SMILES IDX 52 34 53 35 62 37 78 38 55 39 44 40 45 41 49 42 46 43 48 44
REMARK SMILES IDX 47 45 66 46 67 47 71 48 68 49 70 50 69 51 56 52 57 53 61 54
REMARK SMILES IDX 58 55 60 56 59 57 8 58 9 59 10 60 11 61 12 62 13 63 14 64
REMARK SMILES IDX 15 65 22 66 23 67 24 68 28 69 25 70 27 71 26 72 29 73 30 74
REMARK SMILES IDX 34 75 31 76 33 77 32 78 16 79 17 80 21 81 18 82 20 83 19 84
REMARK H PARENT 76 25 54 36
REMARK Flexibility Score: inf
ROOT
ATOM      1  C   UNL A   1      34.470  33.208  29.449  1.00  0.00     0.188 C 
ENDROOT
BRANCH   1   2
ATOM      2  O   UNL A   1      33.415  34.095  29.086  1.00  0.00    -0.376 OA
BRANCH   2   3
ATOM      3  C   UNL A   1      33.735  35.477  29.017  1.00  0.00     0.202 C 
BRANCH   3   4
ATOM      4  C   UNL A   1      32.656  36.430  29.548  1.00  0.00     0.261 C 
BRANCH   4   5
ATOM      5  O   UNL A   1      32.709  36.643  30.965  1.00  0.00    -0.460 OA
BRANCH   5   6
ATOM      6  C   UNL A   1      32.674  35.682  31.923  1.00  0.00     0.338 C 
ATOM      7  O   UNL A   1      31.592  35.420  32.448  1.00  0.00    -0.246 OA
BRANCH   6   8
ATOM      8  C   UNL A   1      33.912  35.046  32.500  1.00  0.00     0.060 A 
ATOM      9  C   UNL A   1      35.200  35.588  32.493  1.00  0.00     0.016 A 
ATOM     10  C   UNL A   1      33.750  33.788  33.109  1.00  0.00     0.016 A 
ATOM     11  C   UNL A   1      36.281  34.949  33.096  1.00  0.00     0.010 A 
ATOM     12  C   UNL A   1      34.837  33.106  33.668  1.00  0.00     0.010 A 
ATOM     13  C   UNL A   1      36.113  33.684  33.643  1.00  0.00    -0.014 A 
BRANCH  13  14
ATOM     14  C   UNL A   1      37.312  32.849  33.842  1.00  0.00     0.031 A 
ATOM     15  C   UNL A   1      38.051  33.046  35.132  1.00  0.00     0.074 A 
ATOM     16  C   UNL A   1      37.681  31.900  32.966  1.00  0.00     0.049 A 
ATOM     17  N   UNL A   1      39.184  32.540  35.531  1.00  0.00    -0.248 NA
ATOM     18  C   UNL A   1      37.407  33.941  36.112  1.00  0.00     0.031 C 
ATOM     19  C   UNL A   1      36.937  31.516  31.769  1.00  0.00     0.029 A 
ATOM     20  N   UNL A   1      38.785  31.089  32.952  1.00  0.00    -0.354 N 
ATOM     21  C   UNL A   1      39.401  33.081  36.792  1.00  0.00     0.074 A 
ATOM     22  C   UNL A   1      38.298  33.963  37.085  1.00  0.00     0.031 C 
ATOM     23  C   UNL A   1      37.634  30.579  31.103  1.00  0.00     0.029 A 
ATOM     24  C   UNL A   1      38.881  30.320  31.819  1.00  0.00     0.049 A 
ATOM     25  H   UNL A   1      39.443  31.059  33.682  1.00  0.00     0.167 HD
ATOM     26  C   UNL A   1      40.441  32.866  37.629  1.00  0.00     0.031 A 
ATOM     27  C   UNL A   1      39.886  29.526  31.401  1.00  0.00     0.031 A 
ATOM     28  C   UNL A   1      41.538  32.003  37.299  1.00  0.00     0.049 A 
ATOM     29  C   UNL A   1      41.093  29.378  32.290  1.00  0.00     0.074 A 
ATOM     30  C   UNL A   1      42.676  31.731  38.031  1.00  0.00     0.029 A 
ATOM     31  N   UNL A   1      41.625  31.275  36.119  1.00  0.00    -0.354 N 
ATOM     32  N   UNL A   1      41.322  29.924  33.462  1.00  0.00    -0.248 NA
ATOM     33  C   UNL A   1      42.174  28.507  31.812  1.00  0.00     0.031 C 
ATOM     34  C   UNL A   1      43.481  30.881  37.265  1.00  0.00     0.029 A 
ATOM     35  C   UNL A   1      42.811  30.570  36.088  1.00  0.00     0.049 A 
ATOM     36  H   UNL A   1      40.942  31.264  35.411  1.00  0.00     0.167 HD
ATOM     37  C   UNL A   1      42.554  29.439  33.879  1.00  0.00     0.074 A 
ATOM     38  C   UNL A   1      43.024  28.554  32.829  1.00  0.00     0.031 C 
ATOM     39  C   UNL A   1      43.233  29.692  35.025  1.00  0.00     0.031 A 
BRANCH  26  40
ATOM     40  C   UNL A   1      40.453  33.665  38.900  1.00  0.00    -0.014 A 
ATOM     41  C   UNL A   1      41.138  34.889  39.000  1.00  0.00     0.009 A 
ATOM     42  C   UNL A   1      39.848  33.132  40.048  1.00  0.00     0.009 A 
ATOM     43  C   UNL A   1      41.275  35.523  40.238  1.00  0.00     0.001 A 
ATOM     44  C   UNL A   1      39.957  33.786  41.276  1.00  0.00     0.001 A 
ATOM     45  C   UNL A   1      40.687  34.969  41.374  1.00  0.00     0.000 A 
ENDBRANCH  26  40
BRANCH  27  46
ATOM     46  C   UNL A   1      39.798  28.856  30.074  1.00  0.00    -0.014 A 
ATOM     47  C   UNL A   1      39.335  27.539  29.953  1.00  0.00     0.009 A 
ATOM     48  C   UNL A   1      40.152  29.556  28.907  1.00  0.00     0.009 A 
ATOM     49  C   UNL A   1      39.236  26.934  28.695  1.00  0.00     0.001 A 
ATOM     50  C   UNL A   1      40.028  28.960  27.649  1.00  0.00     0.001 A 
ATOM     51  C   UNL A   1      39.575  27.647  27.545  1.00  0.00     0.000 A 
ENDBRANCH  27  46
BRANCH  39  52
ATOM     52  C   UNL A   1      44.531  28.969  35.237  1.00  0.00    -0.014 A 
ATOM     53  C   UNL A   1      45.757  29.552  34.886  1.00  0.00     0.009 A 
ATOM     54  C   UNL A   1      44.524  27.736  35.910  1.00  0.00     0.009 A 
ATOM     55  C   UNL A   1      46.954  28.907  35.201  1.00  0.00     0.001 A 
ATOM     56  C   UNL A   1      45.721  27.108  36.247  1.00  0.00     0.001 A 
ATOM     57  C   UNL A   1      46.936  27.693  35.890  1.00  0.00     0.000 A 
ENDBRANCH  39  52
ENDBRANCH  13  14
ENDBRANCH   6   8
ENDBRANCH   5   6
ENDBRANCH   4   5
ENDBRANCH   3   4
ENDBRANCH   2   3
ENDBRANCH   1   2
BRANCH   1  58
ATOM     58  C   UNL A   1      34.739  32.079  28.461  1.00  0.00     0.188 C 
BRANCH  58  59
ATOM     59  O   UNL A   1      33.555  31.576  27.852  1.00  0.00    -0.376 OA
BRANCH  59  60
ATOM     60  C   UNL A   1      33.712  30.441  27.012  1.00  0.00     0.202 C 
BRANCH  60  61
ATOM     61  C   UNL A   1      32.633  29.353  27.140  1.00  0.00     0.261 C 
BRANCH  61  62
ATOM     62  O   UNL A   1      32.959  27.960  26.923  1.00  0.00    -0.463 OA
BRANCH  62  63
ATOM     63  C   UNL A   1      33.132  27.454  25.675  1.00  0.00     0.314 C 
ATOM     64  O   UNL A   1      33.900  27.902  24.837  1.00  0.00    -0.252 OA
BRANCH  63  65
ATOM     65  C   UNL A   1      32.214  26.258  25.429  1.00  0.00     0.141 C 
BRANCH  65  66
ATOM     66  C   UNL A   1      31.837  26.231  23.896  1.00  0.00     0.068 C 
BRANCH  66  67
ATOM     67  C   UNL A   1      32.016  24.802  23.351  1.00  0.00    -0.039 A 
ATOM     68  C   UNL A   1      31.141  23.749  23.674  1.00  0.00     0.004 A 
ATOM     69  C   UNL A   1      33.177  24.495  22.620  1.00  0.00     0.004 A 
ATOM     70  C   UNL A   1      31.385  22.451  23.223  1.00  0.00     0.000 A 
ATOM     71  C   UNL A   1      33.441  23.189  22.205  1.00  0.00     0.000 A 
ATOM     72  C   UNL A   1      32.537  22.170  22.493  1.00  0.00     0.000 A 
ENDBRANCH  66  67
BRANCH  66  73
ATOM     73  C   UNL A   1      30.478  26.922  23.577  1.00  0.00    -0.039 A 
ATOM     74  C   UNL A   1      30.434  28.088  22.782  1.00  0.00     0.004 A 
ATOM     75  C   UNL A   1      29.234  26.428  23.999  1.00  0.00     0.004 A 
ATOM     76  C   UNL A   1      29.253  28.801  22.554  1.00  0.00     0.000 A 
ATOM     77  C   UNL A   1      28.042  27.126  23.756  1.00  0.00     0.000 A 
ATOM     78  C   UNL A   1      28.054  28.327  23.059  1.00  0.00     0.000 A 
ENDBRANCH  66  73
ENDBRANCH  65  66
BRANCH  65  79
ATOM     79  C   UNL A   1      32.860  24.975  25.984  1.00  0.00    -0.033 A 
ATOM     80  C   UNL A   1      32.090  24.088  26.753  1.00  0.00     0.004 A 
ATOM     81  C   UNL A   1      34.201  24.631  25.738  1.00  0.00     0.004 A 
ATOM     82  C   UNL A   1      32.641  22.919  27.282  1.00  0.00     0.000 A 
ATOM     83  C   UNL A   1      34.763  23.481  26.303  1.00  0.00     0.000 A 
ATOM     84  C   UNL A   1      33.985  22.627  27.078  1.00  0.00     0.000 A 
ENDBRANCH  65  79
ENDBRANCH  63  65
ENDBRANCH  62  63
ENDBRANCH  61  62
ENDBRANCH  60  61
ENDBRANCH  59  60
ENDBRANCH  58  59
ENDBRANCH   1  58
TORSDOF 21
ENDMDL
MODEL 3
REMARK VINA RESULT:     -10.1      1.681      2.839
REMARK SMILES O=C(OCCOCCOCCOC(=O)[C@H](c1ccccc1)C(c1ccccc1)c1ccccc1)c1ccc(-c2c3nc(c(-c4ccccc4)c4ccc([nH]4)c(-c4ccccc4)c4nc(c(-c5ccccc5)c5ccc2[nH]5)C=C4)C=C3)cc1
REMARK SMILES IDX 7 1 6 2 5 3 4 4 3 5 2 6 1 7 35 8 36 9 82 10 37 11 81 12
REMARK SMILES IDX 38 13 39 14 40 15 75 16 41 17 80 18 74 19 76 20 42 21 79 22
REMARK SMILES IDX 73 23 72 24 43 26 65 27 50 28 64 29 51 30 54 31 63 32 77 33
REMARK SMILES IDX 52 34 53 35 62 37 78 38 55 39 44 40 45 41 49 42 46 43 48 44
REMARK SMILES IDX 47 45 66 46 67 47 71 48 68 49 70 50 69 51 56 52 57 53 61 54
REMARK SMILES IDX 58 55 60 56 59 57 8 58 9 59 10 60 11 61 12 62 13 63 14 64
REMARK SMILES IDX 15 65 22 66 23 67 24 68 28 69 25 70 27 71 26 72 29 73 30 74
REMARK SMILES IDX 34 75 31 76 33 77 32 78 16 79 17 80 21 81 18 82 20 83 19 84
REMARK H PARENT 76 25 54 36
REMARK Flexibility Score: inf
ROOT
ATOM      1  C   UNL A   1      39.050  20.860  25.905  1.00  0.00     0.188 C 
ENDROOT
BRANCH   1   2
ATOM      2  O   UNL A   1      40.335  20.324  26.207  1.00  0.00    -0.376 OA
BRANCH   2   3
ATOM      3  C   UNL A   1      41.262  21.197  26.836  1.00  0.00     0.202 C 
BRANCH   3   4
ATOM      4  C   UNL A   1      42.513  21.533  26.013  1.00  0.00     0.261 C 
BRANCH   4   5
ATOM      5  O   UNL A   1      42.584  22.900  25.586  1.00  0.00    -0.460 OA
BRANCH   5   6
ATOM      6  C   UNL A   1      43.327  23.882  26.158  1.00  0.00     0.338 C 
ATOM      7  O   UNL A   1      44.549  23.741  26.197  1.00  0.00    -0.246 OA
BRANCH   6   8
ATOM      8  C   UNL A   1      42.725  25.046  26.901  1.00  0.00     0.060 A 
ATOM      9  C   UNL A   1      43.143  26.377  26.832  1.00  0.00     0.016 A 
ATOM     10  C   UNL A   1      41.632  24.761  27.741  1.00  0.00     0.016 A 
ATOM     11  C   UNL A   1      42.493  27.400  27.520  1.00  0.00     0.010 A 
ATOM     12  C   UNL A   1      41.005  25.768  28.484  1.00  0.00     0.010 A 
ATOM     13  C   UNL A   1      41.453  27.091  28.386  1.00  0.00    -0.014 A 
BRANCH  13  14
ATOM     14  C   UNL A   1      41.102  28.075  29.427  1.00  0.00     0.031 A 
ATOM     15  C   UNL A   1      41.934  28.047  30.673  1.00  0.00     0.074 A 
ATOM     16  C   UNL A   1      40.152  29.006  29.244  1.00  0.00     0.049 A 
ATOM     17  N   UNL A   1      41.793  28.710  31.787  1.00  0.00    -0.248 NA
ATOM     18  C   UNL A   1      43.100  27.143  30.649  1.00  0.00     0.031 C 
ATOM     19  C   UNL A   1      39.405  29.224  28.008  1.00  0.00     0.029 A 
ATOM     20  N   UNL A   1      39.651  29.942  30.110  1.00  0.00    -0.354 N 
ATOM     21  C   UNL A   1      42.829  28.277  32.604  1.00  0.00     0.074 A 
ATOM     22  C   UNL A   1      43.580  27.288  31.870  1.00  0.00     0.031 C 
ATOM     23  C   UNL A   1      38.498  30.195  28.211  1.00  0.00     0.029 A 
ATOM     24  C   UNL A   1      38.590  30.647  29.597  1.00  0.00     0.049 A 
ATOM     25  H   UNL A   1      40.016  30.096  31.010  1.00  0.00     0.167 HD
ATOM     26  C   UNL A   1      43.122  28.667  33.864  1.00  0.00     0.031 A 
ATOM     27  C   UNL A   1      37.771  31.529  30.201  1.00  0.00     0.031 A 
ATOM     28  C   UNL A   1      42.342  29.634  34.580  1.00  0.00     0.049 A 
ATOM     29  C   UNL A   1      38.037  31.875  31.643  1.00  0.00     0.074 A 
ATOM     30  C   UNL A   1      42.496  30.085  35.875  1.00  0.00     0.029 A 
ATOM     31  N   UNL A   1      41.243  30.294  34.044  1.00  0.00    -0.354 N 
ATOM     32  N   UNL A   1      38.989  31.434  32.432  1.00  0.00    -0.248 NA
ATOM     33  C   UNL A   1      37.130  32.840  32.278  1.00  0.00     0.031 C 
ATOM     34  C   UNL A   1      41.452  30.978  36.141  1.00  0.00     0.029 A 
ATOM     35  C   UNL A   1      40.691  31.134  34.990  1.00  0.00     0.049 A 
ATOM     36  H   UNL A   1      40.908  30.179  33.125  1.00  0.00     0.167 HD
ATOM     37  C   UNL A   1      38.819  32.089  33.644  1.00  0.00     0.074 A 
ATOM     38  C   UNL A   1      37.669  32.958  33.484  1.00  0.00     0.031 C 
ATOM     39  C   UNL A   1      39.549  31.990  34.783  1.00  0.00     0.031 A 
BRANCH  26  40
ATOM     40  C   UNL A   1      44.259  27.954  34.539  1.00  0.00    -0.014 A 
ATOM     41  C   UNL A   1      44.060  26.781  35.287  1.00  0.00     0.009 A 
ATOM     42  C   UNL A   1      45.540  28.524  34.503  1.00  0.00     0.009 A 
ATOM     43  C   UNL A   1      45.103  26.238  36.042  1.00  0.00     0.001 A 
ATOM     44  C   UNL A   1      46.589  27.959  35.229  1.00  0.00     0.001 A 
ATOM     45  C   UNL A   1      46.365  26.829  36.014  1.00  0.00     0.000 A 
ENDBRANCH  26  40
BRANCH  27  46
ATOM     46  C   UNL A   1      36.618  32.101  29.453  1.00  0.00    -0.014 A 
ATOM     47  C   UNL A   1      35.328  31.572  29.590  1.00  0.00     0.009 A 
ATOM     48  C   UNL A   1      36.804  33.215  28.615  1.00  0.00     0.009 A 
ATOM     49  C   UNL A   1      34.251  32.138  28.899  1.00  0.00     0.001 A 
ATOM     50  C   UNL A   1      35.724  33.795  27.945  1.00  0.00     0.001 A 
ATOM     51  C   UNL A   1      34.448  33.253  28.083  1.00  0.00     0.000 A 
ENDBRANCH  27  46
BRANCH  39  52
ATOM     52  C   UNL A   1      39.166  32.876  35.931  1.00  0.00    -0.014 A 
ATOM     53  C   UNL A   1      38.296  32.432  36.936  1.00  0.00     0.009 A 
ATOM     54  C   UNL A   1      39.787  34.128  36.064  1.00  0.00     0.009 A 
ATOM     55  C   UNL A   1      38.048  33.233  38.053  1.00  0.00     0.001 A 
ATOM     56  C   UNL A   1      39.560  34.913  37.193  1.00  0.00     0.001 A 
ATOM     57  C   UNL A   1      38.688  34.466  38.185  1.00  0.00     0.000 A 
ENDBRANCH  39  52
ENDBRANCH  13  14
ENDBRANCH   6   8
ENDBRANCH   5   6
ENDBRANCH   4   5
ENDBRANCH   3   4
ENDBRANCH   2   3
ENDBRANCH   1   2
BRANCH   1  58
ATOM     58  C   UNL A   1      38.855  22.327  26.272  1.00  0.00     0.188 C 
BRANCH  58  59
ATOM     59  O   UNL A   1      37.913  22.991  25.438  1.00  0.00    -0.376 OA
BRANCH  59  60
ATOM     60  C   UNL A   1      36.543  22.687  25.668  1.00  0.00     0.202 C 
BRANCH  60  61
ATOM     61  C   UNL A   1      35.525  23.517  24.869  1.00  0.00     0.261 C 
BRANCH  61  62
ATOM     62  O   UNL A   1      35.085  24.809  25.351  1.00  0.00    -0.463 OA
BRANCH  62  63
ATOM     63  C   UNL A   1      33.825  25.003  25.818  1.00  0.00     0.314 C 
ATOM     64  O   UNL A   1      33.331  24.415  26.768  1.00  0.00    -0.252 OA
BRANCH  63  65
ATOM     65  C   UNL A   1      33.077  26.039  24.980  1.00  0.00     0.141 C 
BRANCH  65  66
ATOM     66  C   UNL A   1      31.765  25.364  24.416  1.00  0.00     0.068 C 
BRANCH  66  67
ATOM     67  C   UNL A   1      30.897  26.433  23.726  1.00  0.00    -0.039 A 
ATOM     68  C   UNL A   1      31.410  27.332  22.774  1.00  0.00     0.004 A 
ATOM     69  C   UNL A   1      29.574  26.619  24.165  1.00  0.00     0.004 A 
ATOM     70  C   UNL A   1      30.608  28.337  22.232  1.00  0.00     0.000 A 
ATOM     71  C   UNL A   1      28.786  27.650  23.652  1.00  0.00     0.000 A 
ATOM     72  C   UNL A   1      29.297  28.499  22.675  1.00  0.00     0.000 A 
ENDBRANCH  66  67
BRANCH  66  73
ATOM     73  C   UNL A   1      32.035  24.067  23.598  1.00  0.00    -0.039 A 
ATOM     74  C   UNL A   1      31.450  22.841  23.982  1.00  0.00     0.004 A 
ATOM     75  C   UNL A   1      32.813  24.028  22.430  1.00  0.00     0.004 A 
ATOM     76  C   UNL A   1      31.743  21.632  23.343  1.00  0.00     0.000 A 
ATOM     77  C   UNL A   1      33.095  22.823  21.770  1.00  0.00     0.000 A 
ATOM     78  C   UNL A   1      32.584  21.621  22.243  1.00  0.00     0.000 A 
ENDBRANCH  66  73
ENDBRANCH  65  66
BRANCH  65  79
ATOM     79  C   UNL A   1      32.870  27.328  25.796  1.00  0.00    -0.033 A 
ATOM     80  C   UNL A   1      31.940  27.341  26.849  1.00  0.00     0.004 A 
ATOM     81  C   UNL A   1      33.593  28.508  25.551  1.00  0.00     0.004 A 
ATOM     82  C   UNL A   1      31.717  28.492  27.606  1.00  0.00     0.000 A 
ATOM     83  C   UNL A   1      33.339  29.673  26.283  1.00  0.00     0.000 A 
ATOM     84  C   UNL A   1      32.398  29.666  27.308  1.00  0.00     0.000 A 
ENDBRANCH  65  79
ENDBRANCH  63  65
ENDBRANCH  62  63
ENDBRANCH  61  62
ENDBRANCH  60  61
ENDBRANCH  59  60
ENDBRANCH  58  59
ENDBRANCH   1  58
TORSDOF 21
ENDMDL
