MODEL 1
REMARK VINA RESULT:      -9.4      0.000      0.000
REMARK SMILES O=C(/C=C/c1cc(C(=O)NCCn2cccn2)cs1)OCCOCCOCCOC(=O)c1ccc(-c2c3nc(c(-c4ccccc4)c4ccc([nH]4)c(-c4ccccc4)c4nc(c(-c5ccccc5)c5ccc2[nH]5)C=C4)C=C3)cc1
REMARK SMILES IDX 23 1 22 2 21 3 20 4 2 5 1 6 3 7 4 8 5 9 6 10 19 11 7 12
REMARK SMILES IDX 18 13 8 14 9 15 10 16 11 18 12 19 13 20 14 21 17 22 15 23
REMARK SMILES IDX 16 24 24 25 25 26 26 27 27 28 28 29 29 30 30 31 31 32 32 33
REMARK SMILES IDX 33 34 79 35 34 36 78 37 35 38 36 39 37 40 72 41 38 42 77 43
REMARK SMILES IDX 71 44 73 45 39 46 76 47 70 48 69 49 40 51 62 52 47 53 61 54
REMARK SMILES IDX 48 55 51 56 60 57 74 58 49 59 50 60 59 62 75 63 52 64 41 65
REMARK SMILES IDX 42 66 46 67 43 68 45 69 44 70 63 71 64 72 68 73 65 74 67 75
REMARK SMILES IDX 66 76 53 77 54 78 58 79 55 80 57 81 56 82
REMARK H PARENT 10 17 73 50 51 61
REMARK Flexibility Score: inf
ROOT
ATOM      1  O   UNL A   1      40.955  22.406  26.050  1.00  0.00    -0.376 OA
ENDROOT
BRANCH   1   2
ATOM      2  C   UNL A   1      39.939  22.685  26.989  1.00  0.00     0.202 C 
BRANCH   2   3
ATOM      3  C   UNL A   1      38.589  23.250  26.528  1.00  0.00     0.261 C 
BRANCH   3   4
ATOM      4  O   UNL A   1      37.838  22.626  25.457  1.00  0.00    -0.460 OA
BRANCH   4   5
ATOM      5  C   UNL A   1      37.283  21.400  25.374  1.00  0.00     0.330 C 
ATOM      6  O   UNL A   1      37.879  20.457  24.866  1.00  0.00    -0.247 OA
BRANCH   5   7
ATOM      7  C   UNL A   1      35.845  21.271  25.609  1.00  0.00     0.095 C 
ATOM      8  C   UNL A   1      34.966  22.271  25.497  1.00  0.00     0.026 C 
BRANCH   8   9
ATOM      9  C   UNL A   1      33.573  22.050  25.672  1.00  0.00     0.028 A 
ATOM     10  C   UNL A   1      32.750  22.331  26.746  1.00  0.00     0.033 A 
ATOM     11  S   UNL A   1      32.650  21.262  24.453  1.00  0.00    -0.144 S 
ATOM     12  C   UNL A   1      31.397  22.493  26.328  1.00  0.00     0.051 A 
ATOM     13  C   UNL A   1      31.182  21.706  25.209  1.00  0.00     0.079 A 
BRANCH  12  14
ATOM     14  C   UNL A   1      30.331  23.282  26.934  1.00  0.00     0.252 C 
ATOM     15  O   UNL A   1      29.641  22.827  27.848  1.00  0.00    -0.269 OA
ATOM     16  N   UNL A   1      30.001  24.506  26.408  1.00  0.00    -0.350 N 
ATOM     17  H   UNL A   1      29.237  24.929  26.863  1.00  0.00     0.163 HD
BRANCH  16  18
ATOM     18  C   UNL A   1      30.539  25.319  25.315  1.00  0.00     0.140 C 
BRANCH  18  19
ATOM     19  C   UNL A   1      32.028  25.652  25.432  1.00  0.00     0.165 C 
BRANCH  19  20
ATOM     20  N   UNL A   1      32.319  26.841  26.213  1.00  0.00    -0.271 N 
ATOM     21  C   UNL A   1      33.556  27.391  26.401  1.00  0.00     0.108 A 
ATOM     22  N   UNL A   1      31.347  27.480  26.892  1.00  0.00    -0.181 NA
ATOM     23  C   UNL A   1      33.374  28.447  27.264  1.00  0.00     0.042 A 
ATOM     24  C   UNL A   1      31.996  28.451  27.538  1.00  0.00     0.135 A 
ENDBRANCH  19  20
ENDBRANCH  18  19
ENDBRANCH  16  18
ENDBRANCH  12  14
ENDBRANCH   8   9
ENDBRANCH   5   7
ENDBRANCH   4   5
ENDBRANCH   3   4
ENDBRANCH   2   3
ENDBRANCH   1   2
BRANCH   1  25
ATOM     25  C   UNL A   1      41.990  21.508  26.364  1.00  0.00     0.188 C 
BRANCH  25  26
ATOM     26  C   UNL A   1      43.391  21.993  25.954  1.00  0.00     0.188 C 
BRANCH  26  27
ATOM     27  O   UNL A   1      44.378  22.387  26.902  1.00  0.00    -0.376 OA
BRANCH  27  28
ATOM     28  C   UNL A   1      44.378  23.662  27.530  1.00  0.00     0.202 C 
BRANCH  28  29
ATOM     29  C   UNL A   1      43.973  24.912  26.744  1.00  0.00     0.261 C 
BRANCH  29  30
ATOM     30  O   UNL A   1      42.620  25.295  26.929  1.00  0.00    -0.460 OA
BRANCH  30  31
ATOM     31  C   UNL A   1      42.140  26.089  25.953  1.00  0.00     0.338 C 
ATOM     32  O   UNL A   1      42.631  26.287  24.854  1.00  0.00    -0.246 OA
BRANCH  31  33
ATOM     33  C   UNL A   1      40.952  26.804  26.445  1.00  0.00     0.060 A 
ATOM     34  C   UNL A   1      40.911  28.161  26.122  1.00  0.00     0.016 A 
ATOM     35  C   UNL A   1      40.227  26.264  27.516  1.00  0.00     0.016 A 
ATOM     36  C   UNL A   1      40.468  29.030  27.087  1.00  0.00     0.010 A 
ATOM     37  C   UNL A   1      39.798  27.132  28.488  1.00  0.00     0.010 A 
ATOM     38  C   UNL A   1      40.063  28.491  28.307  1.00  0.00    -0.014 A 
BRANCH  38  39
ATOM     39  C   UNL A   1      40.100  29.365  29.459  1.00  0.00     0.031 A 
ATOM     40  C   UNL A   1      38.957  30.280  29.589  1.00  0.00     0.074 A 
ATOM     41  C   UNL A   1      41.067  29.231  30.387  1.00  0.00     0.049 A 
ATOM     42  N   UNL A   1      38.967  31.570  29.631  1.00  0.00    -0.248 NA
ATOM     43  C   UNL A   1      37.618  29.671  29.576  1.00  0.00     0.031 C 
ATOM     44  C   UNL A   1      42.062  28.156  30.496  1.00  0.00     0.029 A 
ATOM     45  N   UNL A   1      41.265  29.951  31.522  1.00  0.00    -0.354 N 
ATOM     46  C   UNL A   1      37.641  31.936  29.817  1.00  0.00     0.074 A 
ATOM     47  C   UNL A   1      36.845  30.752  29.611  1.00  0.00     0.031 C 
ATOM     48  C   UNL A   1      42.572  28.155  31.748  1.00  0.00     0.029 A 
ATOM     49  C   UNL A   1      42.028  29.290  32.473  1.00  0.00     0.049 A 
ATOM     50  H   UNL A   1      40.902  30.857  31.656  1.00  0.00     0.167 HD
ATOM     51  C   UNL A   1      37.290  33.117  30.388  1.00  0.00     0.031 A 
ATOM     52  C   UNL A   1      42.104  29.595  33.791  1.00  0.00     0.031 A 
ATOM     53  C   UNL A   1      38.352  34.081  30.381  1.00  0.00     0.049 A 
ATOM     54  C   UNL A   1      41.600  30.976  33.971  1.00  0.00     0.074 A 
ATOM     55  C   UNL A   1      39.098  34.700  29.398  1.00  0.00     0.029 A 
ATOM     56  N   UNL A   1      39.035  34.285  31.555  1.00  0.00    -0.354 N 
ATOM     57  N   UNL A   1      42.216  32.035  33.533  1.00  0.00    -0.248 NA
ATOM     58  C   UNL A   1      40.188  31.163  34.272  1.00  0.00     0.031 C 
ATOM     59  C   UNL A   1      40.404  34.841  29.953  1.00  0.00     0.029 A 
ATOM     60  C   UNL A   1      40.371  34.322  31.249  1.00  0.00     0.049 A 
ATOM     61  H   UNL A   1      38.638  34.385  32.451  1.00  0.00     0.167 HD
ATOM     62  C   UNL A   1      41.207  32.887  33.105  1.00  0.00     0.074 A 
ATOM     63  C   UNL A   1      39.984  32.349  33.694  1.00  0.00     0.031 C 
ATOM     64  C   UNL A   1      41.416  33.772  32.086  1.00  0.00     0.031 A 
BRANCH  51  65
ATOM     65  C   UNL A   1      36.097  33.224  31.293  1.00  0.00    -0.014 A 
ATOM     66  C   UNL A   1      34.996  33.993  30.893  1.00  0.00     0.009 A 
ATOM     67  C   UNL A   1      36.129  32.797  32.637  1.00  0.00     0.009 A 
ATOM     68  C   UNL A   1      33.987  34.329  31.805  1.00  0.00     0.001 A 
ATOM     69  C   UNL A   1      35.103  33.087  33.534  1.00  0.00     0.001 A 
ATOM     70  C   UNL A   1      34.040  33.874  33.120  1.00  0.00     0.000 A 
ENDBRANCH  51  65
BRANCH  52  71
ATOM     71  C   UNL A   1      42.273  28.652  34.917  1.00  0.00    -0.014 A 
ATOM     72  C   UNL A   1      41.716  27.365  34.871  1.00  0.00     0.009 A 
ATOM     73  C   UNL A   1      43.191  28.930  35.949  1.00  0.00     0.009 A 
ATOM     74  C   UNL A   1      42.083  26.390  35.809  1.00  0.00     0.001 A 
ATOM     75  C   UNL A   1      43.551  27.962  36.889  1.00  0.00     0.001 A 
ATOM     76  C   UNL A   1      43.007  26.685  36.811  1.00  0.00     0.000 A 
ENDBRANCH  52  71
BRANCH  64  77
ATOM     77  C   UNL A   1      42.832  33.950  31.595  1.00  0.00    -0.014 A 
ATOM     78  C   UNL A   1      43.716  34.882  32.170  1.00  0.00     0.009 A 
ATOM     79  C   UNL A   1      43.337  33.057  30.640  1.00  0.00     0.009 A 
ATOM     80  C   UNL A   1      45.056  34.939  31.778  1.00  0.00     0.001 A 
ATOM     81  C   UNL A   1      44.682  33.102  30.261  1.00  0.00     0.001 A 
ATOM     82  C   UNL A   1      45.539  34.045  30.825  1.00  0.00     0.000 A 
ENDBRANCH  64  77
ENDBRANCH  38  39
ENDBRANCH  31  33
ENDBRANCH  30  31
ENDBRANCH  29  30
ENDBRANCH  28  29
ENDBRANCH  27  28
ENDBRANCH  26  27
ENDBRANCH  25  26
ENDBRANCH   1  25
TORSDOF 22
ENDMDL
MODEL 2
REMARK VINA RESULT:      -9.3      4.569     10.358
REMARK SMILES O=C(/C=C/c1cc(C(=O)NCCn2cccn2)cs1)OCCOCCOCCOC(=O)c1ccc(-c2c3nc(c(-c4ccccc4)c4ccc([nH]4)c(-c4ccccc4)c4nc(c(-c5ccccc5)c5ccc2[nH]5)C=C4)C=C3)cc1
REMARK SMILES IDX 23 1 22 2 21 3 20 4 2 5 1 6 3 7 4 8 5 9 6 10 19 11 7 12
REMARK SMILES IDX 18 13 8 14 9 15 10 16 11 18 12 19 13 20 14 21 17 22 15 23
REMARK SMILES IDX 16 24 24 25 25 26 26 27 27 28 28 29 29 30 30 31 31 32 32 33
REMARK SMILES IDX 33 34 79 35 34 36 78 37 35 38 36 39 37 40 72 41 38 42 77 43
REMARK SMILES IDX 71 44 73 45 39 46 76 47 70 48 69 49 40 51 62 52 47 53 61 54
REMARK SMILES IDX 48 55 51 56 60 57 74 58 49 59 50 60 59 62 75 63 52 64 41 65
REMARK SMILES IDX 42 66 46 67 43 68 45 69 44 70 63 71 64 72 68 73 65 74 67 75
REMARK SMILES IDX 66 76 53 77 54 78 58 79 55 80 57 81 56 82
REMARK H PARENT 10 17 73 50 51 61
REMARK Flexibility Score: inf
ROOT
ATOM      1  O   UNL A   1      38.449  32.278  36.981  1.00  0.00    -0.376 OA
ENDROOT
BRANCH   1   2
ATOM      2  C   UNL A   1      38.119  31.145  36.207  1.00  0.00     0.202 C 
BRANCH   2   3
ATOM      3  C   UNL A   1      39.007  30.724  35.029  1.00  0.00     0.261 C 
BRANCH   3   4
ATOM      4  O   UNL A   1      38.561  29.739  34.064  1.00  0.00    -0.460 OA
BRANCH   4   5
ATOM      5  C   UNL A   1      37.490  29.735  33.246  1.00  0.00     0.330 C 
ATOM      6  O   UNL A   1      37.060  28.698  32.754  1.00  0.00    -0.247 OA
BRANCH   5   7
ATOM      7  C   UNL A   1      37.031  31.011  32.696  1.00  0.00     0.095 C 
ATOM      8  C   UNL A   1      36.040  31.141  31.808  1.00  0.00     0.026 C 
BRANCH   8   9
ATOM      9  C   UNL A   1      35.604  32.422  31.375  1.00  0.00     0.028 A 
ATOM     10  C   UNL A   1      35.883  33.118  30.214  1.00  0.00     0.033 A 
ATOM     11  S   UNL A   1      34.608  33.397  32.384  1.00  0.00    -0.144 S 
ATOM     12  C   UNL A   1      34.848  34.048  29.909  1.00  0.00     0.051 A 
ATOM     13  C   UNL A   1      34.266  34.467  31.094  1.00  0.00     0.079 A 
BRANCH  12  14
ATOM     14  C   UNL A   1      34.429  34.573  28.615  1.00  0.00     0.252 C 
ATOM     15  O   UNL A   1      34.685  35.731  28.283  1.00  0.00    -0.269 OA
ATOM     16  N   UNL A   1      33.632  33.814  27.794  1.00  0.00    -0.350 N 
ATOM     17  H   UNL A   1      33.370  34.285  26.969  1.00  0.00     0.163 HD
BRANCH  16  18
ATOM     18  C   UNL A   1      33.087  32.458  27.879  1.00  0.00     0.140 C 
BRANCH  18  19
ATOM     19  C   UNL A   1      34.066  31.345  27.497  1.00  0.00     0.165 C 
BRANCH  19  20
ATOM     20  N   UNL A   1      33.439  30.071  27.195  1.00  0.00    -0.271 N 
ATOM     21  C   UNL A   1      32.109  29.870  26.953  1.00  0.00     0.108 A 
ATOM     22  N   UNL A   1      34.154  28.929  27.196  1.00  0.00    -0.181 NA
ATOM     23  C   UNL A   1      31.952  28.513  26.796  1.00  0.00     0.042 A 
ATOM     24  C   UNL A   1      33.243  27.982  26.962  1.00  0.00     0.135 A 
ENDBRANCH  19  20
ENDBRANCH  18  19
ENDBRANCH  16  18
ENDBRANCH  12  14
ENDBRANCH   8   9
ENDBRANCH   5   7
ENDBRANCH   4   5
ENDBRANCH   3   4
ENDBRANCH   2   3
ENDBRANCH   1   2
BRANCH   1  25
ATOM     25  C   UNL A   1      38.534  33.549  36.386  1.00  0.00     0.188 C 
BRANCH  25  26
ATOM     26  C   UNL A   1      37.366  33.884  35.443  1.00  0.00     0.188 C 
BRANCH  26  27
ATOM     27  O   UNL A   1      37.453  34.880  34.430  1.00  0.00    -0.376 OA
BRANCH  27  28
ATOM     28  C   UNL A   1      37.958  34.613  33.129  1.00  0.00     0.202 C 
BRANCH  28  29
ATOM     29  C   UNL A   1      39.468  34.562  32.879  1.00  0.00     0.261 C 
BRANCH  29  30
ATOM     30  O   UNL A   1      39.831  33.896  31.681  1.00  0.00    -0.460 OA
BRANCH  30  31
ATOM     31  C   UNL A   1      40.620  32.822  31.871  1.00  0.00     0.338 C 
ATOM     32  O   UNL A   1      41.205  32.508  32.894  1.00  0.00    -0.246 OA
BRANCH  31  33
ATOM     33  C   UNL A   1      40.783  32.105  30.597  1.00  0.00     0.060 A 
ATOM     34  C   UNL A   1      39.789  31.164  30.325  1.00  0.00     0.016 A 
ATOM     35  C   UNL A   1      42.051  32.053  30.001  1.00  0.00     0.016 A 
ATOM     36  C   UNL A   1      40.179  29.969  29.774  1.00  0.00     0.010 A 
ATOM     37  C   UNL A   1      42.445  30.853  29.465  1.00  0.00     0.010 A 
ATOM     38  C   UNL A   1      41.535  29.795  29.498  1.00  0.00    -0.014 A 
BRANCH  38  39
ATOM     39  C   UNL A   1      42.024  28.437  29.425  1.00  0.00     0.031 A 
ATOM     40  C   UNL A   1      42.747  27.964  30.614  1.00  0.00     0.074 A 
ATOM     41  C   UNL A   1      41.710  27.654  28.374  1.00  0.00     0.049 A 
ATOM     42  N   UNL A   1      43.961  27.532  30.692  1.00  0.00    -0.248 NA
ATOM     43  C   UNL A   1      42.048  28.082  31.903  1.00  0.00     0.031 C 
ATOM     44  C   UNL A   1      40.750  27.939  27.299  1.00  0.00     0.029 A 
ATOM     45  N   UNL A   1      42.074  26.367  28.131  1.00  0.00    -0.354 N 
ATOM     46  C   UNL A   1      44.129  27.163  32.019  1.00  0.00     0.074 A 
ATOM     47  C   UNL A   1      42.991  27.672  32.745  1.00  0.00     0.031 C 
ATOM     48  C   UNL A   1      40.423  26.780  26.685  1.00  0.00     0.029 A 
ATOM     49  C   UNL A   1      41.234  25.712  27.244  1.00  0.00     0.049 A 
ATOM     50  H   UNL A   1      42.860  25.942  28.544  1.00  0.00     0.167 HD
ATOM     51  C   UNL A   1      45.047  26.239  32.404  1.00  0.00     0.031 A 
ATOM     52  C   UNL A   1      41.136  24.370  27.076  1.00  0.00     0.031 A 
ATOM     53  C   UNL A   1      46.064  26.016  31.417  1.00  0.00     0.049 A 
ATOM     54  C   UNL A   1      42.347  23.748  27.660  1.00  0.00     0.074 A 
ATOM     55  C   UNL A   1      47.016  26.807  30.804  1.00  0.00     0.029 A 
ATOM     56  N   UNL A   1      45.970  24.879  30.652  1.00  0.00    -0.354 N 
ATOM     57  N   UNL A   1      43.541  23.878  27.160  1.00  0.00    -0.248 NA
ATOM     58  C   UNL A   1      42.302  23.319  29.050  1.00  0.00     0.031 C 
ATOM     59  C   UNL A   1      47.106  26.315  29.469  1.00  0.00     0.029 A 
ATOM     60  C   UNL A   1      46.222  25.240  29.353  1.00  0.00     0.049 A 
ATOM     61  H   UNL A   1      45.761  23.973  30.976  1.00  0.00     0.167 HD
ATOM     62  C   UNL A   1      44.383  23.964  28.261  1.00  0.00     0.074 A 
ATOM     63  C   UNL A   1      43.582  23.495  29.387  1.00  0.00     0.031 C 
ATOM     64  C   UNL A   1      45.548  24.675  28.204  1.00  0.00     0.031 A 
BRANCH  51  65
ATOM     65  C   UNL A   1      44.766  25.274  33.518  1.00  0.00    -0.014 A 
ATOM     66  C   UNL A   1      44.009  24.124  33.261  1.00  0.00     0.009 A 
ATOM     67  C   UNL A   1      45.013  25.592  34.871  1.00  0.00     0.009 A 
ATOM     68  C   UNL A   1      43.510  23.343  34.311  1.00  0.00     0.001 A 
ATOM     69  C   UNL A   1      44.560  24.791  35.917  1.00  0.00     0.001 A 
ATOM     70  C   UNL A   1      43.788  23.675  35.635  1.00  0.00     0.000 A 
ENDBRANCH  51  65
BRANCH  52  71
ATOM     71  C   UNL A   1      39.920  23.598  26.745  1.00  0.00    -0.014 A 
ATOM     72  C   UNL A   1      38.689  24.241  26.542  1.00  0.00     0.009 A 
ATOM     73  C   UNL A   1      40.013  22.239  26.389  1.00  0.00     0.009 A 
ATOM     74  C   UNL A   1      37.604  23.552  25.983  1.00  0.00     0.001 A 
ATOM     75  C   UNL A   1      38.930  21.549  25.840  1.00  0.00     0.001 A 
ATOM     76  C   UNL A   1      37.727  22.210  25.623  1.00  0.00     0.000 A 
ENDBRANCH  52  71
BRANCH  64  77
ATOM     77  C   UNL A   1      45.997  25.173  26.851  1.00  0.00    -0.014 A 
ATOM     78  C   UNL A   1      45.600  26.422  26.339  1.00  0.00     0.009 A 
ATOM     79  C   UNL A   1      46.961  24.441  26.144  1.00  0.00     0.009 A 
ATOM     80  C   UNL A   1      46.128  26.908  25.140  1.00  0.00     0.001 A 
ATOM     81  C   UNL A   1      47.504  24.937  24.955  1.00  0.00     0.001 A 
ATOM     82  C   UNL A   1      47.083  26.166  24.450  1.00  0.00     0.000 A 
ENDBRANCH  64  77
ENDBRANCH  38  39
ENDBRANCH  31  33
ENDBRANCH  30  31
ENDBRANCH  29  30
ENDBRANCH  28  29
ENDBRANCH  27  28
ENDBRANCH  26  27
ENDBRANCH  25  26
ENDBRANCH   1  25
TORSDOF 22
ENDMDL
MODEL 3
REMARK VINA RESULT:      -9.2      3.744      8.021
REMARK SMILES O=C(/C=C/c1cc(C(=O)NCCn2cccn2)cs1)OCCOCCOCCOC(=O)c1ccc(-c2c3nc(c(-c4ccccc4)c4ccc([nH]4)c(-c4ccccc4)c4nc(c(-c5ccccc5)c5ccc2[nH]5)C=C4)C=C3)cc1
REMARK SMILES IDX 23 1 22 2 21 3 20 4 2 5 1 6 3 7 4 8 5 9 6 10 19 11 7 12
REMARK SMILES IDX 18 13 8 14 9 15 10 16 11 18 12 19 13 20 14 21 17 22 15 23
REMARK SMILES IDX 16 24 24 25 25 26 26 27 27 28 28 29 29 30 30 31 31 32 32 33
REMARK SMILES IDX 33 34 79 35 34 36 78 37 35 38 36 39 37 40 72 41 38 42 77 43
REMARK SMILES IDX 71 44 73 45 39 46 76 47 70 48 69 49 40 51 62 52 47 53 61 54
REMARK SMILES IDX 48 55 51 56 60 57 74 58 49 59 50 60 59 62 75 63 52 64 41 65
REMARK SMILES IDX 42 66 46 67 43 68 45 69 44 70 63 71 64 72 68 73 65 74 67 75
REMARK SMILES IDX 66 76 53 77 54 78 58 79 55 80 57 81 56 82
REMARK H PARENT 10 17 73 50 51 61
REMARK Flexibility Score: inf
ROOT
ATOM      1  O   UNL A   1      36.719  23.009  25.848  1.00  0.00    -0.376 OA
ENDROOT
BRANCH   1   2
ATOM      2  C   UNL A   1      36.187  22.084  24.925  1.00  0.00     0.202 C 
BRANCH   2   3
ATOM      3  C   UNL A   1      35.379  20.875  25.415  1.00  0.00     0.261 C 
BRANCH   3   4
ATOM      4  O   UNL A   1      34.033  21.028  25.928  1.00  0.00    -0.460 OA
BRANCH   4   5
ATOM      5  C   UNL A   1      32.850  21.089  25.283  1.00  0.00     0.330 C 
ATOM      6  O   UNL A   1      32.152  20.094  25.123  1.00  0.00    -0.247 OA
BRANCH   5   7
ATOM      7  C   UNL A   1      32.546  22.287  24.500  1.00  0.00     0.095 C 
ATOM      8  C   UNL A   1      32.870  22.455  23.215  1.00  0.00     0.026 C 
BRANCH   8   9
ATOM      9  C   UNL A   1      32.477  23.620  22.503  1.00  0.00     0.028 A 
ATOM     10  C   UNL A   1      31.524  24.575  22.804  1.00  0.00     0.033 A 
ATOM     11  S   UNL A   1      33.178  23.994  20.977  1.00  0.00    -0.144 S 
ATOM     12  C   UNL A   1      31.827  25.820  22.180  1.00  0.00     0.051 A 
ATOM     13  C   UNL A   1      32.512  25.569  21.003  1.00  0.00     0.079 A 
BRANCH  12  14
ATOM     14  C   UNL A   1      31.477  27.172  22.598  1.00  0.00     0.252 C 
ATOM     15  O   UNL A   1      30.482  27.742  22.147  1.00  0.00    -0.269 OA
ATOM     16  N   UNL A   1      32.327  27.878  23.413  1.00  0.00    -0.350 N 
ATOM     17  H   UNL A   1      32.016  28.796  23.592  1.00  0.00     0.163 HD
BRANCH  16  18
ATOM     18  C   UNL A   1      33.595  27.563  24.073  1.00  0.00     0.140 C 
BRANCH  18  19
ATOM     19  C   UNL A   1      33.533  27.523  25.602  1.00  0.00     0.165 C 
BRANCH  19  20
ATOM     20  N   UNL A   1      33.473  28.828  26.236  1.00  0.00    -0.271 N 
ATOM     21  C   UNL A   1      34.416  29.355  27.073  1.00  0.00     0.108 A 
ATOM     22  N   UNL A   1      32.397  29.623  26.085  1.00  0.00    -0.181 NA
ATOM     23  C   UNL A   1      33.914  30.563  27.497  1.00  0.00     0.042 A 
ATOM     24  C   UNL A   1      32.665  30.674  26.862  1.00  0.00     0.135 A 
ENDBRANCH  19  20
ENDBRANCH  18  19
ENDBRANCH  16  18
ENDBRANCH  12  14
ENDBRANCH   8   9
ENDBRANCH   5   7
ENDBRANCH   4   5
ENDBRANCH   3   4
ENDBRANCH   2   3
ENDBRANCH   1   2
BRANCH   1  25
ATOM     25  C   UNL A   1      38.109  23.115  26.032  1.00  0.00     0.188 C 
BRANCH  25  26
ATOM     26  C   UNL A   1      38.868  21.785  25.886  1.00  0.00     0.188 C 
BRANCH  26  27
ATOM     27  O   UNL A   1      40.268  21.668  26.118  1.00  0.00    -0.376 OA
BRANCH  27  28
ATOM     28  C   UNL A   1      40.850  20.543  26.763  1.00  0.00     0.202 C 
BRANCH  28  29
ATOM     29  C   UNL A   1      41.952  19.738  26.070  1.00  0.00     0.261 C 
BRANCH  29  30
ATOM     30  O   UNL A   1      43.242  20.318  26.176  1.00  0.00    -0.460 OA
BRANCH  30  31
ATOM     31  C   UNL A   1      43.899  20.404  25.004  1.00  0.00     0.338 C 
ATOM     32  O   UNL A   1      44.060  19.519  24.181  1.00  0.00    -0.246 OA
BRANCH  31  33
ATOM     33  C   UNL A   1      44.519  21.734  24.888  1.00  0.00     0.060 A 
ATOM     34  C   UNL A   1      45.701  21.893  25.614  1.00  0.00     0.016 A 
ATOM     35  C   UNL A   1      43.730  22.821  24.488  1.00  0.00     0.016 A 
ATOM     36  C   UNL A   1      45.886  23.083  26.271  1.00  0.00     0.010 A 
ATOM     37  C   UNL A   1      43.907  24.006  25.155  1.00  0.00     0.010 A 
ATOM     38  C   UNL A   1      44.897  24.057  26.138  1.00  0.00    -0.014 A 
BRANCH  38  39
ATOM     39  C   UNL A   1      44.809  25.053  27.183  1.00  0.00     0.031 A 
ATOM     40  C   UNL A   1      46.014  25.872  27.374  1.00  0.00     0.074 A 
ATOM     41  C   UNL A   1      43.643  25.266  27.826  1.00  0.00     0.049 A 
ATOM     42  N   UNL A   1      46.733  25.999  28.439  1.00  0.00    -0.248 NA
ATOM     43  C   UNL A   1      46.538  26.564  26.188  1.00  0.00     0.031 C 
ATOM     44  C   UNL A   1      42.323  24.715  27.494  1.00  0.00     0.029 A 
ATOM     45  N   UNL A   1      43.370  26.146  28.824  1.00  0.00    -0.354 N 
ATOM     46  C   UNL A   1      47.712  26.923  28.106  1.00  0.00     0.074 A 
ATOM     47  C   UNL A   1      47.647  27.110  26.678  1.00  0.00     0.031 C 
ATOM     48  C   UNL A   1      41.372  25.462  28.099  1.00  0.00     0.029 A 
ATOM     49  C   UNL A   1      42.022  26.452  28.940  1.00  0.00     0.049 A 
ATOM     50  H   UNL A   1      44.062  26.530  29.410  1.00  0.00     0.167 HD
ATOM     51  C   UNL A   1      48.340  27.682  29.042  1.00  0.00     0.031 A 
ATOM     52  C   UNL A   1      41.496  27.519  29.589  1.00  0.00     0.031 A 
ATOM     53  C   UNL A   1      48.211  27.154  30.370  1.00  0.00     0.049 A 
ATOM     54  C   UNL A   1      42.533  28.056  30.501  1.00  0.00     0.074 A 
ATOM     55  C   UNL A   1      48.571  25.973  30.987  1.00  0.00     0.029 A 
ATOM     56  N   UNL A   1      47.304  27.755  31.208  1.00  0.00    -0.354 N 
ATOM     57  N   UNL A   1      42.961  27.430  31.558  1.00  0.00    -0.248 NA
ATOM     58  C   UNL A   1      43.408  29.110  30.009  1.00  0.00     0.031 C 
ATOM     59  C   UNL A   1      47.530  25.710  31.925  1.00  0.00     0.029 A 
ATOM     60  C   UNL A   1      46.610  26.757  31.841  1.00  0.00     0.049 A 
ATOM     61  H   UNL A   1      47.176  28.724  31.331  1.00  0.00     0.167 HD
ATOM     62  C   UNL A   1      44.320  27.708  31.614  1.00  0.00     0.074 A 
ATOM     63  C   UNL A   1      44.511  28.838  30.710  1.00  0.00     0.031 C 
ATOM     64  C   UNL A   1      45.200  26.819  32.161  1.00  0.00     0.031 A 
BRANCH  51  65
ATOM     65  C   UNL A   1      48.728  29.104  28.764  1.00  0.00    -0.014 A 
ATOM     66  C   UNL A   1      50.083  29.462  28.763  1.00  0.00     0.009 A 
ATOM     67  C   UNL A   1      47.786  30.155  28.752  1.00  0.00     0.009 A 
ATOM     68  C   UNL A   1      50.470  30.807  28.768  1.00  0.00     0.001 A 
ATOM     69  C   UNL A   1      48.167  31.495  28.707  1.00  0.00     0.001 A 
ATOM     70  C   UNL A   1      49.514  31.820  28.736  1.00  0.00     0.000 A 
ENDBRANCH  51  65
BRANCH  52  71
ATOM     71  C   UNL A   1      40.285  28.281  29.217  1.00  0.00    -0.014 A 
ATOM     72  C   UNL A   1      40.171  28.888  27.958  1.00  0.00     0.009 A 
ATOM     73  C   UNL A   1      39.127  28.212  30.016  1.00  0.00     0.009 A 
ATOM     74  C   UNL A   1      38.939  29.386  27.510  1.00  0.00     0.001 A 
ATOM     75  C   UNL A   1      37.901  28.715  29.574  1.00  0.00     0.001 A 
ATOM     76  C   UNL A   1      37.804  29.290  28.313  1.00  0.00     0.000 A 
ENDBRANCH  52  71
BRANCH  64  77
ATOM     77  C   UNL A   1      44.627  25.634  32.900  1.00  0.00    -0.014 A 
ATOM     78  C   UNL A   1      44.432  24.385  32.283  1.00  0.00     0.009 A 
ATOM     79  C   UNL A   1      44.422  25.731  34.284  1.00  0.00     0.009 A 
ATOM     80  C   UNL A   1      44.015  23.275  33.022  1.00  0.00     0.001 A 
ATOM     81  C   UNL A   1      44.023  24.615  35.026  1.00  0.00     0.001 A 
ATOM     82  C   UNL A   1      43.814  23.390  34.396  1.00  0.00     0.000 A 
ENDBRANCH  64  77
ENDBRANCH  38  39
ENDBRANCH  31  33
ENDBRANCH  30  31
ENDBRANCH  29  30
ENDBRANCH  28  29
ENDBRANCH  27  28
ENDBRANCH  26  27
ENDBRANCH  25  26
ENDBRANCH   1  25
TORSDOF 22
ENDMDL
