MODEL 1
REMARK VINA RESULT:     -10.3      0.000      0.000
REMARK SMILES CCc1cc(OC(F)(F)F)cc2c1O[C@H](C(F)(F)F)C(C(=O)OCCOCCOCCOC(=O)c1ccc(-c3c4nc(c(-c5ccccc5)c5ccc([nH]5)c(-c5ccccc5)c5nc(c(-c6ccccc6)c6ccc3[nH]6)C=C5)C=C4)cc1)=C2
REMARK SMILES IDX 27 1 26 2 25 3 24 4 23 5 21 6 22 7 20 8 3 9 4 10 13 11 5 12
REMARK SMILES IDX 12 13 14 14 11 15 83 16 15 17 2 18 1 19 6 20 7 21 8 22 9 23
REMARK SMILES IDX 10 24 16 25 17 26 18 27 19 28 28 29 29 30 30 31 31 32 32 33
REMARK SMILES IDX 33 34 34 35 35 36 36 37 82 38 37 39 81 40 38 41 39 42 40 43
REMARK SMILES IDX 75 44 41 45 80 46 74 47 76 48 42 49 79 50 73 51 72 52 43 54
REMARK SMILES IDX 65 55 50 56 64 57 51 58 54 59 63 60 77 61 52 62 53 63 62 65
REMARK SMILES IDX 78 66 55 67 44 68 45 69 49 70 46 71 48 72 47 73 66 74 67 75
REMARK SMILES IDX 71 76 68 77 70 78 69 79 56 80 57 81 61 82 58 83 60 84 59 85
REMARK H PARENT 76 53 54 64
REMARK Flexibility Score: inf
ROOT
ATOM      1  C   UNL A   1      32.708  28.682  23.041  1.00  0.00     0.188 C 
ENDROOT
BRANCH   1   2
ATOM      2  O   UNL A   1      31.530  27.989  22.644  1.00  0.00    -0.376 OA
BRANCH   2   3
ATOM      3  C   UNL A   1      30.317  28.181  23.350  1.00  0.00     0.202 C 
BRANCH   3   4
ATOM      4  C   UNL A   1      29.842  27.046  24.261  1.00  0.00     0.261 C 
BRANCH   4   5
ATOM      5  O   UNL A   1      30.688  26.779  25.394  1.00  0.00    -0.460 OA
BRANCH   5   6
ATOM      6  C   UNL A   1      30.419  25.620  26.042  1.00  0.00     0.338 C 
ATOM      7  O   UNL A   1      29.442  25.397  26.739  1.00  0.00    -0.246 OA
BRANCH   6   8
ATOM      8  C   UNL A   1      31.403  24.562  25.736  1.00  0.00     0.087 C 
ATOM      9  C   UNL A   1      33.403  20.912  25.462  1.00  0.00    -0.002 A 
ATOM     10  C   UNL A   1      34.790  20.873  25.664  1.00  0.00     0.054 A 
ATOM     11  C   UNL A   1      32.752  22.145  25.584  1.00  0.00     0.131 A 
ATOM     12  C   UNL A   1      35.500  22.029  26.006  1.00  0.00     0.130 A 
ATOM     13  C   UNL A   1      33.442  23.320  25.930  1.00  0.00     0.021 A 
ATOM     14  O   UNL A   1      31.391  22.145  25.411  1.00  0.00    -0.475 OA
ATOM     15  C   UNL A   1      34.823  23.252  26.129  1.00  0.00     0.058 A 
ATOM     16  C   UNL A   1      32.673  24.549  26.177  1.00  0.00     0.027 C 
ATOM     17  C   UNL A   1      30.862  23.401  24.930  1.00  0.00     0.316 C 
BRANCH   9  18
ATOM     18  C   UNL A   1      32.646  19.635  25.172  1.00  0.00     0.036 C 
ATOM     19  C   UNL A   1      32.580  19.265  23.696  1.00  0.00     0.009 C 
ENDBRANCH   9  18
BRANCH  12  20
ATOM     20  O   UNL A   1      36.845  22.091  26.256  1.00  0.00    -0.406 OA
BRANCH  20  21
ATOM     21  C   UNL A   1      37.703  22.333  25.152  1.00  0.00     0.573 C 
ATOM     22  F   UNL A   1      38.960  21.904  25.401  1.00  0.00    -0.132 F 
ATOM     23  F   UNL A   1      37.236  21.736  24.035  1.00  0.00    -0.132 F 
ATOM     24  F   UNL A   1      37.755  23.665  24.926  1.00  0.00    -0.132 F 
ENDBRANCH  20  21
ENDBRANCH  12  20
BRANCH  17  25
ATOM     25  C   UNL A   1      31.077  23.579  23.409  1.00  0.00     0.430 C 
ATOM     26  F   UNL A   1      31.498  22.449  22.795  1.00  0.00    -0.167 F 
ATOM     27  F   UNL A   1      29.927  23.944  22.792  1.00  0.00    -0.167 F 
ATOM     28  F   UNL A   1      31.992  24.539  23.116  1.00  0.00    -0.167 F 
ENDBRANCH  17  25
ENDBRANCH   6   8
ENDBRANCH   5   6
ENDBRANCH   4   5
ENDBRANCH   3   4
ENDBRANCH   2   3
ENDBRANCH   1   2
BRANCH   1  29
ATOM     29  C   UNL A   1      32.849  29.268  24.458  1.00  0.00     0.188 C 
BRANCH  29  30
ATOM     30  O   UNL A   1      33.830  28.602  25.237  1.00  0.00    -0.376 OA
BRANCH  30  31
ATOM     31  C   UNL A   1      33.571  28.520  26.628  1.00  0.00     0.202 C 
BRANCH  31  32
ATOM     32  C   UNL A   1      33.238  29.860  27.291  1.00  0.00     0.261 C 
BRANCH  32  33
ATOM     33  O   UNL A   1      34.282  30.848  27.256  1.00  0.00    -0.460 OA
BRANCH  33  34
ATOM     34  C   UNL A   1      34.852  31.195  28.428  1.00  0.00     0.338 C 
ATOM     35  O   UNL A   1      34.372  31.913  29.296  1.00  0.00    -0.246 OA
BRANCH  34  36
ATOM     36  C   UNL A   1      36.121  30.450  28.559  1.00  0.00     0.060 A 
ATOM     37  C   UNL A   1      36.432  29.827  29.774  1.00  0.00     0.016 A 
ATOM     38  C   UNL A   1      37.007  30.374  27.481  1.00  0.00     0.016 A 
ATOM     39  C   UNL A   1      37.644  29.142  29.919  1.00  0.00     0.010 A 
ATOM     40  C   UNL A   1      38.226  29.705  27.634  1.00  0.00     0.010 A 
ATOM     41  C   UNL A   1      38.563  29.104  28.860  1.00  0.00    -0.014 A 
BRANCH  41  42
ATOM     42  C   UNL A   1      39.940  28.584  29.066  1.00  0.00     0.031 A 
ATOM     43  C   UNL A   1      40.985  29.513  29.621  1.00  0.00     0.074 A 
ATOM     44  C   UNL A   1      40.273  27.318  28.755  1.00  0.00     0.049 A 
ATOM     45  N   UNL A   1      42.271  29.320  29.781  1.00  0.00    -0.248 NA
ATOM     46  C   UNL A   1      40.516  30.839  30.053  1.00  0.00     0.031 C 
ATOM     47  C   UNL A   1      39.352  26.292  28.270  1.00  0.00     0.029 A 
ATOM     48  N   UNL A   1      41.493  26.687  28.790  1.00  0.00    -0.354 N 
ATOM     49  C   UNL A   1      42.763  30.500  30.322  1.00  0.00     0.074 A 
ATOM     50  C   UNL A   1      41.644  31.409  30.447  1.00  0.00     0.031 C 
ATOM     51  C   UNL A   1      40.045  25.162  28.038  1.00  0.00     0.029 A 
ATOM     52  C   UNL A   1      41.460  25.397  28.318  1.00  0.00     0.049 A 
ATOM     53  H   UNL A   1      42.313  27.118  29.124  1.00  0.00     0.167 HD
ATOM     54  C   UNL A   1      44.032  30.806  30.681  1.00  0.00     0.031 A 
ATOM     55  C   UNL A   1      42.462  24.521  28.102  1.00  0.00     0.031 A 
ATOM     56  C   UNL A   1      45.154  29.918  30.538  1.00  0.00     0.049 A 
ATOM     57  C   UNL A   1      43.883  24.921  28.408  1.00  0.00     0.074 A 
ATOM     58  C   UNL A   1      46.480  30.144  30.867  1.00  0.00     0.029 A 
ATOM     59  N   UNL A   1      45.084  28.638  30.012  1.00  0.00    -0.354 N 
ATOM     60  N   UNL A   1      44.338  26.038  28.922  1.00  0.00    -0.248 NA
ATOM     61  C   UNL A   1      44.933  23.936  28.099  1.00  0.00     0.031 C 
ATOM     62  C   UNL A   1      47.221  29.018  30.491  1.00  0.00     0.029 A 
ATOM     63  C   UNL A   1      46.346  28.071  29.983  1.00  0.00     0.049 A 
ATOM     64  H   UNL A   1      44.259  28.197  29.705  1.00  0.00     0.167 HD
ATOM     65  C   UNL A   1      45.716  25.877  29.028  1.00  0.00     0.074 A 
ATOM     66  C   UNL A   1      46.023  24.553  28.531  1.00  0.00     0.031 C 
ATOM     67  C   UNL A   1      46.641  26.748  29.497  1.00  0.00     0.031 A 
BRANCH  54  68
ATOM     68  C   UNL A   1      44.280  32.185  31.222  1.00  0.00    -0.014 A 
ATOM     69  C   UNL A   1      44.240  32.446  32.600  1.00  0.00     0.009 A 
ATOM     70  C   UNL A   1      44.581  33.233  30.338  1.00  0.00     0.009 A 
ATOM     71  C   UNL A   1      44.462  33.739  33.080  1.00  0.00     0.001 A 
ATOM     72  C   UNL A   1      44.829  34.518  30.823  1.00  0.00     0.001 A 
ATOM     73  C   UNL A   1      44.760  34.772  32.192  1.00  0.00     0.000 A 
ENDBRANCH  54  68
BRANCH  55  74
ATOM     74  C   UNL A   1      42.174  23.179  27.528  1.00  0.00    -0.014 A 
ATOM     75  C   UNL A   1      41.591  22.172  28.313  1.00  0.00     0.009 A 
ATOM     76  C   UNL A   1      42.517  22.887  26.198  1.00  0.00     0.009 A 
ATOM     77  C   UNL A   1      41.384  20.894  27.786  1.00  0.00     0.001 A 
ATOM     78  C   UNL A   1      42.282  21.618  25.666  1.00  0.00     0.001 A 
ATOM     79  C   UNL A   1      41.724  20.620  26.463  1.00  0.00     0.000 A 
ENDBRANCH  55  74
BRANCH  67  80
ATOM     80  C   UNL A   1      48.072  26.289  29.547  1.00  0.00    -0.014 A 
ATOM     81  C   UNL A   1      48.935  26.460  28.455  1.00  0.00     0.009 A 
ATOM     82  C   UNL A   1      48.578  25.734  30.734  1.00  0.00     0.009 A 
ATOM     83  C   UNL A   1      50.271  26.061  28.543  1.00  0.00     0.001 A 
ATOM     84  C   UNL A   1      49.919  25.361  30.827  1.00  0.00     0.001 A 
ATOM     85  C   UNL A   1      50.764  25.519  29.730  1.00  0.00     0.000 A 
ENDBRANCH  67  80
ENDBRANCH  41  42
ENDBRANCH  34  36
ENDBRANCH  33  34
ENDBRANCH  32  33
ENDBRANCH  31  32
ENDBRANCH  30  31
ENDBRANCH  29  30
ENDBRANCH   1  29
TORSDOF 21
ENDMDL
MODEL 2
REMARK VINA RESULT:      -9.4      3.992      8.906
REMARK SMILES CCc1cc(OC(F)(F)F)cc2c1O[C@H](C(F)(F)F)C(C(=O)OCCOCCOCCOC(=O)c1ccc(-c3c4nc(c(-c5ccccc5)c5ccc([nH]5)c(-c5ccccc5)c5nc(c(-c6ccccc6)c6ccc3[nH]6)C=C5)C=C4)cc1)=C2
REMARK SMILES IDX 27 1 26 2 25 3 24 4 23 5 21 6 22 7 20 8 3 9 4 10 13 11 5 12
REMARK SMILES IDX 12 13 14 14 11 15 83 16 15 17 2 18 1 19 6 20 7 21 8 22 9 23
REMARK SMILES IDX 10 24 16 25 17 26 18 27 19 28 28 29 29 30 30 31 31 32 32 33
REMARK SMILES IDX 33 34 34 35 35 36 36 37 82 38 37 39 81 40 38 41 39 42 40 43
REMARK SMILES IDX 75 44 41 45 80 46 74 47 76 48 42 49 79 50 73 51 72 52 43 54
REMARK SMILES IDX 65 55 50 56 64 57 51 58 54 59 63 60 77 61 52 62 53 63 62 65
REMARK SMILES IDX 78 66 55 67 44 68 45 69 49 70 46 71 48 72 47 73 66 74 67 75
REMARK SMILES IDX 71 76 68 77 70 78 69 79 56 80 57 81 61 82 58 83 60 84 59 85
REMARK H PARENT 76 53 54 64
REMARK Flexibility Score: inf
ROOT
ATOM      1  C   UNL A   1      38.816  22.335  26.307  1.00  0.00     0.188 C 
ENDROOT
BRANCH   1   2
ATOM      2  O   UNL A   1      38.319  21.473  25.290  1.00  0.00    -0.376 OA
BRANCH   2   3
ATOM      3  C   UNL A   1      37.031  21.686  24.740  1.00  0.00     0.202 C 
BRANCH   3   4
ATOM      4  C   UNL A   1      35.889  20.807  25.257  1.00  0.00     0.261 C 
BRANCH   4   5
ATOM      5  O   UNL A   1      34.778  21.523  25.825  1.00  0.00    -0.460 OA
BRANCH   5   6
ATOM      6  C   UNL A   1      33.738  21.720  24.981  1.00  0.00     0.338 C 
ATOM      7  O   UNL A   1      33.220  20.875  24.269  1.00  0.00    -0.246 OA
BRANCH   6   8
ATOM      8  C   UNL A   1      33.187  23.089  25.073  1.00  0.00     0.087 C 
ATOM      9  C   UNL A   1      31.341  26.728  24.214  1.00  0.00    -0.002 A 
ATOM     10  C   UNL A   1      31.933  27.919  24.657  1.00  0.00     0.054 A 
ATOM     11  C   UNL A   1      31.993  25.522  24.494  1.00  0.00     0.131 A 
ATOM     12  C   UNL A   1      33.157  27.906  25.336  1.00  0.00     0.130 A 
ATOM     13  C   UNL A   1      33.225  25.481  25.171  1.00  0.00     0.021 A 
ATOM     14  O   UNL A   1      31.405  24.377  24.020  1.00  0.00    -0.475 OA
ATOM     15  C   UNL A   1      33.794  26.683  25.598  1.00  0.00     0.058 A 
ATOM     16  C   UNL A   1      33.919  24.192  25.305  1.00  0.00     0.027 C 
ATOM     17  C   UNL A   1      31.703  23.198  24.802  1.00  0.00     0.316 C 
BRANCH   9  18
ATOM     18  C   UNL A   1      30.058  26.775  23.413  1.00  0.00     0.036 C 
ATOM     19  C   UNL A   1      28.794  26.580  24.239  1.00  0.00     0.009 C 
ENDBRANCH   9  18
BRANCH  12  20
ATOM     20  O   UNL A   1      33.832  29.011  25.779  1.00  0.00    -0.406 OA
BRANCH  20  21
ATOM     21  C   UNL A   1      33.603  29.422  27.119  1.00  0.00     0.573 C 
ATOM     22  F   UNL A   1      34.688  29.200  27.894  1.00  0.00    -0.132 F 
ATOM     23  F   UNL A   1      33.269  30.729  27.175  1.00  0.00    -0.132 F 
ATOM     24  F   UNL A   1      32.575  28.703  27.624  1.00  0.00    -0.132 F 
ENDBRANCH  20  21
ENDBRANCH  12  20
BRANCH  17  25
ATOM     25  C   UNL A   1      30.854  23.127  26.093  1.00  0.00     0.430 C 
ATOM     26  F   UNL A   1      31.601  23.049  27.218  1.00  0.00    -0.167 F 
ATOM     27  F   UNL A   1      30.075  24.228  26.227  1.00  0.00    -0.167 F 
ATOM     28  F   UNL A   1      30.016  22.060  26.114  1.00  0.00    -0.167 F 
ENDBRANCH  17  25
ENDBRANCH   6   8
ENDBRANCH   5   6
ENDBRANCH   4   5
ENDBRANCH   3   4
ENDBRANCH   2   3
ENDBRANCH   1   2
BRANCH   1  29
ATOM     29  C   UNL A   1      40.273  22.234  26.796  1.00  0.00     0.188 C 
BRANCH  29  30
ATOM     30  O   UNL A   1      41.079  21.414  25.967  1.00  0.00    -0.376 OA
BRANCH  30  31
ATOM     31  C   UNL A   1      42.478  21.620  26.057  1.00  0.00     0.202 C 
BRANCH  31  32
ATOM     32  C   UNL A   1      42.957  22.970  25.514  1.00  0.00     0.261 C 
BRANCH  32  33
ATOM     33  O   UNL A   1      43.277  23.961  26.504  1.00  0.00    -0.460 OA
BRANCH  33  34
ATOM     34  C   UNL A   1      43.398  25.239  26.091  1.00  0.00     0.338 C 
ATOM     35  O   UNL A   1      43.788  25.626  24.997  1.00  0.00    -0.246 OA
BRANCH  34  36
ATOM     36  C   UNL A   1      42.851  26.117  27.146  1.00  0.00     0.060 A 
ATOM     37  C   UNL A   1      43.360  27.412  27.300  1.00  0.00     0.016 A 
ATOM     38  C   UNL A   1      41.836  25.655  27.990  1.00  0.00     0.016 A 
ATOM     39  C   UNL A   1      42.870  28.242  28.313  1.00  0.00     0.010 A 
ATOM     40  C   UNL A   1      41.360  26.480  29.015  1.00  0.00     0.010 A 
ATOM     41  C   UNL A   1      41.889  27.770  29.197  1.00  0.00    -0.014 A 
BRANCH  41  42
ATOM     42  C   UNL A   1      41.522  28.546  30.411  1.00  0.00     0.031 A 
ATOM     43  C   UNL A   1      40.358  29.496  30.334  1.00  0.00     0.074 A 
ATOM     44  C   UNL A   1      42.211  28.431  31.560  1.00  0.00     0.049 A 
ATOM     45  N   UNL A   1      39.924  30.355  31.222  1.00  0.00    -0.248 NA
ATOM     46  C   UNL A   1      39.579  29.473  29.086  1.00  0.00     0.031 C 
ATOM     47  C   UNL A   1      43.319  27.507  31.799  1.00  0.00     0.029 A 
ATOM     48  N   UNL A   1      42.083  29.116  32.745  1.00  0.00    -0.354 N 
ATOM     49  C   UNL A   1      38.830  30.979  30.637  1.00  0.00     0.074 A 
ATOM     50  C   UNL A   1      38.677  30.414  29.314  1.00  0.00     0.031 C 
ATOM     51  C   UNL A   1      43.779  27.694  33.049  1.00  0.00     0.029 A 
ATOM     52  C   UNL A   1      43.028  28.777  33.683  1.00  0.00     0.049 A 
ATOM     53  H   UNL A   1      41.379  29.785  32.907  1.00  0.00     0.167 HD
ATOM     54  C   UNL A   1      38.025  31.939  31.151  1.00  0.00     0.031 A 
ATOM     55  C   UNL A   1      43.281  29.304  34.898  1.00  0.00     0.031 A 
ATOM     56  C   UNL A   1      38.184  32.523  32.455  1.00  0.00     0.049 A 
ATOM     57  C   UNL A   1      42.439  30.447  35.406  1.00  0.00     0.074 A 
ATOM     58  C   UNL A   1      37.420  33.508  33.057  1.00  0.00     0.029 A 
ATOM     59  N   UNL A   1      39.182  32.183  33.353  1.00  0.00    -0.354 N 
ATOM     60  N   UNL A   1      41.405  31.028  34.847  1.00  0.00    -0.248 NA
ATOM     61  C   UNL A   1      42.803  31.010  36.717  1.00  0.00     0.031 C 
ATOM     62  C   UNL A   1      37.989  33.801  34.301  1.00  0.00     0.029 A 
ATOM     63  C   UNL A   1      39.071  32.957  34.496  1.00  0.00     0.049 A 
ATOM     64  H   UNL A   1      39.869  31.494  33.202  1.00  0.00     0.167 HD
ATOM     65  C   UNL A   1      40.978  31.997  35.748  1.00  0.00     0.074 A 
ATOM     66  C   UNL A   1      41.858  31.923  36.893  1.00  0.00     0.031 C 
ATOM     67  C   UNL A   1      39.946  32.868  35.635  1.00  0.00     0.031 A 
BRANCH  54  68
ATOM     68  C   UNL A   1      36.921  32.452  30.270  1.00  0.00    -0.014 A 
ATOM     69  C   UNL A   1      35.614  31.952  30.373  1.00  0.00     0.009 A 
ATOM     70  C   UNL A   1      37.190  33.469  29.341  1.00  0.00     0.009 A 
ATOM     71  C   UNL A   1      34.606  32.437  29.536  1.00  0.00     0.001 A 
ATOM     72  C   UNL A   1      36.175  33.969  28.525  1.00  0.00     0.001 A 
ATOM     73  C   UNL A   1      34.886  33.447  28.616  1.00  0.00     0.000 A 
ENDBRANCH  54  68
BRANCH  55  74
ATOM     74  C   UNL A   1      44.410  28.789  35.719  1.00  0.00    -0.014 A 
ATOM     75  C   UNL A   1      45.699  29.328  35.583  1.00  0.00     0.009 A 
ATOM     76  C   UNL A   1      44.211  27.727  36.615  1.00  0.00     0.009 A 
ATOM     77  C   UNL A   1      46.768  28.796  36.310  1.00  0.00     0.001 A 
ATOM     78  C   UNL A   1      45.276  27.218  37.361  1.00  0.00     0.001 A 
ATOM     79  C   UNL A   1      46.555  27.746  37.200  1.00  0.00     0.000 A 
ENDBRANCH  55  74
BRANCH  67  80
ATOM     80  C   UNL A   1      39.673  33.783  36.798  1.00  0.00    -0.014 A 
ATOM     81  C   UNL A   1      40.154  35.100  36.822  1.00  0.00     0.009 A 
ATOM     82  C   UNL A   1      38.866  33.334  37.855  1.00  0.00     0.009 A 
ATOM     83  C   UNL A   1      39.851  35.942  37.895  1.00  0.00     0.001 A 
ATOM     84  C   UNL A   1      38.544  34.185  38.912  1.00  0.00     0.001 A 
ATOM     85  C   UNL A   1      39.041  35.486  38.935  1.00  0.00     0.000 A 
ENDBRANCH  67  80
ENDBRANCH  41  42
ENDBRANCH  34  36
ENDBRANCH  33  34
ENDBRANCH  32  33
ENDBRANCH  31  32
ENDBRANCH  30  31
ENDBRANCH  29  30
ENDBRANCH   1  29
TORSDOF 21
ENDMDL
MODEL 3
REMARK VINA RESULT:      -9.4      2.507      6.583
REMARK SMILES CCc1cc(OC(F)(F)F)cc2c1O[C@H](C(F)(F)F)C(C(=O)OCCOCCOCCOC(=O)c1ccc(-c3c4nc(c(-c5ccccc5)c5ccc([nH]5)c(-c5ccccc5)c5nc(c(-c6ccccc6)c6ccc3[nH]6)C=C5)C=C4)cc1)=C2
REMARK SMILES IDX 27 1 26 2 25 3 24 4 23 5 21 6 22 7 20 8 3 9 4 10 13 11 5 12
REMARK SMILES IDX 12 13 14 14 11 15 83 16 15 17 2 18 1 19 6 20 7 21 8 22 9 23
REMARK SMILES IDX 10 24 16 25 17 26 18 27 19 28 28 29 29 30 30 31 31 32 32 33
REMARK SMILES IDX 33 34 34 35 35 36 36 37 82 38 37 39 81 40 38 41 39 42 40 43
REMARK SMILES IDX 75 44 41 45 80 46 74 47 76 48 42 49 79 50 73 51 72 52 43 54
REMARK SMILES IDX 65 55 50 56 64 57 51 58 54 59 63 60 77 61 52 62 53 63 62 65
REMARK SMILES IDX 78 66 55 67 44 68 45 69 49 70 46 71 48 72 47 73 66 74 67 75
REMARK SMILES IDX 71 76 68 77 70 78 69 79 56 80 57 81 61 82 58 83 60 84 59 85
REMARK H PARENT 76 53 54 64
REMARK Flexibility Score: inf
ROOT
ATOM      1  C   UNL A   1      33.569  28.918  25.521  1.00  0.00     0.188 C 
ENDROOT
BRANCH   1   2
ATOM      2  O   UNL A   1      32.514  29.199  24.609  1.00  0.00    -0.376 OA
BRANCH   2   3
ATOM      3  C   UNL A   1      31.186  28.807  24.911  1.00  0.00     0.202 C 
BRANCH   3   4
ATOM      4  C   UNL A   1      30.624  27.590  24.171  1.00  0.00     0.261 C 
BRANCH   4   5
ATOM      5  O   UNL A   1      30.270  26.476  25.011  1.00  0.00    -0.460 OA
BRANCH   5   6
ATOM      6  C   UNL A   1      31.212  26.129  25.919  1.00  0.00     0.338 C 
ATOM      7  O   UNL A   1      31.362  26.623  27.025  1.00  0.00    -0.246 OA
BRANCH   6   8
ATOM      8  C   UNL A   1      32.020  24.972  25.479  1.00  0.00     0.087 C 
ATOM      9  C   UNL A   1      33.330  21.120  24.563  1.00  0.00    -0.002 A 
ATOM     10  C   UNL A   1      34.636  20.741  24.902  1.00  0.00     0.054 A 
ATOM     11  C   UNL A   1      32.906  22.409  24.904  1.00  0.00     0.131 A 
ATOM     12  C   UNL A   1      35.486  21.618  25.586  1.00  0.00     0.130 A 
ATOM     13  C   UNL A   1      33.739  23.308  25.595  1.00  0.00     0.021 A 
ATOM     14  O   UNL A   1      31.613  22.740  24.588  1.00  0.00    -0.475 OA
ATOM     15  C   UNL A   1      35.035  22.904  25.922  1.00  0.00     0.058 A 
ATOM     16  C   UNL A   1      33.180  24.593  26.042  1.00  0.00     0.027 C 
ATOM     17  C   UNL A   1      31.406  24.153  24.365  1.00  0.00     0.316 C 
BRANCH   9  18
ATOM     18  C   UNL A   1      32.405  20.126  23.895  1.00  0.00     0.036 C 
ATOM     19  C   UNL A   1      32.667  18.674  24.270  1.00  0.00     0.009 C 
ENDBRANCH   9  18
BRANCH  12  20
ATOM     20  O   UNL A   1      36.763  21.334  25.991  1.00  0.00    -0.406 OA
BRANCH  20  21
ATOM     21  C   UNL A   1      37.758  21.229  24.983  1.00  0.00     0.573 C 
ATOM     22  F   UNL A   1      38.025  19.939  24.687  1.00  0.00    -0.132 F 
ATOM     23  F   UNL A   1      37.382  21.880  23.861  1.00  0.00    -0.132 F 
ATOM     24  F   UNL A   1      38.897  21.799  25.437  1.00  0.00    -0.132 F 
ENDBRANCH  20  21
ENDBRANCH  12  20
BRANCH  17  25
ATOM     25  C   UNL A   1      31.886  24.597  22.964  1.00  0.00     0.430 C 
ATOM     26  F   UNL A   1      32.353  23.575  22.211  1.00  0.00    -0.167 F 
ATOM     27  F   UNL A   1      30.877  25.163  22.258  1.00  0.00    -0.167 F 
ATOM     28  F   UNL A   1      32.881  25.520  23.017  1.00  0.00    -0.167 F 
ENDBRANCH  17  25
ENDBRANCH   6   8
ENDBRANCH   5   6
ENDBRANCH   4   5
ENDBRANCH   3   4
ENDBRANCH   2   3
ENDBRANCH   1   2
BRANCH   1  29
ATOM     29  C   UNL A   1      33.724  29.713  26.830  1.00  0.00     0.188 C 
BRANCH  29  30
ATOM     30  O   UNL A   1      32.846  30.824  26.910  1.00  0.00    -0.376 OA
BRANCH  30  31
ATOM     31  C   UNL A   1      33.377  31.999  27.498  1.00  0.00     0.202 C 
BRANCH  31  32
ATOM     32  C   UNL A   1      32.371  33.145  27.645  1.00  0.00     0.261 C 
BRANCH  32  33
ATOM     33  O   UNL A   1      32.925  34.415  28.027  1.00  0.00    -0.460 OA
BRANCH  33  34
ATOM     34  C   UNL A   1      33.257  34.586  29.322  1.00  0.00     0.338 C 
ATOM     35  O   UNL A   1      32.579  35.119  30.191  1.00  0.00    -0.246 OA
BRANCH  34  36
ATOM     36  C   UNL A   1      34.543  33.900  29.562  1.00  0.00     0.060 A 
ATOM     37  C   UNL A   1      34.640  32.958  30.593  1.00  0.00     0.016 A 
ATOM     38  C   UNL A   1      35.656  34.194  28.770  1.00  0.00     0.016 A 
ATOM     39  C   UNL A   1      35.861  32.322  30.848  1.00  0.00     0.010 A 
ATOM     40  C   UNL A   1      36.880  33.571  29.038  1.00  0.00     0.010 A 
ATOM     41  C   UNL A   1      36.996  32.648  30.092  1.00  0.00    -0.014 A 
BRANCH  41  42
ATOM     42  C   UNL A   1      38.342  32.158  30.491  1.00  0.00     0.031 A 
ATOM     43  C   UNL A   1      38.839  30.864  29.908  1.00  0.00     0.074 A 
ATOM     44  C   UNL A   1      39.109  32.833  31.366  1.00  0.00     0.049 A 
ATOM     45  N   UNL A   1      39.924  30.186  30.190  1.00  0.00    -0.248 NA
ATOM     46  C   UNL A   1      37.999  30.252  28.866  1.00  0.00     0.031 C 
ATOM     47  C   UNL A   1      38.784  34.127  31.961  1.00  0.00     0.029 A 
ATOM     48  N   UNL A   1      40.325  32.504  31.917  1.00  0.00    -0.354 N 
ATOM     49  C   UNL A   1      39.891  29.066  29.369  1.00  0.00     0.074 A 
ATOM     50  C   UNL A   1      38.672  29.146  28.591  1.00  0.00     0.031 C 
ATOM     51  C   UNL A   1      39.770  34.476  32.807  1.00  0.00     0.029 A 
ATOM     52  C   UNL A   1      40.773  33.413  32.845  1.00  0.00     0.049 A 
ATOM     53  H   UNL A   1      40.827  31.695  31.669  1.00  0.00     0.167 HD
ATOM     54  C   UNL A   1      40.789  28.059  29.270  1.00  0.00     0.031 A 
ATOM     55  C   UNL A   1      41.849  33.374  33.656  1.00  0.00     0.031 A 
ATOM     56  C   UNL A   1      41.990  27.959  30.055  1.00  0.00     0.049 A 
ATOM     57  C   UNL A   1      42.779  32.188  33.606  1.00  0.00     0.074 A 
ATOM     58  C   UNL A   1      42.957  26.969  30.029  1.00  0.00     0.029 A 
ATOM     59  N   UNL A   1      42.382  28.878  31.015  1.00  0.00    -0.354 N 
ATOM     60  N   UNL A   1      42.741  31.136  32.825  1.00  0.00    -0.248 NA
ATOM     61  C   UNL A   1      43.904  32.185  34.557  1.00  0.00     0.031 C 
ATOM     62  C   UNL A   1      43.908  27.263  31.012  1.00  0.00     0.029 A 
ATOM     63  C   UNL A   1      43.562  28.465  31.608  1.00  0.00     0.049 A 
ATOM     64  H   UNL A   1      41.893  29.701  31.243  1.00  0.00     0.167 HD
ATOM     65  C   UNL A   1      43.848  30.366  33.165  1.00  0.00     0.074 A 
ATOM     66  C   UNL A   1      44.543  31.074  34.219  1.00  0.00     0.031 C 
ATOM     67  C   UNL A   1      44.253  29.181  32.648  1.00  0.00     0.031 A 
BRANCH  54  68
ATOM     68  C   UNL A   1      40.477  26.952  28.303  1.00  0.00    -0.014 A 
ATOM     69  C   UNL A   1      41.019  26.940  27.008  1.00  0.00     0.009 A 
ATOM     70  C   UNL A   1      39.646  25.894  28.703  1.00  0.00     0.009 A 
ATOM     71  C   UNL A   1      40.706  25.907  26.122  1.00  0.00     0.001 A 
ATOM     72  C   UNL A   1      39.356  24.851  27.825  1.00  0.00     0.001 A 
ATOM     73  C   UNL A   1      39.878  24.862  26.532  1.00  0.00     0.000 A 
ENDBRANCH  54  68
BRANCH  55  74
ATOM     74  C   UNL A   1      42.097  34.474  34.627  1.00  0.00    -0.014 A 
ATOM     75  C   UNL A   1      41.583  34.410  35.931  1.00  0.00     0.009 A 
ATOM     76  C   UNL A   1      42.818  35.615  34.238  1.00  0.00     0.009 A 
ATOM     77  C   UNL A   1      41.764  35.476  36.817  1.00  0.00     0.001 A 
ATOM     78  C   UNL A   1      43.022  36.665  35.135  1.00  0.00     0.001 A 
ATOM     79  C   UNL A   1      42.486  36.599  36.420  1.00  0.00     0.000 A 
ENDBRANCH  55  74
BRANCH  67  80
ATOM     80  C   UNL A   1      45.532  28.590  33.173  1.00  0.00    -0.014 A 
ATOM     81  C   UNL A   1      46.780  28.973  32.660  1.00  0.00     0.009 A 
ATOM     82  C   UNL A   1      45.485  27.681  34.242  1.00  0.00     0.009 A 
ATOM     83  C   UNL A   1      47.955  28.438  33.194  1.00  0.00     0.001 A 
ATOM     84  C   UNL A   1      46.662  27.169  34.790  1.00  0.00     0.001 A 
ATOM     85  C   UNL A   1      47.896  27.543  34.262  1.00  0.00     0.000 A 
ENDBRANCH  67  80
ENDBRANCH  41  42
ENDBRANCH  34  36
ENDBRANCH  33  34
ENDBRANCH  32  33
ENDBRANCH  31  32
ENDBRANCH  30  31
ENDBRANCH  29  30
ENDBRANCH   1  29
TORSDOF 21
ENDMDL
