MODEL 1
REMARK VINA RESULT:      -9.3      0.000      0.000
REMARK SMILES COc1ccc(-c2cc(Cl)cc3c2O[C@@H](C(F)(F)F)C(C(=O)OCCOCCOCCOC(=O)c2ccc(-c4c5nc(c(-c6ccccc6)c6ccc([nH]6)c(-c6ccccc6)c6nc(c(-c7ccccc7)c7ccc4[nH]7)C=C6)C=C5)cc2)=C3)cc1C
REMARK SMILES IDX 27 1 26 2 25 3 24 4 23 5 21 6 22 7 20 8 7 9 8 10 13 11 9 12
REMARK SMILES IDX 12 13 14 14 10 15 11 16 83 17 15 18 6 19 3 20 4 21 85 22
REMARK SMILES IDX 5 23 84 24 86 25 2 26 1 27 16 28 17 29 18 30 19 31 28 32
REMARK SMILES IDX 29 33 30 34 31 35 32 36 33 37 34 38 35 39 36 40 82 41 37 42
REMARK SMILES IDX 81 43 38 44 39 45 40 46 75 47 41 48 80 49 74 50 76 51 42 52
REMARK SMILES IDX 79 53 73 54 72 55 43 57 65 58 50 59 64 60 51 61 54 62 63 63
REMARK SMILES IDX 77 64 52 65 53 66 62 68 78 69 55 70 44 71 45 72 49 73 46 74
REMARK SMILES IDX 48 75 47 76 66 77 67 78 71 79 68 80 70 81 69 82 56 83 57 84
REMARK SMILES IDX 61 85 58 86 60 87 59 88
REMARK H PARENT 76 56 54 67
REMARK Flexibility Score: inf
ROOT
ATOM      1  C   UNL A   1      42.602  26.895  25.142  1.00  0.00     0.188 C 
ENDROOT
BRANCH   1   2
ATOM      2  O   UNL A   1      43.094  28.207  25.314  1.00  0.00    -0.376 OA
BRANCH   2   3
ATOM      3  C   UNL A   1      43.759  28.571  26.560  1.00  0.00     0.202 C 
BRANCH   3   4
ATOM      4  C   UNL A   1      45.478  29.022  26.834  1.00  0.00     0.261 C 
BRANCH   4   5
ATOM      5  O   UNL A   1      46.527  30.174  25.951  1.00  0.00    -0.460 OA
BRANCH   5   6
ATOM      6  C   UNL A   1      46.567  31.493  26.484  1.00  0.00     0.338 C 
ATOM      7  O   UNL A   1      47.788  31.398  26.468  1.00  0.00    -0.246 OA
BRANCH   6   8
ATOM      8  C   UNL A   1      45.881  33.217  26.561  1.00  0.00     0.087 C 
ATOM      9  C   UNL A   1      42.007  35.001  28.922  1.00  0.00     0.026 A 
ATOM     10  C   UNL A   1      41.575  36.217  28.455  1.00  0.00     0.033 A 
ATOM     11  C   UNL A   1      43.370  34.494  28.048  1.00  0.00     0.135 A 
ATOM     12  C   UNL A   1      42.178  36.719  27.266  1.00  0.00     0.042 A 
ATOM     13  C   UNL A   1      43.700  34.789  26.719  1.00  0.00     0.019 A 
ATOM     14  O   UNL A   1      44.890  34.565  28.683  1.00  0.00    -0.475 OA
ATOM     15  Cl  UNL A   1      41.779  38.360  26.858  1.00  0.00    -0.084 Cl
ATOM     16  C   UNL A   1      43.108  36.004  26.378  1.00  0.00     0.032 A 
ATOM     17  C   UNL A   1      44.780  33.873  25.967  1.00  0.00     0.027 C 
ATOM     18  C   UNL A   1      46.096  34.311  27.622  1.00  0.00     0.316 C 
BRANCH   9  19
ATOM     19  C   UNL A   1      40.649  34.022  29.831  1.00  0.00    -0.014 A 
ATOM     20  C   UNL A   1      37.633  34.361  31.944  1.00  0.00     0.121 A 
ATOM     21  C   UNL A   1      37.318  34.001  30.303  1.00  0.00     0.047 A 
ATOM     22  C   UNL A   1      39.285  34.439  32.638  1.00  0.00    -0.008 A 
ATOM     23  C   UNL A   1      38.709  33.764  29.219  1.00  0.00     0.013 A 
ATOM     24  C   UNL A   1      40.804  34.278  31.641  1.00  0.00     0.016 A 
ATOM     25  C   UNL A   1      39.232  34.407  34.136  1.00  0.00     0.048 C 
BRANCH  20  26
ATOM     26  O   UNL A   1      36.576  34.543  32.814  1.00  0.00    -0.496 OA
ATOM     27  C   UNL A   1      35.962  33.325  33.252  1.00  0.00     0.278 C 
ENDBRANCH  20  26
ENDBRANCH   9  19
BRANCH  18  28
ATOM     28  C   UNL A   1      47.609  34.635  27.590  1.00  0.00     0.430 C 
ATOM     29  F   UNL A   1      48.240  33.755  28.449  1.00  0.00    -0.167 F 
ATOM     30  F   UNL A   1      48.199  34.473  26.399  1.00  0.00    -0.167 F 
ATOM     31  F   UNL A   1      47.920  35.855  28.078  1.00  0.00    -0.167 F 
ENDBRANCH  18  28
ENDBRANCH   6   8
ENDBRANCH   5   6
ENDBRANCH   4   5
ENDBRANCH   3   4
ENDBRANCH   2   3
ENDBRANCH   1   2
BRANCH   1  32
ATOM     32  C   UNL A   1      42.513  26.305  26.501  1.00  0.00     0.188 C 
BRANCH  32  33
ATOM     33  O   UNL A   1      42.692  24.915  26.598  1.00  0.00    -0.376 OA
BRANCH  33  34
ATOM     34  C   UNL A   1      42.472  24.200  25.395  1.00  0.00     0.202 C 
BRANCH  34  35
ATOM     35  C   UNL A   1      43.697  23.495  24.774  1.00  0.00     0.261 C 
BRANCH  35  36
ATOM     36  O   UNL A   1      44.226  22.485  25.665  1.00  0.00    -0.460 OA
BRANCH  36  37
ATOM     37  C   UNL A   1      45.584  22.540  25.790  1.00  0.00     0.338 C 
ATOM     38  O   UNL A   1      46.375  21.755  25.294  1.00  0.00    -0.246 OA
BRANCH  37  39
ATOM     39  C   UNL A   1      45.873  23.337  27.000  1.00  0.00     0.060 A 
ATOM     40  C   UNL A   1      45.202  23.042  28.143  1.00  0.00     0.016 A 
ATOM     41  C   UNL A   1      46.457  24.554  27.055  1.00  0.00     0.016 A 
ATOM     42  C   UNL A   1      44.827  24.108  29.094  1.00  0.00     0.010 A 
ATOM     43  C   UNL A   1      46.081  25.467  28.138  1.00  0.00     0.010 A 
ATOM     44  C   UNL A   1      45.005  25.470  29.176  1.00  0.00    -0.014 A 
BRANCH  44  45
ATOM     45  C   UNL A   1      44.250  26.656  30.465  1.00  0.00     0.031 A 
ATOM     46  C   UNL A   1      42.861  27.933  30.315  1.00  0.00     0.074 A 
ATOM     47  C   UNL A   1      44.132  26.359  31.784  1.00  0.00     0.049 A 
ATOM     48  N   UNL A   1      42.860  29.261  30.301  1.00  0.00    -0.248 NA
ATOM     49  C   UNL A   1      41.382  27.574  29.901  1.00  0.00     0.031 C 
ATOM     50  C   UNL A   1      43.284  27.054  32.770  1.00  0.00     0.029 A 
ATOM     51  N   UNL A   1      44.927  25.553  32.588  1.00  0.00    -0.354 N 
ATOM     52  C   UNL A   1      41.584  29.657  29.778  1.00  0.00     0.074 A 
ATOM     53  C   UNL A   1      41.153  28.550  29.021  1.00  0.00     0.031 C 
ATOM     54  C   UNL A   1      43.899  26.989  33.962  1.00  0.00     0.029 A 
ATOM     55  C   UNL A   1      45.190  26.383  33.696  1.00  0.00     0.049 A 
ATOM     56  H   UNL A   1      45.233  24.632  32.425  1.00  0.00     0.167 HD
ATOM     57  C   UNL A   1      40.578  30.338  30.441  1.00  0.00     0.031 A 
ATOM     58  C   UNL A   1      46.366  27.069  33.735  1.00  0.00     0.031 A 
ATOM     59  C   UNL A   1      41.021  30.579  31.780  1.00  0.00     0.049 A 
ATOM     60  C   UNL A   1      46.143  28.669  33.693  1.00  0.00     0.074 A 
ATOM     61  C   UNL A   1      40.768  29.985  33.005  1.00  0.00     0.029 A 
ATOM     62  N   UNL A   1      42.203  31.251  31.889  1.00  0.00    -0.354 N 
ATOM     63  N   UNL A   1      45.040  29.283  33.296  1.00  0.00    -0.248 NA
ATOM     64  C   UNL A   1      47.097  29.686  34.167  1.00  0.00     0.031 C 
ATOM     65  C   UNL A   1      41.909  30.224  33.824  1.00  0.00     0.029 A 
ATOM     66  C   UNL A   1      42.809  30.962  33.081  1.00  0.00     0.049 A 
ATOM     67  H   UNL A   1      42.568  31.859  31.206  1.00  0.00     0.167 HD
ATOM     68  C   UNL A   1      45.132  30.662  33.480  1.00  0.00     0.074 A 
ATOM     69  C   UNL A   1      46.468  30.857  33.973  1.00  0.00     0.031 C 
ATOM     70  C   UNL A   1      44.107  31.556  33.280  1.00  0.00     0.031 A 
BRANCH  57  71
ATOM     71  C   UNL A   1      39.085  30.287  30.019  1.00  0.00    -0.014 A 
ATOM     72  C   UNL A   1      38.071  30.297  30.994  1.00  0.00     0.009 A 
ATOM     73  C   UNL A   1      38.621  30.190  28.683  1.00  0.00     0.009 A 
ATOM     74  C   UNL A   1      36.710  30.123  30.678  1.00  0.00     0.001 A 
ATOM     75  C   UNL A   1      37.267  29.959  28.362  1.00  0.00     0.001 A 
ATOM     76  C   UNL A   1      36.308  29.923  29.364  1.00  0.00     0.000 A 
ENDBRANCH  57  71
BRANCH  58  77
ATOM     77  C   UNL A   1      47.626  26.186  33.133  1.00  0.00    -0.014 A 
ATOM     78  C   UNL A   1      49.073  24.937  33.781  1.00  0.00     0.009 A 
ATOM     79  C   UNL A   1      47.907  26.726  31.447  1.00  0.00     0.009 A 
ATOM     80  C   UNL A   1      50.483  24.512  32.834  1.00  0.00     0.001 A 
ATOM     81  C   UNL A   1      49.495  26.220  30.619  1.00  0.00     0.001 A 
ATOM     82  C   UNL A   1      50.671  25.160  31.317  1.00  0.00     0.000 A 
ENDBRANCH  58  77
BRANCH  70  83
ATOM     83  C   UNL A   1      44.112  33.102  33.195  1.00  0.00    -0.014 A 
ATOM     84  C   UNL A   1      44.547  33.858  32.108  1.00  0.00     0.009 A 
ATOM     85  C   UNL A   1      43.476  33.856  34.235  1.00  0.00     0.009 A 
ATOM     86  C   UNL A   1      44.364  35.258  32.070  1.00  0.00     0.001 A 
ATOM     87  C   UNL A   1      43.211  35.226  34.162  1.00  0.00     0.001 A 
ATOM     88  C   UNL A   1      43.678  35.937  33.078  1.00  0.00     0.000 A 
ENDBRANCH  70  83
ENDBRANCH  44  45
ENDBRANCH  37  39
ENDBRANCH  36  37
ENDBRANCH  35  36
ENDBRANCH  34  35
ENDBRANCH  33  34
ENDBRANCH  32  33
ENDBRANCH   1  32
TORSDOF 20
ENDMDL
MODEL 2
REMARK VINA RESULT:      -9.1      4.422     10.122
REMARK SMILES COc1ccc(-c2cc(Cl)cc3c2O[C@@H](C(F)(F)F)C(C(=O)OCCOCCOCCOC(=O)c2ccc(-c4c5nc(c(-c6ccccc6)c6ccc([nH]6)c(-c6ccccc6)c6nc(c(-c7ccccc7)c7ccc4[nH]7)C=C6)C=C5)cc2)=C3)cc1C
REMARK SMILES IDX 27 1 26 2 25 3 24 4 23 5 21 6 22 7 20 8 7 9 8 10 13 11 9 12
REMARK SMILES IDX 12 13 14 14 10 15 11 16 83 17 15 18 6 19 3 20 4 21 85 22
REMARK SMILES IDX 5 23 84 24 86 25 2 26 1 27 16 28 17 29 18 30 19 31 28 32
REMARK SMILES IDX 29 33 30 34 31 35 32 36 33 37 34 38 35 39 36 40 82 41 37 42
REMARK SMILES IDX 81 43 38 44 39 45 40 46 75 47 41 48 80 49 74 50 76 51 42 52
REMARK SMILES IDX 79 53 73 54 72 55 43 57 65 58 50 59 64 60 51 61 54 62 63 63
REMARK SMILES IDX 77 64 52 65 53 66 62 68 78 69 55 70 44 71 45 72 49 73 46 74
REMARK SMILES IDX 48 75 47 76 66 77 67 78 71 79 68 80 70 81 69 82 56 83 57 84
REMARK SMILES IDX 61 85 58 86 60 87 59 88
REMARK H PARENT 76 56 54 67
REMARK Flexibility Score: inf
ROOT
ATOM      1  C   UNL A   1      35.217  32.277  28.658  1.00  0.00     0.188 C 
ENDROOT
BRANCH   1   2
ATOM      2  O   UNL A   1      35.696  30.994  29.002  1.00  0.00    -0.376 OA
BRANCH   2   3
ATOM      3  C   UNL A   1      36.232  30.121  27.963  1.00  0.00     0.202 C 
BRANCH   3   4
ATOM      4  C   UNL A   1      37.695  29.076  28.007  1.00  0.00     0.261 C 
BRANCH   4   5
ATOM      5  O   UNL A   1      39.306  29.372  28.731  1.00  0.00    -0.460 OA
BRANCH   5   6
ATOM      6  C   UNL A   1      40.232  28.297  28.618  1.00  0.00     0.338 C 
ATOM      7  O   UNL A   1      40.503  28.485  29.797  1.00  0.00    -0.246 OA
BRANCH   6   8
ATOM      8  C   UNL A   1      40.687  26.634  27.928  1.00  0.00     0.087 C 
ATOM      9  C   UNL A   1      37.927  23.153  25.922  1.00  0.00     0.026 A 
ATOM     10  C   UNL A   1      38.524  21.919  25.876  1.00  0.00     0.033 A 
ATOM     11  C   UNL A   1      38.986  24.286  26.611  1.00  0.00     0.135 A 
ATOM     12  C   UNL A   1      39.769  21.762  26.552  1.00  0.00     0.042 A 
ATOM     13  C   UNL A   1      39.990  24.059  27.560  1.00  0.00     0.019 A 
ATOM     14  O   UNL A   1      39.780  25.406  25.699  1.00  0.00    -0.475 OA
ATOM     15  Cl  UNL A   1      40.600  20.265  26.258  1.00  0.00    -0.084 Cl
ATOM     16  C   UNL A   1      40.419  22.738  27.441  1.00  0.00     0.032 A 
ATOM     17  C   UNL A   1      40.568  25.304  28.389  1.00  0.00     0.027 C 
ATOM     18  C   UNL A   1      40.958  26.218  26.471  1.00  0.00     0.316 C 
BRANCH   9  19
ATOM     19  C   UNL A   1      36.025  23.068  25.866  1.00  0.00    -0.014 A 
ATOM     20  C   UNL A   1      33.083  23.455  23.658  1.00  0.00     0.121 A 
ATOM     21  C   UNL A   1      33.521  21.836  23.987  1.00  0.00     0.047 A 
ATOM     22  C   UNL A   1      33.886  24.868  24.417  1.00  0.00    -0.008 A 
ATOM     23  C   UNL A   1      34.891  21.548  25.086  1.00  0.00     0.013 A 
ATOM     24  C   UNL A   1      35.338  24.732  25.513  1.00  0.00     0.016 A 
ATOM     25  C   UNL A   1      33.066  26.108  24.226  1.00  0.00     0.048 C 
BRANCH  20  26
ATOM     26  O   UNL A   1      32.020  23.713  22.816  1.00  0.00    -0.496 OA
ATOM     27  C   UNL A   1      30.746  23.727  23.469  1.00  0.00     0.278 C 
ENDBRANCH  20  26
ENDBRANCH   9  19
BRANCH  18  28
ATOM     28  C   UNL A   1      42.197  27.032  26.026  1.00  0.00     0.430 C 
ATOM     29  F   UNL A   1      42.915  26.245  25.146  1.00  0.00    -0.167 F 
ATOM     30  F   UNL A   1      41.925  28.165  25.366  1.00  0.00    -0.167 F 
ATOM     31  F   UNL A   1      43.068  27.296  27.022  1.00  0.00    -0.167 F 
ENDBRANCH  18  28
ENDBRANCH   6   8
ENDBRANCH   5   6
ENDBRANCH   4   5
ENDBRANCH   3   4
ENDBRANCH   2   3
ENDBRANCH   1   2
BRANCH   1  32
ATOM     32  C   UNL A   1      35.985  33.241  29.486  1.00  0.00     0.188 C 
BRANCH  32  33
ATOM     33  O   UNL A   1      35.639  33.319  30.846  1.00  0.00    -0.376 OA
BRANCH  33  34
ATOM     34  C   UNL A   1      36.659  32.921  31.745  1.00  0.00     0.202 C 
BRANCH  34  35
ATOM     35  C   UNL A   1      36.649  33.583  33.139  1.00  0.00     0.261 C 
BRANCH  35  36
ATOM     36  O   UNL A   1      37.857  33.275  33.872  1.00  0.00    -0.460 OA
BRANCH  36  37
ATOM     37  C   UNL A   1      37.684  32.287  34.799  1.00  0.00     0.338 C 
ATOM     38  O   UNL A   1      37.090  32.403  35.857  1.00  0.00    -0.246 OA
BRANCH  37  39
ATOM     39  C   UNL A   1      38.743  31.283  34.561  1.00  0.00     0.060 A 
ATOM     40  C   UNL A   1      40.022  31.606  34.883  1.00  0.00     0.016 A 
ATOM     41  C   UNL A   1      38.682  30.211  33.742  1.00  0.00     0.016 A 
ATOM     42  C   UNL A   1      41.153  31.104  34.076  1.00  0.00     0.010 A 
ATOM     43  C   UNL A   1      39.916  29.740  33.106  1.00  0.00     0.010 A 
ATOM     44  C   UNL A   1      41.300  30.288  32.979  1.00  0.00    -0.014 A 
BRANCH  44  45
ATOM     45  C   UNL A   1      42.907  29.932  32.014  1.00  0.00     0.031 A 
ATOM     46  C   UNL A   1      43.469  30.479  30.292  1.00  0.00     0.074 A 
ATOM     47  C   UNL A   1      44.121  29.780  32.602  1.00  0.00     0.049 A 
ATOM     48  N   UNL A   1      43.606  29.827  29.142  1.00  0.00    -0.248 NA
ATOM     49  C   UNL A   1      43.646  31.987  29.866  1.00  0.00     0.031 C 
ATOM     50  C   UNL A   1      45.435  29.833  31.936  1.00  0.00     0.029 A 
ATOM     51  N   UNL A   1      44.443  29.289  33.860  1.00  0.00    -0.354 N 
ATOM     52  C   UNL A   1      43.685  30.829  28.119  1.00  0.00     0.074 A 
ATOM     53  C   UNL A   1      43.046  31.954  28.674  1.00  0.00     0.031 C 
ATOM     54  C   UNL A   1      46.266  29.007  32.592  1.00  0.00     0.029 A 
ATOM     55  C   UNL A   1      45.439  28.333  33.575  1.00  0.00     0.049 A 
ATOM     56  H   UNL A   1      44.071  29.544  34.735  1.00  0.00     0.167 HD
ATOM     57  C   UNL A   1      44.767  31.115  27.305  1.00  0.00     0.031 A 
ATOM     58  C   UNL A   1      45.079  27.022  33.484  1.00  0.00     0.031 A 
ATOM     59  C   UNL A   1      45.834  30.234  27.668  1.00  0.00     0.049 A 
ATOM     60  C   UNL A   1      45.308  26.425  32.001  1.00  0.00     0.074 A 
ATOM     61  C   UNL A   1      46.983  30.367  28.429  1.00  0.00     0.029 A 
ATOM     62  N   UNL A   1      45.534  28.904  27.612  1.00  0.00    -0.354 N 
ATOM     63  N   UNL A   1      45.458  27.141  30.898  1.00  0.00    -0.248 NA
ATOM     64  C   UNL A   1      45.471  25.003  31.658  1.00  0.00     0.031 C 
ATOM     65  C   UNL A   1      47.297  29.073  28.935  1.00  0.00     0.029 A 
ATOM     66  C   UNL A   1      46.343  28.196  28.458  1.00  0.00     0.049 A 
ATOM     67  H   UNL A   1      44.835  28.509  27.043  1.00  0.00     0.167 HD
ATOM     68  C   UNL A   1      45.742  26.329  29.800  1.00  0.00     0.074 A 
ATOM     69  C   UNL A   1      45.676  24.995  30.331  1.00  0.00     0.031 C 
ATOM     70  C   UNL A   1      46.070  26.783  28.544  1.00  0.00     0.031 A 
BRANCH  57  71
ATOM     71  C   UNL A   1      44.976  32.485  26.605  1.00  0.00    -0.014 A 
ATOM     72  C   UNL A   1      44.092  32.906  25.594  1.00  0.00     0.009 A 
ATOM     73  C   UNL A   1      46.042  33.379  26.870  1.00  0.00     0.009 A 
ATOM     74  C   UNL A   1      44.306  34.075  24.837  1.00  0.00     0.001 A 
ATOM     75  C   UNL A   1      46.295  34.520  26.080  1.00  0.00     0.001 A 
ATOM     76  C   UNL A   1      45.424  34.867  25.058  1.00  0.00     0.000 A 
ENDBRANCH  57  71
BRANCH  58  77
ATOM     77  C   UNL A   1      43.928  26.611  34.597  1.00  0.00    -0.014 A 
ATOM     78  C   UNL A   1      42.084  27.187  35.182  1.00  0.00     0.009 A 
ATOM     79  C   UNL A   1      44.688  25.488  35.769  1.00  0.00     0.009 A 
ATOM     80  C   UNL A   1      41.358  26.715  36.703  1.00  0.00     0.001 A 
ATOM     81  C   UNL A   1      43.789  25.148  37.363  1.00  0.00     0.001 A 
ATOM     82  C   UNL A   1      42.211  25.744  37.747  1.00  0.00     0.000 A 
ENDBRANCH  58  77
BRANCH  70  83
ATOM     83  C   UNL A   1      46.163  26.040  27.190  1.00  0.00    -0.014 A 
ATOM     84  C   UNL A   1      47.133  26.245  26.211  1.00  0.00     0.009 A 
ATOM     85  C   UNL A   1      45.294  24.926  26.949  1.00  0.00     0.009 A 
ATOM     86  C   UNL A   1      47.220  25.405  25.078  1.00  0.00     0.001 A 
ATOM     87  C   UNL A   1      45.433  24.037  25.879  1.00  0.00     0.001 A 
ATOM     88  C   UNL A   1      46.393  24.292  24.924  1.00  0.00     0.000 A 
ENDBRANCH  70  83
ENDBRANCH  44  45
ENDBRANCH  37  39
ENDBRANCH  36  37
ENDBRANCH  35  36
ENDBRANCH  34  35
ENDBRANCH  33  34
ENDBRANCH  32  33
ENDBRANCH   1  32
TORSDOF 20
ENDMDL
MODEL 3
REMARK VINA RESULT:      -8.9      7.434     13.577
REMARK SMILES COc1ccc(-c2cc(Cl)cc3c2O[C@@H](C(F)(F)F)C(C(=O)OCCOCCOCCOC(=O)c2ccc(-c4c5nc(c(-c6ccccc6)c6ccc([nH]6)c(-c6ccccc6)c6nc(c(-c7ccccc7)c7ccc4[nH]7)C=C6)C=C5)cc2)=C3)cc1C
REMARK SMILES IDX 27 1 26 2 25 3 24 4 23 5 21 6 22 7 20 8 7 9 8 10 13 11 9 12
REMARK SMILES IDX 12 13 14 14 10 15 11 16 83 17 15 18 6 19 3 20 4 21 85 22
REMARK SMILES IDX 5 23 84 24 86 25 2 26 1 27 16 28 17 29 18 30 19 31 28 32
REMARK SMILES IDX 29 33 30 34 31 35 32 36 33 37 34 38 35 39 36 40 82 41 37 42
REMARK SMILES IDX 81 43 38 44 39 45 40 46 75 47 41 48 80 49 74 50 76 51 42 52
REMARK SMILES IDX 79 53 73 54 72 55 43 57 65 58 50 59 64 60 51 61 54 62 63 63
REMARK SMILES IDX 77 64 52 65 53 66 62 68 78 69 55 70 44 71 45 72 49 73 46 74
REMARK SMILES IDX 48 75 47 76 66 77 67 78 71 79 68 80 70 81 69 82 56 83 57 84
REMARK SMILES IDX 61 85 58 86 60 87 59 88
REMARK H PARENT 76 56 54 67
REMARK Flexibility Score: inf
ROOT
ATOM      1  C   UNL A   1      35.087  31.022  28.065  1.00  0.00     0.188 C 
ENDROOT
BRANCH   1   2
ATOM      2  O   UNL A   1      33.676  31.012  28.053  1.00  0.00    -0.376 OA
BRANCH   2   3
ATOM      3  C   UNL A   1      32.968  30.314  26.985  1.00  0.00     0.202 C 
BRANCH   3   4
ATOM      4  C   UNL A   1      33.637  29.505  25.525  1.00  0.00     0.261 C 
BRANCH   4   5
ATOM      5  O   UNL A   1      32.988  29.404  23.859  1.00  0.00    -0.460 OA
BRANCH   5   6
ATOM      6  C   UNL A   1      32.703  28.089  23.395  1.00  0.00     0.338 C 
ATOM      7  O   UNL A   1      33.592  28.251  22.569  1.00  0.00    -0.246 OA
BRANCH   6   8
ATOM      8  C   UNL A   1      32.222  26.330  23.747  1.00  0.00     0.087 C 
ATOM      9  C   UNL A   1      34.953  22.428  24.785  1.00  0.00     0.026 A 
ATOM     10  C   UNL A   1      34.310  21.229  24.608  1.00  0.00     0.033 A 
ATOM     11  C   UNL A   1      33.901  23.710  24.423  1.00  0.00     0.135 A 
ATOM     12  C   UNL A   1      33.022  21.254  23.999  1.00  0.00     0.042 A 
ATOM     13  C   UNL A   1      32.835  23.718  23.515  1.00  0.00     0.019 A 
ATOM     14  O   UNL A   1      33.208  24.630  25.601  1.00  0.00    -0.475 OA
ATOM     15  Cl  UNL A   1      32.150  19.751  24.024  1.00  0.00    -0.084 Cl
ATOM     16  C   UNL A   1      32.361  22.414  23.381  1.00  0.00     0.032 A 
ATOM     17  C   UNL A   1      32.260  25.126  23.009  1.00  0.00     0.027 C 
ATOM     18  C   UNL A   1      32.021  25.620  25.097  1.00  0.00     0.316 C 
BRANCH   9  19
ATOM     19  C   UNL A   1      36.850  22.281  24.696  1.00  0.00    -0.014 A 
ATOM     20  C   UNL A   1      39.890  21.631  26.699  1.00  0.00     0.121 A 
ATOM     21  C   UNL A   1      39.368  20.312  25.744  1.00  0.00     0.047 A 
ATOM     22  C   UNL A   1      39.122  23.251  26.648  1.00  0.00    -0.008 A 
ATOM     23  C   UNL A   1      37.944  20.548  24.703  1.00  0.00     0.013 A 
ATOM     24  C   UNL A   1      37.624  23.624  25.678  1.00  0.00     0.016 A 
ATOM     25  C   UNL A   1      40.004  24.275  27.298  1.00  0.00     0.048 C 
BRANCH  20  26
ATOM     26  O   UNL A   1      40.996  21.484  27.512  1.00  0.00    -0.496 OA
ATOM     27  C   UNL A   1      41.414  20.125  27.692  1.00  0.00     0.278 C 
ENDBRANCH  20  26
ENDBRANCH   9  19
BRANCH  18  28
ATOM     28  C   UNL A   1      30.844  26.353  25.786  1.00  0.00     0.430 C 
ATOM     29  F   UNL A   1      30.256  27.172  24.840  1.00  0.00    -0.167 F 
ATOM     30  F   UNL A   1      29.867  25.557  26.240  1.00  0.00    -0.167 F 
ATOM     31  F   UNL A   1      31.222  27.198  26.768  1.00  0.00    -0.167 F 
ENDBRANCH  18  28
ENDBRANCH   6   8
ENDBRANCH   5   6
ENDBRANCH   4   5
ENDBRANCH   3   4
ENDBRANCH   2   3
ENDBRANCH   1   2
BRANCH   1  32
ATOM     32  C   UNL A   1      35.487  31.365  29.453  1.00  0.00     0.188 C 
BRANCH  32  33
ATOM     33  O   UNL A   1      34.805  32.434  30.059  1.00  0.00    -0.376 OA
BRANCH  33  34
ATOM     34  C   UNL A   1      35.499  33.669  30.045  1.00  0.00     0.202 C 
BRANCH  34  35
ATOM     35  C   UNL A   1      36.748  33.771  30.946  1.00  0.00     0.261 C 
BRANCH  35  36
ATOM     36  O   UNL A   1      37.963  33.752  30.160  1.00  0.00    -0.460 OA
BRANCH  36  37
ATOM     37  C   UNL A   1      39.080  33.513  30.907  1.00  0.00     0.338 C 
ATOM     38  O   UNL A   1      39.110  33.383  32.119  1.00  0.00    -0.246 OA
BRANCH  37  39
ATOM     39  C   UNL A   1      40.238  33.959  30.103  1.00  0.00     0.060 A 
ATOM     40  C   UNL A   1      41.465  33.955  30.684  1.00  0.00     0.016 A 
ATOM     41  C   UNL A   1      40.212  34.705  28.978  1.00  0.00     0.016 A 
ATOM     42  C   UNL A   1      42.465  34.988  30.341  1.00  0.00     0.010 A 
ATOM     43  C   UNL A   1      41.341  35.597  28.698  1.00  0.00     0.010 A 
ATOM     44  C   UNL A   1      42.524  36.062  29.483  1.00  0.00    -0.014 A 
BRANCH  44  45
ATOM     45  C   UNL A   1      43.914  37.364  29.360  1.00  0.00     0.031 A 
ATOM     46  C   UNL A   1      43.903  39.227  29.690  1.00  0.00     0.074 A 
ATOM     47  C   UNL A   1      45.218  37.101  29.630  1.00  0.00     0.049 A 
ATOM     48  N   UNL A   1      43.966  40.282  28.885  1.00  0.00    -0.248 NA
ATOM     49  C   UNL A   1      43.540  39.868  31.085  1.00  0.00     0.031 C 
ATOM     50  C   UNL A   1      46.281  38.091  29.880  1.00  0.00     0.029 A 
ATOM     51  N   UNL A   1      45.935  35.921  29.485  1.00  0.00    -0.354 N 
ATOM     52  C   UNL A   1      43.527  41.406  29.661  1.00  0.00     0.074 A 
ATOM     53  C   UNL A   1      42.729  40.846  30.676  1.00  0.00     0.031 C 
ATOM     54  C   UNL A   1      47.437  37.580  29.428  1.00  0.00     0.029 A 
ATOM     55  C   UNL A   1      47.076  36.338  28.770  1.00  0.00     0.049 A 
ATOM     56  H   UNL A   1      45.706  35.018  29.802  1.00  0.00     0.167 HD
ATOM     57  C   UNL A   1      44.275  42.505  30.045  1.00  0.00     0.031 A 
ATOM     58  C   UNL A   1      47.098  36.168  27.419  1.00  0.00     0.031 A 
ATOM     59  C   UNL A   1      45.604  42.329  29.543  1.00  0.00     0.049 A 
ATOM     60  C   UNL A   1      47.159  37.574  26.625  1.00  0.00     0.074 A 
ATOM     61  C   UNL A   1      46.803  41.920  30.101  1.00  0.00     0.029 A 
ATOM     62  N   UNL A   1      45.695  42.139  28.196  1.00  0.00    -0.354 N 
ATOM     63  N   UNL A   1      46.851  38.757  27.131  1.00  0.00    -0.248 NA
ATOM     64  C   UNL A   1      47.645  37.768  25.249  1.00  0.00     0.031 C 
ATOM     65  C   UNL A   1      47.579  41.358  29.047  1.00  0.00     0.029 A 
ATOM     66  C   UNL A   1      46.838  41.454  27.886  1.00  0.00     0.049 A 
ATOM     67  H   UNL A   1      45.032  42.450  27.538  1.00  0.00     0.167 HD
ATOM     68  C   UNL A   1      47.109  39.782  26.220  1.00  0.00     0.074 A 
ATOM     69  C   UNL A   1      47.549  39.091  25.039  1.00  0.00     0.031 C 
ATOM     70  C   UNL A   1      47.009  41.125  26.493  1.00  0.00     0.031 A 
BRANCH  57  71
ATOM     71  C   UNL A   1      43.922  43.399  31.264  1.00  0.00    -0.014 A 
ATOM     72  C   UNL A   1      44.940  44.049  31.985  1.00  0.00     0.009 A 
ATOM     73  C   UNL A   1      42.614  43.606  31.768  1.00  0.00     0.009 A 
ATOM     74  C   UNL A   1      44.692  44.766  33.173  1.00  0.00     0.001 A 
ATOM     75  C   UNL A   1      42.363  44.274  32.986  1.00  0.00     0.001 A 
ATOM     76  C   UNL A   1      43.407  44.853  33.691  1.00  0.00     0.000 A 
ENDBRANCH  57  71
BRANCH  58  77
ATOM     77  C   UNL A   1      46.387  34.750  26.955  1.00  0.00    -0.014 A 
ATOM     78  C   UNL A   1      44.545  33.953  26.747  1.00  0.00     0.009 A 
ATOM     79  C   UNL A   1      47.675  33.505  26.863  1.00  0.00     0.009 A 
ATOM     80  C   UNL A   1      44.243  32.235  26.591  1.00  0.00     0.001 A 
ATOM     81  C   UNL A   1      47.160  31.720  26.756  1.00  0.00     0.001 A 
ATOM     82  C   UNL A   1      45.523  31.177  26.617  1.00  0.00     0.000 A 
ENDBRANCH  58  77
BRANCH  70  83
ATOM     83  C   UNL A   1      47.013  42.354  25.551  1.00  0.00    -0.014 A 
ATOM     84  C   UNL A   1      47.613  43.584  25.816  1.00  0.00     0.009 A 
ATOM     85  C   UNL A   1      46.509  42.207  24.218  1.00  0.00     0.009 A 
ATOM     86  C   UNL A   1      47.694  44.587  24.826  1.00  0.00     0.001 A 
ATOM     87  C   UNL A   1      46.668  43.160  23.208  1.00  0.00     0.001 A 
ATOM     88  C   UNL A   1      47.248  44.370  23.522  1.00  0.00     0.000 A 
ENDBRANCH  70  83
ENDBRANCH  44  45
ENDBRANCH  37  39
ENDBRANCH  36  37
ENDBRANCH  35  36
ENDBRANCH  34  35
ENDBRANCH  33  34
ENDBRANCH  32  33
ENDBRANCH   1  32
TORSDOF 20
ENDMDL
