MODEL 1
REMARK VINA RESULT:      -9.2      0.000      0.000
REMARK SMILES C=CCN(CC(=O)OCCOCCOCCOC(=O)c1ccc(-c2c3nc(c(-c4ccccc4)c4ccc([nH]4)c(-c4ccccc4)c4nc(c(-c5ccccc5)c5ccc2[nH]5)C=C4)C=C3)cc1)C(=O)N1CC[C@@H]([NH+]2CCCCC2)C1
REMARK SMILES IDX 12 1 11 2 10 3 9 4 8 5 6 6 7 7 5 8 4 9 3 10 2 11 1 12 68 13
REMARK SMILES IDX 69 14 70 15 71 16 80 17 72 18 73 19 74 20 75 21 79 22 76 24
REMARK SMILES IDX 78 25 77 26 13 27 14 28 15 29 16 30 17 31 18 32 19 33 20 34
REMARK SMILES IDX 21 35 67 36 22 37 66 38 23 39 24 40 25 41 60 42 26 43 65 44
REMARK SMILES IDX 59 45 61 46 27 47 64 48 58 49 57 50 28 52 50 53 35 54 49 55
REMARK SMILES IDX 36 56 39 57 48 58 62 59 37 60 38 61 47 63 63 64 40 65 29 66
REMARK SMILES IDX 30 67 34 68 31 69 33 70 32 71 51 72 52 73 56 74 53 75 55 76
REMARK SMILES IDX 54 77 41 78 42 79 46 80 43 81 45 82 44 83
REMARK H PARENT 74 23 61 51 39 62
REMARK Flexibility Score: inf
ROOT
ATOM      1  C   UNL A   1      40.970  21.499  26.120  1.00  0.00     0.188 C 
ENDROOT
BRANCH   1   2
ATOM      2  O   UNL A   1      39.675  21.556  26.674  1.00  0.00    -0.376 OA
BRANCH   2   3
ATOM      3  C   UNL A   1      38.687  22.103  25.801  1.00  0.00     0.202 C 
BRANCH   3   4
ATOM      4  C   UNL A   1      37.732  21.082  25.150  1.00  0.00     0.261 C 
BRANCH   4   5
ATOM      5  O   UNL A   1      36.754  21.699  24.262  1.00  0.00    -0.462 OA
BRANCH   5   6
ATOM      6  C   UNL A   1      35.722  22.336  24.883  1.00  0.00     0.325 C 
ATOM      7  O   UNL A   1      35.582  23.559  24.882  1.00  0.00    -0.250 OA
BRANCH   6   8
ATOM      8  C   UNL A   1      34.738  21.439  25.660  1.00  0.00     0.244 C 
BRANCH   8   9
ATOM      9  N   UNL A   1      33.382  21.146  25.186  1.00  0.00    -0.310 N 
BRANCH   9  10
ATOM     10  C   UNL A   1      33.276  20.061  24.201  1.00  0.00     0.149 C 
BRANCH  10  11
ATOM     11  C   UNL A   1      34.249  18.952  24.510  1.00  0.00    -0.013 C 
ATOM     12  C   UNL A   1      34.106  17.695  24.059  1.00  0.00     0.006 C 
ENDBRANCH  10  11
ENDBRANCH   9  10
BRANCH   9  13
ATOM     13  C   UNL A   1      32.210  21.811  25.494  1.00  0.00     0.321 C 
ATOM     14  O   UNL A   1      31.137  21.194  25.531  1.00  0.00    -0.248 OA
BRANCH  13  15
ATOM     15  N   UNL A   1      32.175  23.177  25.679  1.00  0.00    -0.318 N 
ATOM     16  C   UNL A   1      32.679  24.052  26.704  1.00  0.00     0.128 C 
ATOM     17  C   UNL A   1      31.340  23.934  24.775  1.00  0.00     0.186 C 
ATOM     18  C   UNL A   1      32.269  25.473  26.334  1.00  0.00     0.088 C 
ATOM     19  C   UNL A   1      31.585  25.442  24.951  1.00  0.00     0.205 C 
BRANCH  19  20
ATOM     20  N   UNL A   1      32.272  26.416  24.097  1.00  0.00    -0.331 N 
ATOM     21  C   UNL A   1      33.683  26.717  24.043  1.00  0.00     0.262 C 
ATOM     22  C   UNL A   1      31.772  26.513  22.721  1.00  0.00     0.262 C 
ATOM     23  H   UNL A   1      31.975  27.103  24.789  1.00  0.00     0.348 HD
ATOM     24  C   UNL A   1      33.851  28.218  23.808  1.00  0.00     0.062 C 
ATOM     25  C   UNL A   1      31.587  27.997  22.489  1.00  0.00     0.062 C 
ATOM     26  C   UNL A   1      32.794  28.857  22.894  1.00  0.00     0.012 C 
ENDBRANCH  19  20
ENDBRANCH  13  15
ENDBRANCH   9  13
ENDBRANCH   8   9
ENDBRANCH   6   8
ENDBRANCH   5   6
ENDBRANCH   4   5
ENDBRANCH   3   4
ENDBRANCH   2   3
ENDBRANCH   1   2
BRANCH   1  27
ATOM     27  C   UNL A   1      41.680  20.134  26.077  1.00  0.00     0.188 C 
BRANCH  27  28
ATOM     28  O   UNL A   1      42.880  19.923  25.359  1.00  0.00    -0.376 OA
BRANCH  28  29
ATOM     29  C   UNL A   1      43.942  20.812  25.673  1.00  0.00     0.202 C 
BRANCH  29  30
ATOM     30  C   UNL A   1      44.532  21.791  24.595  1.00  0.00     0.261 C 
BRANCH  30  31
ATOM     31  O   UNL A   1      43.923  23.095  24.431  1.00  0.00    -0.460 OA
BRANCH  31  32
ATOM     32  C   UNL A   1      44.664  24.180  24.844  1.00  0.00     0.338 C 
ATOM     33  O   UNL A   1      45.819  24.398  24.560  1.00  0.00    -0.246 OA
BRANCH  32  34
ATOM     34  C   UNL A   1      43.924  24.967  25.898  1.00  0.00     0.060 A 
ATOM     35  C   UNL A   1      42.938  24.415  26.720  1.00  0.00     0.016 A 
ATOM     36  C   UNL A   1      44.241  26.317  26.079  1.00  0.00     0.016 A 
ATOM     37  C   UNL A   1      42.393  25.165  27.801  1.00  0.00     0.010 A 
ATOM     38  C   UNL A   1      43.729  27.052  27.177  1.00  0.00     0.010 A 
ATOM     39  C   UNL A   1      42.819  26.478  28.085  1.00  0.00    -0.014 A 
BRANCH  39  40
ATOM     40  C   UNL A   1      42.113  27.319  29.124  1.00  0.00     0.031 A 
ATOM     41  C   UNL A   1      42.784  27.373  30.469  1.00  0.00     0.074 A 
ATOM     42  C   UNL A   1      40.976  28.044  28.966  1.00  0.00     0.049 A 
ATOM     43  N   UNL A   1      42.505  28.116  31.508  1.00  0.00    -0.248 NA
ATOM     44  C   UNL A   1      43.940  26.480  30.648  1.00  0.00     0.031 C 
ATOM     45  C   UNL A   1      40.189  28.149  27.753  1.00  0.00     0.029 A 
ATOM     46  N   UNL A   1      40.269  28.859  29.838  1.00  0.00    -0.354 N 
ATOM     47  C   UNL A   1      43.488  27.821  32.438  1.00  0.00     0.074 A 
ATOM     48  C   UNL A   1      44.321  26.782  31.875  1.00  0.00     0.031 C 
ATOM     49  C   UNL A   1      39.128  28.953  27.925  1.00  0.00     0.029 A 
ATOM     50  C   UNL A   1      39.142  29.450  29.287  1.00  0.00     0.049 A 
ATOM     51  H   UNL A   1      40.544  29.006  30.771  1.00  0.00     0.167 HD
ATOM     52  C   UNL A   1      43.706  28.375  33.652  1.00  0.00     0.031 A 
ATOM     53  C   UNL A   1      38.226  30.306  29.790  1.00  0.00     0.031 A 
ATOM     54  C   UNL A   1      42.834  29.323  34.278  1.00  0.00     0.049 A 
ATOM     55  C   UNL A   1      38.406  30.794  31.201  1.00  0.00     0.074 A 
ATOM     56  C   UNL A   1      42.931  29.878  35.540  1.00  0.00     0.029 A 
ATOM     57  N   UNL A   1      41.678  29.827  33.702  1.00  0.00    -0.354 N 
ATOM     58  N   UNL A   1      39.387  30.554  32.034  1.00  0.00    -0.248 NA
ATOM     59  C   UNL A   1      37.365  31.686  31.738  1.00  0.00     0.031 C 
ATOM     60  C   UNL A   1      41.797  30.667  35.754  1.00  0.00     0.029 A 
ATOM     61  C   UNL A   1      41.032  30.660  34.598  1.00  0.00     0.049 A 
ATOM     62  H   UNL A   1      41.364  29.622  32.792  1.00  0.00     0.167 HD
ATOM     63  C   UNL A   1      39.102  31.286  33.177  1.00  0.00     0.074 A 
ATOM     64  C   UNL A   1      37.869  32.000  32.923  1.00  0.00     0.031 C 
ATOM     65  C   UNL A   1      39.802  31.361  34.334  1.00  0.00     0.031 A 
BRANCH  52  66
ATOM     66  C   UNL A   1      44.921  27.878  34.376  1.00  0.00    -0.014 A 
ATOM     67  C   UNL A   1      46.172  28.489  34.183  1.00  0.00     0.009 A 
ATOM     68  C   UNL A   1      44.836  26.725  35.167  1.00  0.00     0.009 A 
ATOM     69  C   UNL A   1      47.325  27.914  34.716  1.00  0.00     0.001 A 
ATOM     70  C   UNL A   1      45.987  26.170  35.723  1.00  0.00     0.001 A 
ATOM     71  C   UNL A   1      47.231  26.753  35.483  1.00  0.00     0.000 A 
ENDBRANCH  52  66
BRANCH  53  72
ATOM     72  C   UNL A   1      37.053  30.784  28.987  1.00  0.00    -0.014 A 
ATOM     73  C   UNL A   1      36.958  32.124  28.566  1.00  0.00     0.009 A 
ATOM     74  C   UNL A   1      35.970  29.930  28.718  1.00  0.00     0.009 A 
ATOM     75  C   UNL A   1      35.797  32.604  27.945  1.00  0.00     0.001 A 
ATOM     76  C   UNL A   1      34.822  30.405  28.070  1.00  0.00     0.001 A 
ATOM     77  C   UNL A   1      34.730  31.745  27.698  1.00  0.00     0.000 A 
ENDBRANCH  53  72
BRANCH  65  78
ATOM     78  C   UNL A   1      39.268  32.265  35.407  1.00  0.00    -0.014 A 
ATOM     79  C   UNL A   1      38.350  31.804  36.363  1.00  0.00     0.009 A 
ATOM     80  C   UNL A   1      39.740  33.584  35.496  1.00  0.00     0.009 A 
ATOM     81  C   UNL A   1      37.893  32.657  37.369  1.00  0.00     0.001 A 
ATOM     82  C   UNL A   1      39.309  34.422  36.523  1.00  0.00     0.001 A 
ATOM     83  C   UNL A   1      38.380  33.961  37.453  1.00  0.00     0.000 A 
ENDBRANCH  65  78
ENDBRANCH  39  40
ENDBRANCH  32  34
ENDBRANCH  31  32
ENDBRANCH  30  31
ENDBRANCH  29  30
ENDBRANCH  28  29
ENDBRANCH  27  28
ENDBRANCH   1  27
TORSDOF 23
ENDMDL
MODEL 2
REMARK VINA RESULT:      -9.2      0.948      3.495
REMARK SMILES C=CCN(CC(=O)OCCOCCOCCOC(=O)c1ccc(-c2c3nc(c(-c4ccccc4)c4ccc([nH]4)c(-c4ccccc4)c4nc(c(-c5ccccc5)c5ccc2[nH]5)C=C4)C=C3)cc1)C(=O)N1CC[C@@H]([NH+]2CCCCC2)C1
REMARK SMILES IDX 12 1 11 2 10 3 9 4 8 5 6 6 7 7 5 8 4 9 3 10 2 11 1 12 68 13
REMARK SMILES IDX 69 14 70 15 71 16 80 17 72 18 73 19 74 20 75 21 79 22 76 24
REMARK SMILES IDX 78 25 77 26 13 27 14 28 15 29 16 30 17 31 18 32 19 33 20 34
REMARK SMILES IDX 21 35 67 36 22 37 66 38 23 39 24 40 25 41 60 42 26 43 65 44
REMARK SMILES IDX 59 45 61 46 27 47 64 48 58 49 57 50 28 52 50 53 35 54 49 55
REMARK SMILES IDX 36 56 39 57 48 58 62 59 37 60 38 61 47 63 63 64 40 65 29 66
REMARK SMILES IDX 30 67 34 68 31 69 33 70 32 71 51 72 52 73 56 74 53 75 55 76
REMARK SMILES IDX 54 77 41 78 42 79 46 80 43 81 45 82 44 83
REMARK H PARENT 74 23 61 51 39 62
REMARK Flexibility Score: inf
ROOT
ATOM      1  C   UNL A   1      41.063  22.025  25.974  1.00  0.00     0.188 C 
ENDROOT
BRANCH   1   2
ATOM      2  O   UNL A   1      39.949  22.349  26.776  1.00  0.00    -0.376 OA
BRANCH   2   3
ATOM      3  C   UNL A   1      38.689  22.179  26.127  1.00  0.00     0.202 C 
BRANCH   3   4
ATOM      4  C   UNL A   1      37.898  23.475  25.857  1.00  0.00     0.261 C 
BRANCH   4   5
ATOM      5  O   UNL A   1      36.453  23.280  25.893  1.00  0.00    -0.462 OA
BRANCH   5   6
ATOM      6  C   UNL A   1      35.855  23.127  24.678  1.00  0.00     0.325 C 
ATOM      7  O   UNL A   1      35.939  22.100  24.006  1.00  0.00    -0.250 OA
BRANCH   6   8
ATOM      8  C   UNL A   1      35.094  24.353  24.136  1.00  0.00     0.244 C 
BRANCH   8   9
ATOM      9  N   UNL A   1      33.679  24.604  24.425  1.00  0.00    -0.310 N 
BRANCH   9  10
ATOM     10  C   UNL A   1      33.220  25.982  24.195  1.00  0.00     0.149 C 
BRANCH  10  11
ATOM     11  C   UNL A   1      32.091  26.017  23.197  1.00  0.00    -0.013 C 
ATOM     12  C   UNL A   1      31.294  27.083  23.020  1.00  0.00     0.006 C 
ENDBRANCH  10  11
ENDBRANCH   9  10
BRANCH   9  13
ATOM     13  C   UNL A   1      32.749  23.729  24.955  1.00  0.00     0.321 C 
ATOM     14  O   UNL A   1      32.128  24.030  25.983  1.00  0.00    -0.248 OA
BRANCH  13  15
ATOM     15  N   UNL A   1      32.545  22.474  24.423  1.00  0.00    -0.318 N 
ATOM     16  C   UNL A   1      32.518  21.958  23.080  1.00  0.00     0.128 C 
ATOM     17  C   UNL A   1      32.107  21.444  25.337  1.00  0.00     0.186 C 
ATOM     18  C   UNL A   1      32.198  20.470  23.168  1.00  0.00     0.088 C 
ATOM     19  C   UNL A   1      32.151  20.066  24.657  1.00  0.00     0.205 C 
BRANCH  19  20
ATOM     20  N   UNL A   1      33.059  18.928  24.834  1.00  0.00    -0.331 N 
ATOM     21  C   UNL A   1      34.500  18.941  24.918  1.00  0.00     0.262 C 
ATOM     22  C   UNL A   1      32.597  17.890  25.761  1.00  0.00     0.262 C 
ATOM     23  H   UNL A   1      32.946  18.792  23.830  1.00  0.00     0.348 HD
ATOM     24  C   UNL A   1      35.040  17.699  24.210  1.00  0.00     0.062 C 
ATOM     25  C   UNL A   1      32.790  16.593  25.004  1.00  0.00     0.062 C 
ATOM     26  C   UNL A   1      34.176  16.437  24.358  1.00  0.00     0.012 C 
ENDBRANCH  19  20
ENDBRANCH  13  15
ENDBRANCH   9  13
ENDBRANCH   8   9
ENDBRANCH   6   8
ENDBRANCH   5   6
ENDBRANCH   4   5
ENDBRANCH   3   4
ENDBRANCH   2   3
ENDBRANCH   1   2
BRANCH   1  27
ATOM     27  C   UNL A   1      41.586  20.578  26.012  1.00  0.00     0.188 C 
BRANCH  27  28
ATOM     28  O   UNL A   1      42.808  20.195  25.410  1.00  0.00    -0.376 OA
BRANCH  28  29
ATOM     29  C   UNL A   1      43.931  20.995  25.750  1.00  0.00     0.202 C 
BRANCH  29  30
ATOM     30  C   UNL A   1      44.523  22.041  24.738  1.00  0.00     0.261 C 
BRANCH  30  31
ATOM     31  O   UNL A   1      43.840  23.306  24.565  1.00  0.00    -0.460 OA
BRANCH  31  32
ATOM     32  C   UNL A   1      44.532  24.439  24.932  1.00  0.00     0.338 C 
ATOM     33  O   UNL A   1      45.659  24.719  24.597  1.00  0.00    -0.246 OA
BRANCH  32  34
ATOM     34  C   UNL A   1      43.790  25.198  26.005  1.00  0.00     0.060 A 
ATOM     35  C   UNL A   1      42.856  24.607  26.860  1.00  0.00     0.016 A 
ATOM     36  C   UNL A   1      44.052  26.562  26.170  1.00  0.00     0.016 A 
ATOM     37  C   UNL A   1      42.313  25.339  27.955  1.00  0.00     0.010 A 
ATOM     38  C   UNL A   1      43.542  27.280  27.280  1.00  0.00     0.010 A 
ATOM     39  C   UNL A   1      42.688  26.671  28.219  1.00  0.00    -0.014 A 
BRANCH  39  40
ATOM     40  C   UNL A   1      41.977  27.486  29.275  1.00  0.00     0.031 A 
ATOM     41  C   UNL A   1      42.598  27.442  30.644  1.00  0.00     0.074 A 
ATOM     42  C   UNL A   1      40.877  28.266  29.116  1.00  0.00     0.049 A 
ATOM     43  N   UNL A   1      42.311  28.141  31.711  1.00  0.00    -0.248 NA
ATOM     44  C   UNL A   1      43.710  26.493  30.816  1.00  0.00     0.031 C 
ATOM     45  C   UNL A   1      40.141  28.467  27.883  1.00  0.00     0.029 A 
ATOM     46  N   UNL A   1      40.171  29.063  30.004  1.00  0.00    -0.354 N 
ATOM     47  C   UNL A   1      43.245  27.757  32.659  1.00  0.00     0.074 A 
ATOM     48  C   UNL A   1      44.057  26.715  32.071  1.00  0.00     0.031 C 
ATOM     49  C   UNL A   1      39.108  29.305  28.060  1.00  0.00     0.029 A 
ATOM     50  C   UNL A   1      39.091  29.729  29.446  1.00  0.00     0.049 A 
ATOM     51  H   UNL A   1      40.416  29.150  30.954  1.00  0.00     0.167 HD
ATOM     52  C   UNL A   1      43.439  28.237  33.907  1.00  0.00     0.031 A 
ATOM     53  C   UNL A   1      38.191  30.596  29.962  1.00  0.00     0.031 A 
ATOM     54  C   UNL A   1      42.583  29.187  34.551  1.00  0.00     0.049 A 
ATOM     55  C   UNL A   1      38.337  31.002  31.403  1.00  0.00     0.074 A 
ATOM     56  C   UNL A   1      42.655  29.671  35.844  1.00  0.00     0.029 A 
ATOM     57  N   UNL A   1      41.471  29.768  33.963  1.00  0.00    -0.354 N 
ATOM     58  N   UNL A   1      39.275  30.677  32.255  1.00  0.00    -0.248 NA
ATOM     59  C   UNL A   1      37.313  31.908  31.949  1.00  0.00     0.031 C 
ATOM     60  C   UNL A   1      41.546  30.495  36.059  1.00  0.00     0.029 A 
ATOM     61  C   UNL A   1      40.825  30.580  34.878  1.00  0.00     0.049 A 
ATOM     62  H   UNL A   1      41.183  29.625  33.032  1.00  0.00     0.167 HD
ATOM     63  C   UNL A   1      38.977  31.361  33.425  1.00  0.00     0.074 A 
ATOM     64  C   UNL A   1      37.784  32.138  33.166  1.00  0.00     0.031 C 
ATOM     65  C   UNL A   1      39.635  31.345  34.609  1.00  0.00     0.031 A 
BRANCH  52  66
ATOM     66  C   UNL A   1      44.605  27.653  34.647  1.00  0.00    -0.014 A 
ATOM     67  C   UNL A   1      44.425  26.581  35.539  1.00  0.00     0.009 A 
ATOM     68  C   UNL A   1      45.867  28.250  34.538  1.00  0.00     0.009 A 
ATOM     69  C   UNL A   1      45.475  26.162  36.356  1.00  0.00     0.001 A 
ATOM     70  C   UNL A   1      46.923  27.808  35.335  1.00  0.00     0.001 A 
ATOM     71  C   UNL A   1      46.721  26.779  36.255  1.00  0.00     0.000 A 
ENDBRANCH  52  66
BRANCH  53  72
ATOM     72  C   UNL A   1      37.069  31.164  29.144  1.00  0.00    -0.014 A 
ATOM     73  C   UNL A   1      37.077  32.512  28.737  1.00  0.00     0.009 A 
ATOM     74  C   UNL A   1      35.934  30.392  28.847  1.00  0.00     0.009 A 
ATOM     75  C   UNL A   1      35.964  33.079  28.102  1.00  0.00     0.001 A 
ATOM     76  C   UNL A   1      34.834  30.954  28.184  1.00  0.00     0.001 A 
ATOM     77  C   UNL A   1      34.843  32.300  27.827  1.00  0.00     0.000 A 
ENDBRANCH  53  72
BRANCH  65  78
ATOM     78  C   UNL A   1      39.098  32.214  35.709  1.00  0.00    -0.014 A 
ATOM     79  C   UNL A   1      38.172  31.724  36.642  1.00  0.00     0.009 A 
ATOM     80  C   UNL A   1      39.575  33.527  35.846  1.00  0.00     0.009 A 
ATOM     81  C   UNL A   1      37.711  32.544  37.674  1.00  0.00     0.001 A 
ATOM     82  C   UNL A   1      39.141  34.331  36.900  1.00  0.00     0.001 A 
ATOM     83  C   UNL A   1      38.204  33.842  37.807  1.00  0.00     0.000 A 
ENDBRANCH  65  78
ENDBRANCH  39  40
ENDBRANCH  32  34
ENDBRANCH  31  32
ENDBRANCH  30  31
ENDBRANCH  29  30
ENDBRANCH  28  29
ENDBRANCH  27  28
ENDBRANCH   1  27
TORSDOF 23
ENDMDL
MODEL 3
REMARK VINA RESULT:      -9.2      3.706      8.884
REMARK SMILES C=CCN(CC(=O)OCCOCCOCCOC(=O)c1ccc(-c2c3nc(c(-c4ccccc4)c4ccc([nH]4)c(-c4ccccc4)c4nc(c(-c5ccccc5)c5ccc2[nH]5)C=C4)C=C3)cc1)C(=O)N1CC[C@@H]([NH+]2CCCCC2)C1
REMARK SMILES IDX 12 1 11 2 10 3 9 4 8 5 6 6 7 7 5 8 4 9 3 10 2 11 1 12 68 13
REMARK SMILES IDX 69 14 70 15 71 16 80 17 72 18 73 19 74 20 75 21 79 22 76 24
REMARK SMILES IDX 78 25 77 26 13 27 14 28 15 29 16 30 17 31 18 32 19 33 20 34
REMARK SMILES IDX 21 35 67 36 22 37 66 38 23 39 24 40 25 41 60 42 26 43 65 44
REMARK SMILES IDX 59 45 61 46 27 47 64 48 58 49 57 50 28 52 50 53 35 54 49 55
REMARK SMILES IDX 36 56 39 57 48 58 62 59 37 60 38 61 47 63 63 64 40 65 29 66
REMARK SMILES IDX 30 67 34 68 31 69 33 70 32 71 51 72 52 73 56 74 53 75 55 76
REMARK SMILES IDX 54 77 41 78 42 79 46 80 43 81 45 82 44 83
REMARK H PARENT 74 23 61 51 39 62
REMARK Flexibility Score: inf
ROOT
ATOM      1  C   UNL A   1      34.833  31.659  27.893  1.00  0.00     0.188 C 
ENDROOT
BRANCH   1   2
ATOM      2  O   UNL A   1      33.472  31.543  27.540  1.00  0.00    -0.376 OA
BRANCH   2   3
ATOM      3  C   UNL A   1      33.057  30.211  27.237  1.00  0.00     0.202 C 
BRANCH   3   4
ATOM      4  C   UNL A   1      32.159  30.059  25.993  1.00  0.00     0.261 C 
BRANCH   4   5
ATOM      5  O   UNL A   1      32.897  29.655  24.801  1.00  0.00    -0.462 OA
BRANCH   5   6
ATOM      6  C   UNL A   1      32.255  28.769  23.990  1.00  0.00     0.325 C 
ATOM      7  O   UNL A   1      32.583  28.559  22.823  1.00  0.00    -0.250 OA
BRANCH   6   8
ATOM      8  C   UNL A   1      31.027  28.060  24.594  1.00  0.00     0.244 C 
BRANCH   8   9
ATOM      9  N   UNL A   1      30.410  26.878  23.985  1.00  0.00    -0.310 N 
BRANCH   9  10
ATOM     10  C   UNL A   1      29.022  27.051  23.531  1.00  0.00     0.149 C 
BRANCH  10  11
ATOM     11  C   UNL A   1      28.754  28.482  23.142  1.00  0.00    -0.013 C 
ATOM     12  C   UNL A   1      27.522  28.977  22.945  1.00  0.00     0.006 C 
ENDBRANCH  10  11
ENDBRANCH   9  10
BRANCH   9  13
ATOM     13  C   UNL A   1      30.943  25.609  23.855  1.00  0.00     0.321 C 
ATOM     14  O   UNL A   1      30.308  24.725  23.264  1.00  0.00    -0.248 OA
BRANCH  13  15
ATOM     15  N   UNL A   1      32.140  25.259  24.443  1.00  0.00    -0.318 N 
ATOM     16  C   UNL A   1      32.589  25.182  25.808  1.00  0.00     0.128 C 
ATOM     17  C   UNL A   1      33.268  25.070  23.559  1.00  0.00     0.186 C 
ATOM     18  C   UNL A   1      34.054  24.761  25.784  1.00  0.00     0.088 C 
ATOM     19  C   UNL A   1      34.455  24.461  24.324  1.00  0.00     0.205 C 
BRANCH  19  20
ATOM     20  N   UNL A   1      35.035  23.115  24.294  1.00  0.00    -0.331 N 
ATOM     21  C   UNL A   1      34.349  21.848  24.197  1.00  0.00     0.262 C 
ATOM     22  C   UNL A   1      36.274  22.978  23.519  1.00  0.00     0.262 C 
ATOM     23  H   UNL A   1      35.084  23.207  25.308  1.00  0.00     0.348 HD
ATOM     24  C   UNL A   1      35.087  20.827  25.061  1.00  0.00     0.062 C 
ATOM     25  C   UNL A   1      37.218  22.239  24.443  1.00  0.00     0.062 C 
ATOM     26  C   UNL A   1      36.615  20.983  25.092  1.00  0.00     0.012 C 
ENDBRANCH  19  20
ENDBRANCH  13  15
ENDBRANCH   9  13
ENDBRANCH   8   9
ENDBRANCH   6   8
ENDBRANCH   5   6
ENDBRANCH   4   5
ENDBRANCH   3   4
ENDBRANCH   2   3
ENDBRANCH   1   2
BRANCH   1  27
ATOM     27  C   UNL A   1      35.370  33.055  28.254  1.00  0.00     0.188 C 
BRANCH  27  28
ATOM     28  O   UNL A   1      35.112  34.199  27.462  1.00  0.00    -0.376 OA
BRANCH  28  29
ATOM     29  C   UNL A   1      34.369  35.227  28.102  1.00  0.00     0.202 C 
BRANCH  29  30
ATOM     30  C   UNL A   1      33.398  34.909  29.295  1.00  0.00     0.261 C 
BRANCH  30  31
ATOM     31  O   UNL A   1      33.586  35.608  30.550  1.00  0.00    -0.460 OA
BRANCH  31  32
ATOM     32  C   UNL A   1      33.590  34.837  31.692  1.00  0.00     0.338 C 
ATOM     33  O   UNL A   1      32.833  34.955  32.627  1.00  0.00    -0.246 OA
BRANCH  32  34
ATOM     34  C   UNL A   1      34.815  33.958  31.743  1.00  0.00     0.060 A 
ATOM     35  C   UNL A   1      34.765  32.581  31.978  1.00  0.00     0.016 A 
ATOM     36  C   UNL A   1      36.071  34.536  31.533  1.00  0.00     0.016 A 
ATOM     37  C   UNL A   1      35.937  31.782  31.852  1.00  0.00     0.010 A 
ATOM     38  C   UNL A   1      37.230  33.739  31.370  1.00  0.00     0.010 A 
ATOM     39  C   UNL A   1      37.180  32.337  31.491  1.00  0.00    -0.014 A 
BRANCH  39  40
ATOM     40  C   UNL A   1      38.444  31.508  31.529  1.00  0.00     0.031 A 
ATOM     41  C   UNL A   1      39.405  31.855  32.633  1.00  0.00     0.074 A 
ATOM     42  C   UNL A   1      38.784  30.480  30.708  1.00  0.00     0.049 A 
ATOM     43  N   UNL A   1      40.493  31.238  33.013  1.00  0.00    -0.248 NA
ATOM     44  C   UNL A   1      39.072  33.050  33.425  1.00  0.00     0.031 C 
ATOM     45  C   UNL A   1      37.995  29.972  29.603  1.00  0.00     0.029 A 
ATOM     46  N   UNL A   1      39.894  29.650  30.675  1.00  0.00    -0.354 N 
ATOM     47  C   UNL A   1      40.937  31.936  34.123  1.00  0.00     0.074 A 
ATOM     48  C   UNL A   1      40.050  33.063  34.311  1.00  0.00     0.031 C 
ATOM     49  C   UNL A   1      38.608  28.943  28.997  1.00  0.00     0.029 A 
ATOM     50  C   UNL A   1      39.865  28.691  29.675  1.00  0.00     0.049 A 
ATOM     51  H   UNL A   1      40.641  29.734  31.310  1.00  0.00     0.167 HD
ATOM     52  C   UNL A   1      41.978  31.664  34.942  1.00  0.00     0.031 A 
ATOM     53  C   UNL A   1      40.724  27.705  29.335  1.00  0.00     0.031 A 
ATOM     54  C   UNL A   1      42.935  30.622  34.715  1.00  0.00     0.049 A 
ATOM     55  C   UNL A   1      41.959  27.515  30.173  1.00  0.00     0.074 A 
ATOM     56  C   UNL A   1      44.069  30.322  35.446  1.00  0.00     0.029 A 
ATOM     57  N   UNL A   1      42.892  29.734  33.652  1.00  0.00    -0.354 N 
ATOM     58  N   UNL A   1      42.316  28.146  31.263  1.00  0.00    -0.248 NA
ATOM     59  C   UNL A   1      42.900  26.466  29.748  1.00  0.00     0.031 C 
ATOM     60  C   UNL A   1      44.749  29.294  34.787  1.00  0.00     0.029 A 
ATOM     61  C   UNL A   1      44.000  28.906  33.686  1.00  0.00     0.049 A 
ATOM     62  H   UNL A   1      42.179  29.697  32.974  1.00  0.00     0.167 HD
ATOM     63  C   UNL A   1      43.501  27.553  31.672  1.00  0.00     0.074 A 
ATOM     64  C   UNL A   1      43.791  26.495  30.729  1.00  0.00     0.031 C 
ATOM     65  C   UNL A   1      44.279  27.859  32.738  1.00  0.00     0.031 A 
BRANCH  52  66
ATOM     66  C   UNL A   1      42.133  32.585  36.113  1.00  0.00    -0.014 A 
ATOM     67  C   UNL A   1      42.936  33.736  36.021  1.00  0.00     0.009 A 
ATOM     68  C   UNL A   1      41.568  32.241  37.348  1.00  0.00     0.009 A 
ATOM     69  C   UNL A   1      43.221  34.487  37.160  1.00  0.00     0.001 A 
ATOM     70  C   UNL A   1      41.831  33.013  38.479  1.00  0.00     0.001 A 
ATOM     71  C   UNL A   1      42.671  34.123  38.388  1.00  0.00     0.000 A 
ENDBRANCH  52  66
BRANCH  53  72
ATOM     72  C   UNL A   1      40.479  26.800  28.164  1.00  0.00    -0.014 A 
ATOM     73  C   UNL A   1      39.713  25.627  28.300  1.00  0.00     0.009 A 
ATOM     74  C   UNL A   1      41.092  27.047  26.924  1.00  0.00     0.009 A 
ATOM     75  C   UNL A   1      39.608  24.708  27.247  1.00  0.00     0.001 A 
ATOM     76  C   UNL A   1      40.960  26.142  25.863  1.00  0.00     0.001 A 
ATOM     77  C   UNL A   1      40.231  24.966  26.030  1.00  0.00     0.000 A 
ENDBRANCH  53  72
BRANCH  65  78
ATOM     78  C   UNL A   1      45.507  27.024  32.959  1.00  0.00    -0.014 A 
ATOM     79  C   UNL A   1      45.461  25.840  33.710  1.00  0.00     0.009 A 
ATOM     80  C   UNL A   1      46.716  27.400  32.352  1.00  0.00     0.009 A 
ATOM     81  C   UNL A   1      46.611  25.065  33.874  1.00  0.00     0.001 A 
ATOM     82  C   UNL A   1      47.853  26.604  32.487  1.00  0.00     0.001 A 
ATOM     83  C   UNL A   1      47.802  25.443  33.255  1.00  0.00     0.000 A 
ENDBRANCH  65  78
ENDBRANCH  39  40
ENDBRANCH  32  34
ENDBRANCH  31  32
ENDBRANCH  30  31
ENDBRANCH  29  30
ENDBRANCH  28  29
ENDBRANCH  27  28
ENDBRANCH   1  27
TORSDOF 23
ENDMDL
