MODEL 1
REMARK VINA RESULT:     -11.1      0.000      0.000
REMARK SMILES O=C(OCCOCCOCCOC(=O)[C@H]1Cc2c([nH]c3ccccc23)[C@H](c2ccc(Cl)cc2)[NH2+]1)c1ccc(-c2c3nc(c(-c4ccccc4)c4ccc([nH]4)c(-c4ccccc4)c4nc(c(-c5ccccc5)c5ccc2[nH]5)C=C4)C=C3)cc1
REMARK SMILES IDX 7 1 6 2 5 3 4 4 3 5 2 6 1 7 35 8 36 9 82 10 37 11 81 12
REMARK SMILES IDX 38 13 39 14 40 15 75 16 41 17 80 18 74 19 76 20 42 21 79 22
REMARK SMILES IDX 73 23 72 24 43 26 65 27 50 28 64 29 51 30 54 31 63 32 77 33
REMARK SMILES IDX 52 34 53 35 62 37 78 38 55 39 44 40 45 41 49 42 46 43 48 44
REMARK SMILES IDX 47 45 66 46 67 47 71 48 68 49 70 50 69 51 56 52 57 53 61 54
REMARK SMILES IDX 58 55 60 56 59 57 8 58 9 59 10 60 11 61 12 62 13 63 14 64
REMARK SMILES IDX 15 65 16 66 34 67 17 68 26 69 18 72 25 73 19 74 20 75 24 76
REMARK SMILES IDX 21 78 23 79 22 80 27 81 28 82 33 83 29 84 32 85 30 86 31 87
REMARK H PARENT 76 25 54 36 34 70 34 71 19 77
REMARK Flexibility Score: inf
ROOT
ATOM      1  C   UNL A   1      34.308  34.422  30.516  1.00  0.00     0.188 C 
ENDROOT
BRANCH   1   2
ATOM      2  O   UNL A   1      34.045  33.330  31.404  1.00  0.00    -0.376 OA
BRANCH   2   3
ATOM      3  C   UNL A   1      33.989  33.721  32.781  1.00  0.00     0.202 C 
BRANCH   3   4
ATOM      4  C   UNL A   1      35.332  33.673  33.532  1.00  0.00     0.261 C 
BRANCH   4   5
ATOM      5  O   UNL A   1      35.812  32.340  33.783  1.00  0.00    -0.460 OA
BRANCH   5   6
ATOM      6  C   UNL A   1      37.066  31.926  34.104  1.00  0.00     0.338 C 
ATOM      7  O   UNL A   1      37.450  32.079  35.262  1.00  0.00    -0.246 OA
BRANCH   6   8
ATOM      8  C   UNL A   1      38.009  31.284  33.133  1.00  0.00     0.060 A 
ATOM      9  C   UNL A   1      39.187  30.627  33.481  1.00  0.00     0.016 A 
ATOM     10  C   UNL A   1      37.670  31.320  31.770  1.00  0.00     0.016 A 
ATOM     11  C   UNL A   1      40.071  30.145  32.529  1.00  0.00     0.010 A 
ATOM     12  C   UNL A   1      38.521  30.770  30.801  1.00  0.00     0.010 A 
ATOM     13  C   UNL A   1      39.753  30.219  31.182  1.00  0.00    -0.014 A 
BRANCH  13  14
ATOM     14  C   UNL A   1      40.795  29.866  30.196  1.00  0.00     0.031 A 
ATOM     15  C   UNL A   1      40.724  28.521  29.545  1.00  0.00     0.074 A 
ATOM     16  C   UNL A   1      41.688  30.773  29.758  1.00  0.00     0.049 A 
ATOM     17  N   UNL A   1      41.552  27.978  28.696  1.00  0.00    -0.248 NA
ATOM     18  C   UNL A   1      39.525  27.714  29.830  1.00  0.00     0.031 C 
ATOM     19  C   UNL A   1      41.686  32.192  30.087  1.00  0.00     0.029 A 
ATOM     20  N   UNL A   1      42.788  30.632  28.951  1.00  0.00    -0.354 N 
ATOM     21  C   UNL A   1      40.951  26.790  28.307  1.00  0.00     0.074 A 
ATOM     22  C   UNL A   1      39.728  26.654  29.065  1.00  0.00     0.031 C 
ATOM     23  C   UNL A   1      42.793  32.771  29.592  1.00  0.00     0.029 A 
ATOM     24  C   UNL A   1      43.589  31.751  28.944  1.00  0.00     0.049 A 
ATOM     25  H   UNL A   1      42.984  29.818  28.433  1.00  0.00     0.167 HD
ATOM     26  C   UNL A   1      41.371  25.916  27.367  1.00  0.00     0.031 A 
ATOM     27  C   UNL A   1      44.853  31.905  28.523  1.00  0.00     0.031 A 
ATOM     28  C   UNL A   1      42.610  26.058  26.655  1.00  0.00     0.049 A 
ATOM     29  C   UNL A   1      45.473  30.772  27.775  1.00  0.00     0.074 A 
ATOM     30  C   UNL A   1      43.170  25.220  25.711  1.00  0.00     0.029 A 
ATOM     31  N   UNL A   1      43.496  27.113  26.834  1.00  0.00    -0.354 N 
ATOM     32  N   UNL A   1      44.947  29.612  27.472  1.00  0.00    -0.248 NA
ATOM     33  C   UNL A   1      46.825  30.993  27.253  1.00  0.00     0.031 C 
ATOM     34  C   UNL A   1      44.427  25.731  25.370  1.00  0.00     0.029 A 
ATOM     35  C   UNL A   1      44.621  26.924  26.051  1.00  0.00     0.049 A 
ATOM     36  H   UNL A   1      43.346  27.883  27.429  1.00  0.00     0.167 HD
ATOM     37  C   UNL A   1      45.868  28.992  26.648  1.00  0.00     0.074 A 
ATOM     38  C   UNL A   1      47.005  29.889  26.543  1.00  0.00     0.031 C 
ATOM     39  C   UNL A   1      45.752  27.814  25.991  1.00  0.00     0.031 A 
BRANCH  26  40
ATOM     40  C   UNL A   1      40.499  24.721  27.121  1.00  0.00    -0.014 A 
ATOM     41  C   UNL A   1      40.890  23.433  27.524  1.00  0.00     0.009 A 
ATOM     42  C   UNL A   1      39.286  24.881  26.437  1.00  0.00     0.009 A 
ATOM     43  C   UNL A   1      40.101  22.324  27.208  1.00  0.00     0.001 A 
ATOM     44  C   UNL A   1      38.487  23.775  26.146  1.00  0.00     0.001 A 
ATOM     45  C   UNL A   1      38.900  22.498  26.521  1.00  0.00     0.000 A 
ENDBRANCH  26  40
BRANCH  27  46
ATOM     46  C   UNL A   1      45.636  33.125  28.830  1.00  0.00    -0.014 A 
ATOM     47  C   UNL A   1      46.391  33.231  30.003  1.00  0.00     0.009 A 
ATOM     48  C   UNL A   1      45.545  34.235  27.973  1.00  0.00     0.009 A 
ATOM     49  C   UNL A   1      47.022  34.437  30.328  1.00  0.00     0.001 A 
ATOM     50  C   UNL A   1      46.169  35.439  28.305  1.00  0.00     0.001 A 
ATOM     51  C   UNL A   1      46.905  35.540  29.483  1.00  0.00     0.000 A 
ENDBRANCH  27  46
BRANCH  39  52
ATOM     52  C   UNL A   1      46.866  27.472  25.053  1.00  0.00    -0.014 A 
ATOM     53  C   UNL A   1      46.906  27.974  23.745  1.00  0.00     0.009 A 
ATOM     54  C   UNL A   1      47.894  26.628  25.501  1.00  0.00     0.009 A 
ATOM     55  C   UNL A   1      47.942  27.605  22.888  1.00  0.00     0.001 A 
ATOM     56  C   UNL A   1      48.947  26.291  24.653  1.00  0.00     0.001 A 
ATOM     57  C   UNL A   1      48.963  26.771  23.345  1.00  0.00     0.000 A 
ENDBRANCH  39  52
ENDBRANCH  13  14
ENDBRANCH   6   8
ENDBRANCH   5   6
ENDBRANCH   4   5
ENDBRANCH   3   4
ENDBRANCH   2   3
ENDBRANCH   1   2
BRANCH   1  58
ATOM     58  C   UNL A   1      35.585  34.238  29.697  1.00  0.00     0.188 C 
BRANCH  58  59
ATOM     59  O   UNL A   1      35.433  33.861  28.333  1.00  0.00    -0.376 OA
BRANCH  59  60
ATOM     60  C   UNL A   1      35.713  32.508  27.995  1.00  0.00     0.202 C 
BRANCH  60  61
ATOM     61  C   UNL A   1      34.773  31.414  28.526  1.00  0.00     0.261 C 
BRANCH  61  62
ATOM     62  O   UNL A   1      33.746  30.949  27.631  1.00  0.00    -0.459 OA
BRANCH  62  63
ATOM     63  C   UNL A   1      33.957  29.707  27.110  1.00  0.00     0.365 C 
ATOM     64  O   UNL A   1      34.850  28.946  27.485  1.00  0.00    -0.245 OA
BRANCH  63  65
ATOM     65  C   UNL A   1      33.033  29.345  25.949  1.00  0.00     0.298 C 
ATOM     66  C   UNL A   1      31.963  30.412  25.603  1.00  0.00     0.115 C 
ATOM     67  N   UNL A   1      33.806  28.961  24.730  1.00  0.00    -0.323 N 
ATOM     68  C   UNL A   1      31.187  29.943  24.403  1.00  0.00    -0.006 A 
ATOM     69  C   UNL A   1      32.955  28.156  23.825  1.00  0.00     0.262 C 
ATOM     70  H   UNL A   1      34.621  28.413  25.005  1.00  0.00     0.347 HD
ATOM     71  H   UNL A   1      34.105  29.806  24.243  1.00  0.00     0.347 HD
ATOM     72  C   UNL A   1      31.685  28.921  23.610  1.00  0.00     0.083 A 
ATOM     73  C   UNL A   1      29.936  30.337  23.844  1.00  0.00     0.003 A 
ATOM     74  N   UNL A   1      30.883  28.818  22.508  1.00  0.00    -0.353 N 
ATOM     75  C   UNL A   1      29.758  29.586  22.677  1.00  0.00     0.046 A 
ATOM     76  C   UNL A   1      28.926  31.250  24.204  1.00  0.00     0.010 A 
ATOM     77  H   UNL A   1      31.083  28.274  21.712  1.00  0.00     0.166 HD
ATOM     78  C   UNL A   1      28.613  29.675  21.874  1.00  0.00     0.026 A 
ATOM     79  C   UNL A   1      27.765  31.338  23.421  1.00  0.00     0.001 A 
ATOM     80  C   UNL A   1      27.610  30.556  22.278  1.00  0.00     0.002 A 
BRANCH  69  81
ATOM     81  C   UNL A   1      32.813  26.680  24.221  1.00  0.00     0.016 A 
ATOM     82  C   UNL A   1      33.957  25.894  24.456  1.00  0.00     0.012 A 
ATOM     83  C   UNL A   1      31.563  26.096  24.514  1.00  0.00     0.012 A 
ATOM     84  C   UNL A   1      33.857  24.587  24.942  1.00  0.00     0.021 A 
ATOM     85  C   UNL A   1      31.460  24.794  25.011  1.00  0.00     0.021 A 
ATOM     86  C   UNL A   1      32.610  24.047  25.229  1.00  0.00     0.041 A 
ATOM     87  Cl  UNL A   1      32.491  22.465  25.888  1.00  0.00    -0.084 Cl
ENDBRANCH  69  81
ENDBRANCH  63  65
ENDBRANCH  62  63
ENDBRANCH  61  62
ENDBRANCH  60  61
ENDBRANCH  59  60
ENDBRANCH  58  59
ENDBRANCH   1  58
TORSDOF 18
ENDMDL
MODEL 2
REMARK VINA RESULT:     -11.0      3.533      8.366
REMARK SMILES O=C(OCCOCCOCCOC(=O)[C@H]1Cc2c([nH]c3ccccc23)[C@H](c2ccc(Cl)cc2)[NH2+]1)c1ccc(-c2c3nc(c(-c4ccccc4)c4ccc([nH]4)c(-c4ccccc4)c4nc(c(-c5ccccc5)c5ccc2[nH]5)C=C4)C=C3)cc1
REMARK SMILES IDX 7 1 6 2 5 3 4 4 3 5 2 6 1 7 35 8 36 9 82 10 37 11 81 12
REMARK SMILES IDX 38 13 39 14 40 15 75 16 41 17 80 18 74 19 76 20 42 21 79 22
REMARK SMILES IDX 73 23 72 24 43 26 65 27 50 28 64 29 51 30 54 31 63 32 77 33
REMARK SMILES IDX 52 34 53 35 62 37 78 38 55 39 44 40 45 41 49 42 46 43 48 44
REMARK SMILES IDX 47 45 66 46 67 47 71 48 68 49 70 50 69 51 56 52 57 53 61 54
REMARK SMILES IDX 58 55 60 56 59 57 8 58 9 59 10 60 11 61 12 62 13 63 14 64
REMARK SMILES IDX 15 65 16 66 34 67 17 68 26 69 18 72 25 73 19 74 20 75 24 76
REMARK SMILES IDX 21 78 23 79 22 80 27 81 28 82 33 83 29 84 32 85 30 86 31 87
REMARK H PARENT 76 25 54 36 34 70 34 71 19 77
REMARK Flexibility Score: inf
ROOT
ATOM      1  C   UNL A   1      35.254  19.376  24.976  1.00  0.00     0.188 C 
ENDROOT
BRANCH   1   2
ATOM      2  O   UNL A   1      36.531  20.014  25.074  1.00  0.00    -0.376 OA
BRANCH   2   3
ATOM      3  C   UNL A   1      37.627  19.091  25.062  1.00  0.00     0.202 C 
BRANCH   3   4
ATOM      4  C   UNL A   1      39.025  19.730  25.147  1.00  0.00     0.261 C 
BRANCH   4   5
ATOM      5  O   UNL A   1      39.551  19.806  26.484  1.00  0.00    -0.460 OA
BRANCH   5   6
ATOM      6  C   UNL A   1      40.719  20.347  26.918  1.00  0.00     0.338 C 
ATOM      7  O   UNL A   1      41.690  19.603  27.051  1.00  0.00    -0.246 OA
BRANCH   6   8
ATOM      8  C   UNL A   1      40.902  21.798  27.237  1.00  0.00     0.060 A 
ATOM      9  C   UNL A   1      40.212  22.843  26.626  1.00  0.00     0.016 A 
ATOM     10  C   UNL A   1      41.817  22.136  28.248  1.00  0.00     0.016 A 
ATOM     11  C   UNL A   1      40.501  24.172  26.890  1.00  0.00     0.010 A 
ATOM     12  C   UNL A   1      42.065  23.476  28.578  1.00  0.00     0.010 A 
ATOM     13  C   UNL A   1      41.436  24.502  27.860  1.00  0.00    -0.014 A 
BRANCH  13  14
ATOM     14  C   UNL A   1      41.848  25.915  27.982  1.00  0.00     0.031 A 
ATOM     15  C   UNL A   1      43.185  26.310  27.438  1.00  0.00     0.074 A 
ATOM     16  C   UNL A   1      40.996  26.865  28.408  1.00  0.00     0.049 A 
ATOM     17  N   UNL A   1      43.774  27.473  27.479  1.00  0.00    -0.248 NA
ATOM     18  C   UNL A   1      43.919  25.279  26.684  1.00  0.00     0.031 C 
ATOM     19  C   UNL A   1      39.579  26.668  28.690  1.00  0.00     0.029 A 
ATOM     20  N   UNL A   1      41.200  28.189  28.701  1.00  0.00    -0.354 N 
ATOM     21  C   UNL A   1      44.923  27.327  26.716  1.00  0.00     0.074 A 
ATOM     22  C   UNL A   1      44.988  25.949  26.286  1.00  0.00     0.031 C 
ATOM     23  C   UNL A   1      39.066  27.789  29.226  1.00  0.00     0.029 A 
ATOM     24  C   UNL A   1      40.131  28.761  29.352  1.00  0.00     0.049 A 
ATOM     25  H   UNL A   1      42.022  28.678  28.471  1.00  0.00     0.167 HD
ATOM     26  C   UNL A   1      45.819  28.280  26.374  1.00  0.00     0.031 A 
ATOM     27  C   UNL A   1      40.052  29.913  30.035  1.00  0.00     0.031 A 
ATOM     28  C   UNL A   1      45.749  29.634  26.847  1.00  0.00     0.049 A 
ATOM     29  C   UNL A   1      41.218  30.841  29.958  1.00  0.00     0.074 A 
ATOM     30  C   UNL A   1      46.618  30.682  26.610  1.00  0.00     0.029 A 
ATOM     31  N   UNL A   1      44.750  30.119  27.681  1.00  0.00    -0.354 N 
ATOM     32  N   UNL A   1      42.344  30.682  29.309  1.00  0.00    -0.248 NA
ATOM     33  C   UNL A   1      41.076  32.129  30.643  1.00  0.00     0.031 C 
ATOM     34  C   UNL A   1      46.181  31.781  27.357  1.00  0.00     0.029 A 
ATOM     35  C   UNL A   1      45.004  31.439  28.005  1.00  0.00     0.049 A 
ATOM     36  H   UNL A   1      43.974  29.600  27.994  1.00  0.00     0.167 HD
ATOM     37  C   UNL A   1      43.016  31.883  29.433  1.00  0.00     0.074 A 
ATOM     38  C   UNL A   1      42.188  32.741  30.262  1.00  0.00     0.031 C 
ATOM     39  C   UNL A   1      44.183  32.259  28.859  1.00  0.00     0.031 A 
BRANCH  26  40
ATOM     40  C   UNL A   1      46.959  27.849  25.501  1.00  0.00    -0.014 A 
ATOM     41  C   UNL A   1      46.862  27.883  24.099  1.00  0.00     0.009 A 
ATOM     42  C   UNL A   1      48.134  27.360  26.090  1.00  0.00     0.009 A 
ATOM     43  C   UNL A   1      47.905  27.396  23.307  1.00  0.00     0.001 A 
ATOM     44  C   UNL A   1      49.184  26.899  25.296  1.00  0.00     0.001 A 
ATOM     45  C   UNL A   1      49.064  26.906  23.907  1.00  0.00     0.000 A 
ENDBRANCH  26  40
BRANCH  27  46
ATOM     46  C   UNL A   1      38.881  30.240  30.882  1.00  0.00    -0.014 A 
ATOM     47  C   UNL A   1      38.773  29.761  32.193  1.00  0.00     0.009 A 
ATOM     48  C   UNL A   1      37.814  30.968  30.331  1.00  0.00     0.009 A 
ATOM     49  C   UNL A   1      37.604  29.982  32.929  1.00  0.00     0.001 A 
ATOM     50  C   UNL A   1      36.646  31.178  31.066  1.00  0.00     0.001 A 
ATOM     51  C   UNL A   1      36.541  30.684  32.364  1.00  0.00     0.000 A 
ENDBRANCH  27  46
BRANCH  39  52
ATOM     52  C   UNL A   1      44.588  33.684  29.067  1.00  0.00    -0.014 A 
ATOM     53  C   UNL A   1      45.424  34.063  30.126  1.00  0.00     0.009 A 
ATOM     54  C   UNL A   1      44.117  34.661  28.175  1.00  0.00     0.009 A 
ATOM     55  C   UNL A   1      45.752  35.406  30.309  1.00  0.00     0.001 A 
ATOM     56  C   UNL A   1      44.477  35.996  28.340  1.00  0.00     0.001 A 
ATOM     57  C   UNL A   1      45.285  36.368  29.413  1.00  0.00     0.000 A 
ENDBRANCH  39  52
ENDBRANCH  13  14
ENDBRANCH   6   8
ENDBRANCH   5   6
ENDBRANCH   4   5
ENDBRANCH   3   4
ENDBRANCH   2   3
ENDBRANCH   1   2
BRANCH   1  58
ATOM     58  C   UNL A   1      34.084  20.328  25.223  1.00  0.00     0.188 C 
BRANCH  58  59
ATOM     59  O   UNL A   1      33.197  20.564  24.135  1.00  0.00    -0.376 OA
BRANCH  59  60
ATOM     60  C   UNL A   1      32.190  21.551  24.316  1.00  0.00     0.202 C 
BRANCH  60  61
ATOM     61  C   UNL A   1      31.892  22.036  25.743  1.00  0.00     0.261 C 
BRANCH  61  62
ATOM     62  O   UNL A   1      30.509  22.070  26.142  1.00  0.00    -0.459 OA
BRANCH  62  63
ATOM     63  C   UNL A   1      30.095  23.254  26.677  1.00  0.00     0.365 C 
ATOM     64  O   UNL A   1      29.325  23.346  27.634  1.00  0.00    -0.245 OA
BRANCH  63  65
ATOM     65  C   UNL A   1      30.606  24.491  25.940  1.00  0.00     0.298 C 
ATOM     66  C   UNL A   1      29.504  25.456  25.433  1.00  0.00     0.115 C 
ATOM     67  N   UNL A   1      31.624  25.230  26.745  1.00  0.00    -0.323 N 
ATOM     68  C   UNL A   1      30.166  26.649  24.798  1.00  0.00    -0.006 A 
ATOM     69  C   UNL A   1      32.448  26.082  25.858  1.00  0.00     0.262 C 
ATOM     70  H   UNL A   1      32.225  24.561  27.226  1.00  0.00     0.347 HD
ATOM     71  H   UNL A   1      31.147  25.820  27.426  1.00  0.00     0.347 HD
ATOM     72  C   UNL A   1      31.507  26.906  25.032  1.00  0.00     0.083 A 
ATOM     73  C   UNL A   1      29.689  27.668  23.922  1.00  0.00     0.003 A 
ATOM     74  N   UNL A   1      31.801  28.125  24.490  1.00  0.00    -0.353 N 
ATOM     75  C   UNL A   1      30.750  28.557  23.718  1.00  0.00     0.046 A 
ATOM     76  C   UNL A   1      28.469  27.933  23.270  1.00  0.00     0.010 A 
ATOM     77  H   UNL A   1      32.641  28.619  24.630  1.00  0.00     0.166 HD
ATOM     78  C   UNL A   1      30.667  29.673  22.875  1.00  0.00     0.026 A 
ATOM     79  C   UNL A   1      28.374  29.036  22.409  1.00  0.00     0.001 A 
ATOM     80  C   UNL A   1      29.460  29.887  22.209  1.00  0.00     0.002 A 
BRANCH  69  81
ATOM     81  C   UNL A   1      33.559  25.339  25.104  1.00  0.00     0.016 A 
ATOM     82  C   UNL A   1      34.646  24.785  25.806  1.00  0.00     0.012 A 
ATOM     83  C   UNL A   1      33.468  25.045  23.727  1.00  0.00     0.012 A 
ATOM     84  C   UNL A   1      35.603  23.994  25.162  1.00  0.00     0.021 A 
ATOM     85  C   UNL A   1      34.416  24.246  23.084  1.00  0.00     0.021 A 
ATOM     86  C   UNL A   1      35.477  23.718  23.807  1.00  0.00     0.041 A 
ATOM     87  Cl  UNL A   1      36.617  22.693  23.032  1.00  0.00    -0.084 Cl
ENDBRANCH  69  81
ENDBRANCH  63  65
ENDBRANCH  62  63
ENDBRANCH  61  62
ENDBRANCH  60  61
ENDBRANCH  59  60
ENDBRANCH  58  59
ENDBRANCH   1  58
TORSDOF 18
ENDMDL
MODEL 3
REMARK VINA RESULT:     -10.9      3.033      8.124
REMARK SMILES O=C(OCCOCCOCCOC(=O)[C@H]1Cc2c([nH]c3ccccc23)[C@H](c2ccc(Cl)cc2)[NH2+]1)c1ccc(-c2c3nc(c(-c4ccccc4)c4ccc([nH]4)c(-c4ccccc4)c4nc(c(-c5ccccc5)c5ccc2[nH]5)C=C4)C=C3)cc1
REMARK SMILES IDX 7 1 6 2 5 3 4 4 3 5 2 6 1 7 35 8 36 9 82 10 37 11 81 12
REMARK SMILES IDX 38 13 39 14 40 15 75 16 41 17 80 18 74 19 76 20 42 21 79 22
REMARK SMILES IDX 73 23 72 24 43 26 65 27 50 28 64 29 51 30 54 31 63 32 77 33
REMARK SMILES IDX 52 34 53 35 62 37 78 38 55 39 44 40 45 41 49 42 46 43 48 44
REMARK SMILES IDX 47 45 66 46 67 47 71 48 68 49 70 50 69 51 56 52 57 53 61 54
REMARK SMILES IDX 58 55 60 56 59 57 8 58 9 59 10 60 11 61 12 62 13 63 14 64
REMARK SMILES IDX 15 65 16 66 34 67 17 68 26 69 18 72 25 73 19 74 20 75 24 76
REMARK SMILES IDX 21 78 23 79 22 80 27 81 28 82 33 83 29 84 32 85 30 86 31 87
REMARK H PARENT 76 25 54 36 34 70 34 71 19 77
REMARK Flexibility Score: inf
ROOT
ATOM      1  C   UNL A   1      35.320  21.974  24.497  1.00  0.00     0.188 C 
ENDROOT
BRANCH   1   2
ATOM      2  O   UNL A   1      35.852  21.068  25.470  1.00  0.00    -0.376 OA
BRANCH   2   3
ATOM      3  C   UNL A   1      36.941  20.280  24.973  1.00  0.00     0.202 C 
BRANCH   3   4
ATOM      4  C   UNL A   1      38.345  20.786  25.352  1.00  0.00     0.261 C 
BRANCH   4   5
ATOM      5  O   UNL A   1      39.299  19.735  25.585  1.00  0.00    -0.460 OA
BRANCH   5   6
ATOM      6  C   UNL A   1      40.589  19.825  26.001  1.00  0.00     0.338 C 
ATOM      7  O   UNL A   1      41.306  18.831  25.892  1.00  0.00    -0.246 OA
BRANCH   6   8
ATOM      8  C   UNL A   1      41.198  21.066  26.579  1.00  0.00     0.060 A 
ATOM      9  C   UNL A   1      41.108  21.452  27.914  1.00  0.00     0.016 A 
ATOM     10  C   UNL A   1      41.942  21.891  25.719  1.00  0.00     0.016 A 
ATOM     11  C   UNL A   1      41.603  22.664  28.365  1.00  0.00     0.010 A 
ATOM     12  C   UNL A   1      42.512  23.085  26.181  1.00  0.00     0.010 A 
ATOM     13  C   UNL A   1      42.301  23.497  27.504  1.00  0.00    -0.014 A 
BRANCH  13  14
ATOM     14  C   UNL A   1      42.650  24.854  27.971  1.00  0.00     0.031 A 
ATOM     15  C   UNL A   1      44.082  25.144  28.292  1.00  0.00     0.074 A 
ATOM     16  C   UNL A   1      41.755  25.858  27.953  1.00  0.00     0.049 A 
ATOM     17  N   UNL A   1      44.610  26.239  28.764  1.00  0.00    -0.248 NA
ATOM     18  C   UNL A   1      45.057  24.088  27.966  1.00  0.00     0.031 C 
ATOM     19  C   UNL A   1      40.412  25.787  27.390  1.00  0.00     0.029 A 
ATOM     20  N   UNL A   1      41.831  27.139  28.439  1.00  0.00    -0.354 N 
ATOM     21  C   UNL A   1      45.979  26.023  28.745  1.00  0.00     0.074 A 
ATOM     22  C   UNL A   1      46.200  24.671  28.288  1.00  0.00     0.031 C 
ATOM     23  C   UNL A   1      39.747  26.922  27.666  1.00  0.00     0.029 A 
ATOM     24  C   UNL A   1      40.612  27.777  28.450  1.00  0.00     0.049 A 
ATOM     25  H   UNL A   1      42.667  27.555  28.747  1.00  0.00     0.167 HD
ATOM     26  C   UNL A   1      46.963  26.900  29.047  1.00  0.00     0.031 A 
ATOM     27  C   UNL A   1      40.228  28.892  29.089  1.00  0.00     0.031 A 
ATOM     28  C   UNL A   1      46.713  28.228  29.536  1.00  0.00     0.049 A 
ATOM     29  C   UNL A   1      41.287  29.705  29.756  1.00  0.00     0.074 A 
ATOM     30  C   UNL A   1      47.620  29.196  29.919  1.00  0.00     0.029 A 
ATOM     31  N   UNL A   1      45.446  28.762  29.729  1.00  0.00    -0.354 N 
ATOM     32  N   UNL A   1      42.573  29.470  29.818  1.00  0.00    -0.248 NA
ATOM     33  C   UNL A   1      40.856  30.961  30.375  1.00  0.00     0.031 C 
ATOM     34  C   UNL A   1      46.901  30.291  30.409  1.00  0.00     0.029 A 
ATOM     35  C   UNL A   1      45.546  30.032  30.269  1.00  0.00     0.049 A 
ATOM     36  H   UNL A   1      44.600  28.306  29.512  1.00  0.00     0.167 HD
ATOM     37  C   UNL A   1      43.126  30.592  30.408  1.00  0.00     0.074 A 
ATOM     38  C   UNL A   1      42.023  31.481  30.729  1.00  0.00     0.031 C 
ATOM     39  C   UNL A   1      44.433  30.881  30.609  1.00  0.00     0.031 A 
BRANCH  26  40
ATOM     40  C   UNL A   1      48.371  26.407  28.904  1.00  0.00    -0.014 A 
ATOM     41  C   UNL A   1      49.030  25.752  29.958  1.00  0.00     0.009 A 
ATOM     42  C   UNL A   1      49.066  26.641  27.709  1.00  0.00     0.009 A 
ATOM     43  C   UNL A   1      50.370  25.377  29.830  1.00  0.00     0.001 A 
ATOM     44  C   UNL A   1      50.396  26.243  27.574  1.00  0.00     0.001 A 
ATOM     45  C   UNL A   1      51.050  25.623  28.638  1.00  0.00     0.000 A 
ENDBRANCH  26  40
BRANCH  27  46
ATOM     46  C   UNL A   1      38.802  29.287  29.183  1.00  0.00    -0.014 A 
ATOM     47  C   UNL A   1      38.220  30.147  28.245  1.00  0.00     0.009 A 
ATOM     48  C   UNL A   1      38.044  28.866  30.288  1.00  0.00     0.009 A 
ATOM     49  C   UNL A   1      36.909  30.601  28.426  1.00  0.00     0.001 A 
ATOM     50  C   UNL A   1      36.738  29.328  30.468  1.00  0.00     0.001 A 
ATOM     51  C   UNL A   1      36.172  30.196  29.537  1.00  0.00     0.000 A 
ENDBRANCH  27  46
BRANCH  39  52
ATOM     52  C   UNL A   1      44.729  32.247  31.145  1.00  0.00    -0.014 A 
ATOM     53  C   UNL A   1      44.890  33.350  30.297  1.00  0.00     0.009 A 
ATOM     54  C   UNL A   1      44.845  32.419  32.534  1.00  0.00     0.009 A 
ATOM     55  C   UNL A   1      45.201  34.600  30.831  1.00  0.00     0.001 A 
ATOM     56  C   UNL A   1      45.119  33.677  33.065  1.00  0.00     0.001 A 
ATOM     57  C   UNL A   1      45.307  34.763  32.212  1.00  0.00     0.000 A 
ENDBRANCH  39  52
ENDBRANCH  13  14
ENDBRANCH   6   8
ENDBRANCH   5   6
ENDBRANCH   4   5
ENDBRANCH   3   4
ENDBRANCH   2   3
ENDBRANCH   1   2
BRANCH   1  58
ATOM     58  C   UNL A   1      35.424  23.439  24.918  1.00  0.00     0.188 C 
BRANCH  58  59
ATOM     59  O   UNL A   1      34.250  24.050  25.440  1.00  0.00    -0.376 OA
BRANCH  59  60
ATOM     60  C   UNL A   1      34.261  25.464  25.591  1.00  0.00     0.202 C 
BRANCH  60  61
ATOM     61  C   UNL A   1      33.061  26.134  26.280  1.00  0.00     0.261 C 
BRANCH  61  62
ATOM     62  O   UNL A   1      33.332  27.324  27.044  1.00  0.00    -0.459 OA
BRANCH  62  63
ATOM     63  C   UNL A   1      33.512  28.453  26.302  1.00  0.00     0.365 C 
ATOM     64  O   UNL A   1      34.287  29.361  26.606  1.00  0.00    -0.245 OA
BRANCH  63  65
ATOM     65  C   UNL A   1      32.606  28.553  25.076  1.00  0.00     0.298 C 
ATOM     66  C   UNL A   1      31.629  29.756  25.077  1.00  0.00     0.115 C 
ATOM     67  N   UNL A   1      33.391  28.513  23.807  1.00  0.00    -0.323 N 
ATOM     68  C   UNL A   1      30.863  29.754  23.781  1.00  0.00    -0.006 A 
ATOM     69  C   UNL A   1      32.517  28.105  22.684  1.00  0.00     0.262 C 
ATOM     70  H   UNL A   1      34.154  27.843  23.902  1.00  0.00     0.347 HD
ATOM     71  H   UNL A   1      33.767  29.441  23.617  1.00  0.00     0.347 HD
ATOM     72  C   UNL A   1      31.314  28.999  22.710  1.00  0.00     0.083 A 
ATOM     73  C   UNL A   1      29.665  30.403  23.364  1.00  0.00     0.003 A 
ATOM     74  N   UNL A   1      30.546  29.314  21.624  1.00  0.00    -0.353 N 
ATOM     75  C   UNL A   1      29.474  30.076  22.017  1.00  0.00     0.046 A 
ATOM     76  C   UNL A   1      28.711  31.233  23.985  1.00  0.00     0.010 A 
ATOM     77  H   UNL A   1      30.734  29.034  20.699  1.00  0.00     0.166 HD
ATOM     78  C   UNL A   1      28.368  30.505  21.272  1.00  0.00     0.026 A 
ATOM     79  C   UNL A   1      27.589  31.657  23.258  1.00  0.00     0.001 A 
ATOM     80  C   UNL A   1      27.418  31.290  21.924  1.00  0.00     0.002 A 
BRANCH  69  81
ATOM     81  C   UNL A   1      32.254  26.596  22.589  1.00  0.00     0.016 A 
ATOM     82  C   UNL A   1      33.230  25.738  22.048  1.00  0.00     0.012 A 
ATOM     83  C   UNL A   1      31.118  25.992  23.167  1.00  0.00     0.012 A 
ATOM     84  C   UNL A   1      33.072  24.349  22.068  1.00  0.00     0.021 A 
ATOM     85  C   UNL A   1      30.962  24.603  23.198  1.00  0.00     0.021 A 
ATOM     86  C   UNL A   1      31.945  23.787  22.653  1.00  0.00     0.041 A 
ATOM     87  Cl  UNL A   1      31.782  22.079  22.736  1.00  0.00    -0.084 Cl
ENDBRANCH  69  81
ENDBRANCH  63  65
ENDBRANCH  62  63
ENDBRANCH  61  62
ENDBRANCH  60  61
ENDBRANCH  59  60
ENDBRANCH  58  59
ENDBRANCH   1  58
TORSDOF 18
ENDMDL
