MODEL 1
REMARK VINA RESULT:     -10.9      0.000      0.000
REMARK SMILES O=C(OCCOCCOCCOC(=O)[C@]1(NC(=O)C2CCN(C(=O)C3CC3)CC2)CCCc2ccccc21)c1ccc(-c2c3nc(c(-c4ccccc4)c4ccc([nH]4)c(-c4ccccc4)c4nc(c(-c5ccccc5)c5ccc2[nH]5)C=C4)C=C3)cc1
REMARK SMILES IDX 8 1 7 2 6 3 5 4 4 5 3 6 2 7 1 8 39 9 40 10 86 11 41 12 85 13
REMARK SMILES IDX 42 14 43 15 44 16 79 17 45 18 84 19 78 20 80 21 46 22 83 23
REMARK SMILES IDX 77 24 76 25 47 27 69 28 54 29 68 30 55 31 58 32 67 33 81 34
REMARK SMILES IDX 56 35 57 36 66 38 82 39 59 40 48 41 49 42 53 43 50 44 52 45
REMARK SMILES IDX 51 46 70 47 71 48 75 49 72 50 74 51 73 52 60 53 61 54 65 55
REMARK SMILES IDX 62 56 64 57 63 58 9 59 10 60 11 61 12 62 13 63 14 64 15 65
REMARK SMILES IDX 30 66 38 67 31 68 33 69 37 70 32 71 34 72 36 73 35 74 16 75
REMARK SMILES IDX 17 76 18 78 19 79 20 80 29 81 21 82 28 83 22 84 23 85 24 86
REMARK SMILES IDX 25 87 26 88 27 89
REMARK H PARENT 80 26 58 37 16 77
REMARK Flexibility Score: inf
ROOT
ATOM      1  C   UNL A   1      39.312  21.722  26.053  1.00  0.00     0.188 C 
ENDROOT
BRANCH   1   2
ATOM      2  C   UNL A   1      40.285  20.633  26.506  1.00  0.00     0.188 C 
BRANCH   2   3
ATOM      3  O   UNL A   1      41.490  20.583  25.729  1.00  0.00    -0.376 OA
BRANCH   3   4
ATOM      4  C   UNL A   1      42.632  21.069  26.442  1.00  0.00     0.202 C 
BRANCH   4   5
ATOM      5  C   UNL A   1      43.874  21.360  25.590  1.00  0.00     0.261 C 
BRANCH   5   6
ATOM      6  O   UNL A   1      44.591  22.542  25.966  1.00  0.00    -0.460 OA
BRANCH   6   7
ATOM      7  C   UNL A   1      44.446  23.817  25.540  1.00  0.00     0.338 C 
ATOM      8  O   UNL A   1      44.890  24.094  24.425  1.00  0.00    -0.246 OA
BRANCH   7   9
ATOM      9  C   UNL A   1      43.792  24.924  26.317  1.00  0.00     0.060 A 
ATOM     10  C   UNL A   1      44.221  26.255  26.417  1.00  0.00     0.016 A 
ATOM     11  C   UNL A   1      42.629  24.566  27.026  1.00  0.00     0.016 A 
ATOM     12  C   UNL A   1      43.556  27.186  27.222  1.00  0.00     0.010 A 
ATOM     13  C   UNL A   1      41.950  25.489  27.825  1.00  0.00     0.010 A 
ATOM     14  C   UNL A   1      42.436  26.798  27.947  1.00  0.00    -0.014 A 
BRANCH  14  15
ATOM     15  C   UNL A   1      41.904  27.663  29.014  1.00  0.00     0.031 A 
ATOM     16  C   UNL A   1      42.586  27.568  30.341  1.00  0.00     0.074 A 
ATOM     17  C   UNL A   1      40.852  28.476  28.824  1.00  0.00     0.049 A 
ATOM     18  N   UNL A   1      42.286  28.153  31.466  1.00  0.00    -0.248 NA
ATOM     19  C   UNL A   1      43.793  26.722  30.393  1.00  0.00     0.031 C 
ATOM     20  C   UNL A   1      40.210  28.758  27.545  1.00  0.00     0.029 A 
ATOM     21  N   UNL A   1      40.103  29.183  29.727  1.00  0.00    -0.354 N 
ATOM     22  C   UNL A   1      43.288  27.776  32.347  1.00  0.00     0.074 A 
ATOM     23  C   UNL A   1      44.158  26.855  31.655  1.00  0.00     0.031 C 
ATOM     24  C   UNL A   1      39.079  29.452  27.755  1.00  0.00     0.029 A 
ATOM     25  C   UNL A   1      38.950  29.700  29.183  1.00  0.00     0.049 A 
ATOM     26  H   UNL A   1      40.363  29.306  30.668  1.00  0.00     0.167 HD
ATOM     27  C   UNL A   1      43.477  28.189  33.618  1.00  0.00     0.031 A 
ATOM     28  C   UNL A   1      37.905  30.295  29.784  1.00  0.00     0.031 A 
ATOM     29  C   UNL A   1      42.552  29.042  34.303  1.00  0.00     0.049 A 
ATOM     30  C   UNL A   1      38.022  30.592  31.251  1.00  0.00     0.074 A 
ATOM     31  C   UNL A   1      42.600  29.513  35.599  1.00  0.00     0.029 A 
ATOM     32  N   UNL A   1      41.378  29.525  33.735  1.00  0.00    -0.354 N 
ATOM     33  N   UNL A   1      39.002  30.285  32.071  1.00  0.00    -0.248 NA
ATOM     34  C   UNL A   1      36.938  31.365  31.866  1.00  0.00     0.031 C 
ATOM     35  C   UNL A   1      41.421  30.230  35.834  1.00  0.00     0.029 A 
ATOM     36  C   UNL A   1      40.670  30.257  34.667  1.00  0.00     0.049 A 
ATOM     37  H   UNL A   1      41.095  29.368  32.806  1.00  0.00     0.167 HD
ATOM     38  C   UNL A   1      38.687  30.881  33.281  1.00  0.00     0.074 A 
ATOM     39  C   UNL A   1      37.410  31.546  33.093  1.00  0.00     0.031 C 
ATOM     40  C   UNL A   1      39.401  30.905  34.433  1.00  0.00     0.031 A 
BRANCH  27  41
ATOM     41  C   UNL A   1      44.693  27.648  34.308  1.00  0.00    -0.014 A 
ATOM     42  C   UNL A   1      44.600  26.557  35.192  1.00  0.00     0.009 A 
ATOM     43  C   UNL A   1      45.919  28.314  34.177  1.00  0.00     0.009 A 
ATOM     44  C   UNL A   1      45.692  26.191  35.982  1.00  0.00     0.001 A 
ATOM     45  C   UNL A   1      47.018  27.927  34.946  1.00  0.00     0.001 A 
ATOM     46  C   UNL A   1      46.898  26.880  35.861  1.00  0.00     0.000 A 
ENDBRANCH  27  41
BRANCH  28  47
ATOM     47  C   UNL A   1      36.701  30.661  28.993  1.00  0.00    -0.014 A 
ATOM     48  C   UNL A   1      36.431  31.994  28.655  1.00  0.00     0.009 A 
ATOM     49  C   UNL A   1      35.832  29.657  28.530  1.00  0.00     0.009 A 
ATOM     50  C   UNL A   1      35.308  32.316  27.884  1.00  0.00     0.001 A 
ATOM     51  C   UNL A   1      34.721  29.981  27.746  1.00  0.00     0.001 A 
ATOM     52  C   UNL A   1      34.457  31.311  27.428  1.00  0.00     0.000 A 
ENDBRANCH  28  47
BRANCH  40  53
ATOM     53  C   UNL A   1      38.844  31.711  35.565  1.00  0.00    -0.014 A 
ATOM     54  C   UNL A   1      38.186  31.100  36.640  1.00  0.00     0.009 A 
ATOM     55  C   UNL A   1      39.079  33.096  35.597  1.00  0.00     0.009 A 
ATOM     56  C   UNL A   1      37.764  31.866  37.728  1.00  0.00     0.001 A 
ATOM     57  C   UNL A   1      38.682  33.853  36.697  1.00  0.00     0.001 A 
ATOM     58  C   UNL A   1      38.022  33.237  37.760  1.00  0.00     0.000 A 
ENDBRANCH  40  53
ENDBRANCH  14  15
ENDBRANCH   7   9
ENDBRANCH   6   7
ENDBRANCH   5   6
ENDBRANCH   4   5
ENDBRANCH   3   4
ENDBRANCH   2   3
ENDBRANCH   1   2
BRANCH   1  59
ATOM     59  O   UNL A   1      39.350  22.958  26.759  1.00  0.00    -0.376 OA
BRANCH  59  60
ATOM     60  C   UNL A   1      38.466  23.987  26.352  1.00  0.00     0.202 C 
BRANCH  60  61
ATOM     61  C   UNL A   1      37.106  23.597  25.774  1.00  0.00     0.261 C 
BRANCH  61  62
ATOM     62  O   UNL A   1      36.008  24.491  26.018  1.00  0.00    -0.461 OA
BRANCH  62  63
ATOM     63  C   UNL A   1      34.792  23.878  26.184  1.00  0.00     0.336 C 
ATOM     64  O   UNL A   1      34.671  22.725  26.596  1.00  0.00    -0.249 OA
BRANCH  63  65
ATOM     65  C   UNL A   1      33.605  24.719  25.591  1.00  0.00     0.164 C 
ATOM     66  C   UNL A   1      32.437  24.932  26.577  1.00  0.00     0.046 C 
ATOM     67  C   UNL A   1      33.119  23.964  24.327  1.00  0.00    -0.008 A 
ATOM     68  C   UNL A   1      31.563  23.697  26.711  1.00  0.00     0.008 C 
ATOM     69  C   UNL A   1      31.892  23.266  24.287  1.00  0.00    -0.042 A 
ATOM     70  C   UNL A   1      33.975  23.853  23.215  1.00  0.00     0.007 A 
ATOM     71  C   UNL A   1      30.888  23.366  25.397  1.00  0.00     0.036 C 
ATOM     72  C   UNL A   1      31.564  22.470  23.178  1.00  0.00     0.004 A 
ATOM     73  C   UNL A   1      33.646  23.045  22.125  1.00  0.00     0.000 A 
ATOM     74  C   UNL A   1      32.445  22.347  22.110  1.00  0.00     0.000 A 
BRANCH  65  75
ATOM     75  N   UNL A   1      34.064  26.090  25.188  1.00  0.00    -0.336 N 
ATOM     76  C   UNL A   1      33.438  27.026  24.407  1.00  0.00     0.224 C 
ATOM     77  H   UNL A   1      34.945  26.357  25.538  1.00  0.00     0.164 HD
ATOM     78  O   UNL A   1      34.121  27.733  23.665  1.00  0.00    -0.275 OA
BRANCH  76  79
ATOM     79  C   UNL A   1      31.949  27.288  24.578  1.00  0.00     0.082 C 
ATOM     80  C   UNL A   1      31.061  26.581  23.544  1.00  0.00     0.035 C 
ATOM     81  C   UNL A   1      31.700  28.796  24.754  1.00  0.00     0.035 C 
ATOM     82  C   UNL A   1      30.730  27.440  22.327  1.00  0.00     0.120 C 
ATOM     83  C   UNL A   1      31.405  29.479  23.429  1.00  0.00     0.120 C 
ATOM     84  N   UNL A   1      30.319  28.766  22.784  1.00  0.00    -0.342 N 
ATOM     85  C   UNL A   1      28.950  29.057  22.802  1.00  0.00     0.225 C 
ATOM     86  O   UNL A   1      28.154  28.334  22.227  1.00  0.00    -0.275 OA
BRANCH  85  87
ATOM     87  C   UNL A   1      28.346  30.210  23.545  1.00  0.00     0.079 C 
ATOM     88  C   UNL A   1      28.889  31.572  23.867  1.00  0.00     0.014 C 
ATOM     89  C   UNL A   1      27.808  31.424  22.832  1.00  0.00     0.014 C 
ENDBRANCH  85  87
ENDBRANCH  76  79
ENDBRANCH  65  75
ENDBRANCH  63  65
ENDBRANCH  62  63
ENDBRANCH  61  62
ENDBRANCH  60  61
ENDBRANCH  59  60
ENDBRANCH   1  59
TORSDOF 20
ENDMDL
MODEL 2
REMARK VINA RESULT:     -10.8      3.874      8.575
REMARK SMILES O=C(OCCOCCOCCOC(=O)[C@]1(NC(=O)C2CCN(C(=O)C3CC3)CC2)CCCc2ccccc21)c1ccc(-c2c3nc(c(-c4ccccc4)c4ccc([nH]4)c(-c4ccccc4)c4nc(c(-c5ccccc5)c5ccc2[nH]5)C=C4)C=C3)cc1
REMARK SMILES IDX 8 1 7 2 6 3 5 4 4 5 3 6 2 7 1 8 39 9 40 10 86 11 41 12 85 13
REMARK SMILES IDX 42 14 43 15 44 16 79 17 45 18 84 19 78 20 80 21 46 22 83 23
REMARK SMILES IDX 77 24 76 25 47 27 69 28 54 29 68 30 55 31 58 32 67 33 81 34
REMARK SMILES IDX 56 35 57 36 66 38 82 39 59 40 48 41 49 42 53 43 50 44 52 45
REMARK SMILES IDX 51 46 70 47 71 48 75 49 72 50 74 51 73 52 60 53 61 54 65 55
REMARK SMILES IDX 62 56 64 57 63 58 9 59 10 60 11 61 12 62 13 63 14 64 15 65
REMARK SMILES IDX 30 66 38 67 31 68 33 69 37 70 32 71 34 72 36 73 35 74 16 75
REMARK SMILES IDX 17 76 18 78 19 79 20 80 29 81 21 82 28 83 22 84 23 85 24 86
REMARK SMILES IDX 25 87 26 88 27 89
REMARK H PARENT 80 26 58 37 16 77
REMARK Flexibility Score: inf
ROOT
ATOM      1  C   UNL A   1      34.873  31.146  27.728  1.00  0.00     0.188 C 
ENDROOT
BRANCH   1   2
ATOM      2  C   UNL A   1      34.609  32.628  27.994  1.00  0.00     0.188 C 
BRANCH   2   3
ATOM      3  O   UNL A   1      34.020  32.883  29.278  1.00  0.00    -0.376 OA
BRANCH   3   4
ATOM      4  C   UNL A   1      34.291  34.202  29.762  1.00  0.00     0.202 C 
BRANCH   4   5
ATOM      5  C   UNL A   1      34.283  34.367  31.286  1.00  0.00     0.261 C 
BRANCH   5   6
ATOM      6  O   UNL A   1      35.540  34.103  31.921  1.00  0.00    -0.460 OA
BRANCH   6   7
ATOM      7  C   UNL A   1      35.985  32.983  32.534  1.00  0.00     0.338 C 
ATOM      8  O   UNL A   1      35.502  32.711  33.633  1.00  0.00    -0.246 OA
BRANCH   7   9
ATOM      9  C   UNL A   1      37.022  32.045  31.984  1.00  0.00     0.060 A 
ATOM     10  C   UNL A   1      37.918  31.254  32.714  1.00  0.00     0.016 A 
ATOM     11  C   UNL A   1      37.095  31.973  30.579  1.00  0.00     0.016 A 
ATOM     12  C   UNL A   1      38.882  30.459  32.086  1.00  0.00     0.010 A 
ATOM     13  C   UNL A   1      38.045  31.174  29.940  1.00  0.00     0.010 A 
ATOM     14  C   UNL A   1      38.964  30.438  30.698  1.00  0.00    -0.014 A 
BRANCH  14  15
ATOM     15  C   UNL A   1      40.139  29.853  30.032  1.00  0.00     0.031 A 
ATOM     16  C   UNL A   1      41.288  30.778  29.788  1.00  0.00     0.074 A 
ATOM     17  C   UNL A   1      40.179  28.568  29.638  1.00  0.00     0.049 A 
ATOM     18  N   UNL A   1      42.408  30.555  29.161  1.00  0.00    -0.248 NA
ATOM     19  C   UNL A   1      41.166  32.131  30.362  1.00  0.00     0.031 C 
ATOM     20  C   UNL A   1      39.187  27.548  29.954  1.00  0.00     0.029 A 
ATOM     21  N   UNL A   1      41.077  27.914  28.838  1.00  0.00    -0.354 N 
ATOM     22  C   UNL A   1      43.138  31.725  29.299  1.00  0.00     0.074 A 
ATOM     23  C   UNL A   1      42.310  32.680  29.997  1.00  0.00     0.031 C 
ATOM     24  C   UNL A   1      39.443  26.439  29.240  1.00  0.00     0.029 A 
ATOM     25  C   UNL A   1      40.647  26.665  28.453  1.00  0.00     0.049 A 
ATOM     26  H   UNL A   1      41.942  28.298  28.566  1.00  0.00     0.167 HD
ATOM     27  C   UNL A   1      44.404  31.968  28.899  1.00  0.00     0.031 A 
ATOM     28  C   UNL A   1      41.168  25.812  27.554  1.00  0.00     0.031 A 
ATOM     29  C   UNL A   1      45.173  31.029  28.139  1.00  0.00     0.049 A 
ATOM     30  C   UNL A   1      42.497  26.164  26.951  1.00  0.00     0.074 A 
ATOM     31  C   UNL A   1      46.453  31.153  27.640  1.00  0.00     0.029 A 
ATOM     32  N   UNL A   1      44.697  29.783  27.739  1.00  0.00    -0.354 N 
ATOM     33  N   UNL A   1      43.214  27.249  27.131  1.00  0.00    -0.248 NA
ATOM     34  C   UNL A   1      43.121  25.163  26.081  1.00  0.00     0.031 C 
ATOM     35  C   UNL A   1      46.728  30.008  26.884  1.00  0.00     0.029 A 
ATOM     36  C   UNL A   1      45.644  29.144  26.964  1.00  0.00     0.049 A 
ATOM     37  H   UNL A   1      43.816  29.414  27.975  1.00  0.00     0.167 HD
ATOM     38  C   UNL A   1      44.403  27.038  26.452  1.00  0.00     0.074 A 
ATOM     39  C   UNL A   1      44.297  25.728  25.833  1.00  0.00     0.031 C 
ATOM     40  C   UNL A   1      45.495  27.837  26.371  1.00  0.00     0.031 A 
BRANCH  27  41
ATOM     41  C   UNL A   1      44.951  33.322  29.243  1.00  0.00    -0.014 A 
ATOM     42  C   UNL A   1      44.844  34.397  28.342  1.00  0.00     0.009 A 
ATOM     43  C   UNL A   1      45.694  33.491  30.419  1.00  0.00     0.009 A 
ATOM     44  C   UNL A   1      45.530  35.590  28.580  1.00  0.00     0.001 A 
ATOM     45  C   UNL A   1      46.354  34.696  30.669  1.00  0.00     0.001 A 
ATOM     46  C   UNL A   1      46.288  35.736  29.741  1.00  0.00     0.000 A 
ENDBRANCH  27  41
BRANCH  28  47
ATOM     47  C   UNL A   1      40.445  24.560  27.211  1.00  0.00    -0.014 A 
ATOM     48  C   UNL A   1      39.256  24.587  26.469  1.00  0.00     0.009 A 
ATOM     49  C   UNL A   1      40.974  23.315  27.593  1.00  0.00     0.009 A 
ATOM     50  C   UNL A   1      38.605  23.397  26.129  1.00  0.00     0.001 A 
ATOM     51  C   UNL A   1      40.329  22.126  27.239  1.00  0.00     0.001 A 
ATOM     52  C   UNL A   1      39.142  22.168  26.511  1.00  0.00     0.000 A 
ENDBRANCH  28  47
BRANCH  40  53
ATOM     53  C   UNL A   1      46.679  27.301  25.627  1.00  0.00    -0.014 A 
ATOM     54  C   UNL A   1      46.908  27.632  24.285  1.00  0.00     0.009 A 
ATOM     55  C   UNL A   1      47.632  26.537  26.321  1.00  0.00     0.009 A 
ATOM     56  C   UNL A   1      48.070  27.199  23.647  1.00  0.00     0.001 A 
ATOM     57  C   UNL A   1      48.805  26.130  25.689  1.00  0.00     0.001 A 
ATOM     58  C   UNL A   1      49.021  26.460  24.352  1.00  0.00     0.000 A 
ENDBRANCH  40  53
ENDBRANCH  14  15
ENDBRANCH   7   9
ENDBRANCH   6   7
ENDBRANCH   5   6
ENDBRANCH   4   5
ENDBRANCH   3   4
ENDBRANCH   2   3
ENDBRANCH   1   2
BRANCH   1  59
ATOM     59  O   UNL A   1      33.800  30.387  27.179  1.00  0.00    -0.376 OA
BRANCH  59  60
ATOM     60  C   UNL A   1      34.117  29.227  26.429  1.00  0.00     0.202 C 
BRANCH  60  61
ATOM     61  C   UNL A   1      33.019  28.193  26.183  1.00  0.00     0.261 C 
BRANCH  61  62
ATOM     62  O   UNL A   1      33.319  27.122  25.273  1.00  0.00    -0.461 OA
BRANCH  62  63
ATOM     63  C   UNL A   1      32.739  25.919  25.588  1.00  0.00     0.336 C 
ATOM     64  O   UNL A   1      32.667  25.488  26.738  1.00  0.00    -0.249 OA
BRANCH  63  65
ATOM     65  C   UNL A   1      32.383  25.068  24.316  1.00  0.00     0.164 C 
ATOM     66  C   UNL A   1      30.970  24.449  24.355  1.00  0.00     0.046 C 
ATOM     67  C   UNL A   1      33.461  23.958  24.213  1.00  0.00    -0.008 A 
ATOM     68  C   UNL A   1      30.900  23.228  25.256  1.00  0.00     0.008 C 
ATOM     69  C   UNL A   1      33.181  22.603  24.496  1.00  0.00    -0.042 A 
ATOM     70  C   UNL A   1      34.798  24.314  23.954  1.00  0.00     0.007 A 
ATOM     71  C   UNL A   1      31.782  22.115  24.729  1.00  0.00     0.036 C 
ATOM     72  C   UNL A   1      34.220  21.659  24.539  1.00  0.00     0.004 A 
ATOM     73  C   UNL A   1      35.824  23.370  24.018  1.00  0.00     0.000 A 
ATOM     74  C   UNL A   1      35.537  22.045  24.319  1.00  0.00     0.000 A 
BRANCH  65  75
ATOM     75  N   UNL A   1      32.434  25.909  23.074  1.00  0.00    -0.336 N 
ATOM     76  C   UNL A   1      31.479  26.735  22.539  1.00  0.00     0.224 C 
ATOM     77  H   UNL A   1      33.278  25.861  22.569  1.00  0.00     0.164 HD
ATOM     78  O   UNL A   1      31.380  26.812  21.313  1.00  0.00    -0.275 OA
BRANCH  76  79
ATOM     79  C   UNL A   1      30.674  27.654  23.445  1.00  0.00     0.082 C 
ATOM     80  C   UNL A   1      29.182  27.302  23.534  1.00  0.00     0.035 C 
ATOM     81  C   UNL A   1      30.996  29.123  23.120  1.00  0.00     0.035 C 
ATOM     82  C   UNL A   1      28.309  28.068  22.544  1.00  0.00     0.120 C 
ATOM     83  C   UNL A   1      30.028  29.703  22.102  1.00  0.00     0.120 C 
ATOM     84  N   UNL A   1      28.678  29.480  22.584  1.00  0.00    -0.342 N 
ATOM     85  C   UNL A   1      27.851  30.354  23.299  1.00  0.00     0.225 C 
ATOM     86  O   UNL A   1      26.741  30.001  23.660  1.00  0.00    -0.275 OA
BRANCH  85  87
ATOM     87  C   UNL A   1      28.253  31.734  23.722  1.00  0.00     0.079 C 
ATOM     88  C   UNL A   1      29.605  32.344  23.953  1.00  0.00     0.014 C 
ATOM     89  C   UNL A   1      28.803  32.740  22.743  1.00  0.00     0.014 C 
ENDBRANCH  85  87
ENDBRANCH  76  79
ENDBRANCH  65  75
ENDBRANCH  63  65
ENDBRANCH  62  63
ENDBRANCH  61  62
ENDBRANCH  60  61
ENDBRANCH  59  60
ENDBRANCH   1  59
TORSDOF 20
ENDMDL
MODEL 3
REMARK VINA RESULT:     -10.7      4.374      7.618
REMARK SMILES O=C(OCCOCCOCCOC(=O)[C@]1(NC(=O)C2CCN(C(=O)C3CC3)CC2)CCCc2ccccc21)c1ccc(-c2c3nc(c(-c4ccccc4)c4ccc([nH]4)c(-c4ccccc4)c4nc(c(-c5ccccc5)c5ccc2[nH]5)C=C4)C=C3)cc1
REMARK SMILES IDX 8 1 7 2 6 3 5 4 4 5 3 6 2 7 1 8 39 9 40 10 86 11 41 12 85 13
REMARK SMILES IDX 42 14 43 15 44 16 79 17 45 18 84 19 78 20 80 21 46 22 83 23
REMARK SMILES IDX 77 24 76 25 47 27 69 28 54 29 68 30 55 31 58 32 67 33 81 34
REMARK SMILES IDX 56 35 57 36 66 38 82 39 59 40 48 41 49 42 53 43 50 44 52 45
REMARK SMILES IDX 51 46 70 47 71 48 75 49 72 50 74 51 73 52 60 53 61 54 65 55
REMARK SMILES IDX 62 56 64 57 63 58 9 59 10 60 11 61 12 62 13 63 14 64 15 65
REMARK SMILES IDX 30 66 38 67 31 68 33 69 37 70 32 71 34 72 36 73 35 74 16 75
REMARK SMILES IDX 17 76 18 78 19 79 20 80 29 81 21 82 28 83 22 84 23 85 24 86
REMARK SMILES IDX 25 87 26 88 27 89
REMARK H PARENT 80 26 58 37 16 77
REMARK Flexibility Score: inf
ROOT
ATOM      1  C   UNL A   1      39.195  21.144  25.845  1.00  0.00     0.188 C 
ENDROOT
BRANCH   1   2
ATOM      2  C   UNL A   1      39.652  19.688  25.930  1.00  0.00     0.188 C 
BRANCH   2   3
ATOM      3  O   UNL A   1      41.052  19.511  25.670  1.00  0.00    -0.376 OA
BRANCH   3   4
ATOM      4  C   UNL A   1      41.735  18.842  26.735  1.00  0.00     0.202 C 
BRANCH   4   5
ATOM      5  C   UNL A   1      43.014  18.094  26.339  1.00  0.00     0.261 C 
BRANCH   5   6
ATOM      6  O   UNL A   1      43.512  18.412  25.034  1.00  0.00    -0.460 OA
BRANCH   6   7
ATOM      7  C   UNL A   1      44.463  19.297  24.661  1.00  0.00     0.338 C 
ATOM      8  O   UNL A   1      45.489  18.844  24.152  1.00  0.00    -0.246 OA
BRANCH   7   9
ATOM      9  C   UNL A   1      44.374  20.789  24.820  1.00  0.00     0.060 A 
ATOM     10  C   UNL A   1      44.607  21.760  23.837  1.00  0.00     0.016 A 
ATOM     11  C   UNL A   1      44.027  21.244  26.107  1.00  0.00     0.016 A 
ATOM     12  C   UNL A   1      44.548  23.128  24.122  1.00  0.00     0.010 A 
ATOM     13  C   UNL A   1      43.954  22.607  26.402  1.00  0.00     0.010 A 
ATOM     14  C   UNL A   1      44.247  23.554  25.411  1.00  0.00    -0.014 A 
BRANCH  14  15
ATOM     15  C   UNL A   1      44.468  24.956  25.801  1.00  0.00     0.031 A 
ATOM     16  C   UNL A   1      45.892  25.405  25.870  1.00  0.00     0.074 A 
ATOM     17  C   UNL A   1      43.456  25.787  26.104  1.00  0.00     0.049 A 
ATOM     18  N   UNL A   1      46.378  26.552  26.253  1.00  0.00    -0.248 NA
ATOM     19  C   UNL A   1      46.903  24.435  25.411  1.00  0.00     0.031 C 
ATOM     20  C   UNL A   1      42.037  25.503  25.928  1.00  0.00     0.029 A 
ATOM     21  N   UNL A   1      43.472  27.032  26.675  1.00  0.00    -0.354 N 
ATOM     22  C   UNL A   1      47.744  26.453  26.044  1.00  0.00     0.074 A 
ATOM     23  C   UNL A   1      48.022  25.116  25.577  1.00  0.00     0.031 C 
ATOM     24  C   UNL A   1      41.311  26.471  26.513  1.00  0.00     0.029 A 
ATOM     25  C   UNL A   1      42.224  27.463  27.062  1.00  0.00     0.049 A 
ATOM     26  H   UNL A   1      44.291  27.563  26.795  1.00  0.00     0.167 HD
ATOM     27  C   UNL A   1      48.682  27.411  26.204  1.00  0.00     0.031 A 
ATOM     28  C   UNL A   1      41.871  28.535  27.792  1.00  0.00     0.031 A 
ATOM     29  C   UNL A   1      48.387  28.705  26.743  1.00  0.00     0.049 A 
ATOM     30  C   UNL A   1      42.946  29.522  28.144  1.00  0.00     0.074 A 
ATOM     31  C   UNL A   1      49.241  29.759  26.990  1.00  0.00     0.029 A 
ATOM     32  N   UNL A   1      47.118  29.100  27.155  1.00  0.00    -0.354 N 
ATOM     33  N   UNL A   1      44.233  29.453  27.891  1.00  0.00    -0.248 NA
ATOM     34  C   UNL A   1      42.526  30.755  28.817  1.00  0.00     0.031 C 
ATOM     35  C   UNL A   1      48.499  30.772  27.610  1.00  0.00     0.029 A 
ATOM     36  C   UNL A   1      47.172  30.371  27.692  1.00  0.00     0.049 A 
ATOM     37  H   UNL A   1      46.303  28.555  27.074  1.00  0.00     0.167 HD
ATOM     38  C   UNL A   1      44.770  30.658  28.313  1.00  0.00     0.074 A 
ATOM     39  C   UNL A   1      43.669  31.429  28.863  1.00  0.00     0.031 C 
ATOM     40  C   UNL A   1      46.048  31.102  28.227  1.00  0.00     0.031 A 
BRANCH  27  41
ATOM     41  C   UNL A   1      50.083  27.022  25.839  1.00  0.00    -0.014 A 
ATOM     42  C   UNL A   1      50.928  26.395  26.773  1.00  0.00     0.009 A 
ATOM     43  C   UNL A   1      50.608  27.403  24.596  1.00  0.00     0.009 A 
ATOM     44  C   UNL A   1      52.285  26.223  26.495  1.00  0.00     0.001 A 
ATOM     45  C   UNL A   1      51.959  27.202  24.310  1.00  0.00     0.001 A 
ATOM     46  C   UNL A   1      52.800  26.631  25.266  1.00  0.00     0.000 A 
ENDBRANCH  27  41
BRANCH  28  47
ATOM     47  C   UNL A   1      40.453  28.725  28.196  1.00  0.00    -0.014 A 
ATOM     48  C   UNL A   1      39.547  29.404  27.369  1.00  0.00     0.009 A 
ATOM     49  C   UNL A   1      39.987  28.182  29.405  1.00  0.00     0.009 A 
ATOM     50  C   UNL A   1      38.209  29.547  27.752  1.00  0.00     0.001 A 
ATOM     51  C   UNL A   1      38.646  28.313  29.778  1.00  0.00     0.001 A 
ATOM     52  C   UNL A   1      37.759  29.000  28.953  1.00  0.00     0.000 A 
ENDBRANCH  28  47
BRANCH  40  53
ATOM     53  C   UNL A   1      46.319  32.498  28.693  1.00  0.00    -0.014 A 
ATOM     54  C   UNL A   1      46.711  32.763  30.011  1.00  0.00     0.009 A 
ATOM     55  C   UNL A   1      46.279  33.549  27.762  1.00  0.00     0.009 A 
ATOM     56  C   UNL A   1      47.052  34.061  30.392  1.00  0.00     0.001 A 
ATOM     57  C   UNL A   1      46.647  34.839  28.137  1.00  0.00     0.001 A 
ATOM     58  C   UNL A   1      47.031  35.093  29.453  1.00  0.00     0.000 A 
ENDBRANCH  40  53
ENDBRANCH  14  15
ENDBRANCH   7   9
ENDBRANCH   6   7
ENDBRANCH   5   6
ENDBRANCH   4   5
ENDBRANCH   3   4
ENDBRANCH   2   3
ENDBRANCH   1   2
BRANCH   1  59
ATOM     59  O   UNL A   1      38.025  21.410  25.078  1.00  0.00    -0.376 OA
BRANCH  59  60
ATOM     60  C   UNL A   1      36.988  22.166  25.681  1.00  0.00     0.202 C 
BRANCH  60  61
ATOM     61  C   UNL A   1      37.005  23.686  25.521  1.00  0.00     0.261 C 
BRANCH  61  62
ATOM     62  O   UNL A   1      35.739  24.340  25.332  1.00  0.00    -0.461 OA
BRANCH  62  63
ATOM     63  C   UNL A   1      35.098  24.026  24.161  1.00  0.00     0.336 C 
ATOM     64  O   UNL A   1      35.689  23.653  23.149  1.00  0.00    -0.249 OA
BRANCH  63  65
ATOM     65  C   UNL A   1      33.573  24.403  24.188  1.00  0.00     0.164 C 
ATOM     66  C   UNL A   1      32.850  24.175  22.843  1.00  0.00     0.046 C 
ATOM     67  C   UNL A   1      33.495  25.896  24.601  1.00  0.00    -0.008 A 
ATOM     68  C   UNL A   1      33.155  25.268  21.832  1.00  0.00     0.008 C 
ATOM     69  C   UNL A   1      33.146  26.917  23.690  1.00  0.00    -0.042 A 
ATOM     70  C   UNL A   1      33.907  26.279  25.892  1.00  0.00     0.007 A 
ATOM     71  C   UNL A   1      32.640  26.609  22.312  1.00  0.00     0.036 C 
ATOM     72  C   UNL A   1      33.237  28.266  24.067  1.00  0.00     0.004 A 
ATOM     73  C   UNL A   1      34.012  27.623  26.250  1.00  0.00     0.000 A 
ATOM     74  C   UNL A   1      33.686  28.617  25.335  1.00  0.00     0.000 A 
BRANCH  65  75
ATOM     75  N   UNL A   1      32.832  23.581  25.202  1.00  0.00    -0.336 N 
ATOM     76  C   UNL A   1      32.405  22.280  25.128  1.00  0.00     0.224 C 
ATOM     77  H   UNL A   1      32.623  24.044  26.045  1.00  0.00     0.164 HD
ATOM     78  O   UNL A   1      31.338  21.974  25.660  1.00  0.00    -0.275 OA
BRANCH  76  79
ATOM     79  C   UNL A   1      33.316  21.213  24.538  1.00  0.00     0.082 C 
ATOM     80  C   UNL A   1      32.930  20.768  23.120  1.00  0.00     0.035 C 
ATOM     81  C   UNL A   1      33.525  20.082  25.561  1.00  0.00     0.035 C 
ATOM     82  C   UNL A   1      32.026  19.539  23.086  1.00  0.00     0.120 C 
ATOM     83  C   UNL A   1      32.518  18.958  25.376  1.00  0.00     0.120 C 
ATOM     84  N   UNL A   1      32.568  18.530  23.991  1.00  0.00    -0.342 N 
ATOM     85  C   UNL A   1      33.284  17.464  23.432  1.00  0.00     0.225 C 
ATOM     86  O   UNL A   1      33.242  17.250  22.232  1.00  0.00    -0.275 OA
BRANCH  85  87
ATOM     87  C   UNL A   1      34.178  16.551  24.214  1.00  0.00     0.079 C 
ATOM     88  C   UNL A   1      34.509  16.505  25.677  1.00  0.00     0.014 C 
ATOM     89  C   UNL A   1      33.629  15.443  25.077  1.00  0.00     0.014 C 
ENDBRANCH  85  87
ENDBRANCH  76  79
ENDBRANCH  65  75
ENDBRANCH  63  65
ENDBRANCH  62  63
ENDBRANCH  61  62
ENDBRANCH  60  61
ENDBRANCH  59  60
ENDBRANCH   1  59
TORSDOF 20
ENDMDL
