MODEL 1
REMARK VINA RESULT:     -10.3      0.000      0.000
REMARK SMILES Cc1cc(C(=O)N[C@H]2C=C[C@H](C(=O)OCCOCCOCCOC(=O)c3ccc(-c4c5nc(c(-c6ccccc6)c6ccc([nH]6)c(-c6ccccc6)c6nc(c(-c7ccccc7)c7ccc4[nH]7)C=C6)C=C5)cc3)C2)ccc1F
REMARK SMILES IDX 18 1 17 2 16 3 15 4 14 5 12 6 13 7 11 8 8 9 9 10 74 11 10 12
REMARK SMILES IDX 7 13 5 14 6 15 4 17 1 18 2 19 3 20 77 21 76 22 78 23 75 24
REMARK SMILES IDX 19 25 20 26 21 27 22 28 23 29 24 30 25 31 26 32 27 33 73 34
REMARK SMILES IDX 28 35 72 36 29 37 30 38 31 39 66 40 32 41 71 42 65 43 67 44
REMARK SMILES IDX 33 45 70 46 64 47 63 48 34 50 56 51 41 52 55 53 42 54 45 55
REMARK SMILES IDX 54 56 68 57 43 58 44 59 53 61 69 62 46 63 35 64 36 65 40 66
REMARK SMILES IDX 37 67 39 68 38 69 57 70 58 71 62 72 59 73 61 74 60 75 47 76
REMARK SMILES IDX 48 77 52 78 49 79 51 80 50 81
REMARK H PARENT 7 16 67 49 45 60
REMARK Flexibility Score: inf
ROOT
ATOM      1  C   UNL A   1      39.654  21.983  26.166  1.00  0.00     0.188 C 
ENDROOT
BRANCH   1   2
ATOM      2  O   UNL A   1      38.237  22.005  26.109  1.00  0.00    -0.376 OA
BRANCH   2   3
ATOM      3  C   UNL A   1      37.589  21.801  24.851  1.00  0.00     0.202 C 
BRANCH   3   4
ATOM      4  C   UNL A   1      36.549  22.826  24.414  1.00  0.00     0.261 C 
BRANCH   4   5
ATOM      5  O   UNL A   1      35.277  22.188  24.235  1.00  0.00    -0.463 OA
BRANCH   5   6
ATOM      6  C   UNL A   1      34.405  22.885  23.463  1.00  0.00     0.312 C 
ATOM      7  O   UNL A   1      34.720  23.834  22.757  1.00  0.00    -0.252 OA
BRANCH   6   8
ATOM      8  C   UNL A   1      33.049  22.178  23.434  1.00  0.00     0.124 C 
ATOM      9  C   UNL A   1      31.915  23.283  25.246  1.00  0.00     0.106 C 
ATOM     10  C   UNL A   1      32.155  21.841  25.578  1.00  0.00    -0.006 C 
ATOM     11  C   UNL A   1      31.963  23.227  23.712  1.00  0.00     0.048 C 
ATOM     12  C   UNL A   1      32.836  21.242  24.588  1.00  0.00    -0.014 C 
BRANCH   9  13
ATOM     13  N   UNL A   1      30.678  23.760  25.789  1.00  0.00    -0.346 N 
ATOM     14  C   UNL A   1      30.260  25.024  26.125  1.00  0.00     0.251 C 
ATOM     15  O   UNL A   1      29.176  25.109  26.706  1.00  0.00    -0.269 OA
ATOM     16  H   UNL A   1      30.008  23.055  25.952  1.00  0.00     0.164 HD
BRANCH  14  17
ATOM     17  C   UNL A   1      30.989  26.295  25.786  1.00  0.00     0.040 A 
ATOM     18  C   UNL A   1      33.981  28.479  26.721  1.00  0.00     0.047 C 
ATOM     19  C   UNL A   1      32.744  27.991  26.026  1.00  0.00    -0.015 A 
ATOM     20  C   UNL A   1      32.071  26.844  26.488  1.00  0.00     0.020 A 
ATOM     21  C   UNL A   1      32.285  28.622  24.872  1.00  0.00     0.126 A 
ATOM     22  C   UNL A   1      31.175  28.144  24.192  1.00  0.00     0.040 A 
ATOM     23  F   UNL A   1      32.920  29.706  24.403  1.00  0.00    -0.207 F 
ATOM     24  C   UNL A   1      30.538  26.983  24.643  1.00  0.00     0.017 A 
ENDBRANCH  14  17
ENDBRANCH   9  13
ENDBRANCH   6   8
ENDBRANCH   5   6
ENDBRANCH   4   5
ENDBRANCH   3   4
ENDBRANCH   2   3
ENDBRANCH   1   2
BRANCH   1  25
ATOM     25  C   UNL A   1      40.396  20.674  26.509  1.00  0.00     0.188 C 
BRANCH  25  26
ATOM     26  O   UNL A   1      41.450  20.207  25.689  1.00  0.00    -0.376 OA
BRANCH  26  27
ATOM     27  C   UNL A   1      42.792  20.436  26.108  1.00  0.00     0.202 C 
BRANCH  27  28
ATOM     28  C   UNL A   1      43.580  21.582  25.472  1.00  0.00     0.261 C 
BRANCH  28  29
ATOM     29  O   UNL A   1      43.725  22.699  26.364  1.00  0.00    -0.460 OA
BRANCH  29  30
ATOM     30  C   UNL A   1      43.787  23.904  25.750  1.00  0.00     0.338 C 
ATOM     31  O   UNL A   1      44.226  24.155  24.643  1.00  0.00    -0.246 OA
BRANCH  30  32
ATOM     32  C   UNL A   1      43.053  24.897  26.550  1.00  0.00     0.060 A 
ATOM     33  C   UNL A   1      43.536  26.213  26.558  1.00  0.00     0.016 A 
ATOM     34  C   UNL A   1      41.973  24.524  27.349  1.00  0.00     0.016 A 
ATOM     35  C   UNL A   1      42.963  27.157  27.405  1.00  0.00     0.010 A 
ATOM     36  C   UNL A   1      41.416  25.465  28.217  1.00  0.00     0.010 A 
ATOM     37  C   UNL A   1      41.933  26.772  28.272  1.00  0.00    -0.014 A 
BRANCH  37  38
ATOM     38  C   UNL A   1      41.529  27.679  29.369  1.00  0.00     0.031 A 
ATOM     39  C   UNL A   1      42.271  27.604  30.674  1.00  0.00     0.074 A 
ATOM     40  C   UNL A   1      40.528  28.559  29.204  1.00  0.00     0.049 A 
ATOM     41  N   UNL A   1      42.060  28.261  31.784  1.00  0.00    -0.248 NA
ATOM     42  C   UNL A   1      43.403  26.664  30.730  1.00  0.00     0.031 C 
ATOM     43  C   UNL A   1      39.770  28.761  27.972  1.00  0.00     0.029 A 
ATOM     44  N   UNL A   1      39.975  29.443  30.094  1.00  0.00    -0.354 N 
ATOM     45  C   UNL A   1      43.028  27.811  32.673  1.00  0.00     0.074 A 
ATOM     46  C   UNL A   1      43.815  26.815  31.981  1.00  0.00     0.031 C 
ATOM     47  C   UNL A   1      38.835  29.703  28.188  1.00  0.00     0.029 A 
ATOM     48  C   UNL A   1      38.914  30.145  29.580  1.00  0.00     0.049 A 
ATOM     49  H   UNL A   1      40.306  29.563  31.013  1.00  0.00     0.167 HD
ATOM     50  C   UNL A   1      43.242  28.192  33.954  1.00  0.00     0.031 A 
ATOM     51  C   UNL A   1      38.088  31.026  30.175  1.00  0.00     0.031 A 
ATOM     52  C   UNL A   1      42.445  29.161  34.654  1.00  0.00     0.049 A 
ATOM     53  C   UNL A   1      38.288  31.364  31.628  1.00  0.00     0.074 A 
ATOM     54  C   UNL A   1      42.584  29.616  35.955  1.00  0.00     0.029 A 
ATOM     55  N   UNL A   1      41.353  29.817  34.112  1.00  0.00    -0.354 N 
ATOM     56  N   UNL A   1      39.215  30.944  32.456  1.00  0.00    -0.248 NA
ATOM     57  C   UNL A   1      37.323  32.297  32.229  1.00  0.00     0.031 C 
ATOM     58  C   UNL A   1      41.543  30.513  36.214  1.00  0.00     0.029 A 
ATOM     59  C   UNL A   1      40.788  30.654  35.060  1.00  0.00     0.049 A 
ATOM     60  H   UNL A   1      41.025  29.705  33.190  1.00  0.00     0.167 HD
ATOM     61  C   UNL A   1      38.961  31.581  33.665  1.00  0.00     0.074 A 
ATOM     62  C   UNL A   1      37.799  32.422  33.461  1.00  0.00     0.031 C 
ATOM     63  C   UNL A   1      39.633  31.482  34.838  1.00  0.00     0.031 A 
BRANCH  50  64
ATOM     64  C   UNL A   1      44.363  27.517  34.691  1.00  0.00    -0.014 A 
ATOM     65  C   UNL A   1      44.151  26.329  35.406  1.00  0.00     0.009 A 
ATOM     66  C   UNL A   1      45.651  28.071  34.654  1.00  0.00     0.009 A 
ATOM     67  C   UNL A   1      45.203  25.723  36.095  1.00  0.00     0.001 A 
ATOM     68  C   UNL A   1      46.706  27.453  35.326  1.00  0.00     0.001 A 
ATOM     69  C   UNL A   1      46.480  26.284  36.052  1.00  0.00     0.000 A 
ENDBRANCH  50  64
BRANCH  51  70
ATOM     70  C   UNL A   1      36.974  31.636  29.405  1.00  0.00    -0.014 A 
ATOM     71  C   UNL A   1      37.115  32.909  28.834  1.00  0.00     0.009 A 
ATOM     72  C   UNL A   1      35.757  30.953  29.254  1.00  0.00     0.009 A 
ATOM     73  C   UNL A   1      36.050  33.497  28.148  1.00  0.00     0.001 A 
ATOM     74  C   UNL A   1      34.704  31.533  28.546  1.00  0.00     0.001 A 
ATOM     75  C   UNL A   1      34.847  32.807  28.000  1.00  0.00     0.000 A 
ENDBRANCH  51  70
BRANCH  63  76
ATOM     76  C   UNL A   1      39.151  32.328  35.981  1.00  0.00    -0.014 A 
ATOM     77  C   UNL A   1      39.641  33.627  36.182  1.00  0.00     0.009 A 
ATOM     78  C   UNL A   1      38.156  31.833  36.840  1.00  0.00     0.009 A 
ATOM     79  C   UNL A   1      39.161  34.405  37.238  1.00  0.00     0.001 A 
ATOM     80  C   UNL A   1      37.661  32.623  37.879  1.00  0.00     0.001 A 
ATOM     81  C   UNL A   1      38.168  33.904  38.081  1.00  0.00     0.000 A 
ENDBRANCH  63  76
ENDBRANCH  37  38
ENDBRANCH  30  32
ENDBRANCH  29  30
ENDBRANCH  28  29
ENDBRANCH  27  28
ENDBRANCH  26  27
ENDBRANCH  25  26
ENDBRANCH   1  25
TORSDOF 19
ENDMDL
MODEL 2
REMARK VINA RESULT:     -10.2      3.785      7.759
REMARK SMILES Cc1cc(C(=O)N[C@H]2C=C[C@H](C(=O)OCCOCCOCCOC(=O)c3ccc(-c4c5nc(c(-c6ccccc6)c6ccc([nH]6)c(-c6ccccc6)c6nc(c(-c7ccccc7)c7ccc4[nH]7)C=C6)C=C5)cc3)C2)ccc1F
REMARK SMILES IDX 18 1 17 2 16 3 15 4 14 5 12 6 13 7 11 8 8 9 9 10 74 11 10 12
REMARK SMILES IDX 7 13 5 14 6 15 4 17 1 18 2 19 3 20 77 21 76 22 78 23 75 24
REMARK SMILES IDX 19 25 20 26 21 27 22 28 23 29 24 30 25 31 26 32 27 33 73 34
REMARK SMILES IDX 28 35 72 36 29 37 30 38 31 39 66 40 32 41 71 42 65 43 67 44
REMARK SMILES IDX 33 45 70 46 64 47 63 48 34 50 56 51 41 52 55 53 42 54 45 55
REMARK SMILES IDX 54 56 68 57 43 58 44 59 53 61 69 62 46 63 35 64 36 65 40 66
REMARK SMILES IDX 37 67 39 68 38 69 57 70 58 71 62 72 59 73 61 74 60 75 47 76
REMARK SMILES IDX 48 77 52 78 49 79 51 80 50 81
REMARK H PARENT 7 16 67 49 45 60
REMARK Flexibility Score: inf
ROOT
ATOM      1  C   UNL A   1      34.845  24.170  23.878  1.00  0.00     0.188 C 
ENDROOT
BRANCH   1   2
ATOM      2  O   UNL A   1      33.480  23.937  23.575  1.00  0.00    -0.376 OA
BRANCH   2   3
ATOM      3  C   UNL A   1      32.857  24.700  22.539  1.00  0.00     0.202 C 
BRANCH   3   4
ATOM      4  C   UNL A   1      33.442  26.071  22.218  1.00  0.00     0.261 C 
BRANCH   4   5
ATOM      5  O   UNL A   1      32.534  27.100  22.635  1.00  0.00    -0.463 OA
BRANCH   5   6
ATOM      6  C   UNL A   1      32.676  27.481  23.931  1.00  0.00     0.312 C 
ATOM      7  O   UNL A   1      33.752  27.721  24.463  1.00  0.00    -0.252 OA
BRANCH   6   8
ATOM      8  C   UNL A   1      31.306  27.778  24.543  1.00  0.00     0.124 C 
ATOM      9  C   UNL A   1      30.705  25.611  25.400  1.00  0.00     0.106 C 
ATOM     10  C   UNL A   1      29.790  26.005  24.279  1.00  0.00    -0.006 C 
ATOM     11  C   UNL A   1      31.196  26.992  25.858  1.00  0.00     0.048 C 
ATOM     12  C   UNL A   1      30.163  27.189  23.769  1.00  0.00    -0.014 C 
BRANCH   9  13
ATOM     13  N   UNL A   1      30.024  24.853  26.407  1.00  0.00    -0.346 N 
ATOM     14  C   UNL A   1      30.177  23.554  26.826  1.00  0.00     0.251 C 
ATOM     15  O   UNL A   1      29.342  23.135  27.631  1.00  0.00    -0.269 OA
ATOM     16  H   UNL A   1      29.321  25.353  26.884  1.00  0.00     0.164 HD
BRANCH  14  17
ATOM     17  C   UNL A   1      31.303  22.643  26.425  1.00  0.00     0.040 A 
ATOM     18  C   UNL A   1      32.462  20.150  23.772  1.00  0.00     0.047 C 
ATOM     19  C   UNL A   1      32.450  21.004  25.006  1.00  0.00    -0.015 A 
ATOM     20  C   UNL A   1      31.302  21.742  25.352  1.00  0.00     0.020 A 
ATOM     21  C   UNL A   1      33.596  21.137  25.786  1.00  0.00     0.126 A 
ATOM     22  C   UNL A   1      33.609  21.969  26.896  1.00  0.00     0.040 A 
ATOM     23  F   UNL A   1      34.707  20.458  25.467  1.00  0.00    -0.207 F 
ATOM     24  C   UNL A   1      32.472  22.722  27.207  1.00  0.00     0.017 A 
ENDBRANCH  14  17
ENDBRANCH   9  13
ENDBRANCH   6   8
ENDBRANCH   5   6
ENDBRANCH   4   5
ENDBRANCH   3   4
ENDBRANCH   2   3
ENDBRANCH   1   2
BRANCH   1  25
ATOM     25  C   UNL A   1      35.890  23.058  23.654  1.00  0.00     0.188 C 
BRANCH  25  26
ATOM     26  O   UNL A   1      37.122  23.075  24.351  1.00  0.00    -0.376 OA
BRANCH  26  27
ATOM     27  C   UNL A   1      37.259  22.262  25.513  1.00  0.00     0.202 C 
BRANCH  27  28
ATOM     28  C   UNL A   1      38.661  21.968  26.047  1.00  0.00     0.261 C 
BRANCH  28  29
ATOM     29  O   UNL A   1      39.275  20.858  25.372  1.00  0.00    -0.460 OA
BRANCH  29  30
ATOM     30  C   UNL A   1      40.346  20.334  26.013  1.00  0.00     0.338 C 
ATOM     31  O   UNL A   1      40.709  19.173  26.034  1.00  0.00    -0.246 OA
BRANCH  30  32
ATOM     32  C   UNL A   1      41.167  21.425  26.562  1.00  0.00     0.060 A 
ATOM     33  C   UNL A   1      41.181  21.594  27.954  1.00  0.00     0.016 A 
ATOM     34  C   UNL A   1      41.831  22.321  25.724  1.00  0.00     0.016 A 
ATOM     35  C   UNL A   1      41.827  22.693  28.513  1.00  0.00     0.010 A 
ATOM     36  C   UNL A   1      42.458  23.435  26.285  1.00  0.00     0.010 A 
ATOM     37  C   UNL A   1      42.425  23.642  27.676  1.00  0.00    -0.014 A 
BRANCH  37  38
ATOM     38  C   UNL A   1      42.847  24.944  28.238  1.00  0.00     0.031 A 
ATOM     39  C   UNL A   1      41.803  26.002  28.461  1.00  0.00     0.074 A 
ATOM     40  C   UNL A   1      44.131  25.177  28.552  1.00  0.00     0.049 A 
ATOM     41  N   UNL A   1      41.947  27.228  28.892  1.00  0.00    -0.248 NA
ATOM     42  C   UNL A   1      40.412  25.624  28.159  1.00  0.00     0.031 C 
ATOM     43  C   UNL A   1      45.224  24.214  28.431  1.00  0.00     0.029 A 
ATOM     44  N   UNL A   1      44.730  26.313  29.034  1.00  0.00    -0.354 N 
ATOM     45  C   UNL A   1      40.668  27.770  28.909  1.00  0.00     0.074 A 
ATOM     46  C   UNL A   1      39.764  26.748  28.429  1.00  0.00     0.031 C 
ATOM     47  C   UNL A   1      46.367  24.807  28.815  1.00  0.00     0.029 A 
ATOM     48  C   UNL A   1      46.089  26.195  29.180  1.00  0.00     0.049 A 
ATOM     49  H   UNL A   1      44.233  27.134  29.253  1.00  0.00     0.167 HD
ATOM     50  C   UNL A   1      40.280  29.010  29.287  1.00  0.00     0.031 A 
ATOM     51  C   UNL A   1      47.004  27.113  29.543  1.00  0.00     0.031 A 
ATOM     52  C   UNL A   1      41.178  30.036  29.738  1.00  0.00     0.049 A 
ATOM     53  C   UNL A   1      46.559  28.513  29.870  1.00  0.00     0.074 A 
ATOM     54  C   UNL A   1      40.880  31.326  30.146  1.00  0.00     0.029 A 
ATOM     55  N   UNL A   1      42.552  29.892  29.829  1.00  0.00    -0.354 N 
ATOM     56  N   UNL A   1      45.346  29.012  29.897  1.00  0.00    -0.248 NA
ATOM     57  C   UNL A   1      47.613  29.479  30.215  1.00  0.00     0.031 C 
ATOM     58  C   UNL A   1      42.084  31.977  30.439  1.00  0.00     0.029 A 
ATOM     59  C   UNL A   1      43.123  31.077  30.261  1.00  0.00     0.049 A 
ATOM     60  H   UNL A   1      43.050  29.068  29.618  1.00  0.00     0.167 HD
ATOM     61  C   UNL A   1      45.489  30.339  30.286  1.00  0.00     0.074 A 
ATOM     62  C   UNL A   1      46.905  30.565  30.493  1.00  0.00     0.031 C 
ATOM     63  C   UNL A   1      44.533  31.283  30.461  1.00  0.00     0.031 A 
BRANCH  50  64
ATOM     64  C   UNL A   1      38.817  29.330  29.184  1.00  0.00    -0.014 A 
ATOM     65  C   UNL A   1      38.253  29.768  27.976  1.00  0.00     0.009 A 
ATOM     66  C   UNL A   1      37.991  29.177  30.307  1.00  0.00     0.009 A 
ATOM     67  C   UNL A   1      36.892  30.073  27.904  1.00  0.00     0.001 A 
ATOM     68  C   UNL A   1      36.627  29.463  30.227  1.00  0.00     0.001 A 
ATOM     69  C   UNL A   1      36.081  29.918  29.028  1.00  0.00     0.000 A 
ENDBRANCH  50  64
BRANCH  51  70
ATOM     70  C   UNL A   1      48.442  26.747  29.594  1.00  0.00    -0.014 A 
ATOM     71  C   UNL A   1      48.987  26.153  30.742  1.00  0.00     0.009 A 
ATOM     72  C   UNL A   1      49.282  27.009  28.500  1.00  0.00     0.009 A 
ATOM     73  C   UNL A   1      50.350  25.851  30.802  1.00  0.00     0.001 A 
ATOM     74  C   UNL A   1      50.637  26.682  28.554  1.00  0.00     0.001 A 
ATOM     75  C   UNL A   1      51.172  26.111  29.707  1.00  0.00     0.000 A 
ENDBRANCH  51  70
BRANCH  63  76
ATOM     76  C   UNL A   1      44.980  32.638  30.930  1.00  0.00    -0.014 A 
ATOM     77  C   UNL A   1      45.323  33.647  30.018  1.00  0.00     0.009 A 
ATOM     78  C   UNL A   1      45.011  32.921  32.306  1.00  0.00     0.009 A 
ATOM     79  C   UNL A   1      45.713  34.907  30.477  1.00  0.00     0.001 A 
ATOM     80  C   UNL A   1      45.377  34.188  32.759  1.00  0.00     0.001 A 
ATOM     81  C   UNL A   1      45.735  35.178  31.846  1.00  0.00     0.000 A 
ENDBRANCH  63  76
ENDBRANCH  37  38
ENDBRANCH  30  32
ENDBRANCH  29  30
ENDBRANCH  28  29
ENDBRANCH  27  28
ENDBRANCH  26  27
ENDBRANCH  25  26
ENDBRANCH   1  25
TORSDOF 19
ENDMDL
MODEL 3
REMARK VINA RESULT:     -10.0      0.976      5.907
REMARK SMILES Cc1cc(C(=O)N[C@H]2C=C[C@H](C(=O)OCCOCCOCCOC(=O)c3ccc(-c4c5nc(c(-c6ccccc6)c6ccc([nH]6)c(-c6ccccc6)c6nc(c(-c7ccccc7)c7ccc4[nH]7)C=C6)C=C5)cc3)C2)ccc1F
REMARK SMILES IDX 18 1 17 2 16 3 15 4 14 5 12 6 13 7 11 8 8 9 9 10 74 11 10 12
REMARK SMILES IDX 7 13 5 14 6 15 4 17 1 18 2 19 3 20 77 21 76 22 78 23 75 24
REMARK SMILES IDX 19 25 20 26 21 27 22 28 23 29 24 30 25 31 26 32 27 33 73 34
REMARK SMILES IDX 28 35 72 36 29 37 30 38 31 39 66 40 32 41 71 42 65 43 67 44
REMARK SMILES IDX 33 45 70 46 64 47 63 48 34 50 56 51 41 52 55 53 42 54 45 55
REMARK SMILES IDX 54 56 68 57 43 58 44 59 53 61 69 62 46 63 35 64 36 65 40 66
REMARK SMILES IDX 37 67 39 68 38 69 57 70 58 71 62 72 59 73 61 74 60 75 47 76
REMARK SMILES IDX 48 77 52 78 49 79 51 80 50 81
REMARK H PARENT 7 16 67 49 45 60
REMARK Flexibility Score: inf
ROOT
ATOM      1  C   UNL A   1      40.036  20.359  26.058  1.00  0.00     0.188 C 
ENDROOT
BRANCH   1   2
ATOM      2  O   UNL A   1      39.358  21.600  26.163  1.00  0.00    -0.376 OA
BRANCH   2   3
ATOM      3  C   UNL A   1      38.015  21.702  25.685  1.00  0.00     0.202 C 
BRANCH   3   4
ATOM      4  C   UNL A   1      37.425  23.097  25.515  1.00  0.00     0.261 C 
BRANCH   4   5
ATOM      5  O   UNL A   1      36.105  23.142  26.074  1.00  0.00    -0.463 OA
BRANCH   5   6
ATOM      6  C   UNL A   1      35.132  23.472  25.186  1.00  0.00     0.312 C 
ATOM      7  O   UNL A   1      35.246  24.348  24.337  1.00  0.00    -0.252 OA
BRANCH   6   8
ATOM      8  C   UNL A   1      33.991  22.457  25.256  1.00  0.00     0.124 C 
ATOM      9  C   UNL A   1      32.290  23.752  26.361  1.00  0.00     0.106 C 
ATOM     10  C   UNL A   1      32.746  22.626  27.239  1.00  0.00    -0.006 C 
ATOM     11  C   UNL A   1      32.677  23.203  24.980  1.00  0.00     0.048 C 
ATOM     12  C   UNL A   1      33.733  21.939  26.641  1.00  0.00    -0.014 C 
BRANCH   9  13
ATOM     13  N   UNL A   1      30.894  24.029  26.525  1.00  0.00    -0.346 N 
ATOM     14  C   UNL A   1      30.192  25.209  26.497  1.00  0.00     0.251 C 
ATOM     15  O   UNL A   1      29.001  25.147  26.810  1.00  0.00    -0.269 OA
ATOM     16  H   UNL A   1      30.339  23.231  26.687  1.00  0.00     0.164 HD
BRANCH  14  17
ATOM     17  C   UNL A   1      30.748  26.536  26.063  1.00  0.00     0.040 A 
ATOM     18  C   UNL A   1      30.907  29.014  23.159  1.00  0.00     0.047 C 
ATOM     19  C   UNL A   1      31.134  28.391  24.505  1.00  0.00    -0.015 A 
ATOM     20  C   UNL A   1      30.662  27.094  24.780  1.00  0.00     0.020 A 
ATOM     21  C   UNL A   1      31.748  29.114  25.525  1.00  0.00     0.126 A 
ATOM     22  C   UNL A   1      31.910  28.565  26.789  1.00  0.00     0.040 A 
ATOM     23  F   UNL A   1      32.190  30.358  25.293  1.00  0.00    -0.207 F 
ATOM     24  C   UNL A   1      31.405  27.288  27.056  1.00  0.00     0.017 A 
ENDBRANCH  14  17
ENDBRANCH   9  13
ENDBRANCH   6   8
ENDBRANCH   5   6
ENDBRANCH   4   5
ENDBRANCH   3   4
ENDBRANCH   2   3
ENDBRANCH   1   2
BRANCH   1  25
ATOM     25  C   UNL A   1      41.567  20.295  26.239  1.00  0.00     0.188 C 
BRANCH  25  26
ATOM     26  O   UNL A   1      42.432  20.855  25.269  1.00  0.00    -0.376 OA
BRANCH  26  27
ATOM     27  C   UNL A   1      43.771  21.162  25.645  1.00  0.00     0.202 C 
BRANCH  27  28
ATOM     28  C   UNL A   1      44.572  22.145  24.790  1.00  0.00     0.261 C 
BRANCH  28  29
ATOM     29  O   UNL A   1      43.873  23.384  24.593  1.00  0.00    -0.460 OA
BRANCH  29  30
ATOM     30  C   UNL A   1      44.545  24.481  25.016  1.00  0.00     0.338 C 
ATOM     31  O   UNL A   1      45.600  24.919  24.594  1.00  0.00    -0.246 OA
BRANCH  30  32
ATOM     32  C   UNL A   1      43.713  25.223  25.975  1.00  0.00     0.060 A 
ATOM     33  C   UNL A   1      43.979  26.589  26.150  1.00  0.00     0.016 A 
ATOM     34  C   UNL A   1      42.757  24.573  26.756  1.00  0.00     0.016 A 
ATOM     35  C   UNL A   1      43.315  27.303  27.143  1.00  0.00     0.010 A 
ATOM     36  C   UNL A   1      42.111  25.285  27.768  1.00  0.00     0.010 A 
ATOM     37  C   UNL A   1      42.416  26.641  27.987  1.00  0.00    -0.014 A 
BRANCH  37  38
ATOM     38  C   UNL A   1      41.940  27.314  29.215  1.00  0.00     0.031 A 
ATOM     39  C   UNL A   1      40.669  28.115  29.148  1.00  0.00     0.074 A 
ATOM     40  C   UNL A   1      42.618  27.209  30.369  1.00  0.00     0.049 A 
ATOM     41  N   UNL A   1      40.091  28.829  30.079  1.00  0.00    -0.248 NA
ATOM     42  C   UNL A   1      39.956  28.106  27.859  1.00  0.00     0.031 C 
ATOM     43  C   UNL A   1      43.831  26.420  30.571  1.00  0.00     0.029 A 
ATOM     44  N   UNL A   1      42.376  27.783  31.591  1.00  0.00    -0.354 N 
ATOM     45  C   UNL A   1      38.950  29.358  29.488  1.00  0.00     0.074 A 
ATOM     46  C   UNL A   1      38.926  28.899  28.117  1.00  0.00     0.031 C 
ATOM     47  C   UNL A   1      44.239  26.573  31.843  1.00  0.00     0.029 A 
ATOM     48  C   UNL A   1      43.332  27.490  32.531  1.00  0.00     0.049 A 
ATOM     49  H   UNL A   1      41.594  28.351  31.775  1.00  0.00     0.167 HD
ATOM     50  C   UNL A   1      38.007  30.158  30.038  1.00  0.00     0.031 A 
ATOM     51  C   UNL A   1      43.469  27.935  33.794  1.00  0.00     0.031 A 
ATOM     52  C   UNL A   1      38.042  30.638  31.392  1.00  0.00     0.049 A 
ATOM     53  C   UNL A   1      42.457  28.898  34.354  1.00  0.00     0.074 A 
ATOM     54  C   UNL A   1      37.131  31.452  32.043  1.00  0.00     0.029 A 
ATOM     55  N   UNL A   1      39.050  30.355  32.299  1.00  0.00    -0.354 N 
ATOM     56  N   UNL A   1      41.374  29.381  33.793  1.00  0.00    -0.248 NA
ATOM     57  C   UNL A   1      42.690  29.380  35.724  1.00  0.00     0.031 C 
ATOM     58  C   UNL A   1      37.615  31.701  33.331  1.00  0.00     0.029 A 
ATOM     59  C   UNL A   1      38.800  31.000  33.497  1.00  0.00     0.049 A 
ATOM     60  H   UNL A   1      39.829  29.780  32.118  1.00  0.00     0.167 HD
ATOM     61  C   UNL A   1      40.784  30.200  34.748  1.00  0.00     0.074 A 
ATOM     62  C   UNL A   1      41.624  30.142  35.927  1.00  0.00     0.031 C 
ATOM     63  C   UNL A   1      39.646  30.931  34.658  1.00  0.00     0.031 A 
BRANCH  50  64
ATOM     64  C   UNL A   1      36.879  30.596  29.150  1.00  0.00    -0.014 A 
ATOM     65  C   UNL A   1      35.881  29.695  28.746  1.00  0.00     0.009 A 
ATOM     66  C   UNL A   1      36.806  31.930  28.726  1.00  0.00     0.009 A 
ATOM     67  C   UNL A   1      34.847  30.118  27.909  1.00  0.00     0.001 A 
ATOM     68  C   UNL A   1      35.759  32.356  27.907  1.00  0.00     0.001 A 
ATOM     69  C   UNL A   1      34.785  31.449  27.493  1.00  0.00     0.000 A 
ENDBRANCH  50  64
BRANCH  51  70
ATOM     70  C   UNL A   1      44.625  27.493  34.615  1.00  0.00    -0.014 A 
ATOM     71  C   UNL A   1      45.855  28.164  34.534  1.00  0.00     0.009 A 
ATOM     72  C   UNL A   1      44.510  26.385  35.468  1.00  0.00     0.009 A 
ATOM     73  C   UNL A   1      46.952  27.718  35.274  1.00  0.00     0.001 A 
ATOM     74  C   UNL A   1      45.601  25.958  36.225  1.00  0.00     0.001 A 
ATOM     75  C   UNL A   1      46.824  26.619  36.122  1.00  0.00     0.000 A 
ENDBRANCH  51  70
BRANCH  63  76
ATOM     76  C   UNL A   1      39.223  31.700  35.877  1.00  0.00    -0.014 A 
ATOM     77  C   UNL A   1      38.134  31.284  36.658  1.00  0.00     0.009 A 
ATOM     78  C   UNL A   1      39.958  32.828  36.276  1.00  0.00     0.009 A 
ATOM     79  C   UNL A   1      37.773  32.001  37.801  1.00  0.00     0.001 A 
ATOM     80  C   UNL A   1      39.609  33.527  37.432  1.00  0.00     0.001 A 
ATOM     81  C   UNL A   1      38.514  33.118  38.190  1.00  0.00     0.000 A 
ENDBRANCH  63  76
ENDBRANCH  37  38
ENDBRANCH  30  32
ENDBRANCH  29  30
ENDBRANCH  28  29
ENDBRANCH  27  28
ENDBRANCH  26  27
ENDBRANCH  25  26
ENDBRANCH   1  25
TORSDOF 19
ENDMDL
