MODEL 1
REMARK VINA RESULT:      -9.9      0.000      0.000
REMARK SMILES C[C@H]1[C@H]([NH+]2CCC(CC(=O)OCCOCCOCCOC(=O)c3ccc(-c4c5nc(c(-c6ccccc6)c6ccc([nH]6)c(-c6ccccc6)c6nc(c(-c7ccccc7)c7ccc4[nH]7)C=C6)C=C5)cc3)CC2)CCC[C@@H]1C
REMARK SMILES IDX 15 1 14 2 13 3 12 4 11 5 9 6 10 7 8 8 7 9 4 10 5 11 72 12
REMARK SMILES IDX 6 14 71 15 3 16 1 17 2 18 76 19 73 20 75 21 77 22 74 23
REMARK SMILES IDX 16 24 17 25 18 26 19 27 20 28 21 29 22 30 23 31 24 32 70 33
REMARK SMILES IDX 25 34 69 35 26 36 27 37 28 38 63 39 29 40 68 41 62 42 64 43
REMARK SMILES IDX 30 44 67 45 61 46 60 47 31 49 53 50 38 51 52 52 39 53 42 54
REMARK SMILES IDX 51 55 65 56 40 57 41 58 50 60 66 61 43 62 32 63 33 64 37 65
REMARK SMILES IDX 34 66 36 67 35 68 54 69 55 70 59 71 56 72 58 73 57 74 44 75
REMARK SMILES IDX 45 76 49 77 46 78 48 79 47 80
REMARK H PARENT 4 13 64 48 42 59
REMARK Flexibility Score: inf
ROOT
ATOM      1  C   UNL A   1      34.452  32.814  29.440  1.00  0.00     0.188 C 
ENDROOT
BRANCH   1   2
ATOM      2  O   UNL A   1      34.934  31.544  29.023  1.00  0.00    -0.376 OA
BRANCH   2   3
ATOM      3  C   UNL A   1      34.767  31.220  27.644  1.00  0.00     0.202 C 
BRANCH   3   4
ATOM      4  C   UNL A   1      33.583  30.309  27.287  1.00  0.00     0.261 C 
BRANCH   4   5
ATOM      5  O   UNL A   1      33.905  28.905  27.289  1.00  0.00    -0.463 OA
BRANCH   5   6
ATOM      6  C   UNL A   1      32.874  28.055  27.061  1.00  0.00     0.306 C 
ATOM      7  O   UNL A   1      31.732  28.215  27.481  1.00  0.00    -0.252 OA
BRANCH   6   8
ATOM      8  C   UNL A   1      33.219  26.865  26.185  1.00  0.00     0.126 C 
BRANCH   8   9
ATOM      9  C   UNL A   1      33.066  26.903  24.646  1.00  0.00     0.011 C 
ATOM     10  N   UNL A   1      31.073  28.064  22.745  1.00  0.00    -0.332 N 
ATOM     11  C   UNL A   1      32.409  28.649  22.869  1.00  0.00     0.262 C 
ATOM     12  C   UNL A   1      31.192  26.614  22.858  1.00  0.00     0.262 C 
ATOM     13  H   UNL A   1      30.740  28.295  21.810  1.00  0.00     0.348 HD
ATOM     14  C   UNL A   1      33.063  28.392  24.219  1.00  0.00     0.066 C 
ATOM     15  C   UNL A   1      31.838  26.118  24.157  1.00  0.00     0.066 C 
BRANCH  10  16
ATOM     16  C   UNL A   1      29.904  28.731  23.395  1.00  0.00     0.187 C 
ATOM     17  C   UNL A   1      30.714  30.725  24.833  1.00  0.00     0.014 C 
ATOM     18  C   UNL A   1      29.938  30.293  23.563  1.00  0.00     0.047 C 
ATOM     19  C   UNL A   1      28.572  31.042  23.618  1.00  0.00    -0.006 C 
ATOM     20  C   UNL A   1      28.592  28.186  22.778  1.00  0.00     0.065 C 
ATOM     21  C   UNL A   1      27.448  30.366  22.843  1.00  0.00     0.004 C 
ATOM     22  C   UNL A   1      28.723  32.511  23.181  1.00  0.00     0.008 C 
ATOM     23  C   UNL A   1      27.346  28.909  23.254  1.00  0.00     0.006 C 
ENDBRANCH  10  16
ENDBRANCH   8   9
ENDBRANCH   6   8
ENDBRANCH   5   6
ENDBRANCH   4   5
ENDBRANCH   3   4
ENDBRANCH   2   3
ENDBRANCH   1   2
BRANCH   1  24
ATOM     24  C   UNL A   1      35.284  34.036  29.054  1.00  0.00     0.188 C 
BRANCH  24  25
ATOM     25  O   UNL A   1      34.642  35.040  28.281  1.00  0.00    -0.376 OA
BRANCH  25  26
ATOM     26  C   UNL A   1      33.257  35.257  28.583  1.00  0.00     0.202 C 
BRANCH  26  27
ATOM     27  C   UNL A   1      32.936  36.142  29.808  1.00  0.00     0.261 C 
BRANCH  27  28
ATOM     28  O   UNL A   1      32.411  35.450  30.964  1.00  0.00    -0.460 OA
BRANCH  28  29
ATOM     29  C   UNL A   1      32.775  35.881  32.195  1.00  0.00     0.338 C 
ATOM     30  O   UNL A   1      32.136  36.621  32.922  1.00  0.00    -0.246 OA
BRANCH  29  31
ATOM     31  C   UNL A   1      33.950  35.077  32.640  1.00  0.00     0.060 A 
ATOM     32  C   UNL A   1      35.228  35.654  32.555  1.00  0.00     0.016 A 
ATOM     33  C   UNL A   1      33.802  33.813  33.220  1.00  0.00     0.016 A 
ATOM     34  C   UNL A   1      36.355  34.958  33.011  1.00  0.00     0.010 A 
ATOM     35  C   UNL A   1      34.932  33.113  33.664  1.00  0.00     0.010 A 
ATOM     36  C   UNL A   1      36.218  33.666  33.534  1.00  0.00    -0.014 A 
BRANCH  36  37
ATOM     37  C   UNL A   1      37.409  32.799  33.743  1.00  0.00     0.031 A 
ATOM     38  C   UNL A   1      38.207  32.989  35.006  1.00  0.00     0.074 A 
ATOM     39  C   UNL A   1      37.799  31.874  32.845  1.00  0.00     0.049 A 
ATOM     40  N   UNL A   1      39.341  32.443  35.366  1.00  0.00    -0.248 NA
ATOM     41  C   UNL A   1      37.646  33.926  35.993  1.00  0.00     0.031 C 
ATOM     42  C   UNL A   1      37.099  31.533  31.610  1.00  0.00     0.029 A 
ATOM     43  N   UNL A   1      38.907  31.058  32.842  1.00  0.00    -0.354 N 
ATOM     44  C   UNL A   1      39.636  32.985  36.611  1.00  0.00     0.074 A 
ATOM     45  C   UNL A   1      38.578  33.916  36.933  1.00  0.00     0.031 C 
ATOM     46  C   UNL A   1      37.802  30.587  30.960  1.00  0.00     0.029 A 
ATOM     47  C   UNL A   1      39.024  30.289  31.708  1.00  0.00     0.049 A 
ATOM     48  H   UNL A   1      39.557  31.028  33.582  1.00  0.00     0.167 HD
ATOM     49  C   UNL A   1      40.695  32.735  37.417  1.00  0.00     0.031 A 
ATOM     50  C   UNL A   1      40.015  29.466  31.306  1.00  0.00     0.031 A 
ATOM     51  C   UNL A   1      41.762  31.824  37.102  1.00  0.00     0.049 A 
ATOM     52  C   UNL A   1      41.236  29.281  32.174  1.00  0.00     0.074 A 
ATOM     53  C   UNL A   1      42.869  31.501  37.865  1.00  0.00     0.029 A 
ATOM     54  N   UNL A   1      41.859  31.101  35.925  1.00  0.00    -0.354 N 
ATOM     55  N   UNL A   1      41.500  29.787  33.354  1.00  0.00    -0.248 NA
ATOM     56  C   UNL A   1      42.300  28.410  31.649  1.00  0.00     0.031 C 
ATOM     57  C   UNL A   1      43.671  30.630  37.122  1.00  0.00     0.029 A 
ATOM     58  C   UNL A   1      43.026  30.356  35.928  1.00  0.00     0.049 A 
ATOM     59  H   UNL A   1      41.196  31.114  35.196  1.00  0.00     0.167 HD
ATOM     60  C   UNL A   1      42.736  29.268  33.726  1.00  0.00     0.074 A 
ATOM     61  C   UNL A   1      43.169  28.401  32.650  1.00  0.00     0.031 C 
ATOM     62  C   UNL A   1      43.446  29.488  34.859  1.00  0.00     0.031 A 
BRANCH  49  63
ATOM     63  C   UNL A   1      40.773  33.501  38.709  1.00  0.00    -0.014 A 
ATOM     64  C   UNL A   1      40.168  33.024  39.882  1.00  0.00     0.009 A 
ATOM     65  C   UNL A   1      41.490  34.707  38.754  1.00  0.00     0.009 A 
ATOM     66  C   UNL A   1      40.251  33.758  41.067  1.00  0.00     0.001 A 
ATOM     67  C   UNL A   1      41.598  35.422  39.947  1.00  0.00     0.001 A 
ATOM     68  C   UNL A   1      40.970  34.953  41.099  1.00  0.00     0.000 A 
ENDBRANCH  49  63
BRANCH  50  69
ATOM     69  C   UNL A   1      39.928  28.772  29.991  1.00  0.00    -0.014 A 
ATOM     70  C   UNL A   1      39.407  27.471  29.899  1.00  0.00     0.009 A 
ATOM     71  C   UNL A   1      40.409  29.391  28.826  1.00  0.00     0.009 A 
ATOM     72  C   UNL A   1      39.394  26.797  28.675  1.00  0.00     0.001 A 
ATOM     73  C   UNL A   1      40.365  28.726  27.599  1.00  0.00     0.001 A 
ATOM     74  C   UNL A   1      39.868  27.427  27.526  1.00  0.00     0.000 A 
ENDBRANCH  50  69
BRANCH  62  75
ATOM     75  C   UNL A   1      44.744  28.745  35.033  1.00  0.00    -0.014 A 
ATOM     76  C   UNL A   1      45.968  29.302  34.634  1.00  0.00     0.009 A 
ATOM     77  C   UNL A   1      44.745  27.496  35.677  1.00  0.00     0.009 A 
ATOM     78  C   UNL A   1      47.163  28.611  34.854  1.00  0.00     0.001 A 
ATOM     79  C   UNL A   1      45.942  26.822  35.922  1.00  0.00     0.001 A 
ATOM     80  C   UNL A   1      47.149  27.377  35.504  1.00  0.00     0.000 A 
ENDBRANCH  62  75
ENDBRANCH  36  37
ENDBRANCH  29  31
ENDBRANCH  28  29
ENDBRANCH  27  28
ENDBRANCH  26  27
ENDBRANCH  25  26
ENDBRANCH  24  25
ENDBRANCH   1  24
TORSDOF 19
ENDMDL
MODEL 2
REMARK VINA RESULT:      -9.7      4.500      9.391
REMARK SMILES C[C@H]1[C@H]([NH+]2CCC(CC(=O)OCCOCCOCCOC(=O)c3ccc(-c4c5nc(c(-c6ccccc6)c6ccc([nH]6)c(-c6ccccc6)c6nc(c(-c7ccccc7)c7ccc4[nH]7)C=C6)C=C5)cc3)CC2)CCC[C@@H]1C
REMARK SMILES IDX 15 1 14 2 13 3 12 4 11 5 9 6 10 7 8 8 7 9 4 10 5 11 72 12
REMARK SMILES IDX 6 14 71 15 3 16 1 17 2 18 76 19 73 20 75 21 77 22 74 23
REMARK SMILES IDX 16 24 17 25 18 26 19 27 20 28 21 29 22 30 23 31 24 32 70 33
REMARK SMILES IDX 25 34 69 35 26 36 27 37 28 38 63 39 29 40 68 41 62 42 64 43
REMARK SMILES IDX 30 44 67 45 61 46 60 47 31 49 53 50 38 51 52 52 39 53 42 54
REMARK SMILES IDX 51 55 65 56 40 57 41 58 50 60 66 61 43 62 32 63 33 64 37 65
REMARK SMILES IDX 34 66 36 67 35 68 54 69 55 70 59 71 56 72 58 73 57 74 44 75
REMARK SMILES IDX 45 76 49 77 46 78 48 79 47 80
REMARK H PARENT 4 13 64 48 42 59
REMARK Flexibility Score: inf
ROOT
ATOM      1  C   UNL A   1      39.670  20.277  25.775  1.00  0.00     0.188 C 
ENDROOT
BRANCH   1   2
ATOM      2  O   UNL A   1      39.574  21.692  25.859  1.00  0.00    -0.376 OA
BRANCH   2   3
ATOM      3  C   UNL A   1      38.269  22.252  25.716  1.00  0.00     0.202 C 
BRANCH   3   4
ATOM      4  C   UNL A   1      37.263  21.452  24.875  1.00  0.00     0.261 C 
BRANCH   4   5
ATOM      5  O   UNL A   1      36.194  20.867  25.644  1.00  0.00    -0.463 OA
BRANCH   5   6
ATOM      6  C   UNL A   1      35.058  20.578  24.962  1.00  0.00     0.306 C 
ATOM      7  O   UNL A   1      34.711  19.449  24.630  1.00  0.00    -0.252 OA
BRANCH   6   8
ATOM      8  C   UNL A   1      34.182  21.780  24.657  1.00  0.00     0.126 C 
BRANCH   8   9
ATOM      9  C   UNL A   1      32.918  22.108  25.485  1.00  0.00     0.011 C 
ATOM     10  N   UNL A   1      31.122  24.481  25.756  1.00  0.00    -0.332 N 
ATOM     11  C   UNL A   1      30.656  23.272  25.074  1.00  0.00     0.262 C 
ATOM     12  C   UNL A   1      31.954  24.083  26.886  1.00  0.00     0.262 C 
ATOM     13  H   UNL A   1      30.290  24.953  26.110  1.00  0.00     0.348 HD
ATOM     14  C   UNL A   1      31.781  22.435  24.484  1.00  0.00     0.066 C 
ATOM     15  C   UNL A   1      33.165  23.216  26.522  1.00  0.00     0.066 C 
BRANCH  10  16
ATOM     16  C   UNL A   1      31.536  25.674  24.956  1.00  0.00     0.187 C 
ATOM     17  C   UNL A   1      33.921  25.317  24.014  1.00  0.00     0.014 C 
ATOM     18  C   UNL A   1      32.414  25.440  23.673  1.00  0.00     0.047 C 
ATOM     19  C   UNL A   1      32.316  26.496  22.531  1.00  0.00    -0.006 C 
ATOM     20  C   UNL A   1      30.310  26.593  24.729  1.00  0.00     0.065 C 
ATOM     21  C   UNL A   1      30.969  27.202  22.435  1.00  0.00     0.004 C 
ATOM     22  C   UNL A   1      32.705  25.884  21.171  1.00  0.00     0.008 C 
ATOM     23  C   UNL A   1      30.584  27.756  23.794  1.00  0.00     0.006 C 
ENDBRANCH  10  16
ENDBRANCH   8   9
ENDBRANCH   6   8
ENDBRANCH   5   6
ENDBRANCH   4   5
ENDBRANCH   3   4
ENDBRANCH   2   3
ENDBRANCH   1   2
BRANCH   1  24
ATOM     24  C   UNL A   1      40.955  19.634  26.297  1.00  0.00     0.188 C 
BRANCH  24  25
ATOM     25  O   UNL A   1      42.020  19.471  25.372  1.00  0.00    -0.376 OA
BRANCH  25  26
ATOM     26  C   UNL A   1      43.339  19.581  25.927  1.00  0.00     0.202 C 
BRANCH  26  27
ATOM     27  C   UNL A   1      44.221  20.742  25.414  1.00  0.00     0.261 C 
BRANCH  27  28
ATOM     28  O   UNL A   1      43.998  22.026  26.040  1.00  0.00    -0.460 OA
BRANCH  28  29
ATOM     29  C   UNL A   1      43.558  23.051  25.272  1.00  0.00     0.338 C 
ATOM     30  O   UNL A   1      43.411  23.038  24.062  1.00  0.00    -0.246 OA
BRANCH  29  31
ATOM     31  C   UNL A   1      43.007  24.103  26.174  1.00  0.00     0.060 A 
ATOM     32  C   UNL A   1      43.531  25.403  26.085  1.00  0.00     0.016 A 
ATOM     33  C   UNL A   1      41.929  23.852  27.029  1.00  0.00     0.016 A 
ATOM     34  C   UNL A   1      43.009  26.437  26.872  1.00  0.00     0.010 A 
ATOM     35  C   UNL A   1      41.417  24.884  27.826  1.00  0.00     0.010 A 
ATOM     36  C   UNL A   1      41.972  26.175  27.777  1.00  0.00    -0.014 A 
BRANCH  36  37
ATOM     37  C   UNL A   1      41.608  27.166  28.825  1.00  0.00     0.031 A 
ATOM     38  C   UNL A   1      42.399  27.160  30.107  1.00  0.00     0.074 A 
ATOM     39  C   UNL A   1      40.600  28.045  28.674  1.00  0.00     0.049 A 
ATOM     40  N   UNL A   1      42.208  27.839  31.209  1.00  0.00    -0.248 NA
ATOM     41  C   UNL A   1      43.563  26.259  30.147  1.00  0.00     0.031 C 
ATOM     42  C   UNL A   1      39.785  28.213  27.473  1.00  0.00     0.029 A 
ATOM     43  N   UNL A   1      40.083  28.959  29.563  1.00  0.00    -0.354 N 
ATOM     44  C   UNL A   1      43.214  27.434  32.077  1.00  0.00     0.074 A 
ATOM     45  C   UNL A   1      43.999  26.437  31.383  1.00  0.00     0.031 C 
ATOM     46  C   UNL A   1      38.861  29.163  27.704  1.00  0.00     0.029 A 
ATOM     47  C   UNL A   1      38.988  29.638  29.084  1.00  0.00     0.049 A 
ATOM     48  H   UNL A   1      40.462  29.113  30.459  1.00  0.00     0.167 HD
ATOM     49  C   UNL A   1      43.466  27.851  33.340  1.00  0.00     0.031 A 
ATOM     50  C   UNL A   1      38.164  30.515  29.695  1.00  0.00     0.031 A 
ATOM     51  C   UNL A   1      42.684  28.829  34.046  1.00  0.00     0.049 A 
ATOM     52  C   UNL A   1      38.401  30.888  31.138  1.00  0.00     0.074 A 
ATOM     53  C   UNL A   1      42.873  29.320  35.326  1.00  0.00     0.029 A 
ATOM     54  N   UNL A   1      41.560  29.458  33.537  1.00  0.00    -0.354 N 
ATOM     55  N   UNL A   1      39.364  30.511  31.945  1.00  0.00    -0.248 NA
ATOM     56  C   UNL A   1      37.434  31.809  31.756  1.00  0.00     0.031 C 
ATOM     57  C   UNL A   1      41.825  30.198  35.615  1.00  0.00     0.029 A 
ATOM     58  C   UNL A   1      41.025  30.307  34.490  1.00  0.00     0.049 A 
ATOM     59  H   UNL A   1      41.196  29.320  32.632  1.00  0.00     0.167 HD
ATOM     60  C   UNL A   1      39.138  31.174  33.147  1.00  0.00     0.074 A 
ATOM     61  C   UNL A   1      37.952  31.984  32.964  1.00  0.00     0.031 C 
ATOM     62  C   UNL A   1      39.852  31.119  34.297  1.00  0.00     0.031 A 
BRANCH  49  63
ATOM     63  C   UNL A   1      44.618  27.207  34.061  1.00  0.00    -0.014 A 
ATOM     64  C   UNL A   1      45.921  27.718  33.964  1.00  0.00     0.009 A 
ATOM     65  C   UNL A   1      44.384  26.086  34.873  1.00  0.00     0.009 A 
ATOM     66  C   UNL A   1      46.974  27.098  34.639  1.00  0.00     0.001 A 
ATOM     67  C   UNL A   1      45.433  25.488  35.572  1.00  0.00     0.001 A 
ATOM     68  C   UNL A   1      46.728  25.987  35.446  1.00  0.00     0.000 A 
ENDBRANCH  49  63
BRANCH  50  69
ATOM     69  C   UNL A   1      36.997  31.085  28.965  1.00  0.00    -0.014 A 
ATOM     70  C   UNL A   1      36.959  32.446  28.625  1.00  0.00     0.009 A 
ATOM     71  C   UNL A   1      35.894  30.277  28.645  1.00  0.00     0.009 A 
ATOM     72  C   UNL A   1      35.831  32.991  28.003  1.00  0.00     0.001 A 
ATOM     73  C   UNL A   1      34.782  30.818  27.996  1.00  0.00     0.001 A 
ATOM     74  C   UNL A   1      34.747  32.176  27.685  1.00  0.00     0.000 A 
ENDBRANCH  50  69
BRANCH  62  75
ATOM     75  C   UNL A   1      39.414  31.993  35.442  1.00  0.00    -0.014 A 
ATOM     76  C   UNL A   1      39.726  33.361  35.484  1.00  0.00     0.009 A 
ATOM     77  C   UNL A   1      38.609  31.450  36.458  1.00  0.00     0.009 A 
ATOM     78  C   UNL A   1      39.262  34.158  36.533  1.00  0.00     0.001 A 
ATOM     79  C   UNL A   1      38.123  32.256  37.489  1.00  0.00     0.001 A 
ATOM     80  C   UNL A   1      38.456  33.608  37.529  1.00  0.00     0.000 A 
ENDBRANCH  62  75
ENDBRANCH  36  37
ENDBRANCH  29  31
ENDBRANCH  28  29
ENDBRANCH  27  28
ENDBRANCH  26  27
ENDBRANCH  25  26
ENDBRANCH  24  25
ENDBRANCH   1  24
TORSDOF 19
ENDMDL
MODEL 3
REMARK VINA RESULT:      -9.7      1.833      3.536
REMARK SMILES C[C@H]1[C@H]([NH+]2CCC(CC(=O)OCCOCCOCCOC(=O)c3ccc(-c4c5nc(c(-c6ccccc6)c6ccc([nH]6)c(-c6ccccc6)c6nc(c(-c7ccccc7)c7ccc4[nH]7)C=C6)C=C5)cc3)CC2)CCC[C@@H]1C
REMARK SMILES IDX 15 1 14 2 13 3 12 4 11 5 9 6 10 7 8 8 7 9 4 10 5 11 72 12
REMARK SMILES IDX 6 14 71 15 3 16 1 17 2 18 76 19 73 20 75 21 77 22 74 23
REMARK SMILES IDX 16 24 17 25 18 26 19 27 20 28 21 29 22 30 23 31 24 32 70 33
REMARK SMILES IDX 25 34 69 35 26 36 27 37 28 38 63 39 29 40 68 41 62 42 64 43
REMARK SMILES IDX 30 44 67 45 61 46 60 47 31 49 53 50 38 51 52 52 39 53 42 54
REMARK SMILES IDX 51 55 65 56 40 57 41 58 50 60 66 61 43 62 32 63 33 64 37 65
REMARK SMILES IDX 34 66 36 67 35 68 54 69 55 70 59 71 56 72 58 73 57 74 44 75
REMARK SMILES IDX 45 76 49 77 46 78 48 79 47 80
REMARK H PARENT 4 13 64 48 42 59
REMARK Flexibility Score: inf
ROOT
ATOM      1  C   UNL A   1      34.765  32.013  28.814  1.00  0.00     0.188 C 
ENDROOT
BRANCH   1   2
ATOM      2  O   UNL A   1      34.499  31.565  27.492  1.00  0.00    -0.376 OA
BRANCH   2   3
ATOM      3  C   UNL A   1      33.219  30.980  27.263  1.00  0.00     0.202 C 
BRANCH   3   4
ATOM      4  C   UNL A   1      33.194  29.648  26.498  1.00  0.00     0.261 C 
BRANCH   4   5
ATOM      5  O   UNL A   1      32.720  29.761  25.142  1.00  0.00    -0.463 OA
BRANCH   5   6
ATOM      6  C   UNL A   1      31.518  29.191  24.881  1.00  0.00     0.306 C 
ATOM      7  O   UNL A   1      30.617  29.725  24.241  1.00  0.00    -0.252 OA
BRANCH   6   8
ATOM      8  C   UNL A   1      31.360  27.779  25.414  1.00  0.00     0.126 C 
BRANCH   8   9
ATOM      9  C   UNL A   1      30.902  26.607  24.514  1.00  0.00     0.011 C 
ATOM     10  N   UNL A   1      31.995  23.912  23.828  1.00  0.00    -0.332 N 
ATOM     11  C   UNL A   1      30.813  24.038  24.681  1.00  0.00     0.262 C 
ATOM     12  C   UNL A   1      31.932  24.941  22.795  1.00  0.00     0.262 C 
ATOM     13  H   UNL A   1      31.938  22.996  23.384  1.00  0.00     0.348 HD
ATOM     14  C   UNL A   1      30.735  25.364  25.422  1.00  0.00     0.066 C 
ATOM     15  C   UNL A   1      31.844  26.378  23.320  1.00  0.00     0.066 C 
BRANCH  10  16
ATOM     16  C   UNL A   1      33.325  23.603  24.439  1.00  0.00     0.187 C 
ATOM     17  C   UNL A   1      33.027  21.943  26.403  1.00  0.00     0.014 C 
ATOM     18  C   UNL A   1      33.578  22.145  24.968  1.00  0.00     0.047 C 
ATOM     19  C   UNL A   1      35.051  21.635  24.998  1.00  0.00    -0.006 C 
ATOM     20  C   UNL A   1      34.450  24.153  23.527  1.00  0.00     0.065 C 
ATOM     21  C   UNL A   1      35.953  22.244  23.931  1.00  0.00     0.004 C 
ATOM     22  C   UNL A   1      35.109  20.096  24.941  1.00  0.00     0.008 C 
ATOM     23  C   UNL A   1      35.845  23.756  23.973  1.00  0.00     0.006 C 
ENDBRANCH  10  16
ENDBRANCH   8   9
ENDBRANCH   6   8
ENDBRANCH   5   6
ENDBRANCH   4   5
ENDBRANCH   3   4
ENDBRANCH   2   3
ENDBRANCH   1   2
BRANCH   1  24
ATOM     24  C   UNL A   1      35.208  33.467  28.981  1.00  0.00     0.188 C 
BRANCH  24  25
ATOM     25  O   UNL A   1      34.496  34.450  28.243  1.00  0.00    -0.376 OA
BRANCH  25  26
ATOM     26  C   UNL A   1      33.159  34.710  28.695  1.00  0.00     0.202 C 
BRANCH  26  27
ATOM     27  C   UNL A   1      32.982  35.803  29.771  1.00  0.00     0.261 C 
BRANCH  27  28
ATOM     28  O   UNL A   1      32.329  35.384  30.992  1.00  0.00    -0.460 OA
BRANCH  28  29
ATOM     29  C   UNL A   1      32.764  35.900  32.166  1.00  0.00     0.338 C 
ATOM     30  O   UNL A   1      32.181  36.716  32.859  1.00  0.00    -0.246 OA
BRANCH  29  31
ATOM     31  C   UNL A   1      33.935  35.097  32.621  1.00  0.00     0.060 A 
ATOM     32  C   UNL A   1      35.213  35.676  32.551  1.00  0.00     0.016 A 
ATOM     33  C   UNL A   1      33.784  33.831  33.196  1.00  0.00     0.016 A 
ATOM     34  C   UNL A   1      36.336  34.981  33.017  1.00  0.00     0.010 A 
ATOM     35  C   UNL A   1      34.909  33.131  33.649  1.00  0.00     0.010 A 
ATOM     36  C   UNL A   1      36.196  33.687  33.535  1.00  0.00    -0.014 A 
BRANCH  36  37
ATOM     37  C   UNL A   1      37.386  32.822  33.753  1.00  0.00     0.031 A 
ATOM     38  C   UNL A   1      38.178  33.018  35.019  1.00  0.00     0.074 A 
ATOM     39  C   UNL A   1      37.781  31.892  32.862  1.00  0.00     0.049 A 
ATOM     40  N   UNL A   1      39.310  32.474  35.388  1.00  0.00    -0.248 NA
ATOM     41  C   UNL A   1      37.613  33.960  35.999  1.00  0.00     0.031 C 
ATOM     42  C   UNL A   1      37.087  31.545  31.625  1.00  0.00     0.029 A 
ATOM     43  N   UNL A   1      38.889  31.077  32.868  1.00  0.00    -0.354 N 
ATOM     44  C   UNL A   1      39.600  33.022  36.631  1.00  0.00     0.074 A 
ATOM     45  C   UNL A   1      38.540  33.955  36.943  1.00  0.00     0.031 C 
ATOM     46  C   UNL A   1      37.793  30.596  30.983  1.00  0.00     0.029 A 
ATOM     47  C   UNL A   1      39.011  30.302  31.739  1.00  0.00     0.049 A 
ATOM     48  H   UNL A   1      39.535  31.050  33.611  1.00  0.00     0.167 HD
ATOM     49  C   UNL A   1      40.655  32.776  37.443  1.00  0.00     0.031 A 
ATOM     50  C   UNL A   1      40.004  29.478  31.345  1.00  0.00     0.031 A 
ATOM     51  C   UNL A   1      41.723  31.865  37.138  1.00  0.00     0.049 A 
ATOM     52  C   UNL A   1      41.222  29.297  32.219  1.00  0.00     0.074 A 
ATOM     53  C   UNL A   1      42.827  31.545  37.908  1.00  0.00     0.029 A 
ATOM     54  N   UNL A   1      41.826  31.135  35.965  1.00  0.00    -0.354 N 
ATOM     55  N   UNL A   1      41.479  29.808  33.399  1.00  0.00    -0.248 NA
ATOM     56  C   UNL A   1      42.288  28.423  31.704  1.00  0.00     0.031 C 
ATOM     57  C   UNL A   1      43.632  30.670  37.173  1.00  0.00     0.029 A 
ATOM     58  C   UNL A   1      42.993  30.391  35.977  1.00  0.00     0.049 A 
ATOM     59  H   UNL A   1      41.167  31.144  35.233  1.00  0.00     0.167 HD
ATOM     60  C   UNL A   1      42.714  29.292  33.779  1.00  0.00     0.074 A 
ATOM     61  C   UNL A   1      43.153  28.420  32.710  1.00  0.00     0.031 C 
ATOM     62  C   UNL A   1      43.418  29.517  34.915  1.00  0.00     0.031 A 
BRANCH  49  63
ATOM     63  C   UNL A   1      40.726  33.549  38.731  1.00  0.00    -0.014 A 
ATOM     64  C   UNL A   1      40.177  33.044  39.920  1.00  0.00     0.009 A 
ATOM     65  C   UNL A   1      41.381  34.790  38.757  1.00  0.00     0.009 A 
ATOM     66  C   UNL A   1      40.253  33.784  41.102  1.00  0.00     0.001 A 
ATOM     67  C   UNL A   1      41.483  35.513  39.946  1.00  0.00     0.001 A 
ATOM     68  C   UNL A   1      40.909  35.015  41.115  1.00  0.00     0.000 A 
ENDBRANCH  49  63
BRANCH  50  69
ATOM     69  C   UNL A   1      39.924  28.776  30.033  1.00  0.00    -0.014 A 
ATOM     70  C   UNL A   1      40.193  29.458  28.837  1.00  0.00     0.009 A 
ATOM     71  C   UNL A   1      39.532  27.430  29.970  1.00  0.00     0.009 A 
ATOM     72  C   UNL A   1      40.046  28.815  27.604  1.00  0.00     0.001 A 
ATOM     73  C   UNL A   1      39.417  26.781  28.739  1.00  0.00     0.001 A 
ATOM     74  C   UNL A   1      39.664  27.476  27.557  1.00  0.00     0.000 A 
ENDBRANCH  50  69
BRANCH  62  75
ATOM     75  C   UNL A   1      44.716  28.776  35.098  1.00  0.00    -0.014 A 
ATOM     76  C   UNL A   1      45.943  29.334  34.710  1.00  0.00     0.009 A 
ATOM     77  C   UNL A   1      44.713  27.526  35.741  1.00  0.00     0.009 A 
ATOM     78  C   UNL A   1      47.136  28.644  34.939  1.00  0.00     0.001 A 
ATOM     79  C   UNL A   1      45.909  26.854  35.995  1.00  0.00     0.001 A 
ATOM     80  C   UNL A   1      47.119  27.410  35.587  1.00  0.00     0.000 A 
ENDBRANCH  62  75
ENDBRANCH  36  37
ENDBRANCH  29  31
ENDBRANCH  28  29
ENDBRANCH  27  28
ENDBRANCH  26  27
ENDBRANCH  25  26
ENDBRANCH  24  25
ENDBRANCH   1  24
TORSDOF 19
ENDMDL
