MODEL 1
REMARK VINA RESULT:      -9.3      0.000      0.000
REMARK SMILES CC1(C)OC(=O)C(/C=N/[C@@H](CCC(N)=O)C(=O)OCCOCCOCCOC(=O)c2ccc(-c3c4nc(c(-c5ccccc5)c5ccc([nH]5)c(-c5ccccc5)c5nc(c(-c6ccccc6)c6ccc3[nH]6)C=C5)C=C4)cc2)C(=O)O1
REMARK SMILES IDX 22 1 21 2 20 3 19 4 18 5 16 6 17 7 10 8 9 9 8 10 7 11 1 12
REMARK SMILES IDX 2 13 3 14 4 15 80 16 5 17 78 18 6 19 79 20 11 21 12 22 13 23
REMARK SMILES IDX 14 24 15 25 23 28 24 29 25 30 26 31 27 32 28 33 29 34 30 35
REMARK SMILES IDX 31 36 77 37 32 38 76 39 33 40 34 41 35 42 70 43 36 44 75 45
REMARK SMILES IDX 69 46 71 47 37 48 74 49 68 50 67 51 38 53 60 54 45 55 59 56
REMARK SMILES IDX 46 57 49 58 58 59 72 60 47 61 48 62 57 64 73 65 50 66 39 67
REMARK SMILES IDX 40 68 44 69 41 70 43 71 42 72 61 73 62 74 66 75 63 76 65 77
REMARK SMILES IDX 64 78 51 79 52 80 56 81 53 82 55 83 54 84
REMARK H PARENT 14 26 14 27 71 52 49 63
REMARK Flexibility Score: inf
ROOT
ATOM      1  C   UNL A   1      33.032  29.310  25.090  1.00  0.00     0.188 C 
ENDROOT
BRANCH   1   2
ATOM      2  O   UNL A   1      32.150  28.697  24.161  1.00  0.00    -0.376 OA
BRANCH   2   3
ATOM      3  C   UNL A   1      32.563  28.557  22.806  1.00  0.00     0.202 C 
BRANCH   3   4
ATOM      4  C   UNL A   1      33.599  27.485  22.432  1.00  0.00     0.261 C 
BRANCH   4   5
ATOM      5  O   UNL A   1      33.438  26.213  23.098  1.00  0.00    -0.462 OA
BRANCH   5   6
ATOM      6  C   UNL A   1      32.762  25.265  22.410  1.00  0.00     0.330 C 
ATOM      7  O   UNL A   1      32.528  25.342  21.203  1.00  0.00    -0.250 OA
BRANCH   6   8
ATOM      8  C   UNL A   1      32.217  24.090  23.220  1.00  0.00     0.215 C 
BRANCH   8   9
ATOM      9  N   UNL A   1      33.000  23.399  24.258  1.00  0.00    -0.281 NA
ATOM     10  C   UNL A   1      32.833  22.193  24.652  1.00  0.00     0.106 C 
BRANCH  10  11
ATOM     11  C   UNL A   1      33.859  21.577  25.571  1.00  0.00     0.250 C 
ATOM     12  C   UNL A   1      36.797  23.478  24.178  1.00  0.00     0.106 C 
ATOM     13  C   UNL A   1      36.536  22.311  25.126  1.00  0.00     0.252 C 
ATOM     14  C   UNL A   1      37.861  21.763  25.658  1.00  0.00     0.106 C 
ATOM     15  O   UNL A   1      35.920  21.261  24.384  1.00  0.00    -0.422 OA
ATOM     16  O   UNL A   1      35.828  22.805  26.264  1.00  0.00    -0.422 OA
ATOM     17  C   UNL A   1      34.817  20.685  24.885  1.00  0.00     0.329 C 
ATOM     18  C   UNL A   1      34.511  22.609  26.415  1.00  0.00     0.329 C 
ATOM     19  O   UNL A   1      34.584  19.497  24.698  1.00  0.00    -0.251 OA
ATOM     20  O   UNL A   1      33.890  23.253  27.256  1.00  0.00    -0.251 OA
ENDBRANCH  10  11
ENDBRANCH   8   9
BRANCH   8  21
ATOM     21  C   UNL A   1      30.779  24.345  23.681  1.00  0.00     0.049 C 
BRANCH  21  22
ATOM     22  C   UNL A   1      30.572  25.505  24.652  1.00  0.00     0.102 C 
BRANCH  22  23
ATOM     23  C   UNL A   1      31.307  25.381  25.966  1.00  0.00     0.217 C 
ATOM     24  N   UNL A   1      30.917  24.361  26.775  1.00  0.00    -0.370 N 
ATOM     25  O   UNL A   1      32.211  26.141  26.296  1.00  0.00    -0.275 OA
ATOM     26  H   UNL A   1      30.190  23.761  26.495  1.00  0.00     0.159 HD
ATOM     27  H   UNL A   1      31.364  24.222  27.642  1.00  0.00     0.159 HD
ENDBRANCH  22  23
ENDBRANCH  21  22
ENDBRANCH   8  21
ENDBRANCH   6   8
ENDBRANCH   5   6
ENDBRANCH   4   5
ENDBRANCH   3   4
ENDBRANCH   2   3
ENDBRANCH   1   2
BRANCH   1  28
ATOM     28  C   UNL A   1      32.443  30.064  26.295  1.00  0.00     0.188 C 
BRANCH  28  29
ATOM     29  O   UNL A   1      31.395  30.959  26.001  1.00  0.00    -0.376 OA
BRANCH  29  30
ATOM     30  C   UNL A   1      31.408  32.253  26.586  1.00  0.00     0.202 C 
BRANCH  30  31
ATOM     31  C   UNL A   1      32.452  32.727  27.617  1.00  0.00     0.261 C 
BRANCH  31  32
ATOM     32  O   UNL A   1      32.692  34.134  27.730  1.00  0.00    -0.460 OA
BRANCH  32  33
ATOM     33  C   UNL A   1      33.153  34.596  28.916  1.00  0.00     0.338 C 
ATOM     34  O   UNL A   1      32.588  35.338  29.700  1.00  0.00    -0.246 OA
BRANCH  33  35
ATOM     35  C   UNL A   1      34.419  33.887  29.199  1.00  0.00     0.060 A 
ATOM     36  C   UNL A   1      34.491  32.997  30.282  1.00  0.00     0.016 A 
ATOM     37  C   UNL A   1      35.527  34.088  28.375  1.00  0.00     0.016 A 
ATOM     38  C   UNL A   1      35.682  32.321  30.556  1.00  0.00     0.010 A 
ATOM     39  C   UNL A   1      36.725  33.434  28.667  1.00  0.00     0.010 A 
ATOM     40  C   UNL A   1      36.817  32.572  29.776  1.00  0.00    -0.014 A 
BRANCH  40  41
ATOM     41  C   UNL A   1      38.152  32.108  30.228  1.00  0.00     0.031 A 
ATOM     42  C   UNL A   1      38.673  30.808  29.680  1.00  0.00     0.074 A 
ATOM     43  C   UNL A   1      38.884  32.808  31.110  1.00  0.00     0.049 A 
ATOM     44  N   UNL A   1      39.768  30.157  29.980  1.00  0.00    -0.248 NA
ATOM     45  C   UNL A   1      37.839  30.150  28.660  1.00  0.00     0.031 C 
ATOM     46  C   UNL A   1      38.518  34.102  31.683  1.00  0.00     0.029 A 
ATOM     47  N   UNL A   1      40.094  32.512  31.689  1.00  0.00    -0.354 N 
ATOM     48  C   UNL A   1      39.746  29.008  29.198  1.00  0.00     0.074 A 
ATOM     49  C   UNL A   1      38.516  29.035  28.436  1.00  0.00     0.031 C 
ATOM     50  C   UNL A   1      39.479  34.483  32.542  1.00  0.00     0.029 A 
ATOM     51  C   UNL A   1      40.507  33.445  32.607  1.00  0.00     0.049 A 
ATOM     52  H   UNL A   1      40.616  31.707  31.465  1.00  0.00     0.167 HD
ATOM     53  C   UNL A   1      40.667  28.020  29.118  1.00  0.00     0.031 A 
ATOM     54  C   UNL A   1      41.578  33.446  33.426  1.00  0.00     0.031 A 
ATOM     55  C   UNL A   1      41.879  27.980  29.892  1.00  0.00     0.049 A 
ATOM     56  C   UNL A   1      42.547  32.292  33.384  1.00  0.00     0.074 A 
ATOM     57  C   UNL A   1      42.884  27.030  29.868  1.00  0.00     0.029 A 
ATOM     58  N   UNL A   1      42.242  28.926  30.836  1.00  0.00    -0.354 N 
ATOM     59  N   UNL A   1      42.535  31.226  32.619  1.00  0.00    -0.248 NA
ATOM     60  C   UNL A   1      43.684  32.346  34.316  1.00  0.00     0.031 C 
ATOM     61  C   UNL A   1      43.822  27.364  30.850  1.00  0.00     0.029 A 
ATOM     62  C   UNL A   1      43.441  28.564  31.429  1.00  0.00     0.049 A 
ATOM     63  H   UNL A   1      41.726  29.735  31.054  1.00  0.00     0.167 HD
ATOM     64  C   UNL A   1      43.675  30.503  32.953  1.00  0.00     0.074 A 
ATOM     65  C   UNL A   1      44.363  31.259  33.979  1.00  0.00     0.031 C 
ATOM     66  C   UNL A   1      44.116  29.322  32.452  1.00  0.00     0.031 A 
BRANCH  53  67
ATOM     67  C   UNL A   1      40.369  26.875  28.188  1.00  0.00    -0.014 A 
ATOM     68  C   UNL A   1      40.879  26.839  26.881  1.00  0.00     0.009 A 
ATOM     69  C   UNL A   1      39.578  25.806  28.637  1.00  0.00     0.009 A 
ATOM     70  C   UNL A   1      40.567  25.776  26.028  1.00  0.00     0.001 A 
ATOM     71  C   UNL A   1      39.296  24.728  27.796  1.00  0.00     0.001 A 
ATOM     72  C   UNL A   1      39.780  24.720  26.489  1.00  0.00     0.000 A 
ENDBRANCH  53  67
BRANCH  54  73
ATOM     73  C   UNL A   1      41.791  34.572  34.376  1.00  0.00    -0.014 A 
ATOM     74  C   UNL A   1      42.529  35.703  33.995  1.00  0.00     0.009 A 
ATOM     75  C   UNL A   1      41.274  34.510  35.681  1.00  0.00     0.009 A 
ATOM     76  C   UNL A   1      42.767  36.734  34.906  1.00  0.00     0.001 A 
ATOM     77  C   UNL A   1      41.487  35.557  36.579  1.00  0.00     0.001 A 
ATOM     78  C   UNL A   1      42.242  36.664  36.195  1.00  0.00     0.000 A 
ENDBRANCH  54  73
BRANCH  66  79
ATOM     79  C   UNL A   1      45.425  28.791  32.970  1.00  0.00    -0.014 A 
ATOM     80  C   UNL A   1      46.649  29.152  32.386  1.00  0.00     0.009 A 
ATOM     81  C   UNL A   1      45.434  27.949  34.094  1.00  0.00     0.009 A 
ATOM     82  C   UNL A   1      47.851  28.653  32.896  1.00  0.00     0.001 A 
ATOM     83  C   UNL A   1      46.638  27.480  34.623  1.00  0.00     0.001 A 
ATOM     84  C   UNL A   1      47.844  27.823  34.017  1.00  0.00     0.000 A 
ENDBRANCH  66  79
ENDBRANCH  40  41
ENDBRANCH  33  35
ENDBRANCH  32  33
ENDBRANCH  31  32
ENDBRANCH  30  31
ENDBRANCH  29  30
ENDBRANCH  28  29
ENDBRANCH   1  28
TORSDOF 22
ENDMDL
MODEL 2
REMARK VINA RESULT:      -9.3      1.605      6.605
REMARK SMILES CC1(C)OC(=O)C(/C=N/[C@@H](CCC(N)=O)C(=O)OCCOCCOCCOC(=O)c2ccc(-c3c4nc(c(-c5ccccc5)c5ccc([nH]5)c(-c5ccccc5)c5nc(c(-c6ccccc6)c6ccc3[nH]6)C=C5)C=C4)cc2)C(=O)O1
REMARK SMILES IDX 22 1 21 2 20 3 19 4 18 5 16 6 17 7 10 8 9 9 8 10 7 11 1 12
REMARK SMILES IDX 2 13 3 14 4 15 80 16 5 17 78 18 6 19 79 20 11 21 12 22 13 23
REMARK SMILES IDX 14 24 15 25 23 28 24 29 25 30 26 31 27 32 28 33 29 34 30 35
REMARK SMILES IDX 31 36 77 37 32 38 76 39 33 40 34 41 35 42 70 43 36 44 75 45
REMARK SMILES IDX 69 46 71 47 37 48 74 49 68 50 67 51 38 53 60 54 45 55 59 56
REMARK SMILES IDX 46 57 49 58 58 59 72 60 47 61 48 62 57 64 73 65 50 66 39 67
REMARK SMILES IDX 40 68 44 69 41 70 43 71 42 72 61 73 62 74 66 75 63 76 65 77
REMARK SMILES IDX 64 78 51 79 52 80 56 81 53 82 55 83 54 84
REMARK H PARENT 14 26 14 27 71 52 49 63
REMARK Flexibility Score: inf
ROOT
ATOM      1  C   UNL A   1      31.860  28.363  27.661  1.00  0.00     0.188 C 
ENDROOT
BRANCH   1   2
ATOM      2  O   UNL A   1      31.123  27.250  27.179  1.00  0.00    -0.376 OA
BRANCH   2   3
ATOM      3  C   UNL A   1      31.800  26.241  26.436  1.00  0.00     0.202 C 
BRANCH   3   4
ATOM      4  C   UNL A   1      31.469  24.761  26.685  1.00  0.00     0.261 C 
BRANCH   4   5
ATOM      5  O   UNL A   1      30.523  24.177  25.761  1.00  0.00    -0.462 OA
BRANCH   5   6
ATOM      6  C   UNL A   1      30.805  22.923  25.338  1.00  0.00     0.330 C 
ATOM      7  O   UNL A   1      30.442  21.909  25.936  1.00  0.00    -0.250 OA
BRANCH   6   8
ATOM      8  C   UNL A   1      31.681  22.804  24.092  1.00  0.00     0.215 C 
BRANCH   8   9
ATOM      9  N   UNL A   1      31.931  23.930  23.176  1.00  0.00    -0.281 NA
ATOM     10  C   UNL A   1      31.041  24.618  22.567  1.00  0.00     0.106 C 
BRANCH  10  11
ATOM     11  C   UNL A   1      31.462  25.869  21.835  1.00  0.00     0.250 C 
ATOM     12  C   UNL A   1      34.115  26.875  24.310  1.00  0.00     0.106 C 
ATOM     13  C   UNL A   1      33.395  27.467  23.102  1.00  0.00     0.252 C 
ATOM     14  C   UNL A   1      33.911  28.881  22.828  1.00  0.00     0.106 C 
ATOM     15  O   UNL A   1      32.010  27.585  23.420  1.00  0.00    -0.422 OA
ATOM     16  O   UNL A   1      33.735  26.693  21.952  1.00  0.00    -0.422 OA
ATOM     17  C   UNL A   1      31.111  27.120  22.540  1.00  0.00     0.329 C 
ATOM     18  C   UNL A   1      32.885  25.799  21.427  1.00  0.00     0.329 C 
ATOM     19  O   UNL A   1      30.020  27.663  22.405  1.00  0.00    -0.251 OA
ATOM     20  O   UNL A   1      33.292  24.977  20.610  1.00  0.00    -0.251 OA
ENDBRANCH  10  11
ENDBRANCH   8   9
BRANCH   8  21
ATOM     21  C   UNL A   1      32.966  22.022  24.381  1.00  0.00     0.049 C 
BRANCH  21  22
ATOM     22  C   UNL A   1      32.953  20.537  24.025  1.00  0.00     0.102 C 
BRANCH  22  23
ATOM     23  C   UNL A   1      32.713  19.602  25.186  1.00  0.00     0.217 C 
ATOM     24  N   UNL A   1      33.162  20.025  26.398  1.00  0.00    -0.370 N 
ATOM     25  O   UNL A   1      32.140  18.525  25.064  1.00  0.00    -0.275 OA
ATOM     26  H   UNL A   1      33.620  20.892  26.477  1.00  0.00     0.159 HD
ATOM     27  H   UNL A   1      33.028  19.463  27.196  1.00  0.00     0.159 HD
ENDBRANCH  22  23
ENDBRANCH  21  22
ENDBRANCH   8  21
ENDBRANCH   6   8
ENDBRANCH   5   6
ENDBRANCH   4   5
ENDBRANCH   3   4
ENDBRANCH   2   3
ENDBRANCH   1   2
BRANCH   1  28
ATOM     28  C   UNL A   1      31.975  29.621  26.781  1.00  0.00     0.188 C 
BRANCH  28  29
ATOM     29  O   UNL A   1      33.273  30.149  26.639  1.00  0.00    -0.376 OA
BRANCH  29  30
ATOM     30  C   UNL A   1      33.634  31.304  27.382  1.00  0.00     0.202 C 
BRANCH  30  31
ATOM     31  C   UNL A   1      32.656  32.439  27.748  1.00  0.00     0.261 C 
BRANCH  31  32
ATOM     32  O   UNL A   1      33.159  33.780  27.763  1.00  0.00    -0.460 OA
BRANCH  32  33
ATOM     33  C   UNL A   1      33.341  34.364  28.970  1.00  0.00     0.338 C 
ATOM     34  O   UNL A   1      32.561  35.071  29.585  1.00  0.00    -0.246 OA
BRANCH  33  35
ATOM     35  C   UNL A   1      34.610  33.843  29.522  1.00  0.00     0.060 A 
ATOM     36  C   UNL A   1      35.819  34.111  28.860  1.00  0.00     0.016 A 
ATOM     37  C   UNL A   1      34.602  33.109  30.709  1.00  0.00     0.016 A 
ATOM     38  C   UNL A   1      37.022  33.625  29.375  1.00  0.00     0.010 A 
ATOM     39  C   UNL A   1      35.802  32.599  31.206  1.00  0.00     0.010 A 
ATOM     40  C   UNL A   1      37.013  32.829  30.526  1.00  0.00    -0.014 A 
BRANCH  40  41
ATOM     41  C   UNL A   1      38.221  32.059  30.912  1.00  0.00     0.031 A 
ATOM     42  C   UNL A   1      39.098  32.615  32.001  1.00  0.00     0.074 A 
ATOM     43  C   UNL A   1      38.548  30.903  30.310  1.00  0.00     0.049 A 
ATOM     44  N   UNL A   1      40.242  32.171  32.457  1.00  0.00    -0.248 NA
ATOM     45  C   UNL A   1      38.621  33.844  32.657  1.00  0.00     0.031 C 
ATOM     46  C   UNL A   1      37.764  30.233  29.275  1.00  0.00     0.029 A 
ATOM     47  N   UNL A   1      39.644  30.094  30.482  1.00  0.00    -0.354 N 
ATOM     48  C   UNL A   1      40.627  33.074  33.442  1.00  0.00     0.074 A 
ATOM     49  C   UNL A   1      39.613  34.104  33.494  1.00  0.00     0.031 C 
ATOM     50  C   UNL A   1      38.412  29.117  28.894  1.00  0.00     0.029 A 
ATOM     51  C   UNL A   1      39.671  29.017  29.631  1.00  0.00     0.049 A 
ATOM     52  H   UNL A   1      40.344  30.269  31.153  1.00  0.00     0.167 HD
ATOM     53  C   UNL A   1      41.723  33.046  34.234  1.00  0.00     0.031 A 
ATOM     54  C   UNL A   1      40.618  28.075  29.449  1.00  0.00     0.031 A 
ATOM     55  C   UNL A   1      42.743  32.034  34.168  1.00  0.00     0.049 A 
ATOM     56  C   UNL A   1      41.874  28.113  30.282  1.00  0.00     0.074 A 
ATOM     57  C   UNL A   1      43.883  31.910  34.941  1.00  0.00     0.029 A 
ATOM     58  N   UNL A   1      42.750  30.981  33.269  1.00  0.00    -0.354 N 
ATOM     59  N   UNL A   1      42.215  28.951  31.232  1.00  0.00    -0.248 NA
ATOM     60  C   UNL A   1      42.874  27.067  30.021  1.00  0.00     0.031 C 
ATOM     61  C   UNL A   1      44.618  30.821  34.462  1.00  0.00     0.029 A 
ATOM     62  C   UNL A   1      43.896  30.221  33.443  1.00  0.00     0.049 A 
ATOM     63  H   UNL A   1      42.048  30.799  32.604  1.00  0.00     0.167 HD
ATOM     64  C   UNL A   1      43.448  28.514  31.703  1.00  0.00     0.074 A 
ATOM     65  C   UNL A   1      43.789  27.329  30.944  1.00  0.00     0.031 C 
ATOM     66  C   UNL A   1      44.226  29.044  32.679  1.00  0.00     0.031 A 
BRANCH  53  67
ATOM     67  C   UNL A   1      41.894  34.177  35.212  1.00  0.00    -0.014 A 
ATOM     68  C   UNL A   1      41.269  34.162  36.469  1.00  0.00     0.009 A 
ATOM     69  C   UNL A   1      42.709  35.269  34.873  1.00  0.00     0.009 A 
ATOM     70  C   UNL A   1      41.424  35.237  37.349  1.00  0.00     0.001 A 
ATOM     71  C   UNL A   1      42.890  36.325  35.767  1.00  0.00     0.001 A 
ATOM     72  C   UNL A   1      42.238  36.314  36.999  1.00  0.00     0.000 A 
ENDBRANCH  53  67
BRANCH  54  73
ATOM     73  C   UNL A   1      40.430  27.016  28.420  1.00  0.00    -0.014 A 
ATOM     74  C   UNL A   1      40.869  27.211  27.102  1.00  0.00     0.009 A 
ATOM     75  C   UNL A   1      39.790  25.809  28.747  1.00  0.00     0.009 A 
ATOM     76  C   UNL A   1      40.649  26.234  26.129  1.00  0.00     0.001 A 
ATOM     77  C   UNL A   1      39.599  24.821  27.780  1.00  0.00     0.001 A 
ATOM     78  C   UNL A   1      40.019  25.038  26.468  1.00  0.00     0.000 A 
ENDBRANCH  54  73
BRANCH  66  79
ATOM     79  C   UNL A   1      45.504  28.324  33.019  1.00  0.00    -0.014 A 
ATOM     80  C   UNL A   1      46.723  28.660  32.409  1.00  0.00     0.009 A 
ATOM     81  C   UNL A   1      45.493  27.322  34.003  1.00  0.00     0.009 A 
ATOM     82  C   UNL A   1      47.896  27.983  32.753  1.00  0.00     0.001 A 
ATOM     83  C   UNL A   1      46.673  26.671  34.371  1.00  0.00     0.001 A 
ATOM     84  C   UNL A   1      47.871  26.995  33.737  1.00  0.00     0.000 A 
ENDBRANCH  66  79
ENDBRANCH  40  41
ENDBRANCH  33  35
ENDBRANCH  32  33
ENDBRANCH  31  32
ENDBRANCH  30  31
ENDBRANCH  29  30
ENDBRANCH  28  29
ENDBRANCH   1  28
TORSDOF 22
ENDMDL
MODEL 3
REMARK VINA RESULT:      -9.2      3.824      5.329
REMARK SMILES CC1(C)OC(=O)C(/C=N/[C@@H](CCC(N)=O)C(=O)OCCOCCOCCOC(=O)c2ccc(-c3c4nc(c(-c5ccccc5)c5ccc([nH]5)c(-c5ccccc5)c5nc(c(-c6ccccc6)c6ccc3[nH]6)C=C5)C=C4)cc2)C(=O)O1
REMARK SMILES IDX 22 1 21 2 20 3 19 4 18 5 16 6 17 7 10 8 9 9 8 10 7 11 1 12
REMARK SMILES IDX 2 13 3 14 4 15 80 16 5 17 78 18 6 19 79 20 11 21 12 22 13 23
REMARK SMILES IDX 14 24 15 25 23 28 24 29 25 30 26 31 27 32 28 33 29 34 30 35
REMARK SMILES IDX 31 36 77 37 32 38 76 39 33 40 34 41 35 42 70 43 36 44 75 45
REMARK SMILES IDX 69 46 71 47 37 48 74 49 68 50 67 51 38 53 60 54 45 55 59 56
REMARK SMILES IDX 46 57 49 58 58 59 72 60 47 61 48 62 57 64 73 65 50 66 39 67
REMARK SMILES IDX 40 68 44 69 41 70 43 71 42 72 61 73 62 74 66 75 63 76 65 77
REMARK SMILES IDX 64 78 51 79 52 80 56 81 53 82 55 83 54 84
REMARK H PARENT 14 26 14 27 71 52 49 63
REMARK Flexibility Score: inf
ROOT
ATOM      1  C   UNL A   1      35.345  32.006  28.036  1.00  0.00     0.188 C 
ENDROOT
BRANCH   1   2
ATOM      2  O   UNL A   1      34.480  30.880  28.023  1.00  0.00    -0.376 OA
BRANCH   2   3
ATOM      3  C   UNL A   1      33.324  30.907  27.191  1.00  0.00     0.202 C 
BRANCH   3   4
ATOM      4  C   UNL A   1      33.069  29.757  26.205  1.00  0.00     0.261 C 
BRANCH   4   5
ATOM      5  O   UNL A   1      33.279  28.430  26.736  1.00  0.00    -0.462 OA
BRANCH   5   6
ATOM      6  C   UNL A   1      32.173  27.661  26.866  1.00  0.00     0.330 C 
ATOM      7  O   UNL A   1      31.431  27.704  27.848  1.00  0.00    -0.250 OA
BRANCH   6   8
ATOM      8  C   UNL A   1      31.907  26.652  25.750  1.00  0.00     0.215 C 
BRANCH   8   9
ATOM      9  N   UNL A   1      32.077  25.200  25.925  1.00  0.00    -0.281 NA
ATOM     10  C   UNL A   1      31.778  24.297  25.069  1.00  0.00     0.106 C 
BRANCH  10  11
ATOM     11  C   UNL A   1      32.214  22.875  25.326  1.00  0.00     0.250 C 
ATOM     12  C   UNL A   1      35.869  23.678  25.749  1.00  0.00     0.106 C 
ATOM     13  C   UNL A   1      34.978  22.448  25.602  1.00  0.00     0.252 C 
ATOM     14  C   UNL A   1      35.830  21.178  25.639  1.00  0.00     0.106 C 
ATOM     15  O   UNL A   1      34.359  22.494  24.319  1.00  0.00    -0.422 OA
ATOM     16  O   UNL A   1      34.116  22.377  26.738  1.00  0.00    -0.422 OA
ATOM     17  C   UNL A   1      33.034  22.297  24.241  1.00  0.00     0.329 C 
ATOM     18  C   UNL A   1      32.827  22.737  26.669  1.00  0.00     0.329 C 
ATOM     19  O   UNL A   1      32.534  21.743  23.269  1.00  0.00    -0.251 OA
ATOM     20  O   UNL A   1      32.185  22.910  27.702  1.00  0.00    -0.251 OA
ENDBRANCH  10  11
ENDBRANCH   8   9
BRANCH   8  21
ATOM     21  C   UNL A   1      30.615  26.977  24.995  1.00  0.00     0.049 C 
BRANCH  21  22
ATOM     22  C   UNL A   1      30.717  28.031  23.894  1.00  0.00     0.102 C 
BRANCH  22  23
ATOM     23  C   UNL A   1      31.800  27.786  22.870  1.00  0.00     0.217 C 
ATOM     24  N   UNL A   1      31.459  26.995  21.818  1.00  0.00    -0.370 N 
ATOM     25  O   UNL A   1      32.923  28.270  22.961  1.00  0.00    -0.275 OA
ATOM     26  H   UNL A   1      30.553  26.615  21.761  1.00  0.00     0.159 HD
ATOM     27  H   UNL A   1      32.118  26.804  21.112  1.00  0.00     0.159 HD
ENDBRANCH  22  23
ENDBRANCH  21  22
ENDBRANCH   8  21
ENDBRANCH   6   8
ENDBRANCH   5   6
ENDBRANCH   4   5
ENDBRANCH   3   4
ENDBRANCH   2   3
ENDBRANCH   1   2
BRANCH   1  28
ATOM     28  C   UNL A   1      34.801  33.360  28.524  1.00  0.00     0.188 C 
BRANCH  28  29
ATOM     29  O   UNL A   1      34.057  33.324  29.719  1.00  0.00    -0.376 OA
BRANCH  29  30
ATOM     30  C   UNL A   1      34.599  33.920  30.889  1.00  0.00     0.202 C 
BRANCH  30  31
ATOM     31  C   UNL A   1      34.701  33.211  32.254  1.00  0.00     0.261 C 
BRANCH  31  32
ATOM     32  O   UNL A   1      35.380  31.952  32.308  1.00  0.00    -0.460 OA
BRANCH  32  33
ATOM     33  C   UNL A   1      36.502  31.879  33.061  1.00  0.00     0.338 C 
ATOM     34  O   UNL A   1      36.622  32.117  34.251  1.00  0.00    -0.246 OA
BRANCH  33  35
ATOM     35  C   UNL A   1      37.556  31.271  32.220  1.00  0.00     0.060 A 
ATOM     36  C   UNL A   1      38.642  30.622  32.827  1.00  0.00     0.016 A 
ATOM     37  C   UNL A   1      37.451  31.325  30.829  1.00  0.00     0.016 A 
ATOM     38  C   UNL A   1      39.640  30.044  32.041  1.00  0.00     0.010 A 
ATOM     39  C   UNL A   1      38.465  30.772  30.046  1.00  0.00     0.010 A 
ATOM     40  C   UNL A   1      39.578  30.155  30.647  1.00  0.00    -0.014 A 
BRANCH  40  41
ATOM     41  C   UNL A   1      40.762  29.824  29.817  1.00  0.00     0.031 A 
ATOM     42  C   UNL A   1      40.845  28.445  29.220  1.00  0.00     0.074 A 
ATOM     43  C   UNL A   1      41.750  30.710  29.604  1.00  0.00     0.049 A 
ATOM     44  N   UNL A   1      41.810  27.894  28.528  1.00  0.00    -0.248 NA
ATOM     45  C   UNL A   1      39.682  27.569  29.440  1.00  0.00     0.031 C 
ATOM     46  C   UNL A   1      41.773  32.089  30.085  1.00  0.00     0.029 A 
ATOM     47  N   UNL A   1      42.937  30.566  28.929  1.00  0.00    -0.354 N 
ATOM     48  C   UNL A   1      41.377  26.603  28.246  1.00  0.00     0.074 A 
ATOM     49  C   UNL A   1      40.079  26.445  28.866  1.00  0.00     0.031 C 
ATOM     50  C   UNL A   1      42.926  32.663  29.700  1.00  0.00     0.029 A 
ATOM     51  C   UNL A   1      43.736  31.682  28.979  1.00  0.00     0.049 A 
ATOM     52  H   UNL A   1      43.191  29.742  28.453  1.00  0.00     0.167 HD
ATOM     53  C   UNL A   1      42.000  25.638  27.531  1.00  0.00     0.031 A 
ATOM     54  C   UNL A   1      44.987  31.878  28.519  1.00  0.00     0.031 A 
ATOM     55  C   UNL A   1      43.300  25.787  26.933  1.00  0.00     0.049 A 
ATOM     56  C   UNL A   1      45.700  30.759  27.802  1.00  0.00     0.074 A 
ATOM     57  C   UNL A   1      44.008  24.872  26.175  1.00  0.00     0.029 A 
ATOM     58  N   UNL A   1      44.090  26.920  27.037  1.00  0.00    -0.354 N 
ATOM     59  N   UNL A   1      45.270  29.554  27.512  1.00  0.00    -0.248 NA
ATOM     60  C   UNL A   1      47.069  31.032  27.342  1.00  0.00     0.031 C 
ATOM     61  C   UNL A   1      45.257  25.426  25.880  1.00  0.00     0.029 A 
ATOM     62  C   UNL A   1      45.296  26.715  26.387  1.00  0.00     0.049 A 
ATOM     63  H   UNL A   1      43.834  27.748  27.504  1.00  0.00     0.167 HD
ATOM     64  C   UNL A   1      46.301  28.940  26.807  1.00  0.00     0.074 A 
ATOM     65  C   UNL A   1      47.370  29.910  26.703  1.00  0.00     0.031 C 
ATOM     66  C   UNL A   1      46.355  27.687  26.291  1.00  0.00     0.031 A 
BRANCH  53  67
ATOM     67  C   UNL A   1      41.295  24.315  27.400  1.00  0.00    -0.014 A 
ATOM     68  C   UNL A   1      41.718  23.184  28.115  1.00  0.00     0.009 A 
ATOM     69  C   UNL A   1      40.178  24.206  26.558  1.00  0.00     0.009 A 
ATOM     70  C   UNL A   1      41.062  21.960  27.957  1.00  0.00     0.001 A 
ATOM     71  C   UNL A   1      39.502  22.992  26.428  1.00  0.00     0.001 A 
ATOM     72  C   UNL A   1      39.951  21.867  27.118  1.00  0.00     0.000 A 
ENDBRANCH  53  67
BRANCH  54  73
ATOM     73  C   UNL A   1      45.667  33.184  28.734  1.00  0.00    -0.014 A 
ATOM     74  C   UNL A   1      46.438  33.411  29.885  1.00  0.00     0.009 A 
ATOM     75  C   UNL A   1      45.529  34.223  27.798  1.00  0.00     0.009 A 
ATOM     76  C   UNL A   1      47.034  34.654  30.106  1.00  0.00     0.001 A 
ATOM     77  C   UNL A   1      46.153  35.454  28.006  1.00  0.00     0.001 A 
ATOM     78  C   UNL A   1      46.897  35.673  29.165  1.00  0.00     0.000 A 
ENDBRANCH  54  73
BRANCH  66  79
ATOM     79  C   UNL A   1      47.592  27.303  25.524  1.00  0.00    -0.014 A 
ATOM     80  C   UNL A   1      48.695  26.710  26.156  1.00  0.00     0.009 A 
ATOM     81  C   UNL A   1      47.632  27.497  24.133  1.00  0.00     0.009 A 
ATOM     82  C   UNL A   1      49.826  26.352  25.416  1.00  0.00     0.001 A 
ATOM     83  C   UNL A   1      48.749  27.107  23.391  1.00  0.00     0.001 A 
ATOM     84  C   UNL A   1      49.849  26.545  24.036  1.00  0.00     0.000 A 
ENDBRANCH  66  79
ENDBRANCH  40  41
ENDBRANCH  33  35
ENDBRANCH  32  33
ENDBRANCH  31  32
ENDBRANCH  30  31
ENDBRANCH  29  30
ENDBRANCH  28  29
ENDBRANCH   1  28
TORSDOF 22
ENDMDL
