MODEL 1
REMARK VINA RESULT:      -9.9      0.000      0.000
REMARK SMILES CCc1cccc2c3c([nH]c12)[C@](CC)(CC(=O)OCCOCCOCCOC(=O)c1ccc(-c2c4nc(c(-c5ccccc5)c5ccc([nH]5)c(-c5ccccc5)c5nc(c(-c6ccccc6)c6ccc2[nH]6)C=C5)C=C4)cc1)OCC3
REMARK SMILES IDX 22 1 21 2 20 3 19 4 18 5 16 6 17 7 15 8 12 9 3 10 4 11 11 12
REMARK SMILES IDX 5 13 7 14 10 15 6 16 8 17 9 18 80 20 79 21 78 22 2 23 1 24
REMARK SMILES IDX 13 25 14 26 23 27 24 28 25 29 26 30 27 31 28 32 29 33 30 34
REMARK SMILES IDX 31 35 77 36 32 37 76 38 33 39 34 40 35 41 70 42 36 43 75 44
REMARK SMILES IDX 69 45 71 46 37 47 74 48 68 49 67 50 38 52 60 53 45 54 59 55
REMARK SMILES IDX 46 56 49 57 58 58 72 59 47 60 48 61 57 63 73 64 50 65 39 66
REMARK SMILES IDX 40 67 44 68 41 69 43 70 42 71 61 72 62 73 66 74 63 75 65 76
REMARK SMILES IDX 64 77 51 78 52 79 56 80 53 81 55 82 54 83
REMARK H PARENT 10 19 71 51 49 62
REMARK Flexibility Score: inf
ROOT
ATOM      1  C   UNL A   1      30.420  28.427  22.957  1.00  0.00     0.188 C 
ENDROOT
BRANCH   1   2
ATOM      2  O   UNL A   1      29.458  27.492  23.427  1.00  0.00    -0.376 OA
BRANCH   2   3
ATOM      3  C   UNL A   1      29.919  26.213  23.847  1.00  0.00     0.202 C 
BRANCH   3   4
ATOM      4  C   UNL A   1      29.513  25.797  25.270  1.00  0.00     0.261 C 
BRANCH   4   5
ATOM      5  O   UNL A   1      30.539  24.940  25.810  1.00  0.00    -0.463 OA
BRANCH   5   6
ATOM      6  C   UNL A   1      31.612  25.472  26.446  1.00  0.00     0.309 C 
ATOM      7  O   UNL A   1      31.541  26.371  27.272  1.00  0.00    -0.252 OA
BRANCH   6   8
ATOM      8  C   UNL A   1      32.853  24.612  26.199  1.00  0.00     0.164 C 
BRANCH   8   9
ATOM      9  C   UNL A   1      33.716  24.652  24.922  1.00  0.00     0.118 C 
ATOM     10  C   UNL A   1      38.567  23.611  26.193  1.00  0.00    -0.024 A 
ATOM     11  C   UNL A   1      39.257  22.381  26.260  1.00  0.00     0.006 A 
ATOM     12  C   UNL A   1      37.248  23.556  25.672  1.00  0.00     0.049 A 
ATOM     13  C   UNL A   1      38.711  21.196  25.777  1.00  0.00     0.001 A 
ATOM     14  C   UNL A   1      36.688  22.374  25.172  1.00  0.00     0.003 A 
ATOM     15  N   UNL A   1      36.259  24.524  25.561  1.00  0.00    -0.356 N 
ATOM     16  C   UNL A   1      37.444  21.188  25.198  1.00  0.00     0.010 A 
ATOM     17  C   UNL A   1      35.383  22.687  24.709  1.00  0.00    -0.014 A 
ATOM     18  C   UNL A   1      35.077  23.970  25.109  1.00  0.00     0.052 A 
ATOM     19  H   UNL A   1      36.382  25.477  25.778  1.00  0.00     0.166 HD
ATOM     20  C   UNL A   1      34.432  21.881  23.908  1.00  0.00     0.066 C 
ATOM     21  C   UNL A   1      33.054  22.555  23.851  1.00  0.00     0.166 C 
ATOM     22  O   UNL A   1      33.089  23.995  23.804  1.00  0.00    -0.368 OA
BRANCH  10  23
ATOM     23  C   UNL A   1      39.285  24.846  26.691  1.00  0.00     0.034 C 
ATOM     24  C   UNL A   1      39.274  24.990  28.201  1.00  0.00     0.009 C 
ENDBRANCH  10  23
BRANCH   9  25
ATOM     25  C   UNL A   1      33.990  26.136  24.527  1.00  0.00     0.039 C 
ATOM     26  C   UNL A   1      33.614  26.524  23.102  1.00  0.00     0.007 C 
ENDBRANCH   9  25
ENDBRANCH   8   9
ENDBRANCH   6   8
ENDBRANCH   5   6
ENDBRANCH   4   5
ENDBRANCH   3   4
ENDBRANCH   2   3
ENDBRANCH   1   2
BRANCH   1  27
ATOM     27  C   UNL A   1      30.822  29.609  23.865  1.00  0.00     0.188 C 
BRANCH  27  28
ATOM     28  O   UNL A   1      31.342  29.328  25.151  1.00  0.00    -0.376 OA
BRANCH  28  29
ATOM     29  C   UNL A   1      31.693  30.461  25.942  1.00  0.00     0.202 C 
BRANCH  29  30
ATOM     30  C   UNL A   1      32.578  30.167  27.166  1.00  0.00     0.261 C 
BRANCH  30  31
ATOM     31  O   UNL A   1      33.932  30.588  26.891  1.00  0.00    -0.460 OA
BRANCH  31  32
ATOM     32  C   UNL A   1      34.472  31.453  27.784  1.00  0.00     0.338 C 
ATOM     33  O   UNL A   1      33.875  32.291  28.439  1.00  0.00    -0.246 OA
BRANCH  32  34
ATOM     34  C   UNL A   1      35.816  30.923  28.122  1.00  0.00     0.060 A 
ATOM     35  C   UNL A   1      36.832  31.659  28.724  1.00  0.00     0.016 A 
ATOM     36  C   UNL A   1      36.096  29.649  27.632  1.00  0.00     0.016 A 
ATOM     37  C   UNL A   1      38.125  31.105  28.810  1.00  0.00     0.010 A 
ATOM     38  C   UNL A   1      37.387  29.127  27.662  1.00  0.00     0.010 A 
ATOM     39  C   UNL A   1      38.418  29.846  28.252  1.00  0.00    -0.014 A 
BRANCH  39  40
ATOM     40  C   UNL A   1      39.648  29.122  28.604  1.00  0.00     0.031 A 
ATOM     41  C   UNL A   1      39.763  28.888  30.055  1.00  0.00     0.074 A 
ATOM     42  C   UNL A   1      40.593  28.504  27.863  1.00  0.00     0.049 A 
ATOM     43  N   UNL A   1      40.417  29.639  30.870  1.00  0.00    -0.248 NA
ATOM     44  C   UNL A   1      39.020  27.797  30.687  1.00  0.00     0.031 C 
ATOM     45  C   UNL A   1      40.695  28.365  26.422  1.00  0.00     0.029 A 
ATOM     46  N   UNL A   1      41.676  27.786  28.304  1.00  0.00    -0.354 N 
ATOM     47  C   UNL A   1      40.347  29.005  32.095  1.00  0.00     0.074 A 
ATOM     48  C   UNL A   1      39.304  28.014  31.972  1.00  0.00     0.031 C 
ATOM     49  C   UNL A   1      41.601  27.403  26.108  1.00  0.00     0.029 A 
ATOM     50  C   UNL A   1      42.314  27.042  27.321  1.00  0.00     0.049 A 
ATOM     51  H   UNL A   1      41.976  27.798  29.241  1.00  0.00     0.167 HD
ATOM     52  C   UNL A   1      41.338  29.164  33.015  1.00  0.00     0.031 A 
ATOM     53  C   UNL A   1      43.426  26.281  27.463  1.00  0.00     0.031 A 
ATOM     54  C   UNL A   1      42.282  30.185  32.609  1.00  0.00     0.049 A 
ATOM     55  C   UNL A   1      44.228  26.904  28.536  1.00  0.00     0.074 A 
ATOM     56  C   UNL A   1      42.208  31.518  32.253  1.00  0.00     0.029 A 
ATOM     57  N   UNL A   1      43.498  29.738  32.146  1.00  0.00    -0.354 N 
ATOM     58  N   UNL A   1      44.788  28.074  28.422  1.00  0.00    -0.248 NA
ATOM     59  C   UNL A   1      44.201  26.355  29.881  1.00  0.00     0.031 C 
ATOM     60  C   UNL A   1      43.195  31.698  31.236  1.00  0.00     0.029 A 
ATOM     61  C   UNL A   1      43.847  30.479  31.045  1.00  0.00     0.049 A 
ATOM     62  H   UNL A   1      44.030  29.009  32.539  1.00  0.00     0.167 HD
ATOM     63  C   UNL A   1      44.748  28.599  29.699  1.00  0.00     0.074 A 
ATOM     64  C   UNL A   1      44.565  27.442  30.566  1.00  0.00     0.031 C 
ATOM     65  C   UNL A   1      44.558  29.937  29.901  1.00  0.00     0.031 A 
BRANCH  52  66
ATOM     66  C   UNL A   1      41.691  28.141  34.065  1.00  0.00    -0.014 A 
ATOM     67  C   UNL A   1      42.357  26.931  33.802  1.00  0.00     0.009 A 
ATOM     68  C   UNL A   1      41.563  28.506  35.417  1.00  0.00     0.009 A 
ATOM     69  C   UNL A   1      42.873  26.130  34.824  1.00  0.00     0.001 A 
ATOM     70  C   UNL A   1      42.124  27.736  36.440  1.00  0.00     0.001 A 
ATOM     71  C   UNL A   1      42.779  26.547  36.143  1.00  0.00     0.000 A 
ENDBRANCH  52  66
BRANCH  53  72
ATOM     72  C   UNL A   1      43.865  25.039  26.794  1.00  0.00    -0.014 A 
ATOM     73  C   UNL A   1      42.910  24.169  26.241  1.00  0.00     0.009 A 
ATOM     74  C   UNL A   1      45.171  24.547  26.977  1.00  0.00     0.009 A 
ATOM     75  C   UNL A   1      43.232  22.839  25.939  1.00  0.00     0.001 A 
ATOM     76  C   UNL A   1      45.492  23.218  26.674  1.00  0.00     0.001 A 
ATOM     77  C   UNL A   1      44.517  22.358  26.174  1.00  0.00     0.000 A 
ENDBRANCH  53  72
BRANCH  65  78
ATOM     78  C   UNL A   1      44.825  30.881  28.748  1.00  0.00    -0.014 A 
ATOM     79  C   UNL A   1      46.141  31.337  28.557  1.00  0.00     0.009 A 
ATOM     80  C   UNL A   1      43.817  31.420  27.931  1.00  0.00     0.009 A 
ATOM     81  C   UNL A   1      46.438  32.294  27.582  1.00  0.00     0.001 A 
ATOM     82  C   UNL A   1      44.118  32.356  26.936  1.00  0.00     0.001 A 
ATOM     83  C   UNL A   1      45.428  32.799  26.767  1.00  0.00     0.000 A 
ENDBRANCH  65  78
ENDBRANCH  39  40
ENDBRANCH  32  34
ENDBRANCH  31  32
ENDBRANCH  30  31
ENDBRANCH  29  30
ENDBRANCH  28  29
ENDBRANCH  27  28
ENDBRANCH   1  27
TORSDOF 20
ENDMDL
MODEL 2
REMARK VINA RESULT:      -9.8      2.988      6.028
REMARK SMILES CCc1cccc2c3c([nH]c12)[C@](CC)(CC(=O)OCCOCCOCCOC(=O)c1ccc(-c2c4nc(c(-c5ccccc5)c5ccc([nH]5)c(-c5ccccc5)c5nc(c(-c6ccccc6)c6ccc2[nH]6)C=C5)C=C4)cc1)OCC3
REMARK SMILES IDX 22 1 21 2 20 3 19 4 18 5 16 6 17 7 15 8 12 9 3 10 4 11 11 12
REMARK SMILES IDX 5 13 7 14 10 15 6 16 8 17 9 18 80 20 79 21 78 22 2 23 1 24
REMARK SMILES IDX 13 25 14 26 23 27 24 28 25 29 26 30 27 31 28 32 29 33 30 34
REMARK SMILES IDX 31 35 77 36 32 37 76 38 33 39 34 40 35 41 70 42 36 43 75 44
REMARK SMILES IDX 69 45 71 46 37 47 74 48 68 49 67 50 38 52 60 53 45 54 59 55
REMARK SMILES IDX 46 56 49 57 58 58 72 59 47 60 48 61 57 63 73 64 50 65 39 66
REMARK SMILES IDX 40 67 44 68 41 69 43 70 42 71 61 72 62 73 66 74 63 75 65 76
REMARK SMILES IDX 64 77 51 78 52 79 56 80 53 81 55 82 54 83
REMARK H PARENT 10 19 71 51 49 62
REMARK Flexibility Score: inf
ROOT
ATOM      1  C   UNL A   1      31.638  27.799  26.485  1.00  0.00     0.188 C 
ENDROOT
BRANCH   1   2
ATOM      2  O   UNL A   1      31.006  26.589  26.878  1.00  0.00    -0.376 OA
BRANCH   2   3
ATOM      3  C   UNL A   1      30.395  25.796  25.867  1.00  0.00     0.202 C 
BRANCH   3   4
ATOM      4  C   UNL A   1      30.761  24.302  25.886  1.00  0.00     0.261 C 
BRANCH   4   5
ATOM      5  O   UNL A   1      31.365  23.993  27.158  1.00  0.00    -0.463 OA
BRANCH   5   6
ATOM      6  C   UNL A   1      32.486  23.232  27.217  1.00  0.00     0.309 C 
ATOM      7  O   UNL A   1      32.483  22.023  27.401  1.00  0.00    -0.252 OA
BRANCH   6   8
ATOM      8  C   UNL A   1      33.699  24.039  26.750  1.00  0.00     0.164 C 
BRANCH   8   9
ATOM      9  C   UNL A   1      34.634  23.640  25.590  1.00  0.00     0.118 C 
ATOM     10  C   UNL A   1      33.268  18.997  23.913  1.00  0.00    -0.024 A 
ATOM     11  C   UNL A   1      32.351  18.615  22.909  1.00  0.00     0.006 A 
ATOM     12  C   UNL A   1      33.508  20.391  24.037  1.00  0.00     0.049 A 
ATOM     13  C   UNL A   1      31.773  19.536  22.041  1.00  0.00     0.001 A 
ATOM     14  C   UNL A   1      32.942  21.330  23.165  1.00  0.00     0.003 A 
ATOM     15  N   UNL A   1      34.244  21.122  24.959  1.00  0.00    -0.356 N 
ATOM     16  C   UNL A   1      32.089  20.889  22.137  1.00  0.00     0.010 A 
ATOM     17  C   UNL A   1      33.416  22.610  23.556  1.00  0.00    -0.014 A 
ATOM     18  C   UNL A   1      34.077  22.479  24.758  1.00  0.00     0.052 A 
ATOM     19  H   UNL A   1      34.808  20.727  25.663  1.00  0.00     0.166 HD
ATOM     20  C   UNL A   1      33.309  23.920  22.873  1.00  0.00     0.066 C 
ATOM     21  C   UNL A   1      33.772  25.058  23.794  1.00  0.00     0.166 C 
ATOM     22  O   UNL A   1      34.868  24.719  24.666  1.00  0.00    -0.368 OA
BRANCH  10  23
ATOM     23  C   UNL A   1      33.883  17.903  24.756  1.00  0.00     0.034 C 
ATOM     24  C   UNL A   1      33.827  16.532  24.110  1.00  0.00     0.009 C 
ENDBRANCH  10  23
BRANCH   9  25
ATOM     25  C   UNL A   1      36.009  23.182  26.166  1.00  0.00     0.039 C 
ATOM     26  C   UNL A   1      37.231  23.923  25.638  1.00  0.00     0.007 C 
ENDBRANCH   9  25
ENDBRANCH   8   9
ENDBRANCH   6   8
ENDBRANCH   5   6
ENDBRANCH   4   5
ENDBRANCH   3   4
ENDBRANCH   2   3
ENDBRANCH   1   2
BRANCH   1  27
ATOM     27  C   UNL A   1      33.150  27.973  26.740  1.00  0.00     0.188 C 
BRANCH  27  28
ATOM     28  O   UNL A   1      33.589  29.108  27.464  1.00  0.00    -0.376 OA
BRANCH  28  29
ATOM     29  C   UNL A   1      34.905  29.566  27.167  1.00  0.00     0.202 C 
BRANCH  29  30
ATOM     30  C   UNL A   1      35.624  30.307  28.308  1.00  0.00     0.261 C 
BRANCH  30  31
ATOM     31  O   UNL A   1      36.745  29.516  28.760  1.00  0.00    -0.460 OA
BRANCH  31  32
ATOM     32  C   UNL A   1      37.771  30.211  29.310  1.00  0.00     0.338 C 
ATOM     33  O   UNL A   1      37.693  31.050  30.193  1.00  0.00    -0.246 OA
BRANCH  32  34
ATOM     34  C   UNL A   1      39.012  29.482  28.952  1.00  0.00     0.060 A 
ATOM     35  C   UNL A   1      40.030  29.159  29.845  1.00  0.00     0.016 A 
ATOM     36  C   UNL A   1      39.211  29.275  27.588  1.00  0.00     0.016 A 
ATOM     37  C   UNL A   1      41.244  28.646  29.348  1.00  0.00     0.010 A 
ATOM     38  C   UNL A   1      40.433  28.826  27.093  1.00  0.00     0.010 A 
ATOM     39  C   UNL A   1      41.465  28.504  27.965  1.00  0.00    -0.014 A 
BRANCH  39  40
ATOM     40  C   UNL A   1      42.573  27.687  27.448  1.00  0.00     0.031 A 
ATOM     41  C   UNL A   1      42.191  26.274  27.271  1.00  0.00     0.074 A 
ATOM     42  C   UNL A   1      43.795  27.999  26.964  1.00  0.00     0.049 A 
ATOM     43  N   UNL A   1      42.401  25.343  28.135  1.00  0.00    -0.248 NA
ATOM     44  C   UNL A   1      41.425  25.860  26.095  1.00  0.00     0.031 C 
ATOM     45  C   UNL A   1      44.424  29.297  26.805  1.00  0.00     0.029 A 
ATOM     46  N   UNL A   1      44.734  27.151  26.433  1.00  0.00    -0.354 N 
ATOM     47  C   UNL A   1      41.983  24.175  27.529  1.00  0.00     0.074 A 
ATOM     48  C   UNL A   1      41.197  24.577  26.387  1.00  0.00     0.031 C 
ATOM     49  C   UNL A   1      45.503  29.196  25.987  1.00  0.00     0.029 A 
ATOM     50  C   UNL A   1      45.776  27.786  25.771  1.00  0.00     0.049 A 
ATOM     51  H   UNL A   1      44.674  26.172  26.514  1.00  0.00     0.167 HD
ATOM     52  C   UNL A   1      42.548  22.982  27.862  1.00  0.00     0.031 A 
ATOM     53  C   UNL A   1      46.854  27.204  25.193  1.00  0.00     0.031 A 
ATOM     54  C   UNL A   1      43.428  23.110  29.005  1.00  0.00     0.049 A 
ATOM     55  C   UNL A   1      47.127  25.970  25.960  1.00  0.00     0.074 A 
ATOM     56  C   UNL A   1      43.308  23.573  30.301  1.00  0.00     0.029 A 
ATOM     57  N   UNL A   1      44.778  23.081  28.739  1.00  0.00    -0.354 N 
ATOM     58  N   UNL A   1      47.527  25.973  27.198  1.00  0.00    -0.248 NA
ATOM     59  C   UNL A   1      46.694  24.682  25.448  1.00  0.00     0.031 C 
ATOM     60  C   UNL A   1      44.560  24.190  30.605  1.00  0.00     0.029 A 
ATOM     61  C   UNL A   1      45.395  24.044  29.496  1.00  0.00     0.049 A 
ATOM     62  H   UNL A   1      45.226  22.470  28.111  1.00  0.00     0.167 HD
ATOM     63  C   UNL A   1      46.963  24.836  27.744  1.00  0.00     0.074 A 
ATOM     64  C   UNL A   1      46.638  24.000  26.595  1.00  0.00     0.031 C 
ATOM     65  C   UNL A   1      46.534  24.820  29.041  1.00  0.00     0.031 A 
BRANCH  52  66
ATOM     66  C   UNL A   1      42.635  21.798  26.933  1.00  0.00    -0.014 A 
ATOM     67  C   UNL A   1      43.606  21.649  25.926  1.00  0.00     0.009 A 
ATOM     68  C   UNL A   1      41.857  20.664  27.227  1.00  0.00     0.009 A 
ATOM     69  C   UNL A   1      43.797  20.439  25.251  1.00  0.00     0.001 A 
ATOM     70  C   UNL A   1      42.080  19.437  26.593  1.00  0.00     0.001 A 
ATOM     71  C   UNL A   1      43.050  19.326  25.605  1.00  0.00     0.000 A 
ENDBRANCH  52  66
BRANCH  53  72
ATOM     72  C   UNL A   1      47.667  27.576  24.017  1.00  0.00    -0.014 A 
ATOM     73  C   UNL A   1      47.052  28.181  22.908  1.00  0.00     0.009 A 
ATOM     74  C   UNL A   1      48.963  27.057  23.845  1.00  0.00     0.009 A 
ATOM     75  C   UNL A   1      47.684  28.209  21.657  1.00  0.00     0.001 A 
ATOM     76  C   UNL A   1      49.594  27.087  22.595  1.00  0.00     0.001 A 
ATOM     77  C   UNL A   1      48.946  27.645  21.496  1.00  0.00     0.000 A 
ENDBRANCH  53  72
BRANCH  65  78
ATOM     78  C   UNL A   1      47.068  25.876  29.985  1.00  0.00    -0.014 A 
ATOM     79  C   UNL A   1      48.330  25.669  30.566  1.00  0.00     0.009 A 
ATOM     80  C   UNL A   1      46.326  26.993  30.406  1.00  0.00     0.009 A 
ATOM     81  C   UNL A   1      48.834  26.548  31.529  1.00  0.00     0.001 A 
ATOM     82  C   UNL A   1      46.841  27.889  31.349  1.00  0.00     0.001 A 
ATOM     83  C   UNL A   1      48.092  27.661  31.916  1.00  0.00     0.000 A 
ENDBRANCH  65  78
ENDBRANCH  39  40
ENDBRANCH  32  34
ENDBRANCH  31  32
ENDBRANCH  30  31
ENDBRANCH  29  30
ENDBRANCH  28  29
ENDBRANCH  27  28
ENDBRANCH   1  27
TORSDOF 20
ENDMDL
MODEL 3
REMARK VINA RESULT:      -9.8      2.671      4.526
REMARK SMILES CCc1cccc2c3c([nH]c12)[C@](CC)(CC(=O)OCCOCCOCCOC(=O)c1ccc(-c2c4nc(c(-c5ccccc5)c5ccc([nH]5)c(-c5ccccc5)c5nc(c(-c6ccccc6)c6ccc2[nH]6)C=C5)C=C4)cc1)OCC3
REMARK SMILES IDX 22 1 21 2 20 3 19 4 18 5 16 6 17 7 15 8 12 9 3 10 4 11 11 12
REMARK SMILES IDX 5 13 7 14 10 15 6 16 8 17 9 18 80 20 79 21 78 22 2 23 1 24
REMARK SMILES IDX 13 25 14 26 23 27 24 28 25 29 26 30 27 31 28 32 29 33 30 34
REMARK SMILES IDX 31 35 77 36 32 37 76 38 33 39 34 40 35 41 70 42 36 43 75 44
REMARK SMILES IDX 69 45 71 46 37 47 74 48 68 49 67 50 38 52 60 53 45 54 59 55
REMARK SMILES IDX 46 56 49 57 58 58 72 59 47 60 48 61 57 63 73 64 50 65 39 66
REMARK SMILES IDX 40 67 44 68 41 69 43 70 42 71 61 72 62 73 66 74 63 75 65 76
REMARK SMILES IDX 64 77 51 78 52 79 56 80 53 81 55 82 54 83
REMARK H PARENT 10 19 71 51 49 62
REMARK Flexibility Score: inf
ROOT
ATOM      1  C   UNL A   1      34.180  33.136  28.801  1.00  0.00     0.188 C 
ENDROOT
BRANCH   1   2
ATOM      2  O   UNL A   1      34.072  31.722  28.713  1.00  0.00    -0.376 OA
BRANCH   2   3
ATOM      3  C   UNL A   1      34.510  31.092  27.515  1.00  0.00     0.202 C 
BRANCH   3   4
ATOM      4  C   UNL A   1      33.436  30.292  26.757  1.00  0.00     0.261 C 
BRANCH   4   5
ATOM      5  O   UNL A   1      33.239  29.034  27.431  1.00  0.00    -0.463 OA
BRANCH   5   6
ATOM      6  C   UNL A   1      32.177  28.249  27.122  1.00  0.00     0.309 C 
ATOM      7  O   UNL A   1      31.437  27.742  27.953  1.00  0.00    -0.252 OA
BRANCH   6   8
ATOM      8  C   UNL A   1      31.882  28.326  25.622  1.00  0.00     0.164 C 
BRANCH   8   9
ATOM      9  C   UNL A   1      31.727  27.109  24.688  1.00  0.00     0.118 C 
ATOM     10  C   UNL A   1      35.267  23.625  25.938  1.00  0.00    -0.024 A 
ATOM     11  C   UNL A   1      35.217  22.551  26.853  1.00  0.00     0.006 A 
ATOM     12  C   UNL A   1      34.049  24.326  25.737  1.00  0.00     0.049 A 
ATOM     13  C   UNL A   1      34.034  22.150  27.466  1.00  0.00     0.001 A 
ATOM     14  C   UNL A   1      32.847  23.930  26.338  1.00  0.00     0.003 A 
ATOM     15  N   UNL A   1      33.754  25.473  25.013  1.00  0.00    -0.356 N 
ATOM     16  C   UNL A   1      32.838  22.809  27.187  1.00  0.00     0.010 A 
ATOM     17  C   UNL A   1      31.839  24.826  25.897  1.00  0.00    -0.014 A 
ATOM     18  C   UNL A   1      32.444  25.863  25.220  1.00  0.00     0.052 A 
ATOM     19  H   UNL A   1      34.392  25.946  24.430  1.00  0.00     0.166 HD
ATOM     20  C   UNL A   1      30.366  24.760  26.047  1.00  0.00     0.066 C 
ATOM     21  C   UNL A   1      29.710  26.076  25.608  1.00  0.00     0.166 C 
ATOM     22  O   UNL A   1      30.352  26.727  24.494  1.00  0.00    -0.368 OA
BRANCH  10  23
ATOM     23  C   UNL A   1      36.596  23.929  25.284  1.00  0.00     0.034 C 
ATOM     24  C   UNL A   1      37.755  23.140  25.863  1.00  0.00     0.009 C 
ENDBRANCH  10  23
BRANCH   9  25
ATOM     25  C   UNL A   1      32.343  27.442  23.295  1.00  0.00     0.039 C 
ATOM     26  C   UNL A   1      31.826  26.615  22.124  1.00  0.00     0.007 C 
ENDBRANCH   9  25
ENDBRANCH   8   9
ENDBRANCH   6   8
ENDBRANCH   5   6
ENDBRANCH   4   5
ENDBRANCH   3   4
ENDBRANCH   2   3
ENDBRANCH   1   2
BRANCH   1  27
ATOM     27  C   UNL A   1      33.152  34.015  28.057  1.00  0.00     0.188 C 
BRANCH  27  28
ATOM     28  O   UNL A   1      32.529  35.072  28.762  1.00  0.00    -0.376 OA
BRANCH  28  29
ATOM     29  C   UNL A   1      33.405  35.979  29.426  1.00  0.00     0.202 C 
BRANCH  29  30
ATOM     30  C   UNL A   1      32.824  36.669  30.673  1.00  0.00     0.261 C 
BRANCH  30  31
ATOM     31  O   UNL A   1      33.650  36.363  31.818  1.00  0.00    -0.460 OA
BRANCH  31  32
ATOM     32  C   UNL A   1      33.325  35.232  32.492  1.00  0.00     0.338 C 
ATOM     33  O   UNL A   1      32.223  34.930  32.919  1.00  0.00    -0.246 OA
BRANCH  32  34
ATOM     34  C   UNL A   1      34.425  34.268  32.250  1.00  0.00     0.060 A 
ATOM     35  C   UNL A   1      34.315  32.886  32.380  1.00  0.00     0.016 A 
ATOM     36  C   UNL A   1      35.683  34.834  32.048  1.00  0.00     0.016 A 
ATOM     37  C   UNL A   1      35.478  32.094  32.320  1.00  0.00     0.010 A 
ATOM     38  C   UNL A   1      36.838  34.056  32.051  1.00  0.00     0.010 A 
ATOM     39  C   UNL A   1      36.752  32.677  32.185  1.00  0.00    -0.014 A 
BRANCH  39  40
ATOM     40  C   UNL A   1      37.924  31.874  31.803  1.00  0.00     0.031 A 
ATOM     41  C   UNL A   1      38.683  31.402  32.974  1.00  0.00     0.074 A 
ATOM     42  C   UNL A   1      38.341  31.364  30.624  1.00  0.00     0.049 A 
ATOM     43  N   UNL A   1      39.715  31.993  33.467  1.00  0.00    -0.248 NA
ATOM     44  C   UNL A   1      38.219  30.240  33.733  1.00  0.00     0.031 C 
ATOM     45  C   UNL A   1      37.739  31.462  29.307  1.00  0.00     0.029 A 
ATOM     46  N   UNL A   1      39.427  30.558  30.390  1.00  0.00    -0.354 N 
ATOM     47  C   UNL A   1      40.166  31.167  34.478  1.00  0.00     0.074 A 
ATOM     48  C   UNL A   1      39.095  30.236  34.741  1.00  0.00     0.031 C 
ATOM     49  C   UNL A   1      38.290  30.543  28.472  1.00  0.00     0.029 A 
ATOM     50  C   UNL A   1      39.450  29.970  29.133  1.00  0.00     0.049 A 
ATOM     51  H   UNL A   1      40.132  30.407  31.060  1.00  0.00     0.167 HD
ATOM     52  C   UNL A   1      41.483  31.149  34.820  1.00  0.00     0.031 A 
ATOM     53  C   UNL A   1      40.415  29.169  28.621  1.00  0.00     0.031 A 
ATOM     54  C   UNL A   1      42.223  32.199  34.151  1.00  0.00     0.049 A 
ATOM     55  C   UNL A   1      41.685  29.588  29.249  1.00  0.00     0.074 A 
ATOM     56  C   UNL A   1      42.124  33.574  34.055  1.00  0.00     0.029 A 
ATOM     57  N   UNL A   1      43.027  31.806  33.106  1.00  0.00    -0.354 N 
ATOM     58  N   UNL A   1      42.239  30.747  29.037  1.00  0.00    -0.248 NA
ATOM     59  C   UNL A   1      42.239  28.826  30.355  1.00  0.00     0.031 C 
ATOM     60  C   UNL A   1      42.529  33.895  32.724  1.00  0.00     0.029 A 
ATOM     61  C   UNL A   1      42.889  32.709  32.083  1.00  0.00     0.049 A 
ATOM     62  H   UNL A   1      43.605  31.009  33.095  1.00  0.00     0.167 HD
ATOM     63  C   UNL A   1      42.858  31.055  30.233  1.00  0.00     0.074 A 
ATOM     64  C   UNL A   1      42.990  29.776  30.919  1.00  0.00     0.031 C 
ATOM     65  C   UNL A   1      42.920  32.346  30.677  1.00  0.00     0.031 A 
BRANCH  52  66
ATOM     66  C   UNL A   1      42.184  29.959  35.426  1.00  0.00    -0.014 A 
ATOM     67  C   UNL A   1      42.213  28.677  34.848  1.00  0.00     0.009 A 
ATOM     68  C   UNL A   1      43.057  30.181  36.506  1.00  0.00     0.009 A 
ATOM     69  C   UNL A   1      43.066  27.671  35.314  1.00  0.00     0.001 A 
ATOM     70  C   UNL A   1      43.949  29.196  36.942  1.00  0.00     0.001 A 
ATOM     71  C   UNL A   1      43.953  27.941  36.345  1.00  0.00     0.000 A 
ENDBRANCH  52  66
BRANCH  53  72
ATOM     72  C   UNL A   1      40.361  28.044  27.665  1.00  0.00    -0.014 A 
ATOM     73  C   UNL A   1      39.663  26.873  28.005  1.00  0.00     0.009 A 
ATOM     74  C   UNL A   1      41.247  27.985  26.574  1.00  0.00     0.009 A 
ATOM     75  C   UNL A   1      39.888  25.672  27.319  1.00  0.00     0.001 A 
ATOM     76  C   UNL A   1      41.471  26.784  25.888  1.00  0.00     0.001 A 
ATOM     77  C   UNL A   1      40.807  25.623  26.274  1.00  0.00     0.000 A 
ENDBRANCH  53  72
BRANCH  65  78
ATOM     78  C   UNL A   1      42.707  33.460  29.675  1.00  0.00    -0.014 A 
ATOM     79  C   UNL A   1      43.794  33.846  28.873  1.00  0.00     0.009 A 
ATOM     80  C   UNL A   1      41.522  34.209  29.581  1.00  0.00     0.009 A 
ATOM     81  C   UNL A   1      43.698  34.938  28.005  1.00  0.00     0.001 A 
ATOM     82  C   UNL A   1      41.416  35.285  28.694  1.00  0.00     0.001 A 
ATOM     83  C   UNL A   1      42.508  35.654  27.911  1.00  0.00     0.000 A 
ENDBRANCH  65  78
ENDBRANCH  39  40
ENDBRANCH  32  34
ENDBRANCH  31  32
ENDBRANCH  30  31
ENDBRANCH  29  30
ENDBRANCH  28  29
ENDBRANCH  27  28
ENDBRANCH   1  27
TORSDOF 20
ENDMDL
