MODEL 1
REMARK VINA RESULT:     -10.9      0.000      0.000
REMARK SMILES CC(=O)N1CCN(c2c(Cl)cccc2[C@@H]2C[C@H](C(=O)OCCOCCOCCOC(=O)c3ccc(-c4c5nc(c(-c6ccccc6)c6ccc([nH]6)c(-c6ccccc6)c6nc(c(-c7ccccc7)c7ccc4[nH]7)C=C6)C=C5)cc3)CC2=O)CC1
REMARK SMILES IDX 24 1 23 2 22 3 21 4 20 5 18 6 19 7 17 8 15 9 16 10 81 11
REMARK SMILES IDX 80 12 82 13 14 14 8 15 9 16 10 17 11 18 13 19 12 20 7 21
REMARK SMILES IDX 1 22 2 23 3 24 4 25 5 26 84 27 6 28 83 29 25 30 26 31 27 32
REMARK SMILES IDX 28 33 29 34 30 35 31 36 32 37 33 38 79 39 34 40 78 41 35 42
REMARK SMILES IDX 36 43 37 44 72 45 38 46 77 47 71 48 73 49 39 50 76 51 70 52
REMARK SMILES IDX 69 53 40 55 62 56 47 57 61 58 48 59 51 60 60 61 74 62 49 63
REMARK SMILES IDX 50 64 59 66 75 67 52 68 41 69 42 70 46 71 43 72 45 73 44 74
REMARK SMILES IDX 63 75 64 76 68 77 65 78 67 79 66 80 53 81 54 82 58 83 55 84
REMARK SMILES IDX 57 85 56 86
REMARK H PARENT 73 54 51 65
REMARK Flexibility Score: inf
ROOT
ATOM      1  C   UNL A   1      34.030  34.456  28.982  1.00  0.00     0.188 C 
ENDROOT
BRANCH   1   2
ATOM      2  O   UNL A   1      34.908  33.362  29.218  1.00  0.00    -0.376 OA
BRANCH   2   3
ATOM      3  C   UNL A   1      35.914  33.085  28.256  1.00  0.00     0.202 C 
BRANCH   3   4
ATOM      4  C   UNL A   1      36.007  31.662  27.682  1.00  0.00     0.261 C 
BRANCH   4   5
ATOM      5  O   UNL A   1      35.119  30.692  28.286  1.00  0.00    -0.463 OA
BRANCH   5   6
ATOM      6  C   UNL A   1      34.819  29.605  27.537  1.00  0.00     0.309 C 
ATOM      7  O   UNL A   1      35.660  28.804  27.140  1.00  0.00    -0.252 OA
BRANCH   6   8
ATOM      8  C   UNL A   1      33.337  29.493  27.153  1.00  0.00     0.107 C 
ATOM      9  C   UNL A   1      32.148  27.941  25.564  1.00  0.00     0.089 C 
ATOM     10  C   UNL A   1      33.273  28.976  25.712  1.00  0.00     0.032 C 
ATOM     11  C   UNL A   1      31.645  27.776  26.964  1.00  0.00     0.141 C 
ATOM     12  C   UNL A   1      32.418  28.585  27.959  1.00  0.00     0.091 C 
ATOM     13  O   UNL A   1      30.733  27.025  27.297  1.00  0.00    -0.299 OA
BRANCH   9  14
ATOM     14  C   UNL A   1      32.734  26.696  24.912  1.00  0.00    -0.013 A 
ATOM     15  C   UNL A   1      32.297  26.258  23.631  1.00  0.00     0.060 A 
ATOM     16  C   UNL A   1      33.057  25.250  22.986  1.00  0.00     0.064 A 
ATOM     17  Cl  UNL A   1      32.691  24.674  21.393  1.00  0.00    -0.082 Cl
ATOM     18  C   UNL A   1      34.228  24.749  23.554  1.00  0.00     0.023 A 
ATOM     19  C   UNL A   1      33.876  26.111  25.500  1.00  0.00     0.007 A 
ATOM     20  C   UNL A   1      34.641  25.188  24.801  1.00  0.00     0.002 A 
BRANCH  15  21
ATOM     21  N   UNL A   1      31.228  26.880  23.007  1.00  0.00    -0.367 N 
ATOM     22  C   UNL A   1      28.043  30.403  21.299  1.00  0.00     0.114 C 
ATOM     23  C   UNL A   1      27.929  29.310  22.325  1.00  0.00     0.219 C 
ATOM     24  O   UNL A   1      26.820  28.921  22.691  1.00  0.00    -0.275 OA
ATOM     25  N   UNL A   1      29.104  28.762  22.796  1.00  0.00    -0.339 N 
ATOM     26  C   UNL A   1      29.032  27.687  23.786  1.00  0.00     0.141 C 
ATOM     27  C   UNL A   1      30.472  29.193  22.461  1.00  0.00     0.141 C 
ATOM     28  C   UNL A   1      29.856  26.485  23.338  1.00  0.00     0.138 C 
ATOM     29  C   UNL A   1      31.404  28.014  22.092  1.00  0.00     0.138 C 
ENDBRANCH  15  21
ENDBRANCH   9  14
ENDBRANCH   6   8
ENDBRANCH   5   6
ENDBRANCH   4   5
ENDBRANCH   3   4
ENDBRANCH   2   3
ENDBRANCH   1   2
BRANCH   1  30
ATOM     30  C   UNL A   1      33.521  35.304  30.176  1.00  0.00     0.188 C 
BRANCH  30  31
ATOM     31  O   UNL A   1      33.262  34.498  31.304  1.00  0.00    -0.376 OA
BRANCH  31  32
ATOM     32  C   UNL A   1      33.954  34.817  32.486  1.00  0.00     0.202 C 
BRANCH  32  33
ATOM     33  C   UNL A   1      34.300  33.652  33.427  1.00  0.00     0.261 C 
BRANCH  33  34
ATOM     34  O   UNL A   1      35.173  32.620  32.923  1.00  0.00    -0.460 OA
BRANCH  34  35
ATOM     35  C   UNL A   1      36.318  32.383  33.599  1.00  0.00     0.338 C 
ATOM     36  O   UNL A   1      36.527  32.630  34.782  1.00  0.00    -0.246 OA
BRANCH  35  37
ATOM     37  C   UNL A   1      37.271  31.655  32.727  1.00  0.00     0.060 A 
ATOM     38  C   UNL A   1      38.216  30.788  33.295  1.00  0.00     0.016 A 
ATOM     39  C   UNL A   1      37.273  31.875  31.347  1.00  0.00     0.016 A 
ATOM     40  C   UNL A   1      39.181  30.169  32.486  1.00  0.00     0.010 A 
ATOM     41  C   UNL A   1      38.252  31.274  30.545  1.00  0.00     0.010 A 
ATOM     42  C   UNL A   1      39.232  30.438  31.109  1.00  0.00    -0.014 A 
BRANCH  42  43
ATOM     43  C   UNL A   1      40.373  29.961  30.277  1.00  0.00     0.031 A 
ATOM     44  C   UNL A   1      41.535  30.879  30.025  1.00  0.00     0.074 A 
ATOM     45  C   UNL A   1      40.370  28.746  29.697  1.00  0.00     0.049 A 
ATOM     46  N   UNL A   1      42.591  30.687  29.277  1.00  0.00    -0.248 NA
ATOM     47  C   UNL A   1      41.477  32.201  30.666  1.00  0.00     0.031 C 
ATOM     48  C   UNL A   1      39.280  27.790  29.800  1.00  0.00     0.029 A 
ATOM     49  N   UNL A   1      41.303  28.107  28.915  1.00  0.00    -0.354 N 
ATOM     50  C   UNL A   1      43.300  31.880  29.315  1.00  0.00     0.074 A 
ATOM     51  C   UNL A   1      42.558  32.785  30.168  1.00  0.00     0.031 C 
ATOM     52  C   UNL A   1      39.629  26.658  29.164  1.00  0.00     0.029 A 
ATOM     53  C   UNL A   1      40.950  26.822  28.568  1.00  0.00     0.049 A 
ATOM     54  H   UNL A   1      42.146  28.529  28.628  1.00  0.00     0.167 HD
ATOM     55  C   UNL A   1      44.449  32.201  28.674  1.00  0.00     0.031 A 
ATOM     56  C   UNL A   1      41.605  25.888  27.848  1.00  0.00     0.031 A 
ATOM     57  C   UNL A   1      45.182  31.312  27.811  1.00  0.00     0.049 A 
ATOM     58  C   UNL A   1      42.905  26.263  27.180  1.00  0.00     0.074 A 
ATOM     59  C   UNL A   1      46.363  31.556  27.130  1.00  0.00     0.029 A 
ATOM     60  N   UNL A   1      44.806  30.013  27.504  1.00  0.00    -0.354 N 
ATOM     61  N   UNL A   1      43.578  27.386  27.250  1.00  0.00    -0.248 NA
ATOM     62  C   UNL A   1      43.515  25.254  26.300  1.00  0.00     0.031 C 
ATOM     63  C   UNL A   1      46.670  30.428  26.366  1.00  0.00     0.029 A 
ATOM     64  C   UNL A   1      45.721  29.453  26.627  1.00  0.00     0.049 A 
ATOM     65  H   UNL A   1      44.008  29.558  27.856  1.00  0.00     0.167 HD
ATOM     66  C   UNL A   1      44.684  27.218  26.427  1.00  0.00     0.074 A 
ATOM     67  C   UNL A   1      44.620  25.870  25.905  1.00  0.00     0.031 C 
ATOM     68  C   UNL A   1      45.653  28.111  26.112  1.00  0.00     0.031 A 
BRANCH  55  69
ATOM     69  C   UNL A   1      44.960  33.605  28.838  1.00  0.00    -0.014 A 
ATOM     70  C   UNL A   1      45.936  33.924  29.794  1.00  0.00     0.009 A 
ATOM     71  C   UNL A   1      44.485  34.615  27.986  1.00  0.00     0.009 A 
ATOM     72  C   UNL A   1      46.404  35.233  29.912  1.00  0.00     0.001 A 
ATOM     73  C   UNL A   1      44.977  35.916  28.086  1.00  0.00     0.001 A 
ATOM     74  C   UNL A   1      45.930  36.226  29.055  1.00  0.00     0.000 A 
ENDBRANCH  55  69
BRANCH  56  75
ATOM     75  C   UNL A   1      41.053  24.512  27.672  1.00  0.00    -0.014 A 
ATOM     76  C   UNL A   1      41.670  23.413  28.297  1.00  0.00     0.009 A 
ATOM     77  C   UNL A   1      39.952  24.271  26.836  1.00  0.00     0.009 A 
ATOM     78  C   UNL A   1      41.225  22.111  28.055  1.00  0.00     0.001 A 
ATOM     79  C   UNL A   1      39.480  22.972  26.632  1.00  0.00     0.001 A 
ATOM     80  C   UNL A   1      40.126  21.891  27.228  1.00  0.00     0.000 A 
ENDBRANCH  56  75
BRANCH  68  81
ATOM     81  C   UNL A   1      46.744  27.651  25.183  1.00  0.00    -0.014 A 
ATOM     82  C   UNL A   1      46.775  28.048  23.837  1.00  0.00     0.009 A 
ATOM     83  C   UNL A   1      47.780  26.842  25.675  1.00  0.00     0.009 A 
ATOM     84  C   UNL A   1      47.802  27.614  22.995  1.00  0.00     0.001 A 
ATOM     85  C   UNL A   1      48.822  26.435  24.840  1.00  0.00     0.001 A 
ATOM     86  C   UNL A   1      48.827  26.813  23.499  1.00  0.00     0.000 A 
ENDBRANCH  68  81
ENDBRANCH  42  43
ENDBRANCH  35  37
ENDBRANCH  34  35
ENDBRANCH  33  34
ENDBRANCH  32  33
ENDBRANCH  31  32
ENDBRANCH  30  31
ENDBRANCH   1  30
TORSDOF 19
ENDMDL
MODEL 2
REMARK VINA RESULT:     -10.0      6.158     12.833
REMARK SMILES CC(=O)N1CCN(c2c(Cl)cccc2[C@@H]2C[C@H](C(=O)OCCOCCOCCOC(=O)c3ccc(-c4c5nc(c(-c6ccccc6)c6ccc([nH]6)c(-c6ccccc6)c6nc(c(-c7ccccc7)c7ccc4[nH]7)C=C6)C=C5)cc3)CC2=O)CC1
REMARK SMILES IDX 24 1 23 2 22 3 21 4 20 5 18 6 19 7 17 8 15 9 16 10 81 11
REMARK SMILES IDX 80 12 82 13 14 14 8 15 9 16 10 17 11 18 13 19 12 20 7 21
REMARK SMILES IDX 1 22 2 23 3 24 4 25 5 26 84 27 6 28 83 29 25 30 26 31 27 32
REMARK SMILES IDX 28 33 29 34 30 35 31 36 32 37 33 38 79 39 34 40 78 41 35 42
REMARK SMILES IDX 36 43 37 44 72 45 38 46 77 47 71 48 73 49 39 50 76 51 70 52
REMARK SMILES IDX 69 53 40 55 62 56 47 57 61 58 48 59 51 60 60 61 74 62 49 63
REMARK SMILES IDX 50 64 59 66 75 67 52 68 41 69 42 70 46 71 43 72 45 73 44 74
REMARK SMILES IDX 63 75 64 76 68 77 65 78 67 79 66 80 53 81 54 82 58 83 55 84
REMARK SMILES IDX 57 85 56 86
REMARK H PARENT 73 54 51 65
REMARK Flexibility Score: inf
ROOT
ATOM      1  C   UNL A   1      46.490  23.574  24.876  1.00  0.00     0.188 C 
ENDROOT
BRANCH   1   2
ATOM      2  O   UNL A   1      46.354  24.753  25.662  1.00  0.00    -0.376 OA
BRANCH   2   3
ATOM      3  C   UNL A   1      46.078  25.977  24.999  1.00  0.00     0.202 C 
BRANCH   3   4
ATOM      4  C   UNL A   1      44.888  26.820  25.484  1.00  0.00     0.261 C 
BRANCH   4   5
ATOM      5  O   UNL A   1      45.087  28.252  25.443  1.00  0.00    -0.463 OA
BRANCH   5   6
ATOM      6  C   UNL A   1      45.252  28.870  26.637  1.00  0.00     0.309 C 
ATOM      7  O   UNL A   1      44.483  28.730  27.582  1.00  0.00    -0.252 OA
BRANCH   6   8
ATOM      8  C   UNL A   1      46.448  29.831  26.691  1.00  0.00     0.107 C 
ATOM      9  C   UNL A   1      46.582  32.283  27.255  1.00  0.00     0.089 C 
ATOM     10  C   UNL A   1      45.929  31.231  26.346  1.00  0.00     0.032 C 
ATOM     11  C   UNL A   1      47.389  31.460  28.209  1.00  0.00     0.141 C 
ATOM     12  C   UNL A   1      47.229  29.987  27.988  1.00  0.00     0.091 C 
ATOM     13  O   UNL A   1      48.076  31.915  29.119  1.00  0.00    -0.299 OA
BRANCH   9  14
ATOM     14  C   UNL A   1      45.474  33.128  27.869  1.00  0.00    -0.013 A 
ATOM     15  C   UNL A   1      45.505  34.549  27.801  1.00  0.00     0.060 A 
ATOM     16  C   UNL A   1      44.330  35.250  28.168  1.00  0.00     0.064 A 
ATOM     17  Cl  UNL A   1      44.194  36.975  28.061  1.00  0.00    -0.082 Cl
ATOM     18  C   UNL A   1      43.162  34.575  28.524  1.00  0.00     0.023 A 
ATOM     19  C   UNL A   1      44.306  32.474  28.314  1.00  0.00     0.007 A 
ATOM     20  C   UNL A   1      43.149  33.191  28.584  1.00  0.00     0.002 A 
BRANCH  15  21
ATOM     21  N   UNL A   1      46.616  35.200  27.289  1.00  0.00    -0.367 N 
ATOM     22  C   UNL A   1      50.644  36.349  24.473  1.00  0.00     0.114 C 
ATOM     23  C   UNL A   1      50.462  35.946  25.910  1.00  0.00     0.219 C 
ATOM     24  O   UNL A   1      51.353  36.169  26.730  1.00  0.00    -0.275 OA
ATOM     25  N   UNL A   1      49.263  35.360  26.255  1.00  0.00    -0.339 N 
ATOM     26  C   UNL A   1      49.044  34.968  27.647  1.00  0.00     0.141 C 
ATOM     27  C   UNL A   1      48.162  35.007  25.342  1.00  0.00     0.141 C 
ATOM     28  C   UNL A   1      47.734  35.544  28.172  1.00  0.00     0.138 C 
ATOM     29  C   UNL A   1      46.777  35.470  25.856  1.00  0.00     0.138 C 
ENDBRANCH  15  21
ENDBRANCH   9  14
ENDBRANCH   6   8
ENDBRANCH   5   6
ENDBRANCH   4   5
ENDBRANCH   3   4
ENDBRANCH   2   3
ENDBRANCH   1   2
BRANCH   1  30
ATOM     30  C   UNL A   1      45.670  22.310  25.242  1.00  0.00     0.188 C 
BRANCH  30  31
ATOM     31  O   UNL A   1      46.459  21.144  25.159  1.00  0.00    -0.376 OA
BRANCH  31  32
ATOM     32  C   UNL A   1      45.883  20.029  24.525  1.00  0.00     0.202 C 
BRANCH  32  33
ATOM     33  C   UNL A   1      44.703  19.353  25.240  1.00  0.00     0.261 C 
BRANCH  33  34
ATOM     34  O   UNL A   1      43.374  19.649  24.764  1.00  0.00    -0.460 OA
BRANCH  34  35
ATOM     35  C   UNL A   1      42.371  19.654  25.670  1.00  0.00     0.338 C 
ATOM     36  O   UNL A   1      41.681  18.694  25.995  1.00  0.00    -0.246 OA
BRANCH  35  37
ATOM     37  C   UNL A   1      42.296  20.983  26.323  1.00  0.00     0.060 A 
ATOM     38  C   UNL A   1      42.308  22.147  25.542  1.00  0.00     0.016 A 
ATOM     39  C   UNL A   1      42.275  21.083  27.718  1.00  0.00     0.016 A 
ATOM     40  C   UNL A   1      42.331  23.409  26.156  1.00  0.00     0.010 A 
ATOM     41  C   UNL A   1      42.322  22.343  28.328  1.00  0.00     0.010 A 
ATOM     42  C   UNL A   1      42.379  23.517  27.555  1.00  0.00    -0.014 A 
BRANCH  42  43
ATOM     43  C   UNL A   1      42.620  24.832  28.215  1.00  0.00     0.031 A 
ATOM     44  C   UNL A   1      44.006  25.180  28.679  1.00  0.00     0.074 A 
ATOM     45  C   UNL A   1      41.619  25.699  28.456  1.00  0.00     0.049 A 
ATOM     46  N   UNL A   1      44.416  26.237  29.334  1.00  0.00    -0.248 NA
ATOM     47  C   UNL A   1      45.056  24.188  28.407  1.00  0.00     0.031 C 
ATOM     48  C   UNL A   1      40.225  25.456  28.124  1.00  0.00     0.029 A 
ATOM     49  N   UNL A   1      41.615  26.949  29.028  1.00  0.00    -0.354 N 
ATOM     50  C   UNL A   1      45.760  26.016  29.598  1.00  0.00     0.074 A 
ATOM     51  C   UNL A   1      46.098  24.730  29.024  1.00  0.00     0.031 C 
ATOM     52  C   UNL A   1      39.505  26.548  28.436  1.00  0.00     0.029 A 
ATOM     53  C   UNL A   1      40.378  27.553  29.032  1.00  0.00     0.049 A 
ATOM     54  H   UNL A   1      42.421  27.374  29.401  1.00  0.00     0.167 HD
ATOM     55  C   UNL A   1      46.627  26.801  30.281  1.00  0.00     0.031 A 
ATOM     56  C   UNL A   1      39.986  28.767  29.472  1.00  0.00     0.031 A 
ATOM     57  C   UNL A   1      46.293  28.072  30.869  1.00  0.00     0.049 A 
ATOM     58  C   UNL A   1      40.986  29.637  30.192  1.00  0.00     0.074 A 
ATOM     59  C   UNL A   1      47.117  28.936  31.570  1.00  0.00     0.029 A 
ATOM     60  N   UNL A   1      45.038  28.659  30.831  1.00  0.00    -0.354 N 
ATOM     61  N   UNL A   1      42.262  29.428  30.408  1.00  0.00    -0.248 NA
ATOM     62  C   UNL A   1      40.480  30.894  30.767  1.00  0.00     0.031 C 
ATOM     63  C   UNL A   1      46.348  30.018  32.008  1.00  0.00     0.029 A 
ATOM     64  C   UNL A   1      45.062  29.864  31.516  1.00  0.00     0.049 A 
ATOM     65  H   UNL A   1      44.248  28.278  30.386  1.00  0.00     0.167 HD
ATOM     66  C   UNL A   1      42.707  30.521  31.140  1.00  0.00     0.074 A 
ATOM     67  C   UNL A   1      41.580  31.415  31.292  1.00  0.00     0.031 C 
ATOM     68  C   UNL A   1      43.937  30.751  31.662  1.00  0.00     0.031 A 
BRANCH  55  69
ATOM     69  C   UNL A   1      48.020  26.275  30.482  1.00  0.00    -0.014 A 
ATOM     70  C   UNL A   1      48.396  25.626  31.668  1.00  0.00     0.009 A 
ATOM     71  C   UNL A   1      48.959  26.395  29.444  1.00  0.00     0.009 A 
ATOM     72  C   UNL A   1      49.693  25.132  31.820  1.00  0.00     0.001 A 
ATOM     73  C   UNL A   1      50.244  25.874  29.587  1.00  0.00     0.001 A 
ATOM     74  C   UNL A   1      50.613  25.251  30.778  1.00  0.00     0.000 A 
ENDBRANCH  55  69
BRANCH  56  75
ATOM     75  C   UNL A   1      38.584  29.246  29.289  1.00  0.00    -0.014 A 
ATOM     76  C   UNL A   1      38.188  29.843  28.079  1.00  0.00     0.009 A 
ATOM     77  C   UNL A   1      37.649  29.174  30.333  1.00  0.00     0.009 A 
ATOM     78  C   UNL A   1      36.910  30.389  27.935  1.00  0.00     0.001 A 
ATOM     79  C   UNL A   1      36.356  29.679  30.172  1.00  0.00     0.001 A 
ATOM     80  C   UNL A   1      35.992  30.301  28.980  1.00  0.00     0.000 A 
ENDBRANCH  56  75
BRANCH  68  81
ATOM     81  C   UNL A   1      44.139  32.034  32.420  1.00  0.00    -0.014 A 
ATOM     82  C   UNL A   1      43.932  32.107  33.807  1.00  0.00     0.009 A 
ATOM     83  C   UNL A   1      44.585  33.179  31.741  1.00  0.00     0.009 A 
ATOM     84  C   UNL A   1      44.133  33.309  34.490  1.00  0.00     0.001 A 
ATOM     85  C   UNL A   1      44.816  34.370  32.431  1.00  0.00     0.001 A 
ATOM     86  C   UNL A   1      44.580  34.437  33.802  1.00  0.00     0.000 A 
ENDBRANCH  68  81
ENDBRANCH  42  43
ENDBRANCH  35  37
ENDBRANCH  34  35
ENDBRANCH  33  34
ENDBRANCH  32  33
ENDBRANCH  31  32
ENDBRANCH  30  31
ENDBRANCH   1  30
TORSDOF 19
ENDMDL
MODEL 3
REMARK VINA RESULT:      -9.9      4.687      9.612
REMARK SMILES CC(=O)N1CCN(c2c(Cl)cccc2[C@@H]2C[C@H](C(=O)OCCOCCOCCOC(=O)c3ccc(-c4c5nc(c(-c6ccccc6)c6ccc([nH]6)c(-c6ccccc6)c6nc(c(-c7ccccc7)c7ccc4[nH]7)C=C6)C=C5)cc3)CC2=O)CC1
REMARK SMILES IDX 24 1 23 2 22 3 21 4 20 5 18 6 19 7 17 8 15 9 16 10 81 11
REMARK SMILES IDX 80 12 82 13 14 14 8 15 9 16 10 17 11 18 13 19 12 20 7 21
REMARK SMILES IDX 1 22 2 23 3 24 4 25 5 26 84 27 6 28 83 29 25 30 26 31 27 32
REMARK SMILES IDX 28 33 29 34 30 35 31 36 32 37 33 38 79 39 34 40 78 41 35 42
REMARK SMILES IDX 36 43 37 44 72 45 38 46 77 47 71 48 73 49 39 50 76 51 70 52
REMARK SMILES IDX 69 53 40 55 62 56 47 57 61 58 48 59 51 60 60 61 74 62 49 63
REMARK SMILES IDX 50 64 59 66 75 67 52 68 41 69 42 70 46 71 43 72 45 73 44 74
REMARK SMILES IDX 63 75 64 76 68 77 65 78 67 79 66 80 53 81 54 82 58 83 55 84
REMARK SMILES IDX 57 85 56 86
REMARK H PARENT 73 54 51 65
REMARK Flexibility Score: inf
ROOT
ATOM      1  C   UNL A   1      37.831  20.866  25.510  1.00  0.00     0.188 C 
ENDROOT
BRANCH   1   2
ATOM      2  O   UNL A   1      37.120  21.229  24.332  1.00  0.00    -0.376 OA
BRANCH   2   3
ATOM      3  C   UNL A   1      35.858  21.861  24.474  1.00  0.00     0.202 C 
BRANCH   3   4
ATOM      4  C   UNL A   1      34.630  20.985  24.774  1.00  0.00     0.261 C 
BRANCH   4   5
ATOM      5  O   UNL A   1      33.350  21.642  24.621  1.00  0.00    -0.463 OA
BRANCH   5   6
ATOM      6  C   UNL A   1      32.638  21.318  23.516  1.00  0.00     0.309 C 
ATOM      7  O   UNL A   1      32.511  20.168  23.107  1.00  0.00    -0.252 OA
BRANCH   6   8
ATOM      8  C   UNL A   1      32.060  22.523  22.762  1.00  0.00     0.107 C 
ATOM      9  C   UNL A   1      32.274  25.000  23.176  1.00  0.00     0.089 C 
ATOM     10  C   UNL A   1      31.857  23.650  23.780  1.00  0.00     0.032 C 
ATOM     11  C   UNL A   1      32.835  24.621  21.842  1.00  0.00     0.141 C 
ATOM     12  C   UNL A   1      32.848  23.141  21.614  1.00  0.00     0.091 C 
ATOM     13  O   UNL A   1      33.293  25.413  21.024  1.00  0.00    -0.299 OA
BRANCH   9  14
ATOM     14  C   UNL A   1      33.239  25.671  24.144  1.00  0.00    -0.013 A 
ATOM     15  C   UNL A   1      32.884  26.864  24.833  1.00  0.00     0.060 A 
ATOM     16  C   UNL A   1      33.725  27.285  25.893  1.00  0.00     0.064 A 
ATOM     17  Cl  UNL A   1      33.376  28.674  26.871  1.00  0.00    -0.082 Cl
ATOM     18  C   UNL A   1      34.826  26.529  26.292  1.00  0.00     0.023 A 
ATOM     19  C   UNL A   1      34.407  24.970  24.514  1.00  0.00     0.007 A 
ATOM     20  C   UNL A   1      35.157  25.368  25.610  1.00  0.00     0.002 A 
BRANCH  15  21
ATOM     21  N   UNL A   1      31.699  27.517  24.535  1.00  0.00    -0.367 N 
ATOM     22  C   UNL A   1      26.919  28.435  23.200  1.00  0.00     0.114 C 
ATOM     23  C   UNL A   1      28.249  28.721  22.560  1.00  0.00     0.219 C 
ATOM     24  O   UNL A   1      28.338  29.577  21.680  1.00  0.00    -0.275 OA
ATOM     25  N   UNL A   1      29.338  28.015  23.025  1.00  0.00    -0.339 N 
ATOM     26  C   UNL A   1      30.651  28.277  22.437  1.00  0.00     0.141 C 
ATOM     27  C   UNL A   1      29.325  26.940  24.033  1.00  0.00     0.141 C 
ATOM     28  C   UNL A   1      31.680  28.574  23.521  1.00  0.00     0.138 C 
ATOM     29  C   UNL A   1      30.413  27.115  25.119  1.00  0.00     0.138 C 
ENDBRANCH  15  21
ENDBRANCH   9  14
ENDBRANCH   6   8
ENDBRANCH   5   6
ENDBRANCH   4   5
ENDBRANCH   3   4
ENDBRANCH   2   3
ENDBRANCH   1   2
BRANCH   1  30
ATOM     30  C   UNL A   1      39.231  21.476  25.781  1.00  0.00     0.188 C 
BRANCH  30  31
ATOM     31  O   UNL A   1      40.085  20.544  26.406  1.00  0.00    -0.376 OA
BRANCH  31  32
ATOM     32  C   UNL A   1      41.322  21.026  26.869  1.00  0.00     0.202 C 
BRANCH  32  33
ATOM     33  C   UNL A   1      42.333  21.487  25.807  1.00  0.00     0.261 C 
BRANCH  33  34
ATOM     34  O   UNL A   1      42.233  22.845  25.333  1.00  0.00    -0.460 OA
BRANCH  34  35
ATOM     35  C   UNL A   1      43.219  23.702  25.677  1.00  0.00     0.338 C 
ATOM     36  O   UNL A   1      44.373  23.686  25.262  1.00  0.00    -0.246 OA
BRANCH  35  37
ATOM     37  C   UNL A   1      42.672  24.766  26.553  1.00  0.00     0.060 A 
ATOM     38  C   UNL A   1      43.236  26.050  26.529  1.00  0.00     0.016 A 
ATOM     39  C   UNL A   1      41.637  24.479  27.448  1.00  0.00     0.016 A 
ATOM     40  C   UNL A   1      42.786  27.035  27.421  1.00  0.00     0.010 A 
ATOM     41  C   UNL A   1      41.206  25.458  28.354  1.00  0.00     0.010 A 
ATOM     42  C   UNL A   1      41.794  26.735  28.369  1.00  0.00    -0.014 A 
BRANCH  42  43
ATOM     43  C   UNL A   1      41.458  27.697  29.457  1.00  0.00     0.031 A 
ATOM     44  C   UNL A   1      42.296  27.719  30.704  1.00  0.00     0.074 A 
ATOM     45  C   UNL A   1      40.391  28.513  29.379  1.00  0.00     0.049 A 
ATOM     46  N   UNL A   1      42.135  28.426  31.794  1.00  0.00    -0.248 NA
ATOM     47  C   UNL A   1      43.437  26.793  30.744  1.00  0.00     0.031 C 
ATOM     48  C   UNL A   1      39.460  28.542  28.264  1.00  0.00     0.029 A 
ATOM     49  N   UNL A   1      39.910  29.469  30.242  1.00  0.00    -0.354 N 
ATOM     50  C   UNL A   1      43.122  27.996  32.669  1.00  0.00     0.074 A 
ATOM     51  C   UNL A   1      43.882  26.975  31.979  1.00  0.00     0.031 C 
ATOM     52  C   UNL A   1      38.554  29.513  28.474  1.00  0.00     0.029 A 
ATOM     53  C   UNL A   1      38.813  30.149  29.761  1.00  0.00     0.049 A 
ATOM     54  H   UNL A   1      40.311  29.652  31.123  1.00  0.00     0.167 HD
ATOM     55  C   UNL A   1      43.356  28.396  33.942  1.00  0.00     0.031 A 
ATOM     56  C   UNL A   1      38.092  31.156  30.295  1.00  0.00     0.031 A 
ATOM     57  C   UNL A   1      42.593  29.398  34.639  1.00  0.00     0.049 A 
ATOM     58  C   UNL A   1      38.403  31.609  31.700  1.00  0.00     0.074 A 
ATOM     59  C   UNL A   1      42.771  29.870  35.929  1.00  0.00     0.029 A 
ATOM     60  N   UNL A   1      41.506  30.079  34.112  1.00  0.00    -0.354 N 
ATOM     61  N   UNL A   1      39.360  31.214  32.505  1.00  0.00    -0.248 NA
ATOM     62  C   UNL A   1      37.508  32.620  32.287  1.00  0.00     0.031 C 
ATOM     63  C   UNL A   1      41.757  30.792  36.203  1.00  0.00     0.029 A 
ATOM     64  C   UNL A   1      40.992  30.950  35.059  1.00  0.00     0.049 A 
ATOM     65  H   UNL A   1      41.153  29.961  33.201  1.00  0.00     0.167 HD
ATOM     66  C   UNL A   1      39.180  31.923  33.685  1.00  0.00     0.074 A 
ATOM     67  C   UNL A   1      38.055  32.809  33.479  1.00  0.00     0.031 C 
ATOM     68  C   UNL A   1      39.873  31.830  34.847  1.00  0.00     0.031 A 
BRANCH  55  69
ATOM     69  C   UNL A   1      44.457  27.701  34.691  1.00  0.00    -0.014 A 
ATOM     70  C   UNL A   1      45.772  28.189  34.683  1.00  0.00     0.009 A 
ATOM     71  C   UNL A   1      44.158  26.561  35.455  1.00  0.00     0.009 A 
ATOM     72  C   UNL A   1      46.772  27.533  35.403  1.00  0.00     0.001 A 
ATOM     73  C   UNL A   1      45.153  25.925  36.198  1.00  0.00     0.001 A 
ATOM     74  C   UNL A   1      46.461  26.406  36.164  1.00  0.00     0.000 A 
ENDBRANCH  55  69
BRANCH  56  75
ATOM     75  C   UNL A   1      36.979  31.803  29.539  1.00  0.00    -0.014 A 
ATOM     76  C   UNL A   1      35.709  31.200  29.488  1.00  0.00     0.009 A 
ATOM     77  C   UNL A   1      37.184  32.985  28.812  1.00  0.00     0.009 A 
ATOM     78  C   UNL A   1      34.691  31.740  28.698  1.00  0.00     0.001 A 
ATOM     79  C   UNL A   1      36.151  33.550  28.059  1.00  0.00     0.001 A 
ATOM     80  C   UNL A   1      34.911  32.919  27.989  1.00  0.00     0.000 A 
ENDBRANCH  56  75
BRANCH  68  81
ATOM     81  C   UNL A   1      39.454  32.731  35.977  1.00  0.00    -0.014 A 
ATOM     82  C   UNL A   1      40.002  34.015  36.132  1.00  0.00     0.009 A 
ATOM     83  C   UNL A   1      38.466  32.303  36.876  1.00  0.00     0.009 A 
ATOM     84  C   UNL A   1      39.593  34.836  37.186  1.00  0.00     0.001 A 
ATOM     85  C   UNL A   1      38.035  33.137  37.910  1.00  0.00     0.001 A 
ATOM     86  C   UNL A   1      38.606  34.399  38.070  1.00  0.00     0.000 A 
ENDBRANCH  68  81
ENDBRANCH  42  43
ENDBRANCH  35  37
ENDBRANCH  34  35
ENDBRANCH  33  34
ENDBRANCH  32  33
ENDBRANCH  31  32
ENDBRANCH  30  31
ENDBRANCH   1  30
TORSDOF 19
ENDMDL
