MODEL 1
REMARK VINA RESULT:     -10.1      0.000      0.000
REMARK SMILES O=C(OCCOCCOCCOC(=O)c1cncc(Nc2cc(Cl)ccc2Cl)n1)c1ccc(-c2c3nc(c(-c4ccccc4)c4ccc([nH]4)c(-c4ccccc4)c4nc(c(-c5ccccc5)c5ccc2[nH]5)C=C4)C=C3)cc1
REMARK SMILES IDX 7 1 6 2 5 3 4 4 3 5 2 6 1 7 30 8 31 9 77 10 32 11 76 12
REMARK SMILES IDX 33 13 34 14 35 15 70 16 36 17 75 18 69 19 71 20 37 21 74 22
REMARK SMILES IDX 68 23 67 24 38 26 60 27 45 28 59 29 46 30 49 31 58 32 72 33
REMARK SMILES IDX 47 34 48 35 57 37 73 38 50 39 39 40 40 41 44 42 41 43 43 44
REMARK SMILES IDX 42 45 61 46 62 47 66 48 63 49 65 50 64 51 51 52 52 53 56 54
REMARK SMILES IDX 53 55 55 56 54 57 8 58 9 59 10 60 11 61 12 62 13 63 14 64
REMARK SMILES IDX 15 65 16 66 29 67 17 68 19 69 18 70 20 71 21 73 22 74 27 75
REMARK SMILES IDX 23 76 26 77 28 78 24 79 25 80
REMARK H PARENT 71 25 49 36 20 72
REMARK Flexibility Score: inf
ROOT
ATOM      1  C   UNL A   1      41.545  21.656  27.296  1.00  0.00     0.188 C 
ENDROOT
BRANCH   1   2
ATOM      2  O   UNL A   1      42.950  21.757  27.024  1.00  0.00    -0.376 OA
BRANCH   2   3
ATOM      3  C   UNL A   1      43.337  21.188  25.770  1.00  0.00     0.202 C 
BRANCH   3   4
ATOM      4  C   UNL A   1      44.048  22.172  24.835  1.00  0.00     0.261 C 
BRANCH   4   5
ATOM      5  O   UNL A   1      43.378  23.444  24.807  1.00  0.00    -0.460 OA
BRANCH   5   6
ATOM      6  C   UNL A   1      43.880  24.655  25.156  1.00  0.00     0.338 C 
ATOM      7  O   UNL A   1      44.918  25.039  24.621  1.00  0.00    -0.246 OA
BRANCH   6   8
ATOM      8  C   UNL A   1      43.194  25.592  26.098  1.00  0.00     0.060 A 
ATOM      9  C   UNL A   1      43.553  26.920  26.333  1.00  0.00     0.016 A 
ATOM     10  C   UNL A   1      42.076  25.085  26.778  1.00  0.00     0.016 A 
ATOM     11  C   UNL A   1      42.930  27.671  27.329  1.00  0.00     0.010 A 
ATOM     12  C   UNL A   1      41.406  25.857  27.731  1.00  0.00     0.010 A 
ATOM     13  C   UNL A   1      41.865  27.138  28.055  1.00  0.00    -0.014 A 
BRANCH  13  14
ATOM     14  C   UNL A   1      41.349  27.867  29.237  1.00  0.00     0.031 A 
ATOM     15  C   UNL A   1      42.127  27.796  30.523  1.00  0.00     0.074 A 
ATOM     16  C   UNL A   1      40.268  28.665  29.138  1.00  0.00     0.049 A 
ATOM     17  N   UNL A   1      41.886  28.376  31.671  1.00  0.00    -0.248 NA
ATOM     18  C   UNL A   1      43.342  26.965  30.515  1.00  0.00     0.031 C 
ATOM     19  C   UNL A   1      39.479  28.867  27.923  1.00  0.00     0.029 A 
ATOM     20  N   UNL A   1      39.674  29.488  30.060  1.00  0.00    -0.354 N 
ATOM     21  C   UNL A   1      42.896  27.950  32.522  1.00  0.00     0.074 A 
ATOM     22  C   UNL A   1      43.739  27.047  31.774  1.00  0.00     0.031 C 
ATOM     23  C   UNL A   1      38.540  29.797  28.158  1.00  0.00     0.029 A 
ATOM     24  C   UNL A   1      38.631  30.223  29.549  1.00  0.00     0.049 A 
ATOM     25  H   UNL A   1      39.968  29.548  30.997  1.00  0.00     0.167 HD
ATOM     26  C   UNL A   1      43.116  28.288  33.814  1.00  0.00     0.031 A 
ATOM     27  C   UNL A   1      37.845  31.142  30.140  1.00  0.00     0.031 A 
ATOM     28  C   UNL A   1      42.294  29.202  34.552  1.00  0.00     0.049 A 
ATOM     29  C   UNL A   1      38.091  31.481  31.585  1.00  0.00     0.074 A 
ATOM     30  C   UNL A   1      42.396  29.587  35.876  1.00  0.00     0.029 A 
ATOM     31  N   UNL A   1      41.215  29.888  34.013  1.00  0.00    -0.354 N 
ATOM     32  N   UNL A   1      39.031  31.041  32.387  1.00  0.00    -0.248 NA
ATOM     33  C   UNL A   1      37.168  32.441  32.205  1.00  0.00     0.031 C 
ATOM     34  C   UNL A   1      41.362  30.491  36.144  1.00  0.00     0.029 A 
ATOM     35  C   UNL A   1      40.641  30.693  34.978  1.00  0.00     0.049 A 
ATOM     36  H   UNL A   1      40.906  29.812  33.081  1.00  0.00     0.167 HD
ATOM     37  C   UNL A   1      38.825  31.683  33.600  1.00  0.00     0.074 A 
ATOM     38  C   UNL A   1      37.682  32.558  33.422  1.00  0.00     0.031 C 
ATOM     39  C   UNL A   1      39.512  31.559  34.762  1.00  0.00     0.031 A 
BRANCH  26  40
ATOM     40  C   UNL A   1      44.270  27.614  34.495  1.00  0.00    -0.014 A 
ATOM     41  C   UNL A   1      44.109  26.392  35.168  1.00  0.00     0.009 A 
ATOM     42  C   UNL A   1      45.524  28.245  34.517  1.00  0.00     0.009 A 
ATOM     43  C   UNL A   1      45.169  25.840  35.890  1.00  0.00     0.001 A 
ATOM     44  C   UNL A   1      46.588  27.678  35.221  1.00  0.00     0.001 A 
ATOM     45  C   UNL A   1      46.406  26.484  35.918  1.00  0.00     0.000 A 
ENDBRANCH  26  40
BRANCH  27  46
ATOM     46  C   UNL A   1      36.764  31.816  29.373  1.00  0.00    -0.014 A 
ATOM     47  C   UNL A   1      35.508  31.206  29.222  1.00  0.00     0.009 A 
ATOM     48  C   UNL A   1      36.984  33.065  28.772  1.00  0.00     0.009 A 
ATOM     49  C   UNL A   1      34.505  31.823  28.468  1.00  0.00     0.001 A 
ATOM     50  C   UNL A   1      35.971  33.692  28.042  1.00  0.00     0.001 A 
ATOM     51  C   UNL A   1      34.736  33.066  27.882  1.00  0.00     0.000 A 
ENDBRANCH  27  46
BRANCH  39  52
ATOM     52  C   UNL A   1      39.063  32.411  35.910  1.00  0.00    -0.014 A 
ATOM     53  C   UNL A   1      38.133  31.932  36.844  1.00  0.00     0.009 A 
ATOM     54  C   UNL A   1      39.615  33.689  36.083  1.00  0.00     0.009 A 
ATOM     55  C   UNL A   1      37.744  32.730  37.919  1.00  0.00     0.001 A 
ATOM     56  C   UNL A   1      39.240  34.477  37.171  1.00  0.00     0.001 A 
ATOM     57  C   UNL A   1      38.300  33.999  38.084  1.00  0.00     0.000 A 
ENDBRANCH  39  52
ENDBRANCH  13  14
ENDBRANCH   6   8
ENDBRANCH   5   6
ENDBRANCH   4   5
ENDBRANCH   3   4
ENDBRANCH   2   3
ENDBRANCH   1   2
BRANCH   1  58
ATOM     58  C   UNL A   1      40.897  20.586  26.415  1.00  0.00     0.188 C 
BRANCH  58  59
ATOM     59  O   UNL A   1      39.550  20.874  26.036  1.00  0.00    -0.376 OA
BRANCH  59  60
ATOM     60  C   UNL A   1      39.164  22.246  26.022  1.00  0.00     0.202 C 
BRANCH  60  61
ATOM     61  C   UNL A   1      37.669  22.512  25.835  1.00  0.00     0.261 C 
BRANCH  61  62
ATOM     62  O   UNL A   1      37.354  23.501  24.835  1.00  0.00    -0.458 OA
BRANCH  62  63
ATOM     63  C   UNL A   1      36.403  23.124  23.941  1.00  0.00     0.358 C 
ATOM     64  O   UNL A   1      36.541  22.974  22.737  1.00  0.00    -0.244 OA
BRANCH  63  65
ATOM     65  C   UNL A   1      35.078  23.104  24.581  1.00  0.00     0.169 A 
ATOM     66  C   UNL A   1      34.453  24.333  24.720  1.00  0.00     0.147 A 
ATOM     67  N   UNL A   1      34.449  21.909  24.799  1.00  0.00    -0.220 NA
ATOM     68  N   UNL A   1      33.162  24.441  25.090  1.00  0.00    -0.258 NA
ATOM     69  C   UNL A   1      33.139  21.996  25.131  1.00  0.00     0.149 A 
ATOM     70  C   UNL A   1      32.530  23.254  25.270  1.00  0.00     0.158 A 
BRANCH  69  71
ATOM     71  N   UNL A   1      32.422  20.810  25.347  1.00  0.00    -0.338 N 
ATOM     72  H   UNL A   1      31.765  20.841  26.079  1.00  0.00     0.168 HD
BRANCH  71  73
ATOM     73  C   UNL A   1      32.510  19.580  24.664  1.00  0.00     0.060 A 
ATOM     74  C   UNL A   1      32.850  18.407  25.361  1.00  0.00     0.048 A 
ATOM     75  C   UNL A   1      32.343  19.488  23.271  1.00  0.00     0.064 A 
ATOM     76  C   UNL A   1      33.068  17.206  24.683  1.00  0.00     0.043 A 
ATOM     77  C   UNL A   1      32.589  18.289  22.591  1.00  0.00     0.024 A 
ATOM     78  Cl  UNL A   1      31.863  20.852  22.338  1.00  0.00    -0.082 Cl
ATOM     79  Cl  UNL A   1      33.492  15.794  25.568  1.00  0.00    -0.084 Cl
ATOM     80  C   UNL A   1      32.962  17.148  23.298  1.00  0.00     0.022 A 
ENDBRANCH  71  73
ENDBRANCH  69  71
ENDBRANCH  63  65
ENDBRANCH  62  63
ENDBRANCH  61  62
ENDBRANCH  60  61
ENDBRANCH  59  60
ENDBRANCH  58  59
ENDBRANCH   1  58
TORSDOF 19
ENDMDL
MODEL 2
REMARK VINA RESULT:      -9.7      3.265      7.998
REMARK SMILES O=C(OCCOCCOCCOC(=O)c1cncc(Nc2cc(Cl)ccc2Cl)n1)c1ccc(-c2c3nc(c(-c4ccccc4)c4ccc([nH]4)c(-c4ccccc4)c4nc(c(-c5ccccc5)c5ccc2[nH]5)C=C4)C=C3)cc1
REMARK SMILES IDX 7 1 6 2 5 3 4 4 3 5 2 6 1 7 30 8 31 9 77 10 32 11 76 12
REMARK SMILES IDX 33 13 34 14 35 15 70 16 36 17 75 18 69 19 71 20 37 21 74 22
REMARK SMILES IDX 68 23 67 24 38 26 60 27 45 28 59 29 46 30 49 31 58 32 72 33
REMARK SMILES IDX 47 34 48 35 57 37 73 38 50 39 39 40 40 41 44 42 41 43 43 44
REMARK SMILES IDX 42 45 61 46 62 47 66 48 63 49 65 50 64 51 51 52 52 53 56 54
REMARK SMILES IDX 53 55 55 56 54 57 8 58 9 59 10 60 11 61 12 62 13 63 14 64
REMARK SMILES IDX 15 65 16 66 29 67 17 68 19 69 18 70 20 71 21 73 22 74 27 75
REMARK SMILES IDX 23 76 26 77 28 78 24 79 25 80
REMARK H PARENT 71 25 49 36 20 72
REMARK Flexibility Score: inf
ROOT
ATOM      1  C   UNL A   1      33.370  29.220  27.366  1.00  0.00     0.188 C 
ENDROOT
BRANCH   1   2
ATOM      2  O   UNL A   1      33.238  30.648  27.384  1.00  0.00    -0.376 OA
BRANCH   2   3
ATOM      3  C   UNL A   1      32.079  31.129  26.695  1.00  0.00     0.202 C 
BRANCH   3   4
ATOM      4  C   UNL A   1      31.556  32.468  27.223  1.00  0.00     0.261 C 
BRANCH   4   5
ATOM      5  O   UNL A   1      32.585  33.471  27.221  1.00  0.00    -0.460 OA
BRANCH   5   6
ATOM      6  C   UNL A   1      33.097  34.139  28.284  1.00  0.00     0.338 C 
ATOM      7  O   UNL A   1      32.451  35.070  28.762  1.00  0.00    -0.246 OA
BRANCH   6   8
ATOM      8  C   UNL A   1      34.370  33.754  28.966  1.00  0.00     0.060 A 
ATOM      9  C   UNL A   1      35.628  34.307  28.721  1.00  0.00     0.016 A 
ATOM     10  C   UNL A   1      34.271  32.766  29.958  1.00  0.00     0.016 A 
ATOM     11  C   UNL A   1      36.776  33.786  29.316  1.00  0.00     0.010 A 
ATOM     12  C   UNL A   1      35.412  32.286  30.607  1.00  0.00     0.010 A 
ATOM     13  C   UNL A   1      36.681  32.753  30.249  1.00  0.00    -0.014 A 
BRANCH  13  14
ATOM     14  C   UNL A   1      37.914  32.078  30.719  1.00  0.00     0.031 A 
ATOM     15  C   UNL A   1      38.441  32.413  32.088  1.00  0.00     0.074 A 
ATOM     16  C   UNL A   1      38.490  31.107  29.985  1.00  0.00     0.049 A 
ATOM     17  N   UNL A   1      39.479  31.926  32.718  1.00  0.00    -0.248 NA
ATOM     18  C   UNL A   1      37.698  33.428  32.853  1.00  0.00     0.031 C 
ATOM     19  C   UNL A   1      38.024  30.650  28.677  1.00  0.00     0.029 A 
ATOM     20  N   UNL A   1      39.565  30.299  30.255  1.00  0.00    -0.354 N 
ATOM     21  C   UNL A   1      39.528  32.600  33.931  1.00  0.00     0.074 A 
ATOM     22  C   UNL A   1      38.437  33.545  33.943  1.00  0.00     0.031 C 
ATOM     23  C   UNL A   1      38.772  29.607  28.282  1.00  0.00     0.029 A 
ATOM     24  C   UNL A   1      39.798  29.352  29.286  1.00  0.00     0.049 A 
ATOM     25  H   UNL A   1      40.117  30.389  31.065  1.00  0.00     0.167 HD
ATOM     26  C   UNL A   1      40.398  32.441  34.955  1.00  0.00     0.031 A 
ATOM     27  C   UNL A   1      40.730  28.383  29.224  1.00  0.00     0.031 A 
ATOM     28  C   UNL A   1      41.468  31.487  34.955  1.00  0.00     0.049 A 
ATOM     29  C   UNL A   1      41.704  28.245  30.362  1.00  0.00     0.074 A 
ATOM     30  C   UNL A   1      42.435  31.267  35.918  1.00  0.00     0.029 A 
ATOM     31  N   UNL A   1      41.701  30.580  33.931  1.00  0.00    -0.354 N 
ATOM     32  N   UNL A   1      41.758  28.916  31.488  1.00  0.00    -0.248 NA
ATOM     33  C   UNL A   1      42.743  27.217  30.221  1.00  0.00     0.031 C 
ATOM     34  C   UNL A   1      43.269  30.237  35.466  1.00  0.00     0.029 A 
ATOM     35  C   UNL A   1      42.798  29.797  34.239  1.00  0.00     0.049 A 
ATOM     36  H   UNL A   1      41.163  30.504  33.110  1.00  0.00     0.167 HD
ATOM     37  C   UNL A   1      42.824  28.381  32.196  1.00  0.00     0.074 A 
ATOM     38  C   UNL A   1      43.376  27.315  31.382  1.00  0.00     0.031 C 
ATOM     39  C   UNL A   1      43.311  28.738  33.410  1.00  0.00     0.031 A 
BRANCH  26  40
ATOM     40  C   UNL A   1      40.229  33.365  36.125  1.00  0.00    -0.014 A 
ATOM     41  C   UNL A   1      41.079  34.466  36.315  1.00  0.00     0.009 A 
ATOM     42  C   UNL A   1      39.244  33.090  37.086  1.00  0.00     0.009 A 
ATOM     43  C   UNL A   1      40.976  35.246  37.469  1.00  0.00     0.001 A 
ATOM     44  C   UNL A   1      39.128  33.886  38.227  1.00  0.00     0.001 A 
ATOM     45  C   UNL A   1      40.003  34.953  38.425  1.00  0.00     0.000 A 
ENDBRANCH  26  40
BRANCH  27  46
ATOM     46  C   UNL A   1      40.786  27.463  28.057  1.00  0.00    -0.014 A 
ATOM     47  C   UNL A   1      40.097  26.240  28.076  1.00  0.00     0.009 A 
ATOM     48  C   UNL A   1      41.541  27.794  26.920  1.00  0.00     0.009 A 
ATOM     49  C   UNL A   1      40.182  25.360  26.994  1.00  0.00     0.001 A 
ATOM     50  C   UNL A   1      41.602  26.926  25.829  1.00  0.00     0.001 A 
ATOM     51  C   UNL A   1      40.931  25.704  25.870  1.00  0.00     0.000 A 
ENDBRANCH  27  46
BRANCH  39  52
ATOM     52  C   UNL A   1      44.473  27.951  33.934  1.00  0.00    -0.014 A 
ATOM     53  C   UNL A   1      45.771  28.483  33.924  1.00  0.00     0.009 A 
ATOM     54  C   UNL A   1      44.256  26.680  34.488  1.00  0.00     0.009 A 
ATOM     55  C   UNL A   1      46.836  27.744  34.437  1.00  0.00     0.001 A 
ATOM     56  C   UNL A   1      45.320  25.952  35.019  1.00  0.00     0.001 A 
ATOM     57  C   UNL A   1      46.610  26.482  34.987  1.00  0.00     0.000 A 
ENDBRANCH  39  52
ENDBRANCH  13  14
ENDBRANCH   6   8
ENDBRANCH   5   6
ENDBRANCH   4   5
ENDBRANCH   3   4
ENDBRANCH   2   3
ENDBRANCH   1   2
BRANCH   1  58
ATOM     58  C   UNL A   1      32.003  28.549  27.227  1.00  0.00     0.188 C 
BRANCH  58  59
ATOM     59  O   UNL A   1      31.930  27.573  26.186  1.00  0.00    -0.376 OA
BRANCH  59  60
ATOM     60  C   UNL A   1      31.231  27.946  25.001  1.00  0.00     0.202 C 
BRANCH  60  61
ATOM     61  C   UNL A   1      32.066  28.665  23.939  1.00  0.00     0.261 C 
BRANCH  61  62
ATOM     62  O   UNL A   1      33.438  28.233  23.858  1.00  0.00    -0.458 OA
BRANCH  62  63
ATOM     63  C   UNL A   1      33.791  27.676  22.669  1.00  0.00     0.358 C 
ATOM     64  O   UNL A   1      34.184  28.257  21.671  1.00  0.00    -0.244 OA
BRANCH  63  65
ATOM     65  C   UNL A   1      33.444  26.246  22.653  1.00  0.00     0.169 A 
ATOM     66  C   UNL A   1      33.085  25.723  21.420  1.00  0.00     0.147 A 
ATOM     67  N   UNL A   1      33.696  25.475  23.755  1.00  0.00    -0.220 NA
ATOM     68  N   UNL A   1      32.951  24.397  21.218  1.00  0.00    -0.258 NA
ATOM     69  C   UNL A   1      33.607  24.138  23.559  1.00  0.00     0.149 A 
ATOM     70  C   UNL A   1      33.236  23.633  22.302  1.00  0.00     0.158 A 
BRANCH  69  71
ATOM     71  N   UNL A   1      33.875  23.283  24.638  1.00  0.00    -0.338 N 
ATOM     72  H   UNL A   1      33.744  23.675  25.531  1.00  0.00     0.168 HD
BRANCH  71  73
ATOM     73  C   UNL A   1      34.307  21.941  24.624  1.00  0.00     0.060 A 
ATOM     74  C   UNL A   1      33.367  20.895  24.597  1.00  0.00     0.048 A 
ATOM     75  C   UNL A   1      35.667  21.596  24.715  1.00  0.00     0.064 A 
ATOM     76  C   UNL A   1      33.769  19.564  24.712  1.00  0.00     0.043 A 
ATOM     77  C   UNL A   1      36.066  20.261  24.858  1.00  0.00     0.024 A 
ATOM     78  Cl  UNL A   1      36.897  22.799  24.689  1.00  0.00    -0.082 Cl
ATOM     79  Cl  UNL A   1      32.590  18.313  24.684  1.00  0.00    -0.084 Cl
ATOM     80  C   UNL A   1      35.114  19.244  24.866  1.00  0.00     0.022 A 
ENDBRANCH  71  73
ENDBRANCH  69  71
ENDBRANCH  63  65
ENDBRANCH  62  63
ENDBRANCH  61  62
ENDBRANCH  60  61
ENDBRANCH  59  60
ENDBRANCH  58  59
ENDBRANCH   1  58
TORSDOF 19
ENDMDL
MODEL 3
REMARK VINA RESULT:      -9.6      3.563      8.158
REMARK SMILES O=C(OCCOCCOCCOC(=O)c1cncc(Nc2cc(Cl)ccc2Cl)n1)c1ccc(-c2c3nc(c(-c4ccccc4)c4ccc([nH]4)c(-c4ccccc4)c4nc(c(-c5ccccc5)c5ccc2[nH]5)C=C4)C=C3)cc1
REMARK SMILES IDX 7 1 6 2 5 3 4 4 3 5 2 6 1 7 30 8 31 9 77 10 32 11 76 12
REMARK SMILES IDX 33 13 34 14 35 15 70 16 36 17 75 18 69 19 71 20 37 21 74 22
REMARK SMILES IDX 68 23 67 24 38 26 60 27 45 28 59 29 46 30 49 31 58 32 72 33
REMARK SMILES IDX 47 34 48 35 57 37 73 38 50 39 39 40 40 41 44 42 41 43 43 44
REMARK SMILES IDX 42 45 61 46 62 47 66 48 63 49 65 50 64 51 51 52 52 53 56 54
REMARK SMILES IDX 53 55 55 56 54 57 8 58 9 59 10 60 11 61 12 62 13 63 14 64
REMARK SMILES IDX 15 65 16 66 29 67 17 68 19 69 18 70 20 71 21 73 22 74 27 75
REMARK SMILES IDX 23 76 26 77 28 78 24 79 25 80
REMARK H PARENT 71 25 49 36 20 72
REMARK Flexibility Score: inf
ROOT
ATOM      1  C   UNL A   1      34.068  29.404  26.847  1.00  0.00     0.188 C 
ENDROOT
BRANCH   1   2
ATOM      2  O   UNL A   1      33.023  30.251  27.348  1.00  0.00    -0.376 OA
BRANCH   2   3
ATOM      3  C   UNL A   1      33.419  31.614  27.523  1.00  0.00     0.202 C 
BRANCH   3   4
ATOM      4  C   UNL A   1      32.267  32.616  27.389  1.00  0.00     0.261 C 
BRANCH   4   5
ATOM      5  O   UNL A   1      32.682  33.943  27.751  1.00  0.00    -0.460 OA
BRANCH   5   6
ATOM      6  C   UNL A   1      33.200  34.359  28.933  1.00  0.00     0.338 C 
ATOM      7  O   UNL A   1      32.484  35.003  29.697  1.00  0.00    -0.246 OA
BRANCH   6   8
ATOM      8  C   UNL A   1      34.575  34.005  29.401  1.00  0.00     0.060 A 
ATOM      9  C   UNL A   1      35.768  34.350  28.765  1.00  0.00     0.016 A 
ATOM     10  C   UNL A   1      34.658  33.284  30.603  1.00  0.00     0.016 A 
ATOM     11  C   UNL A   1      36.994  33.859  29.211  1.00  0.00     0.010 A 
ATOM     12  C   UNL A   1      35.891  32.845  31.091  1.00  0.00     0.010 A 
ATOM     13  C   UNL A   1      37.065  33.081  30.367  1.00  0.00    -0.014 A 
BRANCH  13  14
ATOM     14  C   UNL A   1      38.336  32.403  30.714  1.00  0.00     0.031 A 
ATOM     15  C   UNL A   1      39.122  32.906  31.894  1.00  0.00     0.074 A 
ATOM     16  C   UNL A   1      38.728  31.294  30.058  1.00  0.00     0.049 A 
ATOM     17  N   UNL A   1      40.239  32.452  32.401  1.00  0.00    -0.248 NA
ATOM     18  C   UNL A   1      38.575  34.075  32.603  1.00  0.00     0.031 C 
ATOM     19  C   UNL A   1      38.008  30.675  28.945  1.00  0.00     0.029 A 
ATOM     20  N   UNL A   1      39.801  30.465  30.260  1.00  0.00    -0.354 N 
ATOM     21  C   UNL A   1      40.540  33.299  33.459  1.00  0.00     0.074 A 
ATOM     22  C   UNL A   1      39.509  34.307  33.511  1.00  0.00     0.031 C 
ATOM     23  C   UNL A   1      38.627  29.535  28.599  1.00  0.00     0.029 A 
ATOM     24  C   UNL A   1      39.811  29.367  29.433  1.00  0.00     0.049 A 
ATOM     25  H   UNL A   1      40.497  30.639  30.934  1.00  0.00     0.167 HD
ATOM     26  C   UNL A   1      41.579  33.240  34.324  1.00  0.00     0.031 A 
ATOM     27  C   UNL A   1      40.677  28.339  29.366  1.00  0.00     0.031 A 
ATOM     28  C   UNL A   1      42.592  32.226  34.290  1.00  0.00     0.049 A 
ATOM     29  C   UNL A   1      41.840  28.310  30.319  1.00  0.00     0.074 A 
ATOM     30  C   UNL A   1      43.712  32.090  35.088  1.00  0.00     0.029 A 
ATOM     31  N   UNL A   1      42.594  31.159  33.403  1.00  0.00    -0.354 N 
ATOM     32  N   UNL A   1      42.129  29.140  31.293  1.00  0.00    -0.248 NA
ATOM     33  C   UNL A   1      42.793  27.203  30.166  1.00  0.00     0.031 C 
ATOM     34  C   UNL A   1      44.406  30.949  34.670  1.00  0.00     0.029 A 
ATOM     35  C   UNL A   1      43.697  30.359  33.634  1.00  0.00     0.049 A 
ATOM     36  H   UNL A   1      41.910  30.995  32.714  1.00  0.00     0.167 HD
ATOM     37  C   UNL A   1      43.287  28.648  31.878  1.00  0.00     0.074 A 
ATOM     38  C   UNL A   1      43.635  27.435  31.164  1.00  0.00     0.031 C 
ATOM     39  C   UNL A   1      44.005  29.153  32.911  1.00  0.00     0.031 A 
BRANCH  26  40
ATOM     40  C   UNL A   1      41.668  34.341  35.339  1.00  0.00    -0.014 A 
ATOM     41  C   UNL A   1      40.911  34.309  36.521  1.00  0.00     0.009 A 
ATOM     42  C   UNL A   1      42.475  35.459  35.076  1.00  0.00     0.009 A 
ATOM     43  C   UNL A   1      40.924  35.397  37.396  1.00  0.00     0.001 A 
ATOM     44  C   UNL A   1      42.504  36.535  35.965  1.00  0.00     0.001 A 
ATOM     45  C   UNL A   1      41.718  36.509  37.116  1.00  0.00     0.000 A 
ENDBRANCH  26  40
BRANCH  27  46
ATOM     46  C   UNL A   1      40.478  27.249  28.373  1.00  0.00    -0.014 A 
ATOM     47  C   UNL A   1      41.007  27.357  27.077  1.00  0.00     0.009 A 
ATOM     48  C   UNL A   1      39.745  26.100  28.709  1.00  0.00     0.009 A 
ATOM     49  C   UNL A   1      40.786  26.349  26.134  1.00  0.00     0.001 A 
ATOM     50  C   UNL A   1      39.548  25.083  27.773  1.00  0.00     0.001 A 
ATOM     51  C   UNL A   1      40.061  25.211  26.483  1.00  0.00     0.000 A 
ENDBRANCH  27  46
BRANCH  39  52
ATOM     52  C   UNL A   1      45.212  28.377  33.342  1.00  0.00    -0.014 A 
ATOM     53  C   UNL A   1      45.111  27.355  34.298  1.00  0.00     0.009 A 
ATOM     54  C   UNL A   1      46.456  28.642  32.749  1.00  0.00     0.009 A 
ATOM     55  C   UNL A   1      46.241  26.628  34.670  1.00  0.00     0.001 A 
ATOM     56  C   UNL A   1      47.580  27.899  33.108  1.00  0.00     0.001 A 
ATOM     57  C   UNL A   1      47.473  26.897  34.073  1.00  0.00     0.000 A 
ENDBRANCH  39  52
ENDBRANCH  13  14
ENDBRANCH   6   8
ENDBRANCH   5   6
ENDBRANCH   4   5
ENDBRANCH   3   4
ENDBRANCH   2   3
ENDBRANCH   1   2
BRANCH   1  58
ATOM     58  C   UNL A   1      33.540  27.996  26.570  1.00  0.00     0.188 C 
BRANCH  58  59
ATOM     59  O   UNL A   1      33.511  27.640  25.187  1.00  0.00    -0.376 OA
BRANCH  59  60
ATOM     60  C   UNL A   1      33.223  28.684  24.260  1.00  0.00     0.202 C 
BRANCH  60  61
ATOM     61  C   UNL A   1      31.737  28.964  24.019  1.00  0.00     0.261 C 
BRANCH  61  62
ATOM     62  O   UNL A   1      31.155  28.224  22.928  1.00  0.00    -0.458 OA
BRANCH  62  63
ATOM     63  C   UNL A   1      30.632  27.018  23.273  1.00  0.00     0.358 C 
ATOM     64  O   UNL A   1      29.792  26.797  24.130  1.00  0.00    -0.244 OA
BRANCH  63  65
ATOM     65  C   UNL A   1      31.367  25.933  22.604  1.00  0.00     0.169 A 
ATOM     66  C   UNL A   1      32.108  26.298  21.491  1.00  0.00     0.147 A 
ATOM     67  N   UNL A   1      31.467  24.710  23.209  1.00  0.00    -0.220 NA
ATOM     68  N   UNL A   1      32.990  25.459  20.912  1.00  0.00    -0.258 NA
ATOM     69  C   UNL A   1      32.379  23.868  22.667  1.00  0.00     0.149 A 
ATOM     70  C   UNL A   1      33.114  24.260  21.535  1.00  0.00     0.158 A 
BRANCH  69  71
ATOM     71  N   UNL A   1      32.555  22.604  23.248  1.00  0.00    -0.338 N 
ATOM     72  H   UNL A   1      31.836  21.956  23.075  1.00  0.00     0.168 HD
BRANCH  71  73
ATOM     73  C   UNL A   1      33.617  22.132  24.046  1.00  0.00     0.060 A 
ATOM     74  C   UNL A   1      34.665  22.994  24.412  1.00  0.00     0.048 A 
ATOM     75  C   UNL A   1      33.712  20.784  24.436  1.00  0.00     0.064 A 
ATOM     76  C   UNL A   1      35.787  22.515  25.091  1.00  0.00     0.043 A 
ATOM     77  C   UNL A   1      34.849  20.300  25.093  1.00  0.00     0.024 A 
ATOM     78  Cl  UNL A   1      32.451  19.665  24.093  1.00  0.00    -0.082 Cl
ATOM     79  Cl  UNL A   1      37.053  23.598  25.514  1.00  0.00    -0.084 Cl
ATOM     80  C   UNL A   1      35.894  21.166  25.413  1.00  0.00     0.022 A 
ENDBRANCH  71  73
ENDBRANCH  69  71
ENDBRANCH  63  65
ENDBRANCH  62  63
ENDBRANCH  61  62
ENDBRANCH  60  61
ENDBRANCH  59  60
ENDBRANCH  58  59
ENDBRANCH   1  58
TORSDOF 19
ENDMDL
