MODEL 1
REMARK VINA RESULT:      -9.5      0.000      0.000
REMARK SMILES C[C@@H](C(=O)OCCOCCOCCOC(=O)c1ccc(-c2c3nc(c(-c4ccccc4)c4ccc([nH]4)c(-c4ccccc4)c4nc(c(-c5ccccc5)c5ccc2[nH]5)C=C4)C=C3)cc1)c1ccc(OC2CCCC2)cc1F
REMARK SMILES IDX 9 1 8 2 7 3 6 4 5 5 3 6 4 7 2 8 1 9 65 10 66 11 76 12 67 13
REMARK SMILES IDX 75 14 77 15 68 16 69 17 70 18 71 19 74 20 72 21 73 22 10 23
REMARK SMILES IDX 11 24 12 25 13 26 14 27 15 28 16 29 17 30 18 31 64 32 19 33
REMARK SMILES IDX 63 34 20 35 21 36 22 37 57 38 23 39 62 40 56 41 58 42 24 43
REMARK SMILES IDX 61 44 55 45 54 46 25 48 47 49 32 50 46 51 33 52 36 53 45 54
REMARK SMILES IDX 59 55 34 56 35 57 44 59 60 60 37 61 26 62 27 63 31 64 28 65
REMARK SMILES IDX 30 66 29 67 48 68 49 69 53 70 50 71 52 72 51 73 38 74 39 75
REMARK SMILES IDX 43 76 40 77 42 78 41 79
REMARK H PARENT 58 47 36 58
REMARK Flexibility Score: inf
ROOT
ATOM      1  C   UNL A   1      32.909  33.209  27.631  1.00  0.00     0.188 C 
ENDROOT
BRANCH   1   2
ATOM      2  O   UNL A   1      33.906  32.255  27.349  1.00  0.00    -0.376 OA
BRANCH   2   3
ATOM      3  C   UNL A   1      33.632  30.888  27.609  1.00  0.00     0.202 C 
BRANCH   3   4
ATOM      4  C   UNL A   1      32.448  30.104  26.996  1.00  0.00     0.261 C 
BRANCH   4   5
ATOM      5  O   UNL A   1      32.230  30.264  25.590  1.00  0.00    -0.463 OA
BRANCH   5   6
ATOM      6  C   UNL A   1      31.986  29.129  24.880  1.00  0.00     0.313 C 
ATOM      7  O   UNL A   1      30.880  28.606  24.774  1.00  0.00    -0.252 OA
BRANCH   6   8
ATOM      8  C   UNL A   1      33.230  28.590  24.161  1.00  0.00     0.129 C 
ATOM      9  C   UNL A   1      33.467  29.284  22.811  1.00  0.00     0.025 C 
BRANCH   8  10
ATOM     10  C   UNL A   1      33.370  27.070  24.123  1.00  0.00     0.002 A 
ATOM     11  C   UNL A   1      33.372  26.369  22.903  1.00  0.00     0.011 A 
ATOM     12  C   UNL A   1      33.616  26.319  25.273  1.00  0.00     0.130 A 
ATOM     13  C   UNL A   1      33.658  24.996  22.855  1.00  0.00     0.047 A 
ATOM     14  C   UNL A   1      33.881  24.955  25.227  1.00  0.00     0.086 A 
ATOM     15  F   UNL A   1      33.627  26.889  26.485  1.00  0.00    -0.207 F 
ATOM     16  C   UNL A   1      33.957  24.287  24.016  1.00  0.00     0.122 A 
BRANCH  16  17
ATOM     17  O   UNL A   1      34.332  22.992  23.829  1.00  0.00    -0.490 OA
BRANCH  17  18
ATOM     18  C   UNL A   1      35.256  22.336  24.696  1.00  0.00     0.173 C 
ATOM     19  C   UNL A   1      35.041  20.845  24.964  1.00  0.00     0.045 C 
ATOM     20  C   UNL A   1      36.719  22.519  24.311  1.00  0.00     0.045 C 
ATOM     21  C   UNL A   1      36.436  20.308  25.243  1.00  0.00     0.004 C 
ATOM     22  C   UNL A   1      37.358  21.134  24.367  1.00  0.00     0.004 C 
ENDBRANCH  17  18
ENDBRANCH  16  17
ENDBRANCH   8  10
ENDBRANCH   6   8
ENDBRANCH   5   6
ENDBRANCH   4   5
ENDBRANCH   3   4
ENDBRANCH   2   3
ENDBRANCH   1   2
BRANCH   1  23
ATOM     23  C   UNL A   1      33.381  34.350  28.550  1.00  0.00     0.188 C 
BRANCH  23  24
ATOM     24  O   UNL A   1      34.761  34.632  28.721  1.00  0.00    -0.376 OA
BRANCH  24  25
ATOM     25  C   UNL A   1      35.416  34.153  29.887  1.00  0.00     0.202 C 
BRANCH  25  26
ATOM     26  C   UNL A   1      34.714  33.168  30.840  1.00  0.00     0.261 C 
BRANCH  26  27
ATOM     27  O   UNL A   1      35.061  31.778  30.710  1.00  0.00    -0.460 OA
BRANCH  27  28
ATOM     28  C   UNL A   1      35.961  31.314  31.610  1.00  0.00     0.338 C 
ATOM     29  O   UNL A   1      35.863  31.323  32.832  1.00  0.00    -0.246 OA
BRANCH  28  30
ATOM     30  C   UNL A   1      37.063  30.626  30.905  1.00  0.00     0.060 A 
ATOM     31  C   UNL A   1      37.981  29.858  31.636  1.00  0.00     0.016 A 
ATOM     32  C   UNL A   1      37.237  30.809  29.533  1.00  0.00     0.016 A 
ATOM     33  C   UNL A   1      39.082  29.281  30.999  1.00  0.00     0.010 A 
ATOM     34  C   UNL A   1      38.363  30.266  28.904  1.00  0.00     0.010 A 
ATOM     35  C   UNL A   1      39.304  29.523  29.635  1.00  0.00    -0.014 A 
BRANCH  35  36
ATOM     36  C   UNL A   1      40.605  29.149  29.026  1.00  0.00     0.031 A 
ATOM     37  C   UNL A   1      40.749  27.801  28.389  1.00  0.00     0.074 A 
ATOM     38  C   UNL A   1      41.685  29.946  29.105  1.00  0.00     0.049 A 
ATOM     39  N   UNL A   1      41.786  27.286  27.779  1.00  0.00    -0.248 NA
ATOM     40  C   UNL A   1      39.614  26.879  28.544  1.00  0.00     0.031 C 
ATOM     41  C   UNL A   1      41.753  31.186  29.865  1.00  0.00     0.029 A 
ATOM     42  N   UNL A   1      42.922  29.848  28.505  1.00  0.00    -0.354 N 
ATOM     43  C   UNL A   1      41.481  25.946  27.596  1.00  0.00     0.074 A 
ATOM     44  C   UNL A   1      40.134  25.747  28.091  1.00  0.00     0.031 C 
ATOM     45  C   UNL A   1      42.919  31.793  29.587  1.00  0.00     0.029 A 
ATOM     46  C   UNL A   1      43.650  31.016  28.593  1.00  0.00     0.049 A 
ATOM     47  H   UNL A   1      43.250  29.032  28.062  1.00  0.00     0.167 HD
ATOM     48  C   UNL A   1      42.285  24.960  27.133  1.00  0.00     0.031 A 
ATOM     49  C   UNL A   1      44.711  31.425  27.863  1.00  0.00     0.031 A 
ATOM     50  C   UNL A   1      43.629  25.161  26.657  1.00  0.00     0.049 A 
ATOM     51  C   UNL A   1      45.456  30.393  27.059  1.00  0.00     0.074 A 
ATOM     52  C   UNL A   1      44.519  24.223  26.162  1.00  0.00     0.029 A 
ATOM     53  N   UNL A   1      44.278  26.384  26.616  1.00  0.00    -0.354 N 
ATOM     54  N   UNL A   1      45.148  29.141  26.840  1.00  0.00    -0.248 NA
ATOM     55  C   UNL A   1      46.746  30.808  26.482  1.00  0.00     0.031 C 
ATOM     56  C   UNL A   1      45.724  24.872  25.866  1.00  0.00     0.029 A 
ATOM     57  C   UNL A   1      45.559  26.224  26.111  1.00  0.00     0.049 A 
ATOM     58  H   UNL A   1      43.888  27.241  26.903  1.00  0.00     0.167 HD
ATOM     59  C   UNL A   1      46.241  28.598  26.179  1.00  0.00     0.074 A 
ATOM     60  C   UNL A   1      47.162  29.683  25.919  1.00  0.00     0.031 C 
ATOM     61  C   UNL A   1      46.489  27.299  25.886  1.00  0.00     0.031 A 
BRANCH  48  62
ATOM     62  C   UNL A   1      41.763  23.555  27.226  1.00  0.00    -0.014 A 
ATOM     63  C   UNL A   1      42.013  22.739  28.338  1.00  0.00     0.009 A 
ATOM     64  C   UNL A   1      40.992  23.045  26.168  1.00  0.00     0.009 A 
ATOM     65  C   UNL A   1      41.536  21.427  28.370  1.00  0.00     0.001 A 
ATOM     66  C   UNL A   1      40.487  21.746  26.218  1.00  0.00     0.001 A 
ATOM     67  C   UNL A   1      40.769  20.934  27.314  1.00  0.00     0.000 A 
ENDBRANCH  48  62
BRANCH  49  68
ATOM     68  C   UNL A   1      45.120  32.861  27.772  1.00  0.00    -0.014 A 
ATOM     69  C   UNL A   1      45.782  33.455  28.869  1.00  0.00     0.009 A 
ATOM     70  C   UNL A   1      44.848  33.662  26.658  1.00  0.00     0.009 A 
ATOM     71  C   UNL A   1      46.120  34.811  28.865  1.00  0.00     0.001 A 
ATOM     72  C   UNL A   1      45.242  35.005  26.629  1.00  0.00     0.001 A 
ATOM     73  C   UNL A   1      45.863  35.583  27.736  1.00  0.00     0.000 A 
ENDBRANCH  49  68
BRANCH  61  74
ATOM     74  C   UNL A   1      47.839  26.980  25.309  1.00  0.00    -0.014 A 
ATOM     75  C   UNL A   1      48.864  26.466  26.123  1.00  0.00     0.009 A 
ATOM     76  C   UNL A   1      48.089  27.174  23.944  1.00  0.00     0.009 A 
ATOM     77  C   UNL A   1      50.126  26.197  25.589  1.00  0.00     0.001 A 
ATOM     78  C   UNL A   1      49.342  26.876  23.407  1.00  0.00     0.001 A 
ATOM     79  C   UNL A   1      50.363  26.400  24.231  1.00  0.00     0.000 A 
ENDBRANCH  61  74
ENDBRANCH  35  36
ENDBRANCH  28  30
ENDBRANCH  27  28
ENDBRANCH  26  27
ENDBRANCH  25  26
ENDBRANCH  24  25
ENDBRANCH  23  24
ENDBRANCH   1  23
TORSDOF 20
ENDMDL
MODEL 2
REMARK VINA RESULT:      -9.3      4.402     10.286
REMARK SMILES C[C@@H](C(=O)OCCOCCOCCOC(=O)c1ccc(-c2c3nc(c(-c4ccccc4)c4ccc([nH]4)c(-c4ccccc4)c4nc(c(-c5ccccc5)c5ccc2[nH]5)C=C4)C=C3)cc1)c1ccc(OC2CCCC2)cc1F
REMARK SMILES IDX 9 1 8 2 7 3 6 4 5 5 3 6 4 7 2 8 1 9 65 10 66 11 76 12 67 13
REMARK SMILES IDX 75 14 77 15 68 16 69 17 70 18 71 19 74 20 72 21 73 22 10 23
REMARK SMILES IDX 11 24 12 25 13 26 14 27 15 28 16 29 17 30 18 31 64 32 19 33
REMARK SMILES IDX 63 34 20 35 21 36 22 37 57 38 23 39 62 40 56 41 58 42 24 43
REMARK SMILES IDX 61 44 55 45 54 46 25 48 47 49 32 50 46 51 33 52 36 53 45 54
REMARK SMILES IDX 59 55 34 56 35 57 44 59 60 60 37 61 26 62 27 63 31 64 28 65
REMARK SMILES IDX 30 66 29 67 48 68 49 69 53 70 50 71 52 72 51 73 38 74 39 75
REMARK SMILES IDX 43 76 40 77 42 78 41 79
REMARK H PARENT 58 47 36 58
REMARK Flexibility Score: inf
ROOT
ATOM      1  C   UNL A   1      42.003  19.440  27.274  1.00  0.00     0.188 C 
ENDROOT
BRANCH   1   2
ATOM      2  O   UNL A   1      40.699  19.944  27.102  1.00  0.00    -0.376 OA
BRANCH   2   3
ATOM      3  C   UNL A   1      40.486  21.340  27.239  1.00  0.00     0.202 C 
BRANCH   3   4
ATOM      4  C   UNL A   1      40.012  22.267  26.095  1.00  0.00     0.261 C 
BRANCH   4   5
ATOM      5  O   UNL A   1      38.703  22.019  25.568  1.00  0.00    -0.463 OA
BRANCH   5   6
ATOM      6  C   UNL A   1      37.730  22.905  25.918  1.00  0.00     0.313 C 
ATOM      7  O   UNL A   1      37.927  23.917  26.584  1.00  0.00    -0.252 OA
BRANCH   6   8
ATOM      8  C   UNL A   1      36.356  22.547  25.340  1.00  0.00     0.129 C 
ATOM      9  C   UNL A   1      36.447  22.047  23.890  1.00  0.00     0.025 C 
BRANCH   8  10
ATOM     10  C   UNL A   1      35.245  23.565  25.588  1.00  0.00     0.002 A 
ATOM     11  C   UNL A   1      35.113  24.711  24.782  1.00  0.00     0.011 A 
ATOM     12  C   UNL A   1      34.246  23.355  26.540  1.00  0.00     0.130 A 
ATOM     13  C   UNL A   1      34.004  25.562  24.906  1.00  0.00     0.047 A 
ATOM     14  C   UNL A   1      33.157  24.209  26.675  1.00  0.00     0.086 A 
ATOM     15  F   UNL A   1      34.282  22.299  27.363  1.00  0.00    -0.207 F 
ATOM     16  C   UNL A   1      32.995  25.292  25.827  1.00  0.00     0.122 A 
BRANCH  16  17
ATOM     17  O   UNL A   1      31.918  26.122  25.773  1.00  0.00    -0.490 OA
BRANCH  17  18
ATOM     18  C   UNL A   1      31.446  26.675  24.546  1.00  0.00     0.173 C 
ATOM     19  C   UNL A   1      29.950  26.561  24.245  1.00  0.00     0.045 C 
ATOM     20  C   UNL A   1      31.843  28.129  24.317  1.00  0.00     0.045 C 
ATOM     21  C   UNL A   1      29.649  27.769  23.371  1.00  0.00     0.004 C 
ATOM     22  C   UNL A   1      30.579  28.858  23.871  1.00  0.00     0.004 C 
ENDBRANCH  17  18
ENDBRANCH  16  17
ENDBRANCH   8  10
ENDBRANCH   6   8
ENDBRANCH   5   6
ENDBRANCH   4   5
ENDBRANCH   3   4
ENDBRANCH   2   3
ENDBRANCH   1   2
BRANCH   1  23
ATOM     23  C   UNL A   1      42.671  18.980  25.966  1.00  0.00     0.188 C 
BRANCH  23  24
ATOM     24  O   UNL A   1      43.250  19.915  25.069  1.00  0.00    -0.376 OA
BRANCH  24  25
ATOM     25  C   UNL A   1      43.817  21.106  25.598  1.00  0.00     0.202 C 
BRANCH  25  26
ATOM     26  C   UNL A   1      43.918  22.382  24.741  1.00  0.00     0.261 C 
BRANCH  26  27
ATOM     27  O   UNL A   1      43.115  23.504  25.147  1.00  0.00    -0.460 OA
BRANCH  27  28
ATOM     28  C   UNL A   1      43.772  24.683  25.258  1.00  0.00     0.338 C 
ATOM     29  O   UNL A   1      44.738  25.060  24.605  1.00  0.00    -0.246 OA
BRANCH  28  30
ATOM     30  C   UNL A   1      43.058  25.565  26.205  1.00  0.00     0.060 A 
ATOM     31  C   UNL A   1      43.533  26.866  26.432  1.00  0.00     0.016 A 
ATOM     32  C   UNL A   1      41.970  25.078  26.930  1.00  0.00     0.016 A 
ATOM     33  C   UNL A   1      42.927  27.677  27.394  1.00  0.00     0.010 A 
ATOM     34  C   UNL A   1      41.392  25.877  27.922  1.00  0.00     0.010 A 
ATOM     35  C   UNL A   1      41.881  27.169  28.179  1.00  0.00    -0.014 A 
BRANCH  35  36
ATOM     36  C   UNL A   1      41.429  27.921  29.376  1.00  0.00     0.031 A 
ATOM     37  C   UNL A   1      42.323  27.981  30.577  1.00  0.00     0.074 A 
ATOM     38  C   UNL A   1      40.207  28.476  29.451  1.00  0.00     0.049 A 
ATOM     39  N   UNL A   1      42.134  28.604  31.712  1.00  0.00    -0.248 NA
ATOM     40  C   UNL A   1      43.540  27.157  30.528  1.00  0.00     0.031 C 
ATOM     41  C   UNL A   1      39.159  28.325  28.451  1.00  0.00     0.029 A 
ATOM     42  N   UNL A   1      39.654  29.311  30.397  1.00  0.00    -0.354 N 
ATOM     43  C   UNL A   1      43.132  28.143  32.558  1.00  0.00     0.074 A 
ATOM     44  C   UNL A   1      43.966  27.250  31.780  1.00  0.00     0.031 C 
ATOM     45  C   UNL A   1      38.141  29.140  28.773  1.00  0.00     0.029 A 
ATOM     46  C   UNL A   1      38.487  29.906  29.966  1.00  0.00     0.049 A 
ATOM     47  H   UNL A   1      40.049  29.467  31.286  1.00  0.00     0.167 HD
ATOM     48  C   UNL A   1      43.285  28.384  33.881  1.00  0.00     0.031 A 
ATOM     49  C   UNL A   1      37.858  31.006  30.433  1.00  0.00     0.031 A 
ATOM     50  C   UNL A   1      42.443  29.260  34.652  1.00  0.00     0.049 A 
ATOM     51  C   UNL A   1      38.236  31.509  31.801  1.00  0.00     0.074 A 
ATOM     52  C   UNL A   1      42.523  29.572  35.999  1.00  0.00     0.029 A 
ATOM     53  N   UNL A   1      41.364  29.967  34.146  1.00  0.00    -0.354 N 
ATOM     54  N   UNL A   1      39.208  31.114  32.583  1.00  0.00    -0.248 NA
ATOM     55  C   UNL A   1      37.370  32.544  32.390  1.00  0.00     0.031 C 
ATOM     56  C   UNL A   1      41.464  30.431  36.317  1.00  0.00     0.029 A 
ATOM     57  C   UNL A   1      40.767  30.708  35.154  1.00  0.00     0.049 A 
ATOM     58  H   UNL A   1      41.065  29.946  33.209  1.00  0.00     0.167 HD
ATOM     59  C   UNL A   1      39.018  31.786  33.782  1.00  0.00     0.074 A 
ATOM     60  C   UNL A   1      37.919  32.706  33.585  1.00  0.00     0.031 C 
ATOM     61  C   UNL A   1      39.650  31.595  34.965  1.00  0.00     0.031 A 
BRANCH  48  62
ATOM     62  C   UNL A   1      44.343  27.595  34.599  1.00  0.00    -0.014 A 
ATOM     63  C   UNL A   1      44.087  26.329  35.144  1.00  0.00     0.009 A 
ATOM     64  C   UNL A   1      45.631  28.141  34.721  1.00  0.00     0.009 A 
ATOM     65  C   UNL A   1      45.091  25.644  35.832  1.00  0.00     0.001 A 
ATOM     66  C   UNL A   1      46.642  27.440  35.378  1.00  0.00     0.001 A 
ATOM     67  C   UNL A   1      46.367  26.196  35.943  1.00  0.00     0.000 A 
ENDBRANCH  48  62
BRANCH  49  68
ATOM     68  C   UNL A   1      36.865  31.773  29.620  1.00  0.00    -0.014 A 
ATOM     69  C   UNL A   1      35.500  31.413  29.689  1.00  0.00     0.009 A 
ATOM     70  C   UNL A   1      37.225  32.816  28.760  1.00  0.00     0.009 A 
ATOM     71  C   UNL A   1      34.542  32.049  28.894  1.00  0.00     0.001 A 
ATOM     72  C   UNL A   1      36.255  33.493  28.010  1.00  0.00     0.001 A 
ATOM     73  C   UNL A   1      34.919  33.100  28.065  1.00  0.00     0.000 A 
ENDBRANCH  49  68
BRANCH  61  74
ATOM     74  C   UNL A   1      39.121  32.355  36.147  1.00  0.00    -0.014 A 
ATOM     75  C   UNL A   1      38.112  31.806  36.960  1.00  0.00     0.009 A 
ATOM     76  C   UNL A   1      39.638  33.617  36.468  1.00  0.00     0.009 A 
ATOM     77  C   UNL A   1      37.603  32.527  38.042  1.00  0.00     0.001 A 
ATOM     78  C   UNL A   1      39.148  34.323  37.567  1.00  0.00     0.001 A 
ATOM     79  C   UNL A   1      38.123  33.784  38.346  1.00  0.00     0.000 A 
ENDBRANCH  61  74
ENDBRANCH  35  36
ENDBRANCH  28  30
ENDBRANCH  27  28
ENDBRANCH  26  27
ENDBRANCH  25  26
ENDBRANCH  24  25
ENDBRANCH  23  24
ENDBRANCH   1  23
TORSDOF 20
ENDMDL
MODEL 3
REMARK VINA RESULT:      -9.2      3.675      6.850
REMARK SMILES C[C@@H](C(=O)OCCOCCOCCOC(=O)c1ccc(-c2c3nc(c(-c4ccccc4)c4ccc([nH]4)c(-c4ccccc4)c4nc(c(-c5ccccc5)c5ccc2[nH]5)C=C4)C=C3)cc1)c1ccc(OC2CCCC2)cc1F
REMARK SMILES IDX 9 1 8 2 7 3 6 4 5 5 3 6 4 7 2 8 1 9 65 10 66 11 76 12 67 13
REMARK SMILES IDX 75 14 77 15 68 16 69 17 70 18 71 19 74 20 72 21 73 22 10 23
REMARK SMILES IDX 11 24 12 25 13 26 14 27 15 28 16 29 17 30 18 31 64 32 19 33
REMARK SMILES IDX 63 34 20 35 21 36 22 37 57 38 23 39 62 40 56 41 58 42 24 43
REMARK SMILES IDX 61 44 55 45 54 46 25 48 47 49 32 50 46 51 33 52 36 53 45 54
REMARK SMILES IDX 59 55 34 56 35 57 44 59 60 60 37 61 26 62 27 63 31 64 28 65
REMARK SMILES IDX 30 66 29 67 48 68 49 69 53 70 50 71 52 72 51 73 38 74 39 75
REMARK SMILES IDX 43 76 40 77 42 78 41 79
REMARK H PARENT 58 47 36 58
REMARK Flexibility Score: inf
ROOT
ATOM      1  C   UNL A   1      29.889  26.520  25.075  1.00  0.00     0.188 C 
ENDROOT
BRANCH   1   2
ATOM      2  O   UNL A   1      30.197  25.147  25.124  1.00  0.00    -0.376 OA
BRANCH   2   3
ATOM      3  C   UNL A   1      31.190  24.705  26.036  1.00  0.00     0.202 C 
BRANCH   3   4
ATOM      4  C   UNL A   1      32.413  25.546  26.469  1.00  0.00     0.261 C 
BRANCH   4   5
ATOM      5  O   UNL A   1      33.651  25.270  25.804  1.00  0.00    -0.463 OA
BRANCH   5   6
ATOM      6  C   UNL A   1      33.766  25.722  24.525  1.00  0.00     0.313 C 
ATOM      7  O   UNL A   1      33.829  26.909  24.217  1.00  0.00    -0.252 OA
BRANCH   6   8
ATOM      8  C   UNL A   1      33.875  24.591  23.495  1.00  0.00     0.129 C 
ATOM      9  C   UNL A   1      33.334  25.004  22.118  1.00  0.00     0.025 C 
BRANCH   8  10
ATOM     10  C   UNL A   1      33.413  23.215  23.968  1.00  0.00     0.002 A 
ATOM     11  C   UNL A   1      32.202  22.658  23.516  1.00  0.00     0.011 A 
ATOM     12  C   UNL A   1      34.212  22.400  24.771  1.00  0.00     0.130 A 
ATOM     13  C   UNL A   1      31.852  21.334  23.823  1.00  0.00     0.047 A 
ATOM     14  C   UNL A   1      33.856  21.094  25.090  1.00  0.00     0.086 A 
ATOM     15  F   UNL A   1      35.379  22.837  25.260  1.00  0.00    -0.207 F 
ATOM     16  C   UNL A   1      32.701  20.527  24.579  1.00  0.00     0.122 A 
BRANCH  16  17
ATOM     17  O   UNL A   1      32.309  19.230  24.711  1.00  0.00    -0.490 OA
BRANCH  17  18
ATOM     18  C   UNL A   1      33.232  18.186  25.017  1.00  0.00     0.173 C 
ATOM     19  C   UNL A   1      32.680  16.928  25.691  1.00  0.00     0.045 C 
ATOM     20  C   UNL A   1      34.081  17.730  23.836  1.00  0.00     0.045 C 
ATOM     21  C   UNL A   1      33.615  15.817  25.237  1.00  0.00     0.004 C 
ATOM     22  C   UNL A   1      34.032  16.205  23.832  1.00  0.00     0.004 C 
ENDBRANCH  17  18
ENDBRANCH  16  17
ENDBRANCH   8  10
ENDBRANCH   6   8
ENDBRANCH   5   6
ENDBRANCH   4   5
ENDBRANCH   3   4
ENDBRANCH   2   3
ENDBRANCH   1   2
BRANCH   1  23
ATOM     23  C   UNL A   1      30.310  27.207  23.765  1.00  0.00     0.188 C 
BRANCH  23  24
ATOM     24  O   UNL A   1      30.070  28.589  23.550  1.00  0.00    -0.376 OA
BRANCH  24  25
ATOM     25  C   UNL A   1      31.112  29.514  23.828  1.00  0.00     0.202 C 
BRANCH  25  26
ATOM     26  C   UNL A   1      31.402  29.968  25.271  1.00  0.00     0.261 C 
BRANCH  26  27
ATOM     27  O   UNL A   1      32.784  30.089  25.649  1.00  0.00    -0.460 OA
BRANCH  27  28
ATOM     28  C   UNL A   1      33.035  30.915  26.693  1.00  0.00     0.338 C 
ATOM     29  O   UNL A   1      32.262  31.712  27.212  1.00  0.00    -0.246 OA
BRANCH  28  30
ATOM     30  C   UNL A   1      34.369  30.620  27.254  1.00  0.00     0.060 A 
ATOM     31  C   UNL A   1      34.777  29.286  27.406  1.00  0.00     0.016 A 
ATOM     32  C   UNL A   1      35.183  31.658  27.708  1.00  0.00     0.016 A 
ATOM     33  C   UNL A   1      35.994  28.988  28.023  1.00  0.00     0.010 A 
ATOM     34  C   UNL A   1      36.382  31.356  28.364  1.00  0.00     0.010 A 
ATOM     35  C   UNL A   1      36.782  30.023  28.549  1.00  0.00    -0.014 A 
BRANCH  35  36
ATOM     36  C   UNL A   1      37.922  29.696  29.441  1.00  0.00     0.031 A 
ATOM     37  C   UNL A   1      39.162  29.099  28.847  1.00  0.00     0.074 A 
ATOM     38  C   UNL A   1      37.847  29.836  30.776  1.00  0.00     0.049 A 
ATOM     39  N   UNL A   1      40.280  28.765  29.441  1.00  0.00    -0.248 NA
ATOM     40  C   UNL A   1      39.099  28.745  27.421  1.00  0.00     0.031 C 
ATOM     41  C   UNL A   1      36.646  30.206  31.509  1.00  0.00     0.029 A 
ATOM     42  N   UNL A   1      38.816  29.718  31.749  1.00  0.00    -0.354 N 
ATOM     43  C   UNL A   1      40.998  28.044  28.498  1.00  0.00     0.074 A 
ATOM     44  C   UNL A   1      40.223  28.056  27.275  1.00  0.00     0.031 C 
ATOM     45  C   UNL A   1      36.976  30.407  32.796  1.00  0.00     0.029 A 
ATOM     46  C   UNL A   1      38.415  30.233  32.964  1.00  0.00     0.049 A 
ATOM     47  H   UNL A   1      39.699  29.311  31.594  1.00  0.00     0.167 HD
ATOM     48  C   UNL A   1      42.158  27.367  28.669  1.00  0.00     0.031 A 
ATOM     49  C   UNL A   1      39.159  30.613  34.025  1.00  0.00     0.031 A 
ATOM     50  C   UNL A   1      42.916  27.345  29.893  1.00  0.00     0.049 A 
ATOM     51  C   UNL A   1      40.585  30.137  34.095  1.00  0.00     0.074 A 
ATOM     52  C   UNL A   1      44.107  26.692  30.159  1.00  0.00     0.029 A 
ATOM     53  N   UNL A   1      42.557  28.007  31.056  1.00  0.00    -0.354 N 
ATOM     54  N   UNL A   1      41.286  29.501  33.191  1.00  0.00    -0.248 NA
ATOM     55  C   UNL A   1      41.293  30.347  35.369  1.00  0.00     0.031 C 
ATOM     56  C   UNL A   1      44.445  26.920  31.499  1.00  0.00     0.029 A 
ATOM     57  C   UNL A   1      43.500  27.771  32.045  1.00  0.00     0.049 A 
ATOM     58  H   UNL A   1      41.752  28.561  31.165  1.00  0.00     0.167 HD
ATOM     59  C   UNL A   1      42.478  29.160  33.815  1.00  0.00     0.074 A 
ATOM     60  C   UNL A   1      42.460  29.767  35.128  1.00  0.00     0.031 C 
ATOM     61  C   UNL A   1      43.463  28.347  33.363  1.00  0.00     0.031 A 
BRANCH  48  62
ATOM     62  C   UNL A   1      42.615  26.502  27.529  1.00  0.00    -0.014 A 
ATOM     63  C   UNL A   1      42.236  25.158  27.415  1.00  0.00     0.009 A 
ATOM     64  C   UNL A   1      43.446  27.062  26.543  1.00  0.00     0.009 A 
ATOM     65  C   UNL A   1      42.711  24.381  26.356  1.00  0.00     0.001 A 
ATOM     66  C   UNL A   1      43.890  26.293  25.468  1.00  0.00     0.001 A 
ATOM     67  C   UNL A   1      43.531  24.949  25.382  1.00  0.00     0.000 A 
ENDBRANCH  48  62
BRANCH  49  68
ATOM     68  C   UNL A   1      38.642  31.536  35.082  1.00  0.00    -0.014 A 
ATOM     69  C   UNL A   1      38.678  32.930  34.851  1.00  0.00     0.009 A 
ATOM     70  C   UNL A   1      38.153  31.088  36.313  1.00  0.00     0.009 A 
ATOM     71  C   UNL A   1      38.277  33.838  35.835  1.00  0.00     0.001 A 
ATOM     72  C   UNL A   1      37.693  31.997  37.275  1.00  0.00     0.001 A 
ATOM     73  C   UNL A   1      37.770  33.370  37.042  1.00  0.00     0.000 A 
ENDBRANCH  49  68
BRANCH  61  74
ATOM     74  C   UNL A   1      44.568  28.022  34.327  1.00  0.00    -0.014 A 
ATOM     75  C   UNL A   1      45.702  28.850  34.425  1.00  0.00     0.009 A 
ATOM     76  C   UNL A   1      44.477  26.897  35.157  1.00  0.00     0.009 A 
ATOM     77  C   UNL A   1      46.740  28.530  35.301  1.00  0.00     0.001 A 
ATOM     78  C   UNL A   1      45.503  26.596  36.053  1.00  0.00     0.001 A 
ATOM     79  C   UNL A   1      46.638  27.404  36.117  1.00  0.00     0.000 A 
ENDBRANCH  61  74
ENDBRANCH  35  36
ENDBRANCH  28  30
ENDBRANCH  27  28
ENDBRANCH  26  27
ENDBRANCH  25  26
ENDBRANCH  24  25
ENDBRANCH  23  24
ENDBRANCH   1  23
TORSDOF 20
ENDMDL
