MODEL 1
REMARK VINA RESULT:      -9.1      0.000      0.000
REMARK SMILES C[NH2+]C[C@H]1CCCC[N@H+]1[C@H](C)[C@@H](C)C(=O)OCCOCCOCCOC(=O)c1ccc(-c2c3nc(c(-c4ccccc4)c4ccc([nH]4)c(-c4ccccc4)c4nc(c(-c5ccccc5)c5ccc2[nH]5)C=C4)C=C3)cc1
REMARK SMILES IDX 20 1 19 2 18 3 17 4 16 5 14 6 15 7 12 8 13 9 10 10 11 11
REMARK SMILES IDX 9 12 4 13 5 14 6 15 8 16 7 18 3 19 2 20 1 21 21 24 22 25
REMARK SMILES IDX 23 26 24 27 25 28 26 29 27 30 28 31 29 32 75 33 30 34 74 35
REMARK SMILES IDX 31 36 32 37 33 38 68 39 34 40 73 41 67 42 69 43 35 44 72 45
REMARK SMILES IDX 66 46 65 47 36 49 58 50 43 51 57 52 44 53 47 54 56 55 70 56
REMARK SMILES IDX 45 57 46 58 55 60 71 61 48 62 37 63 38 64 42 65 39 66 41 67
REMARK SMILES IDX 40 68 59 69 60 70 64 71 61 72 63 73 62 74 49 75 50 76 54 77
REMARK SMILES IDX 51 78 53 79 52 80
REMARK H PARENT 9 17 2 22 2 23 69 48 47 59
REMARK Flexibility Score: inf
ROOT
ATOM      1  C   UNL A   1      39.918  21.851  26.543  1.00  0.00     0.188 C 
ENDROOT
BRANCH   1   2
ATOM      2  O   UNL A   1      38.574  22.077  26.131  1.00  0.00    -0.376 OA
BRANCH   2   3
ATOM      3  C   UNL A   1      37.995  21.203  25.172  1.00  0.00     0.202 C 
BRANCH   3   4
ATOM      4  C   UNL A   1      37.047  21.857  24.159  1.00  0.00     0.261 C 
BRANCH   4   5
ATOM      5  O   UNL A   1      35.650  21.481  24.256  1.00  0.00    -0.463 OA
BRANCH   5   6
ATOM      6  C   UNL A   1      34.794  22.467  24.639  1.00  0.00     0.314 C 
ATOM      7  O   UNL A   1      34.938  23.651  24.342  1.00  0.00    -0.252 OA
BRANCH   6   8
ATOM      8  C   UNL A   1      33.761  22.041  25.677  1.00  0.00     0.154 C 
ATOM      9  C   UNL A   1      34.637  21.630  26.880  1.00  0.00     0.026 C 
BRANCH   8  10
ATOM     10  C   UNL A   1      32.658  20.970  25.317  1.00  0.00     0.195 C 
ATOM     11  C   UNL A   1      31.396  21.719  24.817  1.00  0.00     0.076 C 
BRANCH  10  12
ATOM     12  N   UNL A   1      33.104  19.920  24.333  1.00  0.00    -0.325 N 
ATOM     13  C   UNL A   1      33.663  18.686  24.968  1.00  0.00     0.239 C 
ATOM     14  C   UNL A   1      34.310  17.793  23.889  1.00  0.00     0.071 C 
ATOM     15  C   UNL A   1      33.418  17.452  22.704  1.00  0.00     0.012 C 
ATOM     16  C   UNL A   1      32.106  19.589  23.302  1.00  0.00     0.262 C 
ATOM     17  H   UNL A   1      33.877  20.377  23.847  1.00  0.00     0.348 HD
ATOM     18  C   UNL A   1      32.624  18.651  22.208  1.00  0.00     0.062 C 
BRANCH  13  19
ATOM     19  C   UNL A   1      32.809  17.843  25.984  1.00  0.00     0.326 C 
BRANCH  19  20
ATOM     20  N   UNL A   1      33.175  16.445  26.242  1.00  0.00    -0.344 N 
ATOM     21  C   UNL A   1      32.157  15.503  25.793  1.00  0.00     0.331 C 
ATOM     22  H   UNL A   1      34.047  16.241  25.752  1.00  0.00     0.346 HD
ATOM     23  H   UNL A   1      33.274  16.334  27.251  1.00  0.00     0.346 HD
ENDBRANCH  19  20
ENDBRANCH  13  19
ENDBRANCH  10  12
ENDBRANCH   8  10
ENDBRANCH   6   8
ENDBRANCH   5   6
ENDBRANCH   4   5
ENDBRANCH   3   4
ENDBRANCH   2   3
ENDBRANCH   1   2
BRANCH   1  24
ATOM     24  C   UNL A   1      40.452  20.420  26.548  1.00  0.00     0.188 C 
BRANCH  24  25
ATOM     25  O   UNL A   1      41.616  20.280  25.740  1.00  0.00    -0.376 OA
BRANCH  25  26
ATOM     26  C   UNL A   1      42.759  20.959  26.242  1.00  0.00     0.202 C 
BRANCH  26  27
ATOM     27  C   UNL A   1      43.611  21.500  25.095  1.00  0.00     0.261 C 
BRANCH  27  28
ATOM     28  O   UNL A   1      43.151  22.791  24.640  1.00  0.00    -0.460 OA
BRANCH  28  29
ATOM     29  C   UNL A   1      43.971  23.835  24.848  1.00  0.00     0.338 C 
ATOM     30  O   UNL A   1      45.093  24.001  24.382  1.00  0.00    -0.246 OA
BRANCH  29  31
ATOM     31  C   UNL A   1      43.311  24.807  25.736  1.00  0.00     0.060 A 
ATOM     32  C   UNL A   1      43.273  26.162  25.395  1.00  0.00     0.016 A 
ATOM     33  C   UNL A   1      42.837  24.389  26.976  1.00  0.00     0.016 A 
ATOM     34  C   UNL A   1      42.842  27.112  26.322  1.00  0.00     0.010 A 
ATOM     35  C   UNL A   1      42.354  25.336  27.884  1.00  0.00     0.010 A 
ATOM     36  C   UNL A   1      42.391  26.709  27.583  1.00  0.00    -0.014 A 
BRANCH  36  37
ATOM     37  C   UNL A   1      42.024  27.700  28.626  1.00  0.00     0.031 A 
ATOM     38  C   UNL A   1      42.881  27.825  29.855  1.00  0.00     0.074 A 
ATOM     39  C   UNL A   1      40.918  28.458  28.503  1.00  0.00     0.049 A 
ATOM     40  N   UNL A   1      42.606  28.380  31.008  1.00  0.00    -0.248 NA
ATOM     41  C   UNL A   1      44.228  27.237  29.776  1.00  0.00     0.031 C 
ATOM     42  C   UNL A   1      40.050  28.514  27.327  1.00  0.00     0.029 A 
ATOM     43  N   UNL A   1      40.321  29.307  29.402  1.00  0.00    -0.354 N 
ATOM     44  C   UNL A   1      43.719  28.156  31.810  1.00  0.00     0.074 A 
ATOM     45  C   UNL A   1      44.679  27.427  31.008  1.00  0.00     0.031 C 
ATOM     46  C   UNL A   1      39.022  29.338  27.582  1.00  0.00     0.029 A 
ATOM     47  C   UNL A   1      39.115  29.796  28.964  1.00  0.00     0.049 A 
ATOM     48  H   UNL A   1      40.719  29.543  30.272  1.00  0.00     0.167 HD
ATOM     49  C   UNL A   1      43.910  28.512  33.103  1.00  0.00     0.031 A 
ATOM     50  C   UNL A   1      38.154  30.472  29.622  1.00  0.00     0.031 A 
ATOM     51  C   UNL A   1      42.952  29.249  33.883  1.00  0.00     0.049 A 
ATOM     52  C   UNL A   1      38.345  30.784  31.079  1.00  0.00     0.074 A 
ATOM     53  C   UNL A   1      43.039  29.656  35.204  1.00  0.00     0.029 A 
ATOM     54  N   UNL A   1      41.730  29.700  33.405  1.00  0.00    -0.354 N 
ATOM     55  N   UNL A   1      39.363  30.504  31.856  1.00  0.00    -0.248 NA
ATOM     56  C   UNL A   1      37.247  31.490  31.752  1.00  0.00     0.031 C 
ATOM     57  C   UNL A   1      41.850  30.315  35.536  1.00  0.00     0.029 A 
ATOM     58  C   UNL A   1      41.046  30.364  34.408  1.00  0.00     0.049 A 
ATOM     59  H   UNL A   1      41.399  29.567  32.488  1.00  0.00     0.167 HD
ATOM     60  C   UNL A   1      39.035  31.011  33.106  1.00  0.00     0.074 A 
ATOM     61  C   UNL A   1      37.732  31.631  32.978  1.00  0.00     0.031 C 
ATOM     62  C   UNL A   1      39.748  30.968  34.258  1.00  0.00     0.031 A 
BRANCH  49  63
ATOM     63  C   UNL A   1      45.175  28.052  33.772  1.00  0.00    -0.014 A 
ATOM     64  C   UNL A   1      45.262  26.808  34.414  1.00  0.00     0.009 A 
ATOM     65  C   UNL A   1      46.315  28.874  33.728  1.00  0.00     0.009 A 
ATOM     66  C   UNL A   1      46.456  26.409  35.024  1.00  0.00     0.001 A 
ATOM     67  C   UNL A   1      47.512  28.462  34.315  1.00  0.00     0.001 A 
ATOM     68  C   UNL A   1      47.580  27.234  34.970  1.00  0.00     0.000 A 
ENDBRANCH  49  63
BRANCH  50  69
ATOM     69  C   UNL A   1      36.892  30.827  28.922  1.00  0.00    -0.014 A 
ATOM     70  C   UNL A   1      36.653  32.142  28.498  1.00  0.00     0.009 A 
ATOM     71  C   UNL A   1      35.926  29.842  28.656  1.00  0.00     0.009 A 
ATOM     72  C   UNL A   1      35.470  32.465  27.829  1.00  0.00     0.001 A 
ATOM     73  C   UNL A   1      34.757  30.162  27.961  1.00  0.00     0.001 A 
ATOM     74  C   UNL A   1      34.528  31.474  27.554  1.00  0.00     0.000 A 
ENDBRANCH  50  69
BRANCH  62  75
ATOM     75  C   UNL A   1      39.143  31.641  35.455  1.00  0.00    -0.014 A 
ATOM     76  C   UNL A   1      39.400  32.990  35.738  1.00  0.00     0.009 A 
ATOM     77  C   UNL A   1      38.283  30.917  36.297  1.00  0.00     0.009 A 
ATOM     78  C   UNL A   1      38.834  33.594  36.862  1.00  0.00     0.001 A 
ATOM     79  C   UNL A   1      37.700  31.530  37.405  1.00  0.00     0.001 A 
ATOM     80  C   UNL A   1      37.983  32.864  37.693  1.00  0.00     0.000 A 
ENDBRANCH  62  75
ENDBRANCH  36  37
ENDBRANCH  29  31
ENDBRANCH  28  29
ENDBRANCH  27  28
ENDBRANCH  26  27
ENDBRANCH  25  26
ENDBRANCH  24  25
ENDBRANCH   1  24
TORSDOF 21
ENDMDL
MODEL 2
REMARK VINA RESULT:      -8.9      1.959      3.492
REMARK SMILES C[NH2+]C[C@H]1CCCC[N@H+]1[C@H](C)[C@@H](C)C(=O)OCCOCCOCCOC(=O)c1ccc(-c2c3nc(c(-c4ccccc4)c4ccc([nH]4)c(-c4ccccc4)c4nc(c(-c5ccccc5)c5ccc2[nH]5)C=C4)C=C3)cc1
REMARK SMILES IDX 20 1 19 2 18 3 17 4 16 5 14 6 15 7 12 8 13 9 10 10 11 11
REMARK SMILES IDX 9 12 4 13 5 14 6 15 8 16 7 18 3 19 2 20 1 21 21 24 22 25
REMARK SMILES IDX 23 26 24 27 25 28 26 29 27 30 28 31 29 32 75 33 30 34 74 35
REMARK SMILES IDX 31 36 32 37 33 38 68 39 34 40 73 41 67 42 69 43 35 44 72 45
REMARK SMILES IDX 66 46 65 47 36 49 58 50 43 51 57 52 44 53 47 54 56 55 70 56
REMARK SMILES IDX 45 57 46 58 55 60 71 61 48 62 37 63 38 64 42 65 39 66 41 67
REMARK SMILES IDX 40 68 59 69 60 70 64 71 61 72 63 73 62 74 49 75 50 76 54 77
REMARK SMILES IDX 51 78 53 79 52 80
REMARK H PARENT 9 17 2 22 2 23 69 48 47 59
REMARK Flexibility Score: inf
ROOT
ATOM      1  C   UNL A   1      39.834  22.078  26.479  1.00  0.00     0.188 C 
ENDROOT
BRANCH   1   2
ATOM      2  O   UNL A   1      38.676  22.773  26.026  1.00  0.00    -0.376 OA
BRANCH   2   3
ATOM      3  C   UNL A   1      37.532  22.023  25.645  1.00  0.00     0.202 C 
BRANCH   3   4
ATOM      4  C   UNL A   1      36.646  22.659  24.567  1.00  0.00     0.261 C 
BRANCH   4   5
ATOM      5  O   UNL A   1      35.284  22.967  24.958  1.00  0.00    -0.463 OA
BRANCH   5   6
ATOM      6  C   UNL A   1      34.341  22.051  24.604  1.00  0.00     0.314 C 
ATOM      7  O   UNL A   1      34.489  20.837  24.725  1.00  0.00    -0.252 OA
BRANCH   6   8
ATOM      8  C   UNL A   1      33.169  22.621  23.814  1.00  0.00     0.154 C 
ATOM      9  C   UNL A   1      33.826  23.032  22.478  1.00  0.00     0.026 C 
BRANCH   8  10
ATOM     10  C   UNL A   1      32.260  23.754  24.433  1.00  0.00     0.195 C 
ATOM     11  C   UNL A   1      31.679  23.236  25.774  1.00  0.00     0.076 C 
BRANCH  10  12
ATOM     12  N   UNL A   1      32.949  25.083  24.606  1.00  0.00    -0.325 N 
ATOM     13  C   UNL A   1      32.820  25.995  23.427  1.00  0.00     0.239 C 
ATOM     14  C   UNL A   1      33.755  27.210  23.604  1.00  0.00     0.071 C 
ATOM     15  C   UNL A   1      33.597  27.968  24.912  1.00  0.00     0.012 C 
ATOM     16  C   UNL A   1      32.622  25.779  25.861  1.00  0.00     0.262 C 
ATOM     17  H   UNL A   1      33.933  24.823  24.670  1.00  0.00     0.348 HD
ATOM     18  C   UNL A   1      33.451  27.042  26.110  1.00  0.00     0.062 C 
BRANCH  13  19
ATOM     19  C   UNL A   1      31.406  26.425  22.888  1.00  0.00     0.326 C 
BRANCH  19  20
ATOM     20  N   UNL A   1      31.284  27.654  22.096  1.00  0.00    -0.344 N 
ATOM     21  C   UNL A   1      30.246  28.548  22.597  1.00  0.00     0.331 C 
ATOM     22  H   UNL A   1      32.178  28.146  22.118  1.00  0.00     0.346 HD
ATOM     23  H   UNL A   1      31.025  27.384  21.147  1.00  0.00     0.346 HD
ENDBRANCH  19  20
ENDBRANCH  13  19
ENDBRANCH  10  12
ENDBRANCH   8  10
ENDBRANCH   6   8
ENDBRANCH   5   6
ENDBRANCH   4   5
ENDBRANCH   3   4
ENDBRANCH   2   3
ENDBRANCH   1   2
BRANCH   1  24
ATOM     24  C   UNL A   1      39.935  20.576  26.216  1.00  0.00     0.188 C 
BRANCH  24  25
ATOM     25  O   UNL A   1      41.169  20.221  25.602  1.00  0.00    -0.376 OA
BRANCH  25  26
ATOM     26  C   UNL A   1      42.320  20.658  26.312  1.00  0.00     0.202 C 
BRANCH  26  27
ATOM     27  C   UNL A   1      43.351  21.253  25.354  1.00  0.00     0.261 C 
BRANCH  27  28
ATOM     28  O   UNL A   1      42.949  22.550  24.861  1.00  0.00    -0.460 OA
BRANCH  28  29
ATOM     29  C   UNL A   1      43.813  23.563  25.046  1.00  0.00     0.338 C 
ATOM     30  O   UNL A   1      44.954  23.655  24.605  1.00  0.00    -0.246 OA
BRANCH  29  31
ATOM     31  C   UNL A   1      43.178  24.604  25.871  1.00  0.00     0.060 A 
ATOM     32  C   UNL A   1      43.282  25.951  25.511  1.00  0.00     0.016 A 
ATOM     33  C   UNL A   1      42.582  24.251  27.079  1.00  0.00     0.016 A 
ATOM     34  C   UNL A   1      42.869  26.951  26.392  1.00  0.00     0.010 A 
ATOM     35  C   UNL A   1      42.119  25.253  27.937  1.00  0.00     0.010 A 
ATOM     36  C   UNL A   1      42.296  26.613  27.622  1.00  0.00    -0.014 A 
BRANCH  36  37
ATOM     37  C   UNL A   1      41.942  27.650  28.623  1.00  0.00     0.031 A 
ATOM     38  C   UNL A   1      42.812  27.829  29.836  1.00  0.00     0.074 A 
ATOM     39  C   UNL A   1      40.837  28.405  28.477  1.00  0.00     0.049 A 
ATOM     40  N   UNL A   1      42.551  28.437  30.965  1.00  0.00    -0.248 NA
ATOM     41  C   UNL A   1      44.157  27.235  29.769  1.00  0.00     0.031 C 
ATOM     42  C   UNL A   1      39.956  28.410  27.309  1.00  0.00     0.029 A 
ATOM     43  N   UNL A   1      40.251  29.296  29.343  1.00  0.00    -0.354 N 
ATOM     44  C   UNL A   1      43.672  28.246  31.764  1.00  0.00     0.074 A 
ATOM     45  C   UNL A   1      44.622  27.479  30.986  1.00  0.00     0.031 C 
ATOM     46  C   UNL A   1      38.932  29.248  27.537  1.00  0.00     0.029 A 
ATOM     47  C   UNL A   1      39.041  29.767  28.896  1.00  0.00     0.049 A 
ATOM     48  H   UNL A   1      40.658  29.570  30.197  1.00  0.00     0.167 HD
ATOM     49  C   UNL A   1      43.877  28.660  33.038  1.00  0.00     0.031 A 
ATOM     50  C   UNL A   1      38.088  30.475  29.533  1.00  0.00     0.031 A 
ATOM     51  C   UNL A   1      42.929  29.434  33.794  1.00  0.00     0.049 A 
ATOM     52  C   UNL A   1      38.296  30.852  30.972  1.00  0.00     0.074 A 
ATOM     53  C   UNL A   1      43.032  29.900  35.094  1.00  0.00     0.029 A 
ATOM     54  N   UNL A   1      41.703  29.866  33.309  1.00  0.00    -0.354 N 
ATOM     55  N   UNL A   1      39.322  30.606  31.750  1.00  0.00    -0.248 NA
ATOM     56  C   UNL A   1      37.206  31.591  31.624  1.00  0.00     0.031 C 
ATOM     57  C   UNL A   1      41.847  30.577  35.408  1.00  0.00     0.029 A 
ATOM     58  C   UNL A   1      41.031  30.577  34.288  1.00  0.00     0.049 A 
ATOM     59  H   UNL A   1      41.363  29.693  32.403  1.00  0.00     0.167 HD
ATOM     60  C   UNL A   1      39.008  31.169  32.979  1.00  0.00     0.074 A 
ATOM     61  C   UNL A   1      37.705  31.786  32.837  1.00  0.00     0.031 C 
ATOM     62  C   UNL A   1      39.733  31.176  34.125  1.00  0.00     0.031 A 
BRANCH  49  63
ATOM     63  C   UNL A   1      45.149  28.228  33.714  1.00  0.00    -0.014 A 
ATOM     64  C   UNL A   1      45.239  27.015  34.413  1.00  0.00     0.009 A 
ATOM     65  C   UNL A   1      46.290  29.042  33.618  1.00  0.00     0.009 A 
ATOM     66  C   UNL A   1      46.438  26.642  35.028  1.00  0.00     0.001 A 
ATOM     67  C   UNL A   1      47.493  28.654  34.211  1.00  0.00     0.001 A 
ATOM     68  C   UNL A   1      47.565  27.459  34.922  1.00  0.00     0.000 A 
ENDBRANCH  49  63
BRANCH  50  69
ATOM     69  C   UNL A   1      36.820  30.802  28.830  1.00  0.00    -0.014 A 
ATOM     70  C   UNL A   1      35.869  29.806  28.568  1.00  0.00     0.009 A 
ATOM     71  C   UNL A   1      36.546  32.123  28.437  1.00  0.00     0.009 A 
ATOM     72  C   UNL A   1      34.674  30.123  27.919  1.00  0.00     0.001 A 
ATOM     73  C   UNL A   1      35.337  32.442  27.814  1.00  0.00     0.001 A 
ATOM     74  C   UNL A   1      34.405  31.441  27.551  1.00  0.00     0.000 A 
ENDBRANCH  50  69
BRANCH  62  75
ATOM     75  C   UNL A   1      39.142  31.905  35.296  1.00  0.00    -0.014 A 
ATOM     76  C   UNL A   1      39.313  33.288  35.454  1.00  0.00     0.009 A 
ATOM     77  C   UNL A   1      38.383  31.197  36.241  1.00  0.00     0.009 A 
ATOM     78  C   UNL A   1      38.762  33.944  36.556  1.00  0.00     0.001 A 
ATOM     79  C   UNL A   1      37.814  31.859  37.328  1.00  0.00     0.001 A 
ATOM     80  C   UNL A   1      38.012  33.229  37.491  1.00  0.00     0.000 A 
ENDBRANCH  62  75
ENDBRANCH  36  37
ENDBRANCH  29  31
ENDBRANCH  28  29
ENDBRANCH  27  28
ENDBRANCH  26  27
ENDBRANCH  25  26
ENDBRANCH  24  25
ENDBRANCH   1  24
TORSDOF 21
ENDMDL
MODEL 3
REMARK VINA RESULT:      -8.9      2.539      6.978
REMARK SMILES C[NH2+]C[C@H]1CCCC[N@H+]1[C@H](C)[C@@H](C)C(=O)OCCOCCOCCOC(=O)c1ccc(-c2c3nc(c(-c4ccccc4)c4ccc([nH]4)c(-c4ccccc4)c4nc(c(-c5ccccc5)c5ccc2[nH]5)C=C4)C=C3)cc1
REMARK SMILES IDX 20 1 19 2 18 3 17 4 16 5 14 6 15 7 12 8 13 9 10 10 11 11
REMARK SMILES IDX 9 12 4 13 5 14 6 15 8 16 7 18 3 19 2 20 1 21 21 24 22 25
REMARK SMILES IDX 23 26 24 27 25 28 26 29 27 30 28 31 29 32 75 33 30 34 74 35
REMARK SMILES IDX 31 36 32 37 33 38 68 39 34 40 73 41 67 42 69 43 35 44 72 45
REMARK SMILES IDX 66 46 65 47 36 49 58 50 43 51 57 52 44 53 47 54 56 55 70 56
REMARK SMILES IDX 45 57 46 58 55 60 71 61 48 62 37 63 38 64 42 65 39 66 41 67
REMARK SMILES IDX 40 68 59 69 60 70 64 71 61 72 63 73 62 74 49 75 50 76 54 77
REMARK SMILES IDX 51 78 53 79 52 80
REMARK H PARENT 9 17 2 22 2 23 69 48 47 59
REMARK Flexibility Score: inf
ROOT
ATOM      1  C   UNL A   1      41.661  22.207  27.143  1.00  0.00     0.188 C 
ENDROOT
BRANCH   1   2
ATOM      2  O   UNL A   1      40.251  22.150  26.953  1.00  0.00    -0.376 OA
BRANCH   2   3
ATOM      3  C   UNL A   1      39.709  21.112  26.150  1.00  0.00     0.202 C 
BRANCH   3   4
ATOM      4  C   UNL A   1      38.410  21.451  25.408  1.00  0.00     0.261 C 
BRANCH   4   5
ATOM      5  O   UNL A   1      37.415  22.188  26.163  1.00  0.00    -0.463 OA
BRANCH   5   6
ATOM      6  C   UNL A   1      37.279  23.504  25.842  1.00  0.00     0.314 C 
ATOM      7  O   UNL A   1      38.198  24.317  25.889  1.00  0.00    -0.252 OA
BRANCH   6   8
ATOM      8  C   UNL A   1      35.837  23.962  25.650  1.00  0.00     0.154 C 
ATOM      9  C   UNL A   1      35.043  22.967  26.523  1.00  0.00     0.026 C 
BRANCH   8  10
ATOM     10  C   UNL A   1      35.237  24.132  24.199  1.00  0.00     0.195 C 
ATOM     11  C   UNL A   1      35.922  23.103  23.264  1.00  0.00     0.076 C 
BRANCH  10  12
ATOM     12  N   UNL A   1      33.736  24.029  24.129  1.00  0.00    -0.325 N 
ATOM     13  C   UNL A   1      33.046  25.328  23.855  1.00  0.00     0.239 C 
ATOM     14  C   UNL A   1      31.524  25.161  24.048  1.00  0.00     0.071 C 
ATOM     15  C   UNL A   1      30.890  24.021  23.266  1.00  0.00     0.012 C 
ATOM     16  C   UNL A   1      33.240  22.962  23.244  1.00  0.00     0.262 C 
ATOM     17  H   UNL A   1      33.481  23.755  25.078  1.00  0.00     0.348 HD
ATOM     18  C   UNL A   1      31.725  22.750  23.307  1.00  0.00     0.062 C 
BRANCH  13  19
ATOM     19  C   UNL A   1      33.380  26.164  22.565  1.00  0.00     0.326 C 
BRANCH  19  20
ATOM     20  N   UNL A   1      32.440  27.200  22.119  1.00  0.00    -0.344 N 
ATOM     21  C   UNL A   1      32.668  28.487  22.766  1.00  0.00     0.331 C 
ATOM     22  H   UNL A   1      32.541  27.318  21.110  1.00  0.00     0.346 HD
ATOM     23  H   UNL A   1      31.501  26.891  22.371  1.00  0.00     0.346 HD
ENDBRANCH  19  20
ENDBRANCH  13  19
ENDBRANCH  10  12
ENDBRANCH   8  10
ENDBRANCH   6   8
ENDBRANCH   5   6
ENDBRANCH   4   5
ENDBRANCH   3   4
ENDBRANCH   2   3
ENDBRANCH   1   2
BRANCH   1  24
ATOM     24  C   UNL A   1      42.572  21.774  25.994  1.00  0.00     0.188 C 
BRANCH  24  25
ATOM     25  O   UNL A   1      42.633  22.751  24.961  1.00  0.00    -0.376 OA
BRANCH  25  26
ATOM     26  C   UNL A   1      43.929  23.291  24.744  1.00  0.00     0.202 C 
BRANCH  26  27
ATOM     27  C   UNL A   1      43.979  24.759  25.162  1.00  0.00     0.261 C 
BRANCH  27  28
ATOM     28  O   UNL A   1      42.663  25.349  25.234  1.00  0.00    -0.460 OA
BRANCH  28  29
ATOM     29  C   UNL A   1      42.601  26.690  25.281  1.00  0.00     0.338 C 
ATOM     30  O   UNL A   1      42.698  27.471  24.340  1.00  0.00    -0.246 OA
BRANCH  29  31
ATOM     31  C   UNL A   1      42.374  27.122  26.670  1.00  0.00     0.060 A 
ATOM     32  C   UNL A   1      41.512  26.401  27.501  1.00  0.00     0.016 A 
ATOM     33  C   UNL A   1      42.923  28.323  27.112  1.00  0.00     0.016 A 
ATOM     34  C   UNL A   1      41.129  26.918  28.740  1.00  0.00     0.010 A 
ATOM     35  C   UNL A   1      42.581  28.813  28.376  1.00  0.00     0.010 A 
ATOM     36  C   UNL A   1      41.649  28.137  29.184  1.00  0.00    -0.014 A 
BRANCH  36  37
ATOM     37  C   UNL A   1      41.184  28.763  30.448  1.00  0.00     0.031 A 
ATOM     38  C   UNL A   1      39.985  29.669  30.422  1.00  0.00     0.074 A 
ATOM     39  C   UNL A   1      41.842  28.558  31.605  1.00  0.00     0.049 A 
ATOM     40  N   UNL A   1      39.585  30.546  31.308  1.00  0.00    -0.248 NA
ATOM     41  C   UNL A   1      39.124  29.581  29.231  1.00  0.00     0.031 C 
ATOM     42  C   UNL A   1      42.956  27.630  31.799  1.00  0.00     0.029 A 
ATOM     43  N   UNL A   1      41.679  29.149  32.834  1.00  0.00    -0.354 N 
ATOM     44  C   UNL A   1      38.464  31.155  30.756  1.00  0.00     0.074 A 
ATOM     45  C   UNL A   1      38.238  30.539  29.466  1.00  0.00     0.031 C 
ATOM     46  C   UNL A   1      43.390  27.728  33.066  1.00  0.00     0.029 A 
ATOM     47  C   UNL A   1      42.642  28.783  33.741  1.00  0.00     0.049 A 
ATOM     48  H   UNL A   1      40.944  29.772  33.043  1.00  0.00     0.167 HD
ATOM     49  C   UNL A   1      37.707  32.151  31.276  1.00  0.00     0.031 A 
ATOM     50  C   UNL A   1      42.940  29.290  34.953  1.00  0.00     0.031 A 
ATOM     51  C   UNL A   1      37.936  32.744  32.567  1.00  0.00     0.049 A 
ATOM     52  C   UNL A   1      42.144  30.451  35.477  1.00  0.00     0.074 A 
ATOM     53  C   UNL A   1      37.235  33.764  33.188  1.00  0.00     0.029 A 
ATOM     54  N   UNL A   1      38.941  32.359  33.441  1.00  0.00    -0.354 N 
ATOM     55  N   UNL A   1      41.135  31.077  34.922  1.00  0.00    -0.248 NA
ATOM     56  C   UNL A   1      42.541  30.984  36.787  1.00  0.00     0.031 C 
ATOM     57  C   UNL A   1      37.845  34.025  34.420  1.00  0.00     0.029 A 
ATOM     58  C   UNL A   1      38.892  33.132  34.588  1.00  0.00     0.049 A 
ATOM     59  H   UNL A   1      39.593  31.642  33.271  1.00  0.00     0.167 HD
ATOM     60  C   UNL A   1      40.766  32.069  35.820  1.00  0.00     0.074 A 
ATOM     61  C   UNL A   1      41.648  31.950  36.963  1.00  0.00     0.031 C 
ATOM     62  C   UNL A   1      39.785  32.998  35.709  1.00  0.00     0.031 A 
BRANCH  49  63
ATOM     63  C   UNL A   1      36.602  32.705  30.420  1.00  0.00    -0.014 A 
ATOM     64  C   UNL A   1      35.277  32.263  30.547  1.00  0.00     0.009 A 
ATOM     65  C   UNL A   1      36.894  33.715  29.488  1.00  0.00     0.009 A 
ATOM     66  C   UNL A   1      34.272  32.801  29.738  1.00  0.00     0.001 A 
ATOM     67  C   UNL A   1      35.884  34.269  28.699  1.00  0.00     0.001 A 
ATOM     68  C   UNL A   1      34.575  33.806  28.818  1.00  0.00     0.000 A 
ENDBRANCH  49  63
BRANCH  50  69
ATOM     69  C   UNL A   1      44.097  28.748  35.714  1.00  0.00    -0.014 A 
ATOM     70  C   UNL A   1      45.382  29.279  35.538  1.00  0.00     0.009 A 
ATOM     71  C   UNL A   1      43.912  27.706  36.638  1.00  0.00     0.009 A 
ATOM     72  C   UNL A   1      46.461  28.773  36.266  1.00  0.00     0.001 A 
ATOM     73  C   UNL A   1      44.988  27.222  37.386  1.00  0.00     0.001 A 
ATOM     74  C   UNL A   1      46.262  27.752  37.195  1.00  0.00     0.000 A 
ENDBRANCH  50  69
BRANCH  62  75
ATOM     75  C   UNL A   1      39.599  33.929  36.872  1.00  0.00    -0.014 A 
ATOM     76  C   UNL A   1      40.147  35.219  36.866  1.00  0.00     0.009 A 
ATOM     77  C   UNL A   1      38.842  33.512  37.979  1.00  0.00     0.009 A 
ATOM     78  C   UNL A   1      39.970  36.065  37.962  1.00  0.00     0.001 A 
ATOM     79  C   UNL A   1      38.647  34.368  39.062  1.00  0.00     0.001 A 
ATOM     80  C   UNL A   1      39.218  35.639  39.058  1.00  0.00     0.000 A 
ENDBRANCH  62  75
ENDBRANCH  36  37
ENDBRANCH  29  31
ENDBRANCH  28  29
ENDBRANCH  27  28
ENDBRANCH  26  27
ENDBRANCH  25  26
ENDBRANCH  24  25
ENDBRANCH   1  24
TORSDOF 21
ENDMDL
