MODEL 1
REMARK VINA RESULT:      -7.3      0.000      0.000
REMARK SMILES COC[C@@H](C)CC(=O)Nc1cccc(/C=C/C(=O)OCCOCCOCCOC(=O)c2ccc(-c3c4nc(c(-c5ccccc5)c5ccc([nH]5)c(-c5ccccc5)c5nc(c(-c6ccccc6)c6ccc3[nH]6)C=C5)C=C4)cc2)c1
REMARK SMILES IDX 21 1 20 2 19 3 17 4 18 5 16 6 15 7 14 8 10 9 11 10 79 11
REMARK SMILES IDX 12 12 13 13 9 14 7 15 8 16 6 18 4 19 5 20 3 21 2 22 1 23
REMARK SMILES IDX 22 24 23 25 24 26 25 27 26 28 27 29 28 30 29 31 30 32 31 33
REMARK SMILES IDX 32 34 78 35 33 36 77 37 34 38 35 39 36 40 71 41 37 42 76 43
REMARK SMILES IDX 70 44 72 45 38 46 75 47 69 48 68 49 39 51 61 52 46 53 60 54
REMARK SMILES IDX 47 55 50 56 59 57 73 58 48 59 49 60 58 62 74 63 51 64 40 65
REMARK SMILES IDX 41 66 45 67 42 68 44 69 43 70 62 71 63 72 67 73 64 74 66 75
REMARK SMILES IDX 65 76 52 77 53 78 57 79 54 80 56 81 55 82
REMARK H PARENT 9 17 72 50 50 61
REMARK Flexibility Score: inf
ROOT
ATOM      1  C   UNL A   1      33.851  34.608  29.994  1.00  0.00     0.202 C 
ENDROOT
BRANCH   1   2
ATOM      2  C   UNL A   1      35.039  33.681  29.689  1.00  0.00     0.261 C 
BRANCH   2   3
ATOM      3  O   UNL A   1      34.761  32.264  29.721  1.00  0.00    -0.460 OA
BRANCH   3   4
ATOM      4  C   UNL A   1      35.205  31.553  28.655  1.00  0.00     0.330 C 
ATOM      5  O   UNL A   1      34.726  31.576  27.530  1.00  0.00    -0.247 OA
BRANCH   4   6
ATOM      6  C   UNL A   1      36.384  30.699  28.946  1.00  0.00     0.094 C 
ATOM      7  C   UNL A   1      37.062  29.895  28.110  1.00  0.00     0.015 C 
BRANCH   7   8
ATOM      8  C   UNL A   1      38.323  29.231  28.491  1.00  0.00    -0.023 A 
ATOM      9  C   UNL A   1      40.660  28.881  27.867  1.00  0.00     0.041 A 
ATOM     10  C   UNL A   1      40.917  28.319  29.110  1.00  0.00     0.026 A 
ATOM     11  C   UNL A   1      39.347  29.201  27.541  1.00  0.00     0.034 A 
ATOM     12  C   UNL A   1      39.877  28.207  30.042  1.00  0.00     0.003 A 
ATOM     13  C   UNL A   1      38.593  28.688  29.746  1.00  0.00     0.008 A 
BRANCH   9  14
ATOM     14  N   UNL A   1      41.692  29.091  26.936  1.00  0.00    -0.326 N 
ATOM     15  C   UNL A   1      42.438  28.143  26.262  1.00  0.00     0.224 C 
ATOM     16  O   UNL A   1      43.541  28.449  25.806  1.00  0.00    -0.275 OA
ATOM     17  H   UNL A   1      41.911  30.030  26.740  1.00  0.00     0.169 HD
BRANCH  15  18
ATOM     18  C   UNL A   1      41.778  26.810  25.893  1.00  0.00     0.106 C 
BRANCH  18  19
ATOM     19  C   UNL A   1      41.916  25.639  26.889  1.00  0.00     0.021 C 
ATOM     20  C   UNL A   1      43.224  25.814  27.678  1.00  0.00     0.010 C 
BRANCH  19  21
ATOM     21  C   UNL A   1      41.934  24.284  26.177  1.00  0.00     0.163 C 
BRANCH  21  22
ATOM     22  O   UNL A   1      43.091  23.518  26.502  1.00  0.00    -0.384 OA
ATOM     23  C   UNL A   1      42.741  22.270  27.096  1.00  0.00     0.194 C 
ENDBRANCH  21  22
ENDBRANCH  19  21
ENDBRANCH  18  19
ENDBRANCH  15  18
ENDBRANCH   9  14
ENDBRANCH   7   8
ENDBRANCH   4   6
ENDBRANCH   3   4
ENDBRANCH   2   3
ENDBRANCH   1   2
BRANCH   1  24
ATOM     24  O   UNL A   1      33.353  34.685  31.322  1.00  0.00    -0.376 OA
BRANCH  24  25
ATOM     25  C   UNL A   1      34.265  34.619  32.412  1.00  0.00     0.188 C 
BRANCH  25  26
ATOM     26  C   UNL A   1      34.358  33.329  33.252  1.00  0.00     0.188 C 
BRANCH  26  27
ATOM     27  O   UNL A   1      35.665  32.836  33.418  1.00  0.00    -0.376 OA
BRANCH  27  28
ATOM     28  C   UNL A   1      36.579  33.562  34.218  1.00  0.00     0.202 C 
BRANCH  28  29
ATOM     29  C   UNL A   1      36.770  33.315  35.731  1.00  0.00     0.261 C 
BRANCH  29  30
ATOM     30  O   UNL A   1      38.071  32.935  36.198  1.00  0.00    -0.460 OA
BRANCH  30  31
ATOM     31  C   UNL A   1      38.366  31.615  36.212  1.00  0.00     0.338 C 
ATOM     32  O   UNL A   1      37.806  30.742  36.859  1.00  0.00    -0.246 OA
BRANCH  31  33
ATOM     33  C   UNL A   1      39.351  31.347  35.141  1.00  0.00     0.060 A 
ATOM     34  C   UNL A   1      38.938  30.633  34.006  1.00  0.00     0.016 A 
ATOM     35  C   UNL A   1      40.665  31.806  35.244  1.00  0.00     0.016 A 
ATOM     36  C   UNL A   1      39.846  30.359  32.980  1.00  0.00     0.010 A 
ATOM     37  C   UNL A   1      41.580  31.509  34.225  1.00  0.00     0.010 A 
ATOM     38  C   UNL A   1      41.182  30.762  33.101  1.00  0.00    -0.014 A 
BRANCH  38  39
ATOM     39  C   UNL A   1      42.190  30.262  32.132  1.00  0.00     0.031 A 
ATOM     40  C   UNL A   1      42.814  28.913  32.368  1.00  0.00     0.074 A 
ATOM     41  C   UNL A   1      42.534  30.978  31.048  1.00  0.00     0.049 A 
ATOM     42  N   UNL A   1      43.720  28.283  31.665  1.00  0.00    -0.248 NA
ATOM     43  C   UNL A   1      42.354  28.180  33.558  1.00  0.00     0.031 C 
ATOM     44  C   UNL A   1      41.984  32.282  30.682  1.00  0.00     0.029 A 
ATOM     45  N   UNL A   1      43.443  30.704  30.054  1.00  0.00    -0.354 N 
ATOM     46  C   UNL A   1      43.949  27.085  32.334  1.00  0.00     0.074 A 
ATOM     47  C   UNL A   1      43.107  27.092  33.510  1.00  0.00     0.031 C 
ATOM     48  C   UNL A   1      42.575  32.700  29.548  1.00  0.00     0.029 A 
ATOM     49  C   UNL A   1      43.566  31.710  29.128  1.00  0.00     0.049 A 
ATOM     50  H   UNL A   1      43.958  29.865  30.011  1.00  0.00     0.167 HD
ATOM     51  C   UNL A   1      44.782  26.071  31.999  1.00  0.00     0.031 A 
ATOM     52  C   UNL A   1      44.399  31.831  28.075  1.00  0.00     0.031 A 
ATOM     53  C   UNL A   1      45.635  26.071  30.841  1.00  0.00     0.049 A 
ATOM     54  C   UNL A   1      45.368  30.721  27.761  1.00  0.00     0.074 A 
ATOM     55  C   UNL A   1      46.491  25.076  30.402  1.00  0.00     0.029 A 
ATOM     56  N   UNL A   1      45.756  27.124  29.947  1.00  0.00    -0.354 N 
ATOM     57  N   UNL A   1      45.539  29.573  28.372  1.00  0.00    -0.248 NA
ATOM     58  C   UNL A   1      46.252  30.921  26.603  1.00  0.00     0.031 C 
ATOM     59  C   UNL A   1      47.183  25.555  29.284  1.00  0.00     0.029 A 
ATOM     60  C   UNL A   1      46.702  26.818  28.981  1.00  0.00     0.049 A 
ATOM     61  H   UNL A   1      45.245  27.965  29.993  1.00  0.00     0.167 HD
ATOM     62  C   UNL A   1      46.530  28.906  27.660  1.00  0.00     0.074 A 
ATOM     63  C   UNL A   1      46.904  29.769  26.559  1.00  0.00     0.031 C 
ATOM     64  C   UNL A   1      47.079  27.688  27.896  1.00  0.00     0.031 A 
BRANCH  51  65
ATOM     65  C   UNL A   1      44.845  24.893  32.934  1.00  0.00    -0.014 A 
ATOM     66  C   UNL A   1      43.976  23.799  32.801  1.00  0.00     0.009 A 
ATOM     67  C   UNL A   1      45.811  24.871  33.952  1.00  0.00     0.009 A 
ATOM     68  C   UNL A   1      44.047  22.726  33.693  1.00  0.00     0.001 A 
ATOM     69  C   UNL A   1      45.902  23.784  34.823  1.00  0.00     0.001 A 
ATOM     70  C   UNL A   1      45.013  22.718  34.700  1.00  0.00     0.000 A 
ENDBRANCH  51  65
BRANCH  52  71
ATOM     71  C   UNL A   1      44.374  33.068  27.247  1.00  0.00    -0.014 A 
ATOM     72  C   UNL A   1      45.038  34.230  27.667  1.00  0.00     0.009 A 
ATOM     73  C   UNL A   1      43.666  33.094  26.035  1.00  0.00     0.009 A 
ATOM     74  C   UNL A   1      44.976  35.397  26.900  1.00  0.00     0.001 A 
ATOM     75  C   UNL A   1      43.633  34.251  25.255  1.00  0.00     0.001 A 
ATOM     76  C   UNL A   1      44.279  35.404  25.693  1.00  0.00     0.000 A 
ENDBRANCH  52  71
BRANCH  64  77
ATOM     77  C   UNL A   1      48.124  27.200  26.928  1.00  0.00    -0.014 A 
ATOM     78  C   UNL A   1      47.785  26.412  25.816  1.00  0.00     0.009 A 
ATOM     79  C   UNL A   1      49.468  27.559  27.116  1.00  0.00     0.009 A 
ATOM     80  C   UNL A   1      48.775  25.962  24.940  1.00  0.00     0.001 A 
ATOM     81  C   UNL A   1      50.451  27.138  26.220  1.00  0.00     0.001 A 
ATOM     82  C   UNL A   1      50.105  26.328  25.139  1.00  0.00     0.000 A 
ENDBRANCH  64  77
ENDBRANCH  38  39
ENDBRANCH  31  33
ENDBRANCH  30  31
ENDBRANCH  29  30
ENDBRANCH  28  29
ENDBRANCH  27  28
ENDBRANCH  26  27
ENDBRANCH  25  26
ENDBRANCH  24  25
ENDBRANCH   1  24
TORSDOF 23
ENDMDL
MODEL 2
REMARK VINA RESULT:      -7.3      0.521      5.795
REMARK SMILES COC[C@@H](C)CC(=O)Nc1cccc(/C=C/C(=O)OCCOCCOCCOC(=O)c2ccc(-c3c4nc(c(-c5ccccc5)c5ccc([nH]5)c(-c5ccccc5)c5nc(c(-c6ccccc6)c6ccc3[nH]6)C=C5)C=C4)cc2)c1
REMARK SMILES IDX 21 1 20 2 19 3 17 4 18 5 16 6 15 7 14 8 10 9 11 10 79 11
REMARK SMILES IDX 12 12 13 13 9 14 7 15 8 16 6 18 4 19 5 20 3 21 2 22 1 23
REMARK SMILES IDX 22 24 23 25 24 26 25 27 26 28 27 29 28 30 29 31 30 32 31 33
REMARK SMILES IDX 32 34 78 35 33 36 77 37 34 38 35 39 36 40 71 41 37 42 76 43
REMARK SMILES IDX 70 44 72 45 38 46 75 47 69 48 68 49 39 51 61 52 46 53 60 54
REMARK SMILES IDX 47 55 50 56 59 57 73 58 48 59 49 60 58 62 74 63 51 64 40 65
REMARK SMILES IDX 41 66 45 67 42 68 44 69 43 70 62 71 63 72 67 73 64 74 66 75
REMARK SMILES IDX 65 76 52 77 53 78 57 79 54 80 56 81 55 82
REMARK H PARENT 9 17 72 50 50 61
REMARK Flexibility Score: inf
ROOT
ATOM      1  C   UNL A   1      33.803  34.584  30.043  1.00  0.00     0.202 C 
ENDROOT
BRANCH   1   2
ATOM      2  C   UNL A   1      35.026  33.681  29.815  1.00  0.00     0.261 C 
BRANCH   2   3
ATOM      3  O   UNL A   1      34.772  32.259  29.817  1.00  0.00    -0.460 OA
BRANCH   3   4
ATOM      4  C   UNL A   1      35.257  31.573  28.753  1.00  0.00     0.330 C 
ATOM      5  O   UNL A   1      34.813  31.613  27.614  1.00  0.00    -0.247 OA
BRANCH   4   6
ATOM      6  C   UNL A   1      36.435  30.725  29.064  1.00  0.00     0.094 C 
ATOM      7  C   UNL A   1      37.173  29.977  28.227  1.00  0.00     0.015 C 
BRANCH   7   8
ATOM      8  C   UNL A   1      38.425  29.316  28.643  1.00  0.00    -0.023 A 
ATOM      9  C   UNL A   1      40.795  29.025  28.120  1.00  0.00     0.041 A 
ATOM     10  C   UNL A   1      41.000  28.417  29.351  1.00  0.00     0.026 A 
ATOM     11  C   UNL A   1      39.493  29.338  27.744  1.00  0.00     0.034 A 
ATOM     12  C   UNL A   1      39.918  28.252  30.227  1.00  0.00     0.003 A 
ATOM     13  C   UNL A   1      38.642  28.727  29.887  1.00  0.00     0.008 A 
BRANCH   9  14
ATOM     14  N   UNL A   1      41.867  29.286  27.250  1.00  0.00    -0.326 N 
ATOM     15  C   UNL A   1      42.516  28.404  26.408  1.00  0.00     0.224 C 
ATOM     16  O   UNL A   1      43.658  28.661  26.023  1.00  0.00    -0.275 OA
ATOM     17  H   UNL A   1      42.196  30.213  27.239  1.00  0.00     0.169 HD
BRANCH  15  18
ATOM     18  C   UNL A   1      41.718  27.252  25.787  1.00  0.00     0.106 C 
BRANCH  18  19
ATOM     19  C   UNL A   1      41.885  25.848  26.405  1.00  0.00     0.021 C 
ATOM     20  C   UNL A   1      40.526  25.388  26.959  1.00  0.00     0.010 C 
BRANCH  19  21
ATOM     21  C   UNL A   1      42.918  25.842  27.535  1.00  0.00     0.163 C 
BRANCH  21  22
ATOM     22  O   UNL A   1      42.956  24.595  28.225  1.00  0.00    -0.384 OA
ATOM     23  C   UNL A   1      43.805  23.659  27.565  1.00  0.00     0.194 C 
ENDBRANCH  21  22
ENDBRANCH  19  21
ENDBRANCH  18  19
ENDBRANCH  15  18
ENDBRANCH   9  14
ENDBRANCH   7   8
ENDBRANCH   4   6
ENDBRANCH   3   4
ENDBRANCH   2   3
ENDBRANCH   1   2
BRANCH   1  24
ATOM     24  O   UNL A   1      33.248  34.686  31.347  1.00  0.00    -0.376 OA
BRANCH  24  25
ATOM     25  C   UNL A   1      34.118  34.753  32.470  1.00  0.00     0.188 C 
BRANCH  25  26
ATOM     26  C   UNL A   1      34.430  33.474  33.273  1.00  0.00     0.188 C 
BRANCH  26  27
ATOM     27  O   UNL A   1      35.799  33.175  33.384  1.00  0.00    -0.376 OA
BRANCH  27  28
ATOM     28  C   UNL A   1      36.619  33.997  34.194  1.00  0.00     0.202 C 
BRANCH  28  29
ATOM     29  C   UNL A   1      36.798  33.789  35.714  1.00  0.00     0.261 C 
BRANCH  29  30
ATOM     30  O   UNL A   1      38.062  33.303  36.189  1.00  0.00    -0.460 OA
BRANCH  30  31
ATOM     31  C   UNL A   1      38.250  31.963  36.196  1.00  0.00     0.338 C 
ATOM     32  O   UNL A   1      37.583  31.129  36.790  1.00  0.00    -0.246 OA
BRANCH  31  33
ATOM     33  C   UNL A   1      39.277  31.633  35.184  1.00  0.00     0.060 A 
ATOM     34  C   UNL A   1      38.890  30.926  34.035  1.00  0.00     0.016 A 
ATOM     35  C   UNL A   1      40.605  32.027  35.354  1.00  0.00     0.016 A 
ATOM     36  C   UNL A   1      39.837  30.593  33.064  1.00  0.00     0.010 A 
ATOM     37  C   UNL A   1      41.557  31.671  34.390  1.00  0.00     0.010 A 
ATOM     38  C   UNL A   1      41.184  30.930  33.254  1.00  0.00    -0.014 A 
BRANCH  38  39
ATOM     39  C   UNL A   1      42.217  30.367  32.347  1.00  0.00     0.031 A 
ATOM     40  C   UNL A   1      42.677  31.190  31.175  1.00  0.00     0.074 A 
ATOM     41  C   UNL A   1      42.757  29.156  32.568  1.00  0.00     0.049 A 
ATOM     42  N   UNL A   1      43.556  30.899  30.249  1.00  0.00    -0.248 NA
ATOM     43  C   UNL A   1      42.061  32.519  31.028  1.00  0.00     0.031 C 
ATOM     44  C   UNL A   1      42.427  28.270  33.682  1.00  0.00     0.029 A 
ATOM     45  N   UNL A   1      43.700  28.460  31.850  1.00  0.00    -0.354 N 
ATOM     46  C   UNL A   1      43.588  32.002  29.402  1.00  0.00     0.074 A 
ATOM     47  C   UNL A   1      42.623  32.953  29.910  1.00  0.00     0.031 C 
ATOM     48  C   UNL A   1      43.151  27.141  33.568  1.00  0.00     0.029 A 
ATOM     49  C   UNL A   1      43.968  27.213  32.357  1.00  0.00     0.049 A 
ATOM     50  H   UNL A   1      44.142  28.823  31.048  1.00  0.00     0.167 HD
ATOM     51  C   UNL A   1      44.353  32.206  28.303  1.00  0.00     0.031 A 
ATOM     52  C   UNL A   1      44.762  26.231  31.887  1.00  0.00     0.031 A 
ATOM     53  C   UNL A   1      45.299  31.255  27.785  1.00  0.00     0.049 A 
ATOM     54  C   UNL A   1      45.551  26.453  30.623  1.00  0.00     0.074 A 
ATOM     55  C   UNL A   1      46.142  31.385  26.695  1.00  0.00     0.029 A 
ATOM     56  N   UNL A   1      45.514  29.988  28.307  1.00  0.00    -0.354 N 
ATOM     57  N   UNL A   1      45.611  27.518  29.860  1.00  0.00    -0.248 NA
ATOM     58  C   UNL A   1      46.392  25.337  30.163  1.00  0.00     0.031 C 
ATOM     59  C   UNL A   1      46.815  30.171  26.514  1.00  0.00     0.029 A 
ATOM     60  C   UNL A   1      46.448  29.312  27.538  1.00  0.00     0.049 A 
ATOM     61  H   UNL A   1      45.069  29.624  29.107  1.00  0.00     0.167 HD
ATOM     62  C   UNL A   1      46.512  27.210  28.846  1.00  0.00     0.074 A 
ATOM     63  C   UNL A   1      46.989  25.868  29.105  1.00  0.00     0.031 C 
ATOM     64  C   UNL A   1      46.908  27.971  27.796  1.00  0.00     0.031 A 
BRANCH  51  65
ATOM     65  C   UNL A   1      44.157  33.499  27.557  1.00  0.00    -0.014 A 
ATOM     66  C   UNL A   1      44.660  34.715  28.045  1.00  0.00     0.009 A 
ATOM     67  C   UNL A   1      43.475  33.491  26.330  1.00  0.00     0.009 A 
ATOM     68  C   UNL A   1      44.449  35.902  27.339  1.00  0.00     0.001 A 
ATOM     69  C   UNL A   1      43.293  34.673  25.610  1.00  0.00     0.001 A 
ATOM     70  C   UNL A   1      43.770  35.879  26.120  1.00  0.00     0.000 A 
ENDBRANCH  51  65
BRANCH  52  71
ATOM     71  C   UNL A   1      44.834  24.928  32.603  1.00  0.00    -0.014 A 
ATOM     72  C   UNL A   1      43.984  23.867  32.257  1.00  0.00     0.009 A 
ATOM     73  C   UNL A   1      45.748  24.747  33.653  1.00  0.00     0.009 A 
ATOM     74  C   UNL A   1      44.035  22.661  32.962  1.00  0.00     0.001 A 
ATOM     75  C   UNL A   1      45.819  23.531  34.334  1.00  0.00     0.001 A 
ATOM     76  C   UNL A   1      44.956  22.492  33.994  1.00  0.00     0.000 A 
ENDBRANCH  52  71
BRANCH  64  77
ATOM     77  C   UNL A   1      47.933  27.383  26.861  1.00  0.00    -0.014 A 
ATOM     78  C   UNL A   1      47.555  26.645  25.728  1.00  0.00     0.009 A 
ATOM     79  C   UNL A   1      49.299  27.597  27.104  1.00  0.00     0.009 A 
ATOM     80  C   UNL A   1      48.525  26.100  24.884  1.00  0.00     0.001 A 
ATOM     81  C   UNL A   1      50.265  27.082  26.239  1.00  0.00     0.001 A 
ATOM     82  C   UNL A   1      49.878  26.323  25.137  1.00  0.00     0.000 A 
ENDBRANCH  64  77
ENDBRANCH  38  39
ENDBRANCH  31  33
ENDBRANCH  30  31
ENDBRANCH  29  30
ENDBRANCH  28  29
ENDBRANCH  27  28
ENDBRANCH  26  27
ENDBRANCH  25  26
ENDBRANCH  24  25
ENDBRANCH   1  24
TORSDOF 23
ENDMDL
MODEL 3
REMARK VINA RESULT:      -7.3      4.653     10.460
REMARK SMILES COC[C@@H](C)CC(=O)Nc1cccc(/C=C/C(=O)OCCOCCOCCOC(=O)c2ccc(-c3c4nc(c(-c5ccccc5)c5ccc([nH]5)c(-c5ccccc5)c5nc(c(-c6ccccc6)c6ccc3[nH]6)C=C5)C=C4)cc2)c1
REMARK SMILES IDX 21 1 20 2 19 3 17 4 18 5 16 6 15 7 14 8 10 9 11 10 79 11
REMARK SMILES IDX 12 12 13 13 9 14 7 15 8 16 6 18 4 19 5 20 3 21 2 22 1 23
REMARK SMILES IDX 22 24 23 25 24 26 25 27 26 28 27 29 28 30 29 31 30 32 31 33
REMARK SMILES IDX 32 34 78 35 33 36 77 37 34 38 35 39 36 40 71 41 37 42 76 43
REMARK SMILES IDX 70 44 72 45 38 46 75 47 69 48 68 49 39 51 61 52 46 53 60 54
REMARK SMILES IDX 47 55 50 56 59 57 73 58 48 59 49 60 58 62 74 63 51 64 40 65
REMARK SMILES IDX 41 66 45 67 42 68 44 69 43 70 62 71 63 72 67 73 64 74 66 75
REMARK SMILES IDX 65 76 52 77 53 78 57 79 54 80 56 81 55 82
REMARK H PARENT 9 17 72 50 50 61
REMARK Flexibility Score: inf
ROOT
ATOM      1  C   UNL A   1      39.213  23.561  26.405  1.00  0.00     0.202 C 
ENDROOT
BRANCH   1   2
ATOM      2  C   UNL A   1      38.257  22.357  26.364  1.00  0.00     0.261 C 
BRANCH   2   3
ATOM      3  O   UNL A   1      38.234  21.607  25.130  1.00  0.00    -0.460 OA
BRANCH   3   4
ATOM      4  C   UNL A   1      37.104  20.898  24.893  1.00  0.00     0.330 C 
ATOM      5  O   UNL A   1      37.011  19.678  24.891  1.00  0.00    -0.247 OA
BRANCH   4   6
ATOM      6  C   UNL A   1      35.907  21.736  24.630  1.00  0.00     0.094 C 
ATOM      7  C   UNL A   1      35.721  22.650  23.663  1.00  0.00     0.015 C 
BRANCH   7   8
ATOM      8  C   UNL A   1      34.415  23.290  23.412  1.00  0.00    -0.023 A 
ATOM      9  C   UNL A   1      33.309  25.336  22.661  1.00  0.00     0.041 A 
ATOM     10  C   UNL A   1      32.097  24.663  22.586  1.00  0.00     0.026 A 
ATOM     11  C   UNL A   1      34.406  24.670  23.196  1.00  0.00     0.034 A 
ATOM     12  C   UNL A   1      32.041  23.305  22.930  1.00  0.00     0.003 A 
ATOM     13  C   UNL A   1      33.200  22.614  23.312  1.00  0.00     0.008 A 
BRANCH   9  14
ATOM     14  N   UNL A   1      33.425  26.672  22.244  1.00  0.00    -0.326 N 
ATOM     15  C   UNL A   1      33.298  27.818  23.006  1.00  0.00     0.224 C 
ATOM     16  O   UNL A   1      33.027  28.886  22.456  1.00  0.00    -0.275 OA
ATOM     17  H   UNL A   1      33.622  26.810  21.290  1.00  0.00     0.169 HD
BRANCH  15  18
ATOM     18  C   UNL A   1      33.728  27.778  24.477  1.00  0.00     0.106 C 
BRANCH  18  19
ATOM     19  C   UNL A   1      32.633  27.546  25.539  1.00  0.00     0.021 C 
ATOM     20  C   UNL A   1      32.824  26.147  26.147  1.00  0.00     0.010 C 
BRANCH  19  21
ATOM     21  C   UNL A   1      31.227  27.648  24.940  1.00  0.00     0.163 C 
BRANCH  21  22
ATOM     22  O   UNL A   1      30.406  26.540  25.300  1.00  0.00    -0.384 OA
ATOM     23  C   UNL A   1      29.391  26.304  24.326  1.00  0.00     0.194 C 
ENDBRANCH  21  22
ENDBRANCH  19  21
ENDBRANCH  18  19
ENDBRANCH  15  18
ENDBRANCH   9  14
ENDBRANCH   7   8
ENDBRANCH   4   6
ENDBRANCH   3   4
ENDBRANCH   2   3
ENDBRANCH   1   2
BRANCH   1  24
ATOM     24  O   UNL A   1      40.572  23.357  26.765  1.00  0.00    -0.376 OA
BRANCH  24  25
ATOM     25  C   UNL A   1      40.990  22.069  27.201  1.00  0.00     0.188 C 
BRANCH  25  26
ATOM     26  C   UNL A   1      41.403  21.007  26.161  1.00  0.00     0.188 C 
BRANCH  26  27
ATOM     27  O   UNL A   1      42.148  19.937  26.687  1.00  0.00    -0.376 OA
BRANCH  27  28
ATOM     28  C   UNL A   1      42.758  19.021  25.796  1.00  0.00     0.202 C 
BRANCH  28  29
ATOM     29  C   UNL A   1      44.222  19.143  25.319  1.00  0.00     0.261 C 
BRANCH  29  30
ATOM     30  O   UNL A   1      44.899  20.392  25.518  1.00  0.00    -0.460 OA
BRANCH  30  31
ATOM     31  C   UNL A   1      44.707  21.358  24.592  1.00  0.00     0.338 C 
ATOM     32  O   UNL A   1      44.583  21.208  23.385  1.00  0.00    -0.246 OA
BRANCH  31  33
ATOM     33  C   UNL A   1      44.450  22.633  25.296  1.00  0.00     0.060 A 
ATOM     34  C   UNL A   1      44.053  23.751  24.548  1.00  0.00     0.016 A 
ATOM     35  C   UNL A   1      44.584  22.726  26.683  1.00  0.00     0.016 A 
ATOM     36  C   UNL A   1      43.809  24.971  25.183  1.00  0.00     0.010 A 
ATOM     37  C   UNL A   1      44.362  23.956  27.315  1.00  0.00     0.010 A 
ATOM     38  C   UNL A   1      44.000  25.091  26.566  1.00  0.00    -0.014 A 
BRANCH  38  39
ATOM     39  C   UNL A   1      43.977  26.435  27.196  1.00  0.00     0.031 A 
ATOM     40  C   UNL A   1      45.281  27.152  27.423  1.00  0.00     0.074 A 
ATOM     41  C   UNL A   1      42.820  27.026  27.544  1.00  0.00     0.049 A 
ATOM     42  N   UNL A   1      45.503  28.322  27.965  1.00  0.00    -0.248 NA
ATOM     43  C   UNL A   1      46.496  26.450  26.980  1.00  0.00     0.031 C 
ATOM     44  C   UNL A   1      41.487  26.460  27.351  1.00  0.00     0.029 A 
ATOM     45  N   UNL A   1      42.589  28.241  28.144  1.00  0.00    -0.354 N 
ATOM     46  C   UNL A   1      46.883  28.491  27.941  1.00  0.00     0.074 A 
ATOM     47  C   UNL A   1      47.445  27.293  27.356  1.00  0.00     0.031 C 
ATOM     48  C   UNL A   1      40.575  27.324  27.833  1.00  0.00     0.029 A 
ATOM     49  C   UNL A   1      41.261  28.485  28.397  1.00  0.00     0.049 A 
ATOM     50  H   UNL A   1      43.307  28.876  28.371  1.00  0.00     0.167 HD
ATOM     51  C   UNL A   1      47.616  29.549  28.364  1.00  0.00     0.031 A 
ATOM     52  C   UNL A   1      40.669  29.515  29.032  1.00  0.00     0.031 A 
ATOM     53  C   UNL A   1      47.061  30.732  28.964  1.00  0.00     0.049 A 
ATOM     54  C   UNL A   1      41.510  30.649  29.558  1.00  0.00     0.074 A 
ATOM     55  C   UNL A   1      47.722  31.869  29.397  1.00  0.00     0.029 A 
ATOM     56  N   UNL A   1      45.715  30.925  29.236  1.00  0.00    -0.354 N 
ATOM     57  N   UNL A   1      42.808  30.820  29.485  1.00  0.00    -0.248 NA
ATOM     58  C   UNL A   1      40.800  31.737  30.247  1.00  0.00     0.031 C 
ATOM     59  C   UNL A   1      46.785  32.719  29.995  1.00  0.00     0.029 A 
ATOM     60  C   UNL A   1      45.530  32.146  29.865  1.00  0.00     0.049 A 
ATOM     61  H   UNL A   1      44.998  30.289  29.013  1.00  0.00     0.167 HD
ATOM     62  C   UNL A   1      43.067  32.044  30.094  1.00  0.00     0.074 A 
ATOM     63  C   UNL A   1      41.788  32.580  30.510  1.00  0.00     0.031 C 
ATOM     64  C   UNL A   1      44.255  32.667  30.289  1.00  0.00     0.031 A 
BRANCH  51  65
ATOM     65  C   UNL A   1      49.112  29.446  28.236  1.00  0.00    -0.014 A 
ATOM     66  C   UNL A   1      49.903  28.887  29.254  1.00  0.00     0.009 A 
ATOM     67  C   UNL A   1      49.738  29.896  27.063  1.00  0.00     0.009 A 
ATOM     68  C   UNL A   1      51.291  28.818  29.114  1.00  0.00     0.001 A 
ATOM     69  C   UNL A   1      51.122  29.797  26.912  1.00  0.00     0.001 A 
ATOM     70  C   UNL A   1      51.899  29.269  27.942  1.00  0.00     0.000 A 
ENDBRANCH  51  65
BRANCH  52  71
ATOM     71  C   UNL A   1      39.194  29.514  29.232  1.00  0.00    -0.014 A 
ATOM     72  C   UNL A   1      38.333  30.033  28.252  1.00  0.00     0.009 A 
ATOM     73  C   UNL A   1      38.640  29.007  30.418  1.00  0.00     0.009 A 
ATOM     74  C   UNL A   1      36.952  30.062  28.466  1.00  0.00     0.001 A 
ATOM     75  C   UNL A   1      37.258  29.007  30.615  1.00  0.00     0.001 A 
ATOM     76  C   UNL A   1      36.416  29.544  29.644  1.00  0.00     0.000 A 
ENDBRANCH  52  71
BRANCH  64  77
ATOM     77  C   UNL A   1      44.229  34.016  30.957  1.00  0.00    -0.014 A 
ATOM     78  C   UNL A   1      44.345  34.148  32.351  1.00  0.00     0.009 A 
ATOM     79  C   UNL A   1      44.116  35.177  30.176  1.00  0.00     0.009 A 
ATOM     80  C   UNL A   1      44.306  35.410  32.948  1.00  0.00     0.001 A 
ATOM     81  C   UNL A   1      44.113  36.439  30.772  1.00  0.00     0.001 A 
ATOM     82  C   UNL A   1      44.195  36.554  32.158  1.00  0.00     0.000 A 
ENDBRANCH  64  77
ENDBRANCH  38  39
ENDBRANCH  31  33
ENDBRANCH  30  31
ENDBRANCH  29  30
ENDBRANCH  28  29
ENDBRANCH  27  28
ENDBRANCH  26  27
ENDBRANCH  25  26
ENDBRANCH  24  25
ENDBRANCH   1  24
TORSDOF 23
ENDMDL
