MODEL 1
REMARK VINA RESULT:      -9.6      0.000      0.000
REMARK SMILES CNC(=O)NC1=[NH+]N=CN[C@@H]1C(=O)OCCOCCOCCOC(=O)c1ccc(-c2c3nc(c(-c4ccccc4)c4ccc([nH]4)c(-c4ccccc4)c4nc(c(-c5ccccc5)c5ccc2[nH]5)C=C4)C=C3)cc1
REMARK SMILES IDX 19 1 18 2 17 3 16 4 15 5 14 6 12 7 13 8 11 9 1 10 2 11 3 12
REMARK SMILES IDX 4 14 5 15 6 16 7 18 8 19 10 21 9 22 20 24 21 25 22 26 23 27
REMARK SMILES IDX 24 28 25 29 26 30 27 31 73 32 28 33 72 34 29 35 30 36 31 37
REMARK SMILES IDX 66 38 32 39 71 40 65 41 67 42 33 43 70 44 64 45 63 46 34 48
REMARK SMILES IDX 56 49 41 50 55 51 42 52 45 53 54 54 68 55 43 56 44 57 53 59
REMARK SMILES IDX 69 60 46 61 35 62 36 63 40 64 37 65 39 66 38 67 57 68 58 69
REMARK SMILES IDX 62 70 59 71 61 72 60 73 47 74 48 75 52 76 49 77 51 78 50 79
REMARK H PARENT 2 13 5 17 7 20 10 23 67 47 45 58
REMARK Flexibility Score: inf
ROOT
ATOM      1  C   UNL A   1      34.698  33.094  29.501  1.00  0.00     0.188 C 
ENDROOT
BRANCH   1   2
ATOM      2  C   UNL A   1      35.033  32.030  28.451  1.00  0.00     0.188 C 
BRANCH   2   3
ATOM      3  O   UNL A   1      34.159  30.936  28.283  1.00  0.00    -0.376 OA
BRANCH   3   4
ATOM      4  C   UNL A   1      33.383  30.868  27.089  1.00  0.00     0.202 C 
BRANCH   4   5
ATOM      5  C   UNL A   1      32.478  29.652  26.817  1.00  0.00     0.261 C 
BRANCH   5   6
ATOM      6  O   UNL A   1      33.074  28.676  25.938  1.00  0.00    -0.461 OA
BRANCH   6   7
ATOM      7  C   UNL A   1      32.219  28.025  25.097  1.00  0.00     0.341 C 
ATOM      8  O   UNL A   1      31.526  27.075  25.446  1.00  0.00    -0.249 OA
BRANCH   7   9
ATOM      9  C   UNL A   1      32.053  28.738  23.744  1.00  0.00     0.308 C 
ATOM     10  C   UNL A   1      29.695  30.174  21.868  1.00  0.00     0.147 C 
ATOM     11  N   UNL A   1      29.024  29.289  22.801  1.00  0.00    -0.321 N 
ATOM     12  C   UNL A   1      29.199  27.955  22.990  1.00  0.00     0.406 C 
ATOM     13  H   UNL A   1      28.348  29.715  23.378  1.00  0.00     0.167 HD
ATOM     14  O   UNL A   1      28.325  27.305  23.555  1.00  0.00    -0.221 OA
ATOM     15  N   UNL A   1      30.336  27.372  22.511  1.00  0.00    -0.191 N 
ATOM     16  C   UNL A   1      31.654  27.712  22.691  1.00  0.00     0.311 C 
ATOM     17  H   UNL A   1      30.186  26.579  21.946  1.00  0.00     0.317 HD
ATOM     18  N   UNL A   1      32.512  27.104  21.929  1.00  0.00    -0.148 N 
ATOM     19  N   UNL A   1      33.855  27.548  21.938  1.00  0.00    -0.077 NA
ATOM     20  H   UNL A   1      32.234  26.351  21.357  1.00  0.00     0.342 HD
ATOM     21  N   UNL A   1      33.257  29.411  23.265  1.00  0.00    -0.350 N 
ATOM     22  C   UNL A   1      34.114  28.676  22.513  1.00  0.00     0.241 C 
ATOM     23  H   UNL A   1      33.439  30.355  23.480  1.00  0.00     0.163 HD
ENDBRANCH   7   9
ENDBRANCH   6   7
ENDBRANCH   5   6
ENDBRANCH   4   5
ENDBRANCH   3   4
ENDBRANCH   2   3
ENDBRANCH   1   2
BRANCH   1  24
ATOM     24  O   UNL A   1      33.482  33.796  29.449  1.00  0.00    -0.376 OA
BRANCH  24  25
ATOM     25  C   UNL A   1      33.421  35.162  29.042  1.00  0.00     0.202 C 
BRANCH  25  26
ATOM     26  C   UNL A   1      32.798  36.347  29.824  1.00  0.00     0.261 C 
BRANCH  26  27
ATOM     27  O   UNL A   1      33.218  36.593  31.167  1.00  0.00    -0.460 OA
BRANCH  27  28
ATOM     28  C   UNL A   1      32.768  35.716  32.099  1.00  0.00     0.338 C 
ATOM     29  O   UNL A   1      31.606  35.404  32.314  1.00  0.00    -0.246 OA
BRANCH  28  30
ATOM     30  C   UNL A   1      33.935  34.959  32.609  1.00  0.00     0.060 A 
ATOM     31  C   UNL A   1      35.200  35.570  32.561  1.00  0.00     0.016 A 
ATOM     32  C   UNL A   1      33.787  33.693  33.174  1.00  0.00     0.016 A 
ATOM     33  C   UNL A   1      36.324  34.906  33.049  1.00  0.00     0.010 A 
ATOM     34  C   UNL A   1      34.919  33.012  33.629  1.00  0.00     0.010 A 
ATOM     35  C   UNL A   1      36.197  33.601  33.538  1.00  0.00    -0.014 A 
BRANCH  35  36
ATOM     36  C   UNL A   1      37.404  32.763  33.730  1.00  0.00     0.031 A 
ATOM     37  C   UNL A   1      38.208  32.966  34.987  1.00  0.00     0.074 A 
ATOM     38  C   UNL A   1      37.790  31.843  32.828  1.00  0.00     0.049 A 
ATOM     39  N   UNL A   1      39.350  32.438  35.338  1.00  0.00    -0.248 NA
ATOM     40  C   UNL A   1      37.641  33.897  35.977  1.00  0.00     0.031 C 
ATOM     41  C   UNL A   1      37.073  31.498  31.603  1.00  0.00     0.029 A 
ATOM     42  N   UNL A   1      38.903  31.038  32.807  1.00  0.00    -0.354 N 
ATOM     43  C   UNL A   1      39.650  32.988  36.579  1.00  0.00     0.074 A 
ATOM     44  C   UNL A   1      38.582  33.905  36.908  1.00  0.00     0.031 C 
ATOM     45  C   UNL A   1      37.776  30.562  30.939  1.00  0.00     0.029 A 
ATOM     46  C   UNL A   1      39.010  30.277  31.670  1.00  0.00     0.049 A 
ATOM     47  H   UNL A   1      39.561  31.011  33.539  1.00  0.00     0.167 HD
ATOM     48  C   UNL A   1      40.719  32.754  37.375  1.00  0.00     0.031 A 
ATOM     49  C   UNL A   1      40.007  29.470  31.254  1.00  0.00     0.031 A 
ATOM     50  C   UNL A   1      41.793  31.857  37.044  1.00  0.00     0.049 A 
ATOM     51  C   UNL A   1      41.237  29.301  32.111  1.00  0.00     0.074 A 
ATOM     52  C   UNL A   1      42.916  31.547  37.789  1.00  0.00     0.029 A 
ATOM     53  N   UNL A   1      41.883  31.136  35.864  1.00  0.00    -0.354 N 
ATOM     54  N   UNL A   1      41.505  29.814  33.288  1.00  0.00    -0.248 NA
ATOM     55  C   UNL A   1      42.300  28.435  31.580  1.00  0.00     0.031 C 
ATOM     56  C   UNL A   1      43.718  30.688  37.033  1.00  0.00     0.029 A 
ATOM     57  C   UNL A   1      43.058  30.404  35.848  1.00  0.00     0.049 A 
ATOM     58  H   UNL A   1      41.211  31.142  35.144  1.00  0.00     0.167 HD
ATOM     59  C   UNL A   1      42.747  29.304  33.651  1.00  0.00     0.074 A 
ATOM     60  C   UNL A   1      43.174  28.432  32.577  1.00  0.00     0.031 C 
ATOM     61  C   UNL A   1      43.470  29.535  34.776  1.00  0.00     0.031 A 
BRANCH  48  62
ATOM     62  C   UNL A   1      40.800  33.522  38.664  1.00  0.00    -0.014 A 
ATOM     63  C   UNL A   1      40.355  32.971  39.877  1.00  0.00     0.009 A 
ATOM     64  C   UNL A   1      41.355  34.812  38.668  1.00  0.00     0.009 A 
ATOM     65  C   UNL A   1      40.431  33.711  41.059  1.00  0.00     0.001 A 
ATOM     66  C   UNL A   1      41.459  35.536  39.856  1.00  0.00     0.001 A 
ATOM     67  C   UNL A   1      40.988  34.990  41.048  1.00  0.00     0.000 A 
ENDBRANCH  48  62
BRANCH  49  68
ATOM     68  C   UNL A   1      39.912  28.778  29.939  1.00  0.00    -0.014 A 
ATOM     69  C   UNL A   1      39.437  27.459  29.857  1.00  0.00     0.009 A 
ATOM     70  C   UNL A   1      40.332  29.419  28.763  1.00  0.00     0.009 A 
ATOM     71  C   UNL A   1      39.414  26.789  28.632  1.00  0.00     0.001 A 
ATOM     72  C   UNL A   1      40.276  28.758  27.534  1.00  0.00     0.001 A 
ATOM     73  C   UNL A   1      39.828  27.440  27.471  1.00  0.00     0.000 A 
ENDBRANCH  49  68
BRANCH  61  74
ATOM     74  C   UNL A   1      44.771  28.796  34.933  1.00  0.00    -0.014 A 
ATOM     75  C   UNL A   1      45.990  29.347  34.507  1.00  0.00     0.009 A 
ATOM     76  C   UNL A   1      44.781  27.542  35.568  1.00  0.00     0.009 A 
ATOM     77  C   UNL A   1      47.184  28.643  34.681  1.00  0.00     0.001 A 
ATOM     78  C   UNL A   1      45.979  26.857  35.772  1.00  0.00     0.001 A 
ATOM     79  C   UNL A   1      47.179  27.402  35.318  1.00  0.00     0.000 A 
ENDBRANCH  61  74
ENDBRANCH  35  36
ENDBRANCH  28  30
ENDBRANCH  27  28
ENDBRANCH  26  27
ENDBRANCH  25  26
ENDBRANCH  24  25
ENDBRANCH   1  24
TORSDOF 17
ENDMDL
MODEL 2
REMARK VINA RESULT:      -9.4      4.855      7.287
REMARK SMILES CNC(=O)NC1=[NH+]N=CN[C@@H]1C(=O)OCCOCCOCCOC(=O)c1ccc(-c2c3nc(c(-c4ccccc4)c4ccc([nH]4)c(-c4ccccc4)c4nc(c(-c5ccccc5)c5ccc2[nH]5)C=C4)C=C3)cc1
REMARK SMILES IDX 19 1 18 2 17 3 16 4 15 5 14 6 12 7 13 8 11 9 1 10 2 11 3 12
REMARK SMILES IDX 4 14 5 15 6 16 7 18 8 19 10 21 9 22 20 24 21 25 22 26 23 27
REMARK SMILES IDX 24 28 25 29 26 30 27 31 73 32 28 33 72 34 29 35 30 36 31 37
REMARK SMILES IDX 66 38 32 39 71 40 65 41 67 42 33 43 70 44 64 45 63 46 34 48
REMARK SMILES IDX 56 49 41 50 55 51 42 52 45 53 54 54 68 55 43 56 44 57 53 59
REMARK SMILES IDX 69 60 46 61 35 62 36 63 40 64 37 65 39 66 38 67 57 68 58 69
REMARK SMILES IDX 62 70 59 71 61 72 60 73 47 74 48 75 52 76 49 77 51 78 50 79
REMARK H PARENT 2 13 5 17 7 20 10 23 67 47 45 58
REMARK Flexibility Score: inf
ROOT
ATOM      1  C   UNL A   1      32.546  27.380  23.908  1.00  0.00     0.188 C 
ENDROOT
BRANCH   1   2
ATOM      2  C   UNL A   1      33.526  27.329  22.732  1.00  0.00     0.188 C 
BRANCH   2   3
ATOM      3  O   UNL A   1      33.707  26.111  22.044  1.00  0.00    -0.376 OA
BRANCH   3   4
ATOM      4  C   UNL A   1      33.687  24.900  22.795  1.00  0.00     0.202 C 
BRANCH   4   5
ATOM      5  C   UNL A   1      32.732  23.757  22.403  1.00  0.00     0.261 C 
BRANCH   5   6
ATOM      6  O   UNL A   1      33.235  22.448  22.739  1.00  0.00    -0.461 OA
BRANCH   6   7
ATOM      7  C   UNL A   1      33.018  22.033  24.022  1.00  0.00     0.341 C 
ATOM      8  O   UNL A   1      31.933  22.129  24.585  1.00  0.00    -0.249 OA
BRANCH   7   9
ATOM      9  C   UNL A   1      34.202  21.239  24.601  1.00  0.00     0.308 C 
ATOM     10  C   UNL A   1      35.421  18.132  24.676  1.00  0.00     0.147 C 
ATOM     11  N   UNL A   1      34.013  18.034  24.342  1.00  0.00    -0.321 N 
ATOM     12  C   UNL A   1      32.937  18.493  25.035  1.00  0.00     0.406 C 
ATOM     13  H   UNL A   1      33.808  17.573  23.497  1.00  0.00     0.167 HD
ATOM     14  O   UNL A   1      31.826  18.029  24.801  1.00  0.00    -0.221 OA
ATOM     15  N   UNL A   1      33.136  19.438  25.999  1.00  0.00    -0.191 N 
ATOM     16  C   UNL A   1      33.788  20.645  25.941  1.00  0.00     0.311 C 
ATOM     17  H   UNL A   1      32.748  19.218  26.877  1.00  0.00     0.317 HD
ATOM     18  N   UNL A   1      34.011  21.231  27.079  1.00  0.00    -0.148 N 
ATOM     19  N   UNL A   1      34.840  22.377  27.095  1.00  0.00    -0.077 NA
ATOM     20  H   UNL A   1      33.612  20.886  27.910  1.00  0.00     0.342 HD
ATOM     21  N   UNL A   1      35.407  22.031  24.826  1.00  0.00    -0.350 N 
ATOM     22  C   UNL A   1      35.525  22.642  26.031  1.00  0.00     0.241 C 
ATOM     23  H   UNL A   1      36.103  22.118  24.133  1.00  0.00     0.163 HD
ENDBRANCH   7   9
ENDBRANCH   6   7
ENDBRANCH   5   6
ENDBRANCH   4   5
ENDBRANCH   3   4
ENDBRANCH   2   3
ENDBRANCH   1   2
BRANCH   1  24
ATOM     24  O   UNL A   1      32.269  28.594  24.559  1.00  0.00    -0.376 OA
BRANCH  24  25
ATOM     25  C   UNL A   1      31.815  28.633  25.911  1.00  0.00     0.202 C 
BRANCH  25  26
ATOM     26  C   UNL A   1      32.680  28.796  27.187  1.00  0.00     0.261 C 
BRANCH  26  27
ATOM     27  O   UNL A   1      34.080  29.049  27.052  1.00  0.00    -0.460 OA
BRANCH  27  28
ATOM     28  C   UNL A   1      34.544  30.161  27.676  1.00  0.00     0.338 C 
ATOM     29  O   UNL A   1      33.891  31.131  28.032  1.00  0.00    -0.246 OA
BRANCH  28  30
ATOM     30  C   UNL A   1      35.924  29.878  28.136  1.00  0.00     0.060 A 
ATOM     31  C   UNL A   1      36.986  30.117  27.248  1.00  0.00     0.016 A 
ATOM     32  C   UNL A   1      36.177  29.435  29.434  1.00  0.00     0.016 A 
ATOM     33  C   UNL A   1      38.303  29.887  27.644  1.00  0.00     0.010 A 
ATOM     34  C   UNL A   1      37.494  29.168  29.818  1.00  0.00     0.010 A 
ATOM     35  C   UNL A   1      38.559  29.361  28.915  1.00  0.00    -0.014 A 
BRANCH  35  36
ATOM     36  C   UNL A   1      39.892  28.788  29.223  1.00  0.00     0.031 A 
ATOM     37  C   UNL A   1      40.877  29.657  29.958  1.00  0.00     0.074 A 
ATOM     38  C   UNL A   1      40.233  27.536  28.869  1.00  0.00     0.049 A 
ATOM     39  N   UNL A   1      42.130  29.430  30.252  1.00  0.00    -0.248 NA
ATOM     40  C   UNL A   1      40.374  30.961  30.422  1.00  0.00     0.031 C 
ATOM     41  C   UNL A   1      39.359  26.567  28.213  1.00  0.00     0.029 A 
ATOM     42  N   UNL A   1      41.429  26.875  29.008  1.00  0.00    -0.354 N 
ATOM     43  C   UNL A   1      42.571  30.569  30.912  1.00  0.00     0.074 A 
ATOM     44  C   UNL A   1      41.460  31.493  30.958  1.00  0.00     0.031 C 
ATOM     45  C   UNL A   1      40.056  25.438  27.989  1.00  0.00     0.029 A 
ATOM     46  C   UNL A   1      41.433  25.623  28.445  1.00  0.00     0.049 A 
ATOM     47  H   UNL A   1      42.209  27.262  29.467  1.00  0.00     0.167 HD
ATOM     48  C   UNL A   1      43.793  30.828  31.435  1.00  0.00     0.031 A 
ATOM     49  C   UNL A   1      42.442  24.743  28.287  1.00  0.00     0.031 A 
ATOM     50  C   UNL A   1      44.906  29.920  31.376  1.00  0.00     0.049 A 
ATOM     51  C   UNL A   1      43.822  25.093  28.787  1.00  0.00     0.074 A 
ATOM     52  C   UNL A   1      46.182  30.089  31.883  1.00  0.00     0.029 A 
ATOM     53  N   UNL A   1      44.880  28.678  30.761  1.00  0.00    -0.354 N 
ATOM     54  N   UNL A   1      44.226  26.166  29.424  1.00  0.00    -0.248 NA
ATOM     55  C   UNL A   1      44.884  24.102  28.551  1.00  0.00     0.031 C 
ATOM     56  C   UNL A   1      46.946  28.976  31.519  1.00  0.00     0.029 A 
ATOM     57  C   UNL A   1      46.126  28.082  30.851  1.00  0.00     0.049 A 
ATOM     58  H   UNL A   1      44.092  28.279  30.326  1.00  0.00     0.167 HD
ATOM     59  C   UNL A   1      45.577  25.963  29.693  1.00  0.00     0.074 A 
ATOM     60  C   UNL A   1      45.918  24.660  29.163  1.00  0.00     0.031 C 
ATOM     61  C   UNL A   1      46.454  26.782  30.324  1.00  0.00     0.031 A 
BRANCH  48  62
ATOM     62  C   UNL A   1      43.999  32.172  32.075  1.00  0.00    -0.014 A 
ATOM     63  C   UNL A   1      44.434  33.281  31.332  1.00  0.00     0.009 A 
ATOM     64  C   UNL A   1      43.732  32.335  33.444  1.00  0.00     0.009 A 
ATOM     65  C   UNL A   1      44.630  34.516  31.954  1.00  0.00     0.001 A 
ATOM     66  C   UNL A   1      43.897  33.579  34.056  1.00  0.00     0.001 A 
ATOM     67  C   UNL A   1      44.356  34.665  33.313  1.00  0.00     0.000 A 
ENDBRANCH  48  62
BRANCH  49  68
ATOM     68  C   UNL A   1      42.207  23.448  27.591  1.00  0.00    -0.014 A 
ATOM     69  C   UNL A   1      41.727  22.333  28.295  1.00  0.00     0.009 A 
ATOM     70  C   UNL A   1      42.499  23.310  26.224  1.00  0.00     0.009 A 
ATOM     71  C   UNL A   1      41.572  21.101  27.654  1.00  0.00     0.001 A 
ATOM     72  C   UNL A   1      42.311  22.086  25.578  1.00  0.00     0.001 A 
ATOM     73  C   UNL A   1      41.859  20.981  26.295  1.00  0.00     0.000 A 
ENDBRANCH  49  68
BRANCH  61  74
ATOM     74  C   UNL A   1      47.857  26.276  30.531  1.00  0.00    -0.014 A 
ATOM     75  C   UNL A   1      48.834  26.382  29.528  1.00  0.00     0.009 A 
ATOM     76  C   UNL A   1      48.218  25.728  31.773  1.00  0.00     0.009 A 
ATOM     77  C   UNL A   1      50.132  25.917  29.755  1.00  0.00     0.001 A 
ATOM     78  C   UNL A   1      49.524  25.297  32.008  1.00  0.00     0.001 A 
ATOM     79  C   UNL A   1      50.477  25.381  30.996  1.00  0.00     0.000 A 
ENDBRANCH  61  74
ENDBRANCH  35  36
ENDBRANCH  28  30
ENDBRANCH  27  28
ENDBRANCH  26  27
ENDBRANCH  25  26
ENDBRANCH  24  25
ENDBRANCH   1  24
TORSDOF 17
ENDMDL
MODEL 3
REMARK VINA RESULT:      -9.4      4.556      9.373
REMARK SMILES CNC(=O)NC1=[NH+]N=CN[C@@H]1C(=O)OCCOCCOCCOC(=O)c1ccc(-c2c3nc(c(-c4ccccc4)c4ccc([nH]4)c(-c4ccccc4)c4nc(c(-c5ccccc5)c5ccc2[nH]5)C=C4)C=C3)cc1
REMARK SMILES IDX 19 1 18 2 17 3 16 4 15 5 14 6 12 7 13 8 11 9 1 10 2 11 3 12
REMARK SMILES IDX 4 14 5 15 6 16 7 18 8 19 10 21 9 22 20 24 21 25 22 26 23 27
REMARK SMILES IDX 24 28 25 29 26 30 27 31 73 32 28 33 72 34 29 35 30 36 31 37
REMARK SMILES IDX 66 38 32 39 71 40 65 41 67 42 33 43 70 44 64 45 63 46 34 48
REMARK SMILES IDX 56 49 41 50 55 51 42 52 45 53 54 54 68 55 43 56 44 57 53 59
REMARK SMILES IDX 69 60 46 61 35 62 36 63 40 64 37 65 39 66 38 67 57 68 58 69
REMARK SMILES IDX 62 70 59 71 61 72 60 73 47 74 48 75 52 76 49 77 51 78 50 79
REMARK H PARENT 2 13 5 17 7 20 10 23 67 47 45 58
REMARK Flexibility Score: inf
ROOT
ATOM      1  C   UNL A   1      41.231  21.465  25.894  1.00  0.00     0.188 C 
ENDROOT
BRANCH   1   2
ATOM      2  C   UNL A   1      39.719  21.419  26.135  1.00  0.00     0.188 C 
BRANCH   2   3
ATOM      3  O   UNL A   1      38.959  20.401  25.522  1.00  0.00    -0.376 OA
BRANCH   3   4
ATOM      4  C   UNL A   1      37.685  20.741  24.979  1.00  0.00     0.202 C 
BRANCH   4   5
ATOM      5  C   UNL A   1      37.254  22.216  24.875  1.00  0.00     0.261 C 
BRANCH   5   6
ATOM      6  O   UNL A   1      35.835  22.386  24.680  1.00  0.00    -0.461 OA
BRANCH   6   7
ATOM      7  C   UNL A   1      35.304  23.560  25.133  1.00  0.00     0.341 C 
ATOM      8  O   UNL A   1      35.979  24.461  25.618  1.00  0.00    -0.249 OA
BRANCH   7   9
ATOM      9  C   UNL A   1      33.817  23.721  24.770  1.00  0.00     0.308 C 
ATOM     10  C   UNL A   1      30.817  22.547  25.646  1.00  0.00     0.147 C 
ATOM     11  N   UNL A   1      31.804  21.581  26.088  1.00  0.00    -0.321 N 
ATOM     12  C   UNL A   1      32.743  20.923  25.357  1.00  0.00     0.406 C 
ATOM     13  H   UNL A   1      31.792  21.373  27.051  1.00  0.00     0.167 HD
ATOM     14  O   UNL A   1      33.250  19.901  25.807  1.00  0.00    -0.221 OA
ATOM     15  N   UNL A   1      33.067  21.407  24.124  1.00  0.00    -0.191 N 
ATOM     16  C   UNL A   1      33.446  22.669  23.734  1.00  0.00     0.311 C 
ATOM     17  H   UNL A   1      33.022  20.745  23.396  1.00  0.00     0.317 HD
ATOM     18  N   UNL A   1      33.475  22.888  22.454  1.00  0.00    -0.148 N 
ATOM     19  N   UNL A   1      33.673  24.214  22.003  1.00  0.00    -0.077 NA
ATOM     20  H   UNL A   1      33.361  22.149  21.813  1.00  0.00     0.342 HD
ATOM     21  N   UNL A   1      33.470  25.025  24.214  1.00  0.00    -0.350 N 
ATOM     22  C   UNL A   1      33.576  25.168  22.870  1.00  0.00     0.241 C 
ATOM     23  H   UNL A   1      33.172  25.768  24.790  1.00  0.00     0.163 HD
ENDBRANCH   7   9
ENDBRANCH   6   7
ENDBRANCH   5   6
ENDBRANCH   4   5
ENDBRANCH   3   4
ENDBRANCH   2   3
ENDBRANCH   1   2
BRANCH   1  24
ATOM     24  O   UNL A   1      41.957  20.284  25.663  1.00  0.00    -0.376 OA
BRANCH  24  25
ATOM     25  C   UNL A   1      43.380  20.250  25.752  1.00  0.00     0.202 C 
BRANCH  25  26
ATOM     26  C   UNL A   1      44.370  21.390  25.402  1.00  0.00     0.261 C 
BRANCH  26  27
ATOM     27  O   UNL A   1      44.389  22.569  26.209  1.00  0.00    -0.460 OA
BRANCH  27  28
ATOM     28  C   UNL A   1      44.294  23.746  25.541  1.00  0.00     0.338 C 
ATOM     29  O   UNL A   1      44.526  23.940  24.357  1.00  0.00    -0.246 OA
BRANCH  28  30
ATOM     30  C   UNL A   1      43.562  24.700  26.408  1.00  0.00     0.060 A 
ATOM     31  C   UNL A   1      43.869  26.068  26.304  1.00  0.00     0.016 A 
ATOM     32  C   UNL A   1      42.557  24.268  27.272  1.00  0.00     0.016 A 
ATOM     33  C   UNL A   1      43.192  27.004  27.083  1.00  0.00     0.010 A 
ATOM     34  C   UNL A   1      41.904  25.203  28.080  1.00  0.00     0.010 A 
ATOM     35  C   UNL A   1      42.241  26.570  28.014  1.00  0.00    -0.014 A 
BRANCH  35  36
ATOM     36  C   UNL A   1      41.775  27.491  29.078  1.00  0.00     0.031 A 
ATOM     37  C   UNL A   1      42.529  27.496  30.381  1.00  0.00     0.074 A 
ATOM     38  C   UNL A   1      40.719  28.306  28.910  1.00  0.00     0.049 A 
ATOM     39  N   UNL A   1      42.262  28.127  31.495  1.00  0.00    -0.248 NA
ATOM     40  C   UNL A   1      43.748  26.672  30.430  1.00  0.00     0.031 C 
ATOM     41  C   UNL A   1      39.940  28.450  27.682  1.00  0.00     0.029 A 
ATOM     42  N   UNL A   1      40.113  29.161  29.798  1.00  0.00    -0.354 N 
ATOM     43  C   UNL A   1      43.265  27.759  32.382  1.00  0.00     0.074 A 
ATOM     44  C   UNL A   1      44.133  26.835  31.686  1.00  0.00     0.031 C 
ATOM     45  C   UNL A   1      38.945  29.329  27.901  1.00  0.00     0.029 A 
ATOM     46  C   UNL A   1      38.993  29.773  29.294  1.00  0.00     0.049 A 
ATOM     47  H   UNL A   1      40.450  29.318  30.709  1.00  0.00     0.167 HD
ATOM     48  C   UNL A   1      43.450  28.152  33.664  1.00  0.00     0.031 A 
ATOM     49  C   UNL A   1      38.091  30.572  29.899  1.00  0.00     0.031 A 
ATOM     50  C   UNL A   1      42.580  29.056  34.366  1.00  0.00     0.049 A 
ATOM     51  C   UNL A   1      38.261  30.918  31.358  1.00  0.00     0.074 A 
ATOM     52  C   UNL A   1      42.690  29.521  35.664  1.00  0.00     0.029 A 
ATOM     53  N   UNL A   1      41.434  29.623  33.832  1.00  0.00    -0.354 N 
ATOM     54  N   UNL A   1      39.220  30.577  32.185  1.00  0.00    -0.248 NA
ATOM     55  C   UNL A   1      37.222  31.765  31.964  1.00  0.00     0.031 C 
ATOM     56  C   UNL A   1      41.574  30.317  35.937  1.00  0.00     0.029 A 
ATOM     57  C   UNL A   1      40.810  30.409  34.785  1.00  0.00     0.049 A 
ATOM     58  H   UNL A   1      41.112  29.486  32.912  1.00  0.00     0.167 HD
ATOM     59  C   UNL A   1      38.919  31.197  33.394  1.00  0.00     0.074 A 
ATOM     60  C   UNL A   1      37.696  31.944  33.188  1.00  0.00     0.031 C 
ATOM     61  C   UNL A   1      39.596  31.153  34.568  1.00  0.00     0.031 A 
BRANCH  48  62
ATOM     62  C   UNL A   1      44.618  27.563  34.405  1.00  0.00    -0.014 A 
ATOM     63  C   UNL A   1      45.863  28.210  34.447  1.00  0.00     0.009 A 
ATOM     64  C   UNL A   1      44.461  26.349  35.091  1.00  0.00     0.009 A 
ATOM     65  C   UNL A   1      46.936  27.635  35.133  1.00  0.00     0.001 A 
ATOM     66  C   UNL A   1      45.525  25.793  35.803  1.00  0.00     0.001 A 
ATOM     67  C   UNL A   1      46.764  26.431  35.814  1.00  0.00     0.000 A 
ENDBRANCH  48  62
BRANCH  49  68
ATOM     68  C   UNL A   1      36.914  31.083  29.144  1.00  0.00    -0.014 A 
ATOM     69  C   UNL A   1      35.854  30.227  28.805  1.00  0.00     0.009 A 
ATOM     70  C   UNL A   1      36.862  32.421  28.722  1.00  0.00     0.009 A 
ATOM     71  C   UNL A   1      34.784  30.693  28.037  1.00  0.00     0.001 A 
ATOM     72  C   UNL A   1      35.775  32.892  27.984  1.00  0.00     0.001 A 
ATOM     73  C   UNL A   1      34.743  32.026  27.632  1.00  0.00     0.000 A 
ENDBRANCH  49  68
BRANCH  61  74
ATOM     74  C   UNL A   1      39.065  31.977  35.711  1.00  0.00    -0.014 A 
ATOM     75  C   UNL A   1      38.165  31.445  36.648  1.00  0.00     0.009 A 
ATOM     76  C   UNL A   1      39.516  33.297  35.879  1.00  0.00     0.009 A 
ATOM     77  C   UNL A   1      37.702  32.230  37.707  1.00  0.00     0.001 A 
ATOM     78  C   UNL A   1      39.079  34.067  36.957  1.00  0.00     0.001 A 
ATOM     79  C   UNL A   1      38.164  33.538  37.865  1.00  0.00     0.000 A 
ENDBRANCH  61  74
ENDBRANCH  35  36
ENDBRANCH  28  30
ENDBRANCH  27  28
ENDBRANCH  26  27
ENDBRANCH  25  26
ENDBRANCH  24  25
ENDBRANCH   1  24
TORSDOF 17
ENDMDL
