MODEL 1
REMARK VINA RESULT:      -7.6      0.000      0.000
REMARK SMILES CC[C@H](C(=O)OCCOCCOCCOC(=O)c1ccc(-c2c3nc(c(-c4ccccc4)c4ccc([nH]4)c(-c4ccccc4)c4nc(c(-c5ccccc5)c5ccc2[nH]5)C=C4)C=C3)cc1)N1C(=O)/C(=C\c2cccs2)SC1=S
REMARK SMILES IDX 10 1 9 2 8 3 7 4 6 5 4 6 5 7 3 8 2 9 1 10 66 11 67 12 77 13
REMARK SMILES IDX 68 14 69 15 76 16 78 17 70 18 71 19 72 20 75 21 73 22 74 23
REMARK SMILES IDX 11 24 12 25 13 26 14 27 15 28 16 29 17 30 18 31 19 32 65 33
REMARK SMILES IDX 20 34 64 35 21 36 22 37 23 38 58 39 24 40 63 41 57 42 59 43
REMARK SMILES IDX 25 44 62 45 56 46 55 47 26 49 48 50 33 51 47 52 34 53 37 54
REMARK SMILES IDX 46 55 60 56 35 57 36 58 45 60 61 61 38 62 27 63 28 64 32 65
REMARK SMILES IDX 29 66 31 67 30 68 49 69 50 70 54 71 51 72 53 73 52 74 39 75
REMARK SMILES IDX 40 76 44 77 41 78 43 79 42 80
REMARK H PARENT 59 48 37 59
REMARK Flexibility Score: inf
ROOT
ATOM      1  C   UNL A   1      40.875  24.890  28.310  1.00  0.00     0.188 C 
ENDROOT
BRANCH   1   2
ATOM      2  O   UNL A   1      40.663  26.285  28.148  1.00  0.00    -0.376 OA
BRANCH   2   3
ATOM      3  C   UNL A   1      39.775  26.940  29.031  1.00  0.00     0.202 C 
BRANCH   3   4
ATOM      4  C   UNL A   1      40.009  28.436  29.218  1.00  0.00     0.261 C 
BRANCH   4   5
ATOM      5  O   UNL A   1      39.775  28.908  30.554  1.00  0.00    -0.462 OA
BRANCH   5   6
ATOM      6  C   UNL A   1      39.790  30.263  30.747  1.00  0.00     0.329 C 
ATOM      7  O   UNL A   1      40.759  30.994  30.597  1.00  0.00    -0.250 OA
BRANCH   6   8
ATOM      8  C   UNL A   1      38.430  30.719  31.275  1.00  0.00     0.201 C 
BRANCH   8   9
ATOM      9  C   UNL A   1      38.563  31.234  32.726  1.00  0.00     0.034 C 
ATOM     10  C   UNL A   1      38.821  30.173  33.800  1.00  0.00     0.007 C 
ENDBRANCH   8   9
BRANCH   8  11
ATOM     11  N   UNL A   1      37.669  31.557  30.295  1.00  0.00    -0.278 N 
ATOM     12  C   UNL A   1      36.702  30.894  29.534  1.00  0.00     0.267 C 
ATOM     13  C   UNL A   1      37.847  32.885  29.979  1.00  0.00     0.149 C 
ATOM     14  O   UNL A   1      36.532  29.683  29.550  1.00  0.00    -0.268 OA
ATOM     15  C   UNL A   1      35.931  31.829  28.661  1.00  0.00     0.081 C 
ATOM     16  S   UNL A   1      36.595  33.412  28.861  1.00  0.00    -0.054 SA
ATOM     17  S   UNL A   1      38.975  33.993  30.496  1.00  0.00    -0.052 S 
ATOM     18  C   UNL A   1      34.934  31.644  27.777  1.00  0.00     0.040 C 
BRANCH  18  19
ATOM     19  C   UNL A   1      34.338  30.421  27.348  1.00  0.00     0.028 A 
ATOM     20  C   UNL A   1      34.822  29.139  27.152  1.00  0.00     0.020 A 
ATOM     21  S   UNL A   1      32.631  30.443  27.006  1.00  0.00    -0.144 S 
ATOM     22  C   UNL A   1      33.869  28.259  26.554  1.00  0.00     0.012 A 
ATOM     23  C   UNL A   1      32.648  28.862  26.375  1.00  0.00     0.065 A 
ENDBRANCH  18  19
ENDBRANCH   8  11
ENDBRANCH   6   8
ENDBRANCH   5   6
ENDBRANCH   4   5
ENDBRANCH   3   4
ENDBRANCH   2   3
ENDBRANCH   1   2
BRANCH   1  24
ATOM     24  C   UNL A   1      40.029  23.880  27.512  1.00  0.00     0.188 C 
BRANCH  24  25
ATOM     25  O   UNL A   1      40.668  23.066  26.534  1.00  0.00    -0.376 OA
BRANCH  25  26
ATOM     26  C   UNL A   1      42.003  22.644  26.792  1.00  0.00     0.202 C 
BRANCH  26  27
ATOM     27  C   UNL A   1      42.947  22.713  25.592  1.00  0.00     0.261 C 
BRANCH  27  28
ATOM     28  O   UNL A   1      42.958  24.053  25.071  1.00  0.00    -0.460 OA
BRANCH  28  29
ATOM     29  C   UNL A   1      44.175  24.607  24.904  1.00  0.00     0.338 C 
ATOM     30  O   UNL A   1      45.145  24.099  24.368  1.00  0.00    -0.246 OA
BRANCH  29  31
ATOM     31  C   UNL A   1      44.187  25.971  25.471  1.00  0.00     0.060 A 
ATOM     32  C   UNL A   1      45.314  26.439  26.150  1.00  0.00     0.016 A 
ATOM     33  C   UNL A   1      42.999  26.701  25.502  1.00  0.00     0.016 A 
ATOM     34  C   UNL A   1      45.214  27.571  26.969  1.00  0.00     0.010 A 
ATOM     35  C   UNL A   1      42.911  27.847  26.303  1.00  0.00     0.010 A 
ATOM     36  C   UNL A   1      43.990  28.235  27.118  1.00  0.00    -0.014 A 
BRANCH  36  37
ATOM     37  C   UNL A   1      43.765  29.150  28.279  1.00  0.00     0.031 A 
ATOM     38  C   UNL A   1      43.554  28.549  29.654  1.00  0.00     0.074 A 
ATOM     39  C   UNL A   1      43.825  30.491  28.169  1.00  0.00     0.049 A 
ATOM     40  N   UNL A   1      43.246  29.139  30.784  1.00  0.00    -0.248 NA
ATOM     41  C   UNL A   1      43.728  27.091  29.771  1.00  0.00     0.031 C 
ATOM     42  C   UNL A   1      44.141  31.235  26.953  1.00  0.00     0.029 A 
ATOM     43  N   UNL A   1      43.622  31.467  29.117  1.00  0.00    -0.354 N 
ATOM     44  C   UNL A   1      43.174  28.124  31.734  1.00  0.00     0.074 A 
ATOM     45  C   UNL A   1      43.449  26.882  31.048  1.00  0.00     0.031 C 
ATOM     46  C   UNL A   1      44.114  32.550  27.227  1.00  0.00     0.029 A 
ATOM     47  C   UNL A   1      43.713  32.745  28.620  1.00  0.00     0.049 A 
ATOM     48  H   UNL A   1      43.430  31.269  30.062  1.00  0.00     0.167 HD
ATOM     49  C   UNL A   1      42.904  28.206  33.059  1.00  0.00     0.031 A 
ATOM     50  C   UNL A   1      43.460  33.935  29.202  1.00  0.00     0.031 A 
ATOM     51  C   UNL A   1      42.612  29.424  33.763  1.00  0.00     0.049 A 
ATOM     52  C   UNL A   1      42.999  33.992  30.635  1.00  0.00     0.074 A 
ATOM     53  C   UNL A   1      42.280  29.590  35.097  1.00  0.00     0.029 A 
ATOM     54  N   UNL A   1      42.617  30.684  33.192  1.00  0.00    -0.354 N 
ATOM     55  N   UNL A   1      42.876  33.022  31.506  1.00  0.00    -0.248 NA
ATOM     56  C   UNL A   1      42.631  35.318  31.161  1.00  0.00     0.031 C 
ATOM     57  C   UNL A   1      42.025  30.948  35.319  1.00  0.00     0.029 A 
ATOM     58  C   UNL A   1      42.259  31.631  34.137  1.00  0.00     0.049 A 
ATOM     59  H   UNL A   1      42.839  30.879  32.252  1.00  0.00     0.167 HD
ATOM     60  C   UNL A   1      42.440  33.621  32.684  1.00  0.00     0.074 A 
ATOM     61  C   UNL A   1      42.334  35.039  32.422  1.00  0.00     0.031 C 
ATOM     62  C   UNL A   1      42.155  33.043  33.876  1.00  0.00     0.031 A 
BRANCH  49  63
ATOM     63  C   UNL A   1      42.852  26.917  33.827  1.00  0.00    -0.014 A 
ATOM     64  C   UNL A   1      43.933  26.021  33.830  1.00  0.00     0.009 A 
ATOM     65  C   UNL A   1      41.707  26.607  34.578  1.00  0.00     0.009 A 
ATOM     66  C   UNL A   1      43.855  24.826  34.547  1.00  0.00     0.001 A 
ATOM     67  C   UNL A   1      41.641  25.422  35.313  1.00  0.00     0.001 A 
ATOM     68  C   UNL A   1      42.711  24.529  35.290  1.00  0.00     0.000 A 
ENDBRANCH  49  63
BRANCH  50  69
ATOM     69  C   UNL A   1      43.564  35.190  28.407  1.00  0.00    -0.014 A 
ATOM     70  C   UNL A   1      42.468  35.673  27.678  1.00  0.00     0.009 A 
ATOM     71  C   UNL A   1      44.782  35.884  28.341  1.00  0.00     0.009 A 
ATOM     72  C   UNL A   1      42.596  36.817  26.884  1.00  0.00     0.001 A 
ATOM     73  C   UNL A   1      44.898  37.044  27.573  1.00  0.00     0.001 A 
ATOM     74  C   UNL A   1      43.809  37.503  26.836  1.00  0.00     0.000 A 
ENDBRANCH  50  69
BRANCH  62  75
ATOM     75  C   UNL A   1      41.740  33.942  35.007  1.00  0.00    -0.014 A 
ATOM     76  C   UNL A   1      42.687  34.529  35.860  1.00  0.00     0.009 A 
ATOM     77  C   UNL A   1      40.380  34.241  35.193  1.00  0.00     0.009 A 
ATOM     78  C   UNL A   1      42.277  35.370  36.899  1.00  0.00     0.001 A 
ATOM     79  C   UNL A   1      39.976  35.104  36.215  1.00  0.00     0.001 A 
ATOM     80  C   UNL A   1      40.923  35.660  37.071  1.00  0.00     0.000 A 
ENDBRANCH  62  75
ENDBRANCH  36  37
ENDBRANCH  29  31
ENDBRANCH  28  29
ENDBRANCH  27  28
ENDBRANCH  26  27
ENDBRANCH  25  26
ENDBRANCH  24  25
ENDBRANCH   1  24
TORSDOF 20
ENDMDL
MODEL 2
REMARK VINA RESULT:      -7.6      4.693      8.319
REMARK SMILES CC[C@H](C(=O)OCCOCCOCCOC(=O)c1ccc(-c2c3nc(c(-c4ccccc4)c4ccc([nH]4)c(-c4ccccc4)c4nc(c(-c5ccccc5)c5ccc2[nH]5)C=C4)C=C3)cc1)N1C(=O)/C(=C\c2cccs2)SC1=S
REMARK SMILES IDX 10 1 9 2 8 3 7 4 6 5 4 6 5 7 3 8 2 9 1 10 66 11 67 12 77 13
REMARK SMILES IDX 68 14 69 15 76 16 78 17 70 18 71 19 72 20 75 21 73 22 74 23
REMARK SMILES IDX 11 24 12 25 13 26 14 27 15 28 16 29 17 30 18 31 19 32 65 33
REMARK SMILES IDX 20 34 64 35 21 36 22 37 23 38 58 39 24 40 63 41 57 42 59 43
REMARK SMILES IDX 25 44 62 45 56 46 55 47 26 49 48 50 33 51 47 52 34 53 37 54
REMARK SMILES IDX 46 55 60 56 35 57 36 58 45 60 61 61 38 62 27 63 28 64 32 65
REMARK SMILES IDX 29 66 31 67 30 68 49 69 50 70 54 71 51 72 53 73 52 74 39 75
REMARK SMILES IDX 40 76 44 77 41 78 43 79 42 80
REMARK H PARENT 59 48 37 59
REMARK Flexibility Score: inf
ROOT
ATOM      1  C   UNL A   1      40.667  21.029  26.582  1.00  0.00     0.188 C 
ENDROOT
BRANCH   1   2
ATOM      2  O   UNL A   1      39.355  20.778  26.099  1.00  0.00    -0.376 OA
BRANCH   2   3
ATOM      3  C   UNL A   1      38.566  21.876  25.684  1.00  0.00     0.202 C 
BRANCH   3   4
ATOM      4  C   UNL A   1      37.235  21.525  25.027  1.00  0.00     0.261 C 
BRANCH   4   5
ATOM      5  O   UNL A   1      36.611  22.618  24.336  1.00  0.00    -0.462 OA
BRANCH   5   6
ATOM      6  C   UNL A   1      35.839  23.466  25.083  1.00  0.00     0.329 C 
ATOM      7  O   UNL A   1      36.089  24.641  25.314  1.00  0.00    -0.250 OA
BRANCH   6   8
ATOM      8  C   UNL A   1      34.656  22.697  25.671  1.00  0.00     0.201 C 
BRANCH   8   9
ATOM      9  C   UNL A   1      33.949  23.545  26.752  1.00  0.00     0.034 C 
ATOM     10  C   UNL A   1      32.418  23.547  26.716  1.00  0.00     0.007 C 
ENDBRANCH   8   9
BRANCH   8  11
ATOM     11  N   UNL A   1      33.812  22.030  24.631  1.00  0.00    -0.278 N 
ATOM     12  C   UNL A   1      33.651  20.648  24.757  1.00  0.00     0.267 C 
ATOM     13  C   UNL A   1      33.234  22.583  23.509  1.00  0.00     0.149 C 
ATOM     14  O   UNL A   1      34.238  19.964  25.584  1.00  0.00    -0.268 OA
ATOM     15  C   UNL A   1      32.714  20.092  23.734  1.00  0.00     0.081 C 
ATOM     16  S   UNL A   1      32.231  21.388  22.696  1.00  0.00    -0.054 SA
ATOM     17  S   UNL A   1      33.313  24.121  22.881  1.00  0.00    -0.052 S 
ATOM     18  C   UNL A   1      32.275  18.847  23.476  1.00  0.00     0.040 C 
BRANCH  18  19
ATOM     19  C   UNL A   1      32.650  17.621  24.101  1.00  0.00     0.028 A 
ATOM     20  C   UNL A   1      32.148  16.900  25.170  1.00  0.00     0.020 A 
ATOM     21  S   UNL A   1      34.002  16.761  23.419  1.00  0.00    -0.144 S 
ATOM     22  C   UNL A   1      32.964  15.787  25.536  1.00  0.00     0.012 A 
ATOM     23  C   UNL A   1      34.036  15.630  24.692  1.00  0.00     0.065 A 
ENDBRANCH  18  19
ENDBRANCH   8  11
ENDBRANCH   6   8
ENDBRANCH   5   6
ENDBRANCH   4   5
ENDBRANCH   3   4
ENDBRANCH   2   3
ENDBRANCH   1   2
BRANCH   1  24
ATOM     24  C   UNL A   1      41.852  20.179  26.084  1.00  0.00     0.188 C 
BRANCH  24  25
ATOM     25  O   UNL A   1      43.177  20.603  26.383  1.00  0.00    -0.376 OA
BRANCH  25  26
ATOM     26  C   UNL A   1      43.854  21.396  25.413  1.00  0.00     0.202 C 
BRANCH  26  27
ATOM     27  C   UNL A   1      43.147  22.699  25.037  1.00  0.00     0.261 C 
BRANCH  27  28
ATOM     28  O   UNL A   1      43.990  23.813  25.377  1.00  0.00    -0.460 OA
BRANCH  28  29
ATOM     29  C   UNL A   1      43.369  25.003  25.491  1.00  0.00     0.338 C 
ATOM     30  O   UNL A   1      42.777  25.610  24.614  1.00  0.00    -0.246 OA
BRANCH  29  31
ATOM     31  C   UNL A   1      43.492  25.501  26.877  1.00  0.00     0.060 A 
ATOM     32  C   UNL A   1      42.847  24.835  27.922  1.00  0.00     0.016 A 
ATOM     33  C   UNL A   1      44.080  26.746  27.100  1.00  0.00     0.016 A 
ATOM     34  C   UNL A   1      42.676  25.475  29.155  1.00  0.00     0.010 A 
ATOM     35  C   UNL A   1      43.927  27.371  28.344  1.00  0.00     0.010 A 
ATOM     36  C   UNL A   1      43.141  26.781  29.350  1.00  0.00    -0.014 A 
BRANCH  36  37
ATOM     37  C   UNL A   1      42.609  27.613  30.473  1.00  0.00     0.031 A 
ATOM     38  C   UNL A   1      41.333  28.402  30.257  1.00  0.00     0.074 A 
ATOM     39  C   UNL A   1      43.169  27.624  31.697  1.00  0.00     0.049 A 
ATOM     40  N   UNL A   1      40.740  29.263  31.049  1.00  0.00    -0.248 NA
ATOM     41  C   UNL A   1      40.626  28.180  28.984  1.00  0.00     0.031 C 
ATOM     42  C   UNL A   1      44.320  26.831  32.117  1.00  0.00     0.029 A 
ATOM     43  N   UNL A   1      42.826  28.339  32.822  1.00  0.00    -0.354 N 
ATOM     44  C   UNL A   1      39.608  29.692  30.364  1.00  0.00     0.074 A 
ATOM     45  C   UNL A   1      39.605  29.016  29.086  1.00  0.00     0.031 C 
ATOM     46  C   UNL A   1      44.588  27.099  33.406  1.00  0.00     0.029 A 
ATOM     47  C   UNL A   1      43.671  28.132  33.885  1.00  0.00     0.049 A 
ATOM     48  H   UNL A   1      42.048  28.942  32.861  1.00  0.00     0.167 HD
ATOM     49  C   UNL A   1      38.650  30.569  30.751  1.00  0.00     0.031 A 
ATOM     50  C   UNL A   1      43.732  28.735  35.090  1.00  0.00     0.031 A 
ATOM     51  C   UNL A   1      38.636  31.266  32.007  1.00  0.00     0.049 A 
ATOM     52  C   UNL A   1      42.755  29.829  35.438  1.00  0.00     0.074 A 
ATOM     53  C   UNL A   1      37.729  32.209  32.460  1.00  0.00     0.029 A 
ATOM     54  N   UNL A   1      39.573  31.099  33.011  1.00  0.00    -0.354 N 
ATOM     55  N   UNL A   1      41.726  30.269  34.758  1.00  0.00    -0.248 NA
ATOM     56  C   UNL A   1      42.961  30.517  36.723  1.00  0.00     0.031 C 
ATOM     57  C   UNL A   1      38.151  32.656  33.716  1.00  0.00     0.029 A 
ATOM     58  C   UNL A   1      39.287  31.945  34.069  1.00  0.00     0.049 A 
ATOM     59  H   UNL A   1      40.332  30.472  32.979  1.00  0.00     0.167 HD
ATOM     60  C   UNL A   1      41.150  31.265  35.541  1.00  0.00     0.074 A 
ATOM     61  C   UNL A   1      41.935  31.356  36.752  1.00  0.00     0.031 C 
ATOM     62  C   UNL A   1      40.066  32.034  35.276  1.00  0.00     0.031 A 
BRANCH  49  63
ATOM     63  C   UNL A   1      37.559  30.870  29.765  1.00  0.00    -0.014 A 
ATOM     64  C   UNL A   1      37.525  32.082  29.056  1.00  0.00     0.009 A 
ATOM     65  C   UNL A   1      36.560  29.913  29.527  1.00  0.00     0.009 A 
ATOM     66  C   UNL A   1      36.494  32.338  28.151  1.00  0.00     0.001 A 
ATOM     67  C   UNL A   1      35.544  30.162  28.604  1.00  0.00     0.001 A 
ATOM     68  C   UNL A   1      35.507  31.378  27.923  1.00  0.00     0.000 A 
ENDBRANCH  49  63
BRANCH  50  69
ATOM     69  C   UNL A   1      44.811  28.373  36.050  1.00  0.00    -0.014 A 
ATOM     70  C   UNL A   1      44.595  27.411  37.047  1.00  0.00     0.009 A 
ATOM     71  C   UNL A   1      46.052  29.028  35.995  1.00  0.00     0.009 A 
ATOM     72  C   UNL A   1      45.594  27.127  37.983  1.00  0.00     0.001 A 
ATOM     73  C   UNL A   1      47.058  28.718  36.912  1.00  0.00     0.001 A 
ATOM     74  C   UNL A   1      46.825  27.776  37.911  1.00  0.00     0.000 A 
ENDBRANCH  50  69
BRANCH  62  75
ATOM     75  C   UNL A   1      39.632  33.015  36.328  1.00  0.00    -0.014 A 
ATOM     76  C   UNL A   1      38.721  32.655  37.332  1.00  0.00     0.009 A 
ATOM     77  C   UNL A   1      40.178  34.310  36.338  1.00  0.00     0.009 A 
ATOM     78  C   UNL A   1      38.341  33.583  38.307  1.00  0.00     0.001 A 
ATOM     79  C   UNL A   1      39.817  35.225  37.329  1.00  0.00     0.001 A 
ATOM     80  C   UNL A   1      38.892  34.864  38.306  1.00  0.00     0.000 A 
ENDBRANCH  62  75
ENDBRANCH  36  37
ENDBRANCH  29  31
ENDBRANCH  28  29
ENDBRANCH  27  28
ENDBRANCH  26  27
ENDBRANCH  25  26
ENDBRANCH  24  25
ENDBRANCH   1  24
TORSDOF 20
ENDMDL
MODEL 3
REMARK VINA RESULT:      -7.3      4.630      8.235
REMARK SMILES CC[C@H](C(=O)OCCOCCOCCOC(=O)c1ccc(-c2c3nc(c(-c4ccccc4)c4ccc([nH]4)c(-c4ccccc4)c4nc(c(-c5ccccc5)c5ccc2[nH]5)C=C4)C=C3)cc1)N1C(=O)/C(=C\c2cccs2)SC1=S
REMARK SMILES IDX 10 1 9 2 8 3 7 4 6 5 4 6 5 7 3 8 2 9 1 10 66 11 67 12 77 13
REMARK SMILES IDX 68 14 69 15 76 16 78 17 70 18 71 19 72 20 75 21 73 22 74 23
REMARK SMILES IDX 11 24 12 25 13 26 14 27 15 28 16 29 17 30 18 31 19 32 65 33
REMARK SMILES IDX 20 34 64 35 21 36 22 37 23 38 58 39 24 40 63 41 57 42 59 43
REMARK SMILES IDX 25 44 62 45 56 46 55 47 26 49 48 50 33 51 47 52 34 53 37 54
REMARK SMILES IDX 46 55 60 56 35 57 36 58 45 60 61 61 38 62 27 63 28 64 32 65
REMARK SMILES IDX 29 66 31 67 30 68 49 69 50 70 54 71 51 72 53 73 52 74 39 75
REMARK SMILES IDX 40 76 44 77 41 78 43 79 42 80
REMARK H PARENT 59 48 37 59
REMARK Flexibility Score: inf
ROOT
ATOM      1  C   UNL A   1      40.203  23.209  26.689  1.00  0.00     0.188 C 
ENDROOT
BRANCH   1   2
ATOM      2  O   UNL A   1      38.870  22.742  26.547  1.00  0.00    -0.376 OA
BRANCH   2   3
ATOM      3  C   UNL A   1      37.894  23.627  26.035  1.00  0.00     0.202 C 
BRANCH   3   4
ATOM      4  C   UNL A   1      36.579  22.987  25.603  1.00  0.00     0.261 C 
BRANCH   4   5
ATOM      5  O   UNL A   1      35.788  23.799  24.722  1.00  0.00    -0.462 OA
BRANCH   5   6
ATOM      6  C   UNL A   1      34.672  24.388  25.252  1.00  0.00     0.329 C 
ATOM      7  O   UNL A   1      34.486  25.592  25.363  1.00  0.00    -0.250 OA
BRANCH   6   8
ATOM      8  C   UNL A   1      33.726  23.310  25.779  1.00  0.00     0.201 C 
BRANCH   8   9
ATOM      9  C   UNL A   1      32.754  23.911  26.819  1.00  0.00     0.034 C 
ATOM     10  C   UNL A   1      31.293  23.463  26.719  1.00  0.00     0.007 C 
ENDBRANCH   8   9
BRANCH   8  11
ATOM     11  N   UNL A   1      33.157  22.446  24.697  1.00  0.00    -0.278 N 
ATOM     12  C   UNL A   1      33.384  21.073  24.818  1.00  0.00     0.267 C 
ATOM     13  C   UNL A   1      32.506  22.828  23.544  1.00  0.00     0.149 C 
ATOM     14  O   UNL A   1      34.095  20.571  25.677  1.00  0.00    -0.268 OA
ATOM     15  C   UNL A   1      32.694  20.289  23.749  1.00  0.00     0.081 C 
ATOM     16  S   UNL A   1      31.923  21.410  22.683  1.00  0.00    -0.054 SA
ATOM     17  S   UNL A   1      32.184  24.335  22.917  1.00  0.00    -0.052 S 
ATOM     18  C   UNL A   1      32.636  18.975  23.471  1.00  0.00     0.040 C 
BRANCH  18  19
ATOM     19  C   UNL A   1      33.307  17.895  24.118  1.00  0.00     0.028 A 
ATOM     20  C   UNL A   1      34.551  17.311  23.959  1.00  0.00     0.020 A 
ATOM     21  S   UNL A   1      32.468  17.104  25.423  1.00  0.00    -0.144 S 
ATOM     22  C   UNL A   1      34.728  16.132  24.747  1.00  0.00     0.012 A 
ATOM     23  C   UNL A   1      33.644  15.879  25.552  1.00  0.00     0.065 A 
ENDBRANCH  18  19
ENDBRANCH   8  11
ENDBRANCH   6   8
ENDBRANCH   5   6
ENDBRANCH   4   5
ENDBRANCH   3   4
ENDBRANCH   2   3
ENDBRANCH   1   2
BRANCH   1  24
ATOM     24  C   UNL A   1      41.383  22.345  26.199  1.00  0.00     0.188 C 
BRANCH  24  25
ATOM     25  O   UNL A   1      42.688  22.912  26.176  1.00  0.00    -0.376 OA
BRANCH  25  26
ATOM     26  C   UNL A   1      42.941  23.956  25.241  1.00  0.00     0.202 C 
BRANCH  26  27
ATOM     27  C   UNL A   1      42.360  25.319  25.619  1.00  0.00     0.261 C 
BRANCH  27  28
ATOM     28  O   UNL A   1      43.344  26.339  25.381  1.00  0.00    -0.460 OA
BRANCH  28  29
ATOM     29  C   UNL A   1      42.913  27.609  25.515  1.00  0.00     0.338 C 
ATOM     30  O   UNL A   1      42.379  28.297  24.663  1.00  0.00    -0.246 OA
BRANCH  29  31
ATOM     31  C   UNL A   1      43.175  28.083  26.890  1.00  0.00     0.060 A 
ATOM     32  C   UNL A   1      42.919  27.248  27.980  1.00  0.00     0.016 A 
ATOM     33  C   UNL A   1      43.477  29.428  27.097  1.00  0.00     0.016 A 
ATOM     34  C   UNL A   1      42.837  27.790  29.269  1.00  0.00     0.010 A 
ATOM     35  C   UNL A   1      43.418  29.961  28.391  1.00  0.00     0.010 A 
ATOM     36  C   UNL A   1      43.003  29.165  29.475  1.00  0.00    -0.014 A 
BRANCH  36  37
ATOM     37  C   UNL A   1      42.509  29.805  30.732  1.00  0.00     0.031 A 
ATOM     38  C   UNL A   1      41.162  30.499  30.720  1.00  0.00     0.074 A 
ATOM     39  C   UNL A   1      43.174  29.718  31.900  1.00  0.00     0.049 A 
ATOM     40  N   UNL A   1      40.577  31.203  31.659  1.00  0.00    -0.248 NA
ATOM     41  C   UNL A   1      40.363  30.369  29.489  1.00  0.00     0.031 C 
ATOM     42  C   UNL A   1      44.417  28.986  32.123  1.00  0.00     0.029 A 
ATOM     43  N   UNL A   1      42.878  30.261  33.130  1.00  0.00    -0.354 N 
ATOM     44  C   UNL A   1      39.358  31.609  31.126  1.00  0.00     0.074 A 
ATOM     45  C   UNL A   1      39.293  31.093  29.777  1.00  0.00     0.031 C 
ATOM     46  C   UNL A   1      44.777  29.120  33.411  1.00  0.00     0.029 A 
ATOM     47  C   UNL A   1      43.828  30.003  34.088  1.00  0.00     0.049 A 
ATOM     48  H   UNL A   1      42.062  30.783  33.306  1.00  0.00     0.167 HD
ATOM     49  C   UNL A   1      38.373  32.345  31.696  1.00  0.00     0.031 A 
ATOM     50  C   UNL A   1      43.949  30.460  35.351  1.00  0.00     0.031 A 
ATOM     51  C   UNL A   1      38.417  32.882  33.028  1.00  0.00     0.049 A 
ATOM     52  C   UNL A   1      42.925  31.413  35.912  1.00  0.00     0.074 A 
ATOM     53  C   UNL A   1      37.483  33.679  33.666  1.00  0.00     0.029 A 
ATOM     54  N   UNL A   1      39.450  32.678  33.925  1.00  0.00    -0.354 N 
ATOM     55  N   UNL A   1      41.808  31.839  35.376  1.00  0.00    -0.248 NA
ATOM     56  C   UNL A   1      43.191  31.957  37.254  1.00  0.00     0.031 C 
ATOM     57  C   UNL A   1      37.979  34.008  34.932  1.00  0.00     0.029 A 
ATOM     58  C   UNL A   1      39.194  33.363  35.101  1.00  0.00     0.049 A 
ATOM     59  H   UNL A   1      40.250  32.130  33.753  1.00  0.00     0.167 HD
ATOM     60  C   UNL A   1      41.229  32.679  36.323  1.00  0.00     0.074 A 
ATOM     61  C   UNL A   1      42.109  32.692  37.470  1.00  0.00     0.031 C 
ATOM     62  C   UNL A   1      40.069  33.375  36.244  1.00  0.00     0.031 A 
BRANCH  49  63
ATOM     63  C   UNL A   1      37.178  32.664  30.845  1.00  0.00    -0.014 A 
ATOM     64  C   UNL A   1      37.171  33.766  29.975  1.00  0.00     0.009 A 
ATOM     65  C   UNL A   1      36.048  31.833  30.902  1.00  0.00     0.009 A 
ATOM     66  C   UNL A   1      36.043  34.044  29.201  1.00  0.00     0.001 A 
ATOM     67  C   UNL A   1      34.931  32.100  30.110  1.00  0.00     0.001 A 
ATOM     68  C   UNL A   1      34.926  33.210  29.266  1.00  0.00     0.000 A 
ENDBRANCH  49  63
BRANCH  50  69
ATOM     69  C   UNL A   1      45.134  30.082  36.169  1.00  0.00    -0.014 A 
ATOM     70  C   UNL A   1      46.321  30.828  36.106  1.00  0.00     0.009 A 
ATOM     71  C   UNL A   1      45.093  28.941  36.986  1.00  0.00     0.009 A 
ATOM     72  C   UNL A   1      47.448  30.426  36.829  1.00  0.00     0.001 A 
ATOM     73  C   UNL A   1      46.210  28.560  37.732  1.00  0.00     0.001 A 
ATOM     74  C   UNL A   1      47.389  29.297  37.645  1.00  0.00     0.000 A 
ENDBRANCH  50  69
BRANCH  62  75
ATOM     75  C   UNL A   1      39.655  34.180  37.444  1.00  0.00    -0.014 A 
ATOM     76  C   UNL A   1      38.955  33.597  38.510  1.00  0.00     0.009 A 
ATOM     77  C   UNL A   1      40.010  35.537  37.525  1.00  0.00     0.009 A 
ATOM     78  C   UNL A   1      38.591  34.364  39.621  1.00  0.00     0.001 A 
ATOM     79  C   UNL A   1      39.668  36.295  38.648  1.00  0.00     0.001 A 
ATOM     80  C   UNL A   1      38.951  35.711  39.689  1.00  0.00     0.000 A 
ENDBRANCH  62  75
ENDBRANCH  36  37
ENDBRANCH  29  31
ENDBRANCH  28  29
ENDBRANCH  27  28
ENDBRANCH  26  27
ENDBRANCH  25  26
ENDBRANCH  24  25
ENDBRANCH   1  24
TORSDOF 20
ENDMDL
