MODEL 1
REMARK VINA RESULT:      -9.7      0.000      0.000
REMARK SMILES Cc1nc(C[N@@H+]2CCC[C@H]2C(=O)OCCOCCOCCOC(=O)c2ccc(-c3c4nc(c(-c5ccccc5)c5ccc([nH]5)c(-c5ccccc5)c5nc(c(-c6ccccc6)c6ccc3[nH]6)C=C5)C=C4)cc2)cs1
REMARK SMILES IDX 17 1 16 2 15 3 14 4 13 5 11 6 12 7 10 8 6 9 7 10 8 12 9 13
REMARK SMILES IDX 5 14 4 15 1 16 2 17 3 18 74 19 73 20 18 21 19 22 20 23 21 24
REMARK SMILES IDX 22 25 23 26 24 27 25 28 26 29 72 30 27 31 71 32 28 33 29 34
REMARK SMILES IDX 30 35 65 36 31 37 70 38 64 39 66 40 32 41 69 42 63 43 62 44
REMARK SMILES IDX 33 46 55 47 40 48 54 49 41 50 44 51 53 52 67 53 42 54 43 55
REMARK SMILES IDX 52 57 68 58 45 59 34 60 35 61 39 62 36 63 38 64 37 65 56 66
REMARK SMILES IDX 57 67 61 68 58 69 60 70 59 71 46 72 47 73 51 74 48 75 50 76
REMARK SMILES IDX 49 77
REMARK H PARENT 6 11 66 45 44 56
REMARK Flexibility Score: inf
ROOT
ATOM      1  C   UNL A   1      33.336  32.352  27.754  1.00  0.00     0.188 C 
ENDROOT
BRANCH   1   2
ATOM      2  O   UNL A   1      34.253  31.334  27.417  1.00  0.00    -0.376 OA
BRANCH   2   3
ATOM      3  C   UNL A   1      33.851  29.975  27.374  1.00  0.00     0.202 C 
BRANCH   3   4
ATOM      4  C   UNL A   1      34.265  28.987  26.268  1.00  0.00     0.261 C 
BRANCH   4   5
ATOM      5  O   UNL A   1      33.216  28.176  25.739  1.00  0.00    -0.459 OA
BRANCH   5   6
ATOM      6  C   UNL A   1      32.565  28.649  24.634  1.00  0.00     0.365 C 
ATOM      7  O   UNL A   1      33.085  29.341  23.767  1.00  0.00    -0.245 OA
BRANCH   6   8
ATOM      8  C   UNL A   1      31.116  28.105  24.588  1.00  0.00     0.295 C 
ATOM      9  N   UNL A   1      30.678  27.972  23.190  1.00  0.00    -0.318 N 
ATOM     10  C   UNL A   1      31.062  26.628  22.773  1.00  0.00     0.263 C 
ATOM     11  H   UNL A   1      31.147  28.655  22.595  1.00  0.00     0.349 HD
ATOM     12  C   UNL A   1      31.027  25.756  24.020  1.00  0.00     0.068 C 
ATOM     13  C   UNL A   1      31.021  26.713  25.200  1.00  0.00     0.083 C 
BRANCH   9  14
ATOM     14  C   UNL A   1      29.286  28.370  22.932  1.00  0.00     0.321 C 
BRANCH  14  15
ATOM     15  C   UNL A   1      29.048  29.825  22.627  1.00  0.00     0.106 A 
ATOM     16  C   UNL A   1      27.879  32.247  20.136  1.00  0.00     0.079 C 
ATOM     17  C   UNL A   1      28.396  31.502  21.319  1.00  0.00     0.090 A 
ATOM     18  N   UNL A   1      28.673  30.212  21.341  1.00  0.00    -0.241 NA
ATOM     19  S   UNL A   1      28.660  32.340  22.795  1.00  0.00    -0.127 S 
ATOM     20  C   UNL A   1      29.068  30.861  23.545  1.00  0.00     0.096 A 
ENDBRANCH  14  15
ENDBRANCH   9  14
ENDBRANCH   6   8
ENDBRANCH   5   6
ENDBRANCH   4   5
ENDBRANCH   3   4
ENDBRANCH   2   3
ENDBRANCH   1   2
BRANCH   1  21
ATOM     21  C   UNL A   1      33.840  33.666  28.395  1.00  0.00     0.188 C 
BRANCH  21  22
ATOM     22  O   UNL A   1      32.924  34.597  28.922  1.00  0.00    -0.376 OA
BRANCH  22  23
ATOM     23  C   UNL A   1      33.286  35.389  30.036  1.00  0.00     0.202 C 
BRANCH  23  24
ATOM     24  C   UNL A   1      33.975  34.824  31.290  1.00  0.00     0.261 C 
BRANCH  24  25
ATOM     25  O   UNL A   1      35.246  34.184  31.105  1.00  0.00    -0.460 OA
BRANCH  25  26
ATOM     26  C   UNL A   1      35.502  33.127  31.915  1.00  0.00     0.338 C 
ATOM     27  O   UNL A   1      34.829  32.730  32.858  1.00  0.00    -0.246 OA
BRANCH  26  28
ATOM     28  C   UNL A   1      36.676  32.395  31.404  1.00  0.00     0.060 A 
ATOM     29  C   UNL A   1      37.529  31.733  32.302  1.00  0.00     0.016 A 
ATOM     30  C   UNL A   1      36.943  32.379  30.036  1.00  0.00     0.016 A 
ATOM     31  C   UNL A   1      38.641  31.034  31.828  1.00  0.00     0.010 A 
ATOM     32  C   UNL A   1      38.074  31.704  29.568  1.00  0.00     0.010 A 
ATOM     33  C   UNL A   1      38.932  31.031  30.457  1.00  0.00    -0.014 A 
BRANCH  33  34
ATOM     34  C   UNL A   1      40.171  30.405  29.932  1.00  0.00     0.031 A 
ATOM     35  C   UNL A   1      41.416  31.237  29.800  1.00  0.00     0.074 A 
ATOM     36  C   UNL A   1      40.173  29.125  29.518  1.00  0.00     0.049 A 
ATOM     37  N   UNL A   1      42.555  30.938  29.230  1.00  0.00    -0.248 NA
ATOM     38  C   UNL A   1      41.368  32.585  30.388  1.00  0.00     0.031 C 
ATOM     39  C   UNL A   1      39.052  28.194  29.634  1.00  0.00     0.029 A 
ATOM     40  N   UNL A   1      41.153  28.397  28.887  1.00  0.00    -0.354 N 
ATOM     41  C   UNL A   1      43.352  32.068  29.367  1.00  0.00     0.074 A 
ATOM     42  C   UNL A   1      42.563  33.059  30.068  1.00  0.00     0.031 C 
ATOM     43  C   UNL A   1      39.400  27.023  29.073  1.00  0.00     0.029 A 
ATOM     44  C   UNL A   1      40.745  27.137  28.515  1.00  0.00     0.049 A 
ATOM     45  H   UNL A   1      42.058  28.743  28.717  1.00  0.00     0.167 HD
ATOM     46  C   UNL A   1      44.623  32.263  28.942  1.00  0.00     0.031 A 
ATOM     47  C   UNL A   1      41.370  26.201  27.772  1.00  0.00     0.031 A 
ATOM     48  C   UNL A   1      45.402  31.284  28.230  1.00  0.00     0.049 A 
ATOM     49  C   UNL A   1      42.741  26.489  27.215  1.00  0.00     0.074 A 
ATOM     50  C   UNL A   1      46.711  31.379  27.792  1.00  0.00     0.029 A 
ATOM     51  N   UNL A   1      44.937  30.039  27.834  1.00  0.00    -0.354 N 
ATOM     52  N   UNL A   1      43.504  27.540  27.389  1.00  0.00    -0.248 NA
ATOM     53  C   UNL A   1      43.335  25.456  26.348  1.00  0.00     0.031 C 
ATOM     54  C   UNL A   1      47.014  30.224  27.065  1.00  0.00     0.029 A 
ATOM     55  C   UNL A   1      45.917  29.380  27.112  1.00  0.00     0.049 A 
ATOM     56  H   UNL A   1      44.044  29.678  28.036  1.00  0.00     0.167 HD
ATOM     57  C   UNL A   1      44.671  27.287  26.677  1.00  0.00     0.074 A 
ATOM     58  C   UNL A   1      44.526  25.974  26.085  1.00  0.00     0.031 C 
ATOM     59  C   UNL A   1      45.763  28.075  26.523  1.00  0.00     0.031 A 
BRANCH  46  60
ATOM     60  C   UNL A   1      45.244  33.609  29.191  1.00  0.00    -0.014 A 
ATOM     61  C   UNL A   1      45.076  34.673  28.292  1.00  0.00     0.009 A 
ATOM     62  C   UNL A   1      45.963  33.829  30.377  1.00  0.00     0.009 A 
ATOM     63  C   UNL A   1      45.638  35.923  28.565  1.00  0.00     0.001 A 
ATOM     64  C   UNL A   1      46.499  35.085  30.661  1.00  0.00     0.001 A 
ATOM     65  C   UNL A   1      46.342  36.129  29.751  1.00  0.00     0.000 A 
ENDBRANCH  46  60
BRANCH  47  66
ATOM     66  C   UNL A   1      40.695  24.911  27.464  1.00  0.00    -0.014 A 
ATOM     67  C   UNL A   1      41.167  23.711  28.017  1.00  0.00     0.009 A 
ATOM     68  C   UNL A   1      39.604  24.866  26.582  1.00  0.00     0.009 A 
ATOM     69  C   UNL A   1      40.577  22.492  27.671  1.00  0.00     0.001 A 
ATOM     70  C   UNL A   1      38.996  23.651  26.264  1.00  0.00     0.001 A 
ATOM     71  C   UNL A   1      39.490  22.463  26.800  1.00  0.00     0.000 A 
ENDBRANCH  47  66
BRANCH  59  72
ATOM     72  C   UNL A   1      46.901  27.535  25.701  1.00  0.00    -0.014 A 
ATOM     73  C   UNL A   1      47.879  26.703  26.270  1.00  0.00     0.009 A 
ATOM     74  C   UNL A   1      46.964  27.813  24.326  1.00  0.00     0.009 A 
ATOM     75  C   UNL A   1      48.909  26.182  25.482  1.00  0.00     0.001 A 
ATOM     76  C   UNL A   1      47.976  27.265  23.535  1.00  0.00     0.001 A 
ATOM     77  C   UNL A   1      48.952  26.456  24.116  1.00  0.00     0.000 A 
ENDBRANCH  59  72
ENDBRANCH  33  34
ENDBRANCH  26  28
ENDBRANCH  25  26
ENDBRANCH  24  25
ENDBRANCH  23  24
ENDBRANCH  22  23
ENDBRANCH  21  22
ENDBRANCH   1  21
TORSDOF 19
ENDMDL
MODEL 2
REMARK VINA RESULT:      -9.4      5.278     10.652
REMARK SMILES Cc1nc(C[N@@H+]2CCC[C@H]2C(=O)OCCOCCOCCOC(=O)c2ccc(-c3c4nc(c(-c5ccccc5)c5ccc([nH]5)c(-c5ccccc5)c5nc(c(-c6ccccc6)c6ccc3[nH]6)C=C5)C=C4)cc2)cs1
REMARK SMILES IDX 17 1 16 2 15 3 14 4 13 5 11 6 12 7 10 8 6 9 7 10 8 12 9 13
REMARK SMILES IDX 5 14 4 15 1 16 2 17 3 18 74 19 73 20 18 21 19 22 20 23 21 24
REMARK SMILES IDX 22 25 23 26 24 27 25 28 26 29 72 30 27 31 71 32 28 33 29 34
REMARK SMILES IDX 30 35 65 36 31 37 70 38 64 39 66 40 32 41 69 42 63 43 62 44
REMARK SMILES IDX 33 46 55 47 40 48 54 49 41 50 44 51 53 52 67 53 42 54 43 55
REMARK SMILES IDX 52 57 68 58 45 59 34 60 35 61 39 62 36 63 38 64 37 65 56 66
REMARK SMILES IDX 57 67 61 68 58 69 60 70 59 71 46 72 47 73 51 74 48 75 50 76
REMARK SMILES IDX 49 77
REMARK H PARENT 6 11 66 45 44 56
REMARK Flexibility Score: inf
ROOT
ATOM      1  C   UNL A   1      40.100  22.028  26.812  1.00  0.00     0.188 C 
ENDROOT
BRANCH   1   2
ATOM      2  O   UNL A   1      38.774  22.278  26.400  1.00  0.00    -0.376 OA
BRANCH   2   3
ATOM      3  C   UNL A   1      38.099  21.383  25.531  1.00  0.00     0.202 C 
BRANCH   3   4
ATOM      4  C   UNL A   1      37.308  21.822  24.286  1.00  0.00     0.261 C 
BRANCH   4   5
ATOM      5  O   UNL A   1      35.886  21.768  24.406  1.00  0.00    -0.459 OA
BRANCH   5   6
ATOM      6  C   UNL A   1      35.269  22.860  24.949  1.00  0.00     0.365 C 
ATOM      7  O   UNL A   1      35.791  23.962  25.069  1.00  0.00    -0.245 OA
BRANCH   6   8
ATOM      8  C   UNL A   1      33.795  22.531  25.292  1.00  0.00     0.295 C 
ATOM      9  N   UNL A   1      33.707  21.179  25.864  1.00  0.00    -0.318 N 
ATOM     10  C   UNL A   1      33.875  21.337  27.304  1.00  0.00     0.263 C 
ATOM     11  H   UNL A   1      34.450  20.582  25.503  1.00  0.00     0.349 HD
ATOM     12  C   UNL A   1      33.333  22.715  27.659  1.00  0.00     0.068 C 
ATOM     13  C   UNL A   1      33.242  23.479  26.349  1.00  0.00     0.083 C 
BRANCH   9  14
ATOM     14  C   UNL A   1      32.549  20.389  25.419  1.00  0.00     0.321 C 
BRANCH  14  15
ATOM     15  C   UNL A   1      32.826  18.971  24.993  1.00  0.00     0.106 A 
ATOM     16  C   UNL A   1      32.392  15.423  25.806  1.00  0.00     0.079 C 
ATOM     17  C   UNL A   1      32.709  16.763  25.235  1.00  0.00     0.090 A 
ATOM     18  N   UNL A   1      32.503  17.914  25.844  1.00  0.00    -0.241 NA
ATOM     19  S   UNL A   1      33.390  16.871  23.661  1.00  0.00    -0.127 S 
ATOM     20  C   UNL A   1      33.302  18.573  23.755  1.00  0.00     0.096 A 
ENDBRANCH  14  15
ENDBRANCH   9  14
ENDBRANCH   6   8
ENDBRANCH   5   6
ENDBRANCH   4   5
ENDBRANCH   3   4
ENDBRANCH   2   3
ENDBRANCH   1   2
BRANCH   1  21
ATOM     21  C   UNL A   1      40.814  20.726  26.378  1.00  0.00     0.188 C 
BRANCH  21  22
ATOM     22  O   UNL A   1      41.433  19.902  27.337  1.00  0.00    -0.376 OA
BRANCH  22  23
ATOM     23  C   UNL A   1      42.487  19.042  26.952  1.00  0.00     0.202 C 
BRANCH  23  24
ATOM     24  C   UNL A   1      42.982  18.904  25.502  1.00  0.00     0.261 C 
BRANCH  24  25
ATOM     25  O   UNL A   1      44.366  19.190  25.254  1.00  0.00    -0.460 OA
BRANCH  25  26
ATOM     26  C   UNL A   1      44.619  20.089  24.270  1.00  0.00     0.338 C 
ATOM     27  O   UNL A   1      44.606  19.894  23.061  1.00  0.00    -0.246 OA
BRANCH  26  28
ATOM     28  C   UNL A   1      44.781  21.429  24.863  1.00  0.00     0.060 A 
ATOM     29  C   UNL A   1      44.465  22.568  24.107  1.00  0.00     0.016 A 
ATOM     30  C   UNL A   1      45.265  21.558  26.164  1.00  0.00     0.016 A 
ATOM     31  C   UNL A   1      44.612  23.842  24.663  1.00  0.00     0.010 A 
ATOM     32  C   UNL A   1      45.439  22.834  26.706  1.00  0.00     0.010 A 
ATOM     33  C   UNL A   1      45.119  23.984  25.961  1.00  0.00    -0.014 A 
BRANCH  33  34
ATOM     34  C   UNL A   1      45.405  25.322  26.537  1.00  0.00     0.031 A 
ATOM     35  C   UNL A   1      44.271  26.141  27.087  1.00  0.00     0.074 A 
ATOM     36  C   UNL A   1      46.650  25.830  26.513  1.00  0.00     0.049 A 
ATOM     37  N   UNL A   1      44.270  27.385  27.494  1.00  0.00    -0.248 NA
ATOM     38  C   UNL A   1      42.966  25.470  27.190  1.00  0.00     0.031 C 
ATOM     39  C   UNL A   1      47.845  25.125  26.054  1.00  0.00     0.029 A 
ATOM     40  N   UNL A   1      47.107  27.078  26.863  1.00  0.00    -0.354 N 
ATOM     41  C   UNL A   1      42.962  27.654  27.879  1.00  0.00     0.074 A 
ATOM     42  C   UNL A   1      42.197  26.446  27.649  1.00  0.00     0.031 C 
ATOM     43  C   UNL A   1      48.898  25.958  26.131  1.00  0.00     0.029 A 
ATOM     44  C   UNL A   1      48.443  27.267  26.595  1.00  0.00     0.049 A 
ATOM     45  H   UNL A   1      46.534  27.769  27.265  1.00  0.00     0.167 HD
ATOM     46  C   UNL A   1      42.445  28.804  28.372  1.00  0.00     0.031 A 
ATOM     47  C   UNL A   1      49.200  28.379  26.674  1.00  0.00     0.031 A 
ATOM     48  C   UNL A   1      43.201  30.010  28.584  1.00  0.00     0.049 A 
ATOM     49  C   UNL A   1      48.572  29.676  27.119  1.00  0.00     0.074 A 
ATOM     50  C   UNL A   1      42.770  31.214  29.114  1.00  0.00     0.029 A 
ATOM     51  N   UNL A   1      44.538  30.173  28.257  1.00  0.00    -0.354 N 
ATOM     52  N   UNL A   1      47.347  29.908  27.524  1.00  0.00    -0.248 NA
ATOM     53  C   UNL A   1      49.435  30.869  27.108  1.00  0.00     0.031 C 
ATOM     54  C   UNL A   1      43.825  32.128  29.039  1.00  0.00     0.029 A 
ATOM     55  C   UNL A   1      44.933  31.473  28.527  1.00  0.00     0.049 A 
ATOM     56  H   UNL A   1      45.121  29.470  27.890  1.00  0.00     0.167 HD
ATOM     57  C   UNL A   1      47.300  31.262  27.837  1.00  0.00     0.074 A 
ATOM     58  C   UNL A   1      48.623  31.796  27.596  1.00  0.00     0.031 C 
ATOM     59  C   UNL A   1      46.251  31.997  28.281  1.00  0.00     0.031 A 
BRANCH  46  60
ATOM     60  C   UNL A   1      40.973  28.836  28.674  1.00  0.00    -0.014 A 
ATOM     61  C   UNL A   1      40.031  29.198  27.700  1.00  0.00     0.009 A 
ATOM     62  C   UNL A   1      40.520  28.438  29.942  1.00  0.00     0.009 A 
ATOM     63  C   UNL A   1      38.666  29.187  27.999  1.00  0.00     0.001 A 
ATOM     64  C   UNL A   1      39.155  28.400  30.231  1.00  0.00     0.001 A 
ATOM     65  C   UNL A   1      38.230  28.782  29.261  1.00  0.00     0.000 A 
ENDBRANCH  46  60
BRANCH  47  66
ATOM     66  C   UNL A   1      50.635  28.342  26.282  1.00  0.00    -0.014 A 
ATOM     67  C   UNL A   1      51.012  28.512  24.941  1.00  0.00     0.009 A 
ATOM     68  C   UNL A   1      51.633  28.092  27.238  1.00  0.00     0.009 A 
ATOM     69  C   UNL A   1      52.353  28.406  24.563  1.00  0.00     0.001 A 
ATOM     70  C   UNL A   1      52.975  28.020  26.863  1.00  0.00     0.001 A 
ATOM     71  C   UNL A   1      53.334  28.166  25.524  1.00  0.00     0.000 A 
ENDBRANCH  47  66
BRANCH  59  72
ATOM     72  C   UNL A   1      46.491  33.456  28.558  1.00  0.00    -0.014 A 
ATOM     73  C   UNL A   1      46.895  33.899  29.828  1.00  0.00     0.009 A 
ATOM     74  C   UNL A   1      46.371  34.394  27.519  1.00  0.00     0.009 A 
ATOM     75  C   UNL A   1      47.147  35.254  30.057  1.00  0.00     0.001 A 
ATOM     76  C   UNL A   1      46.655  35.743  27.743  1.00  0.00     0.001 A 
ATOM     77  C   UNL A   1      47.036  36.172  29.013  1.00  0.00     0.000 A 
ENDBRANCH  59  72
ENDBRANCH  33  34
ENDBRANCH  26  28
ENDBRANCH  25  26
ENDBRANCH  24  25
ENDBRANCH  23  24
ENDBRANCH  22  23
ENDBRANCH  21  22
ENDBRANCH   1  21
TORSDOF 19
ENDMDL
MODEL 3
REMARK VINA RESULT:      -9.3      4.368      8.470
REMARK SMILES Cc1nc(C[N@@H+]2CCC[C@H]2C(=O)OCCOCCOCCOC(=O)c2ccc(-c3c4nc(c(-c5ccccc5)c5ccc([nH]5)c(-c5ccccc5)c5nc(c(-c6ccccc6)c6ccc3[nH]6)C=C5)C=C4)cc2)cs1
REMARK SMILES IDX 17 1 16 2 15 3 14 4 13 5 11 6 12 7 10 8 6 9 7 10 8 12 9 13
REMARK SMILES IDX 5 14 4 15 1 16 2 17 3 18 74 19 73 20 18 21 19 22 20 23 21 24
REMARK SMILES IDX 22 25 23 26 24 27 25 28 26 29 72 30 27 31 71 32 28 33 29 34
REMARK SMILES IDX 30 35 65 36 31 37 70 38 64 39 66 40 32 41 69 42 63 43 62 44
REMARK SMILES IDX 33 46 55 47 40 48 54 49 41 50 44 51 53 52 67 53 42 54 43 55
REMARK SMILES IDX 52 57 68 58 45 59 34 60 35 61 39 62 36 63 38 64 37 65 56 66
REMARK SMILES IDX 57 67 61 68 58 69 60 70 59 71 46 72 47 73 51 74 48 75 50 76
REMARK SMILES IDX 49 77
REMARK H PARENT 6 11 66 45 44 56
REMARK Flexibility Score: inf
ROOT
ATOM      1  C   UNL A   1      30.863  29.230  24.262  1.00  0.00     0.188 C 
ENDROOT
BRANCH   1   2
ATOM      2  O   UNL A   1      30.666  27.838  24.369  1.00  0.00    -0.376 OA
BRANCH   2   3
ATOM      3  C   UNL A   1      31.153  27.116  25.488  1.00  0.00     0.202 C 
BRANCH   3   4
ATOM      4  C   UNL A   1      30.586  25.762  25.954  1.00  0.00     0.261 C 
BRANCH   4   5
ATOM      5  O   UNL A   1      31.446  24.988  26.791  1.00  0.00    -0.459 OA
BRANCH   5   6
ATOM      6  C   UNL A   1      31.299  23.630  26.741  1.00  0.00     0.365 C 
ATOM      7  O   UNL A   1      30.560  22.985  27.475  1.00  0.00    -0.245 OA
BRANCH   6   8
ATOM      8  C   UNL A   1      32.117  23.043  25.565  1.00  0.00     0.295 C 
ATOM      9  N   UNL A   1      33.556  23.182  25.840  1.00  0.00    -0.318 N 
ATOM     10  C   UNL A   1      33.950  21.972  26.551  1.00  0.00     0.263 C 
ATOM     11  H   UNL A   1      33.737  23.993  26.431  1.00  0.00     0.349 HD
ATOM     12  C   UNL A   1      33.028  20.860  26.067  1.00  0.00     0.068 C 
ATOM     13  C   UNL A   1      31.858  21.552  25.390  1.00  0.00     0.083 C 
BRANCH   9  14
ATOM     14  C   UNL A   1      34.378  23.562  24.682  1.00  0.00     0.321 C 
BRANCH  14  15
ATOM     15  C   UNL A   1      33.748  24.501  23.688  1.00  0.00     0.106 A 
ATOM     16  C   UNL A   1      33.651  27.932  22.400  1.00  0.00     0.079 C 
ATOM     17  C   UNL A   1      33.484  26.485  22.717  1.00  0.00     0.090 A 
ATOM     18  N   UNL A   1      34.035  25.865  23.742  1.00  0.00    -0.241 NA
ATOM     19  S   UNL A   1      32.516  25.502  21.692  1.00  0.00    -0.127 S 
ATOM     20  C   UNL A   1      32.950  24.135  22.617  1.00  0.00     0.096 A 
ENDBRANCH  14  15
ENDBRANCH   9  14
ENDBRANCH   6   8
ENDBRANCH   5   6
ENDBRANCH   4   5
ENDBRANCH   3   4
ENDBRANCH   2   3
ENDBRANCH   1   2
BRANCH   1  21
ATOM     21  C   UNL A   1      31.764  29.965  25.282  1.00  0.00     0.188 C 
BRANCH  21  22
ATOM     22  O   UNL A   1      31.365  31.205  25.818  1.00  0.00    -0.376 OA
BRANCH  22  23
ATOM     23  C   UNL A   1      31.956  31.680  27.011  1.00  0.00     0.202 C 
BRANCH  23  24
ATOM     24  C   UNL A   1      32.437  33.129  27.202  1.00  0.00     0.261 C 
BRANCH  24  25
ATOM     25  O   UNL A   1      32.215  33.727  28.487  1.00  0.00    -0.460 OA
BRANCH  25  26
ATOM     26  C   UNL A   1      32.990  34.800  28.785  1.00  0.00     0.338 C 
ATOM     27  O   UNL A   1      32.700  35.983  28.670  1.00  0.00    -0.246 OA
BRANCH  26  28
ATOM     28  C   UNL A   1      34.234  34.338  29.428  1.00  0.00     0.060 A 
ATOM     29  C   UNL A   1      35.463  34.517  28.774  1.00  0.00     0.016 A 
ATOM     30  C   UNL A   1      34.182  33.713  30.672  1.00  0.00     0.016 A 
ATOM     31  C   UNL A   1      36.648  34.087  29.377  1.00  0.00     0.010 A 
ATOM     32  C   UNL A   1      35.365  33.257  31.259  1.00  0.00     0.010 A 
ATOM     33  C   UNL A   1      36.605  33.436  30.616  1.00  0.00    -0.014 A 
BRANCH  33  34
ATOM     34  C   UNL A   1      37.827  32.857  31.228  1.00  0.00     0.031 A 
ATOM     35  C   UNL A   1      38.449  31.636  30.610  1.00  0.00     0.074 A 
ATOM     36  C   UNL A   1      38.343  33.374  32.357  1.00  0.00     0.049 A 
ATOM     37  N   UNL A   1      39.419  30.882  31.062  1.00  0.00    -0.248 NA
ATOM     38  C   UNL A   1      37.902  31.206  29.314  1.00  0.00     0.031 C 
ATOM     39  C   UNL A   1      37.869  34.582  33.030  1.00  0.00     0.029 A 
ATOM     40  N   UNL A   1      39.370  32.925  33.152  1.00  0.00    -0.354 N 
ATOM     41  C   UNL A   1      39.584  29.876  30.118  1.00  0.00     0.074 A 
ATOM     42  C   UNL A   1      38.609  30.111  29.074  1.00  0.00     0.031 C 
ATOM     43  C   UNL A   1      38.592  34.767  34.149  1.00  0.00     0.029 A 
ATOM     44  C   UNL A   1      39.541  33.666  34.297  1.00  0.00     0.049 A 
ATOM     45  H   UNL A   1      39.929  32.148  32.923  1.00  0.00     0.167 HD
ATOM     46  C   UNL A   1      40.463  28.846  30.125  1.00  0.00     0.031 A 
ATOM     47  C   UNL A   1      40.341  33.456  35.362  1.00  0.00     0.031 A 
ATOM     48  C   UNL A   1      41.422  28.602  31.171  1.00  0.00     0.049 A 
ATOM     49  C   UNL A   1      41.230  32.238  35.394  1.00  0.00     0.074 A 
ATOM     50  C   UNL A   1      42.378  27.604  31.245  1.00  0.00     0.029 A 
ATOM     51  N   UNL A   1      41.531  29.348  32.333  1.00  0.00    -0.354 N 
ATOM     52  N   UNL A   1      41.412  31.319  34.478  1.00  0.00    -0.248 NA
ATOM     53  C   UNL A   1      42.020  32.027  36.619  1.00  0.00     0.031 C 
ATOM     54  C   UNL A   1      43.015  27.701  32.486  1.00  0.00     0.029 A 
ATOM     55  C   UNL A   1      42.503  28.802  33.153  1.00  0.00     0.049 A 
ATOM     56  H   UNL A   1      40.997  30.148  32.544  1.00  0.00     0.167 HD
ATOM     57  C   UNL A   1      42.350  30.438  35.003  1.00  0.00     0.074 A 
ATOM     58  C   UNL A   1      42.716  30.942  36.310  1.00  0.00     0.031 C 
ATOM     59  C   UNL A   1      42.859  29.308  34.454  1.00  0.00     0.031 A 
BRANCH  46  60
ATOM     60  C   UNL A   1      40.402  27.867  28.986  1.00  0.00    -0.014 A 
ATOM     61  C   UNL A   1      39.614  26.709  29.053  1.00  0.00     0.009 A 
ATOM     62  C   UNL A   1      41.103  28.143  27.800  1.00  0.00     0.009 A 
ATOM     63  C   UNL A   1      39.551  25.833  27.967  1.00  0.00     0.001 A 
ATOM     64  C   UNL A   1      41.016  27.283  26.705  1.00  0.00     0.001 A 
ATOM     65  C   UNL A   1      40.245  26.124  26.793  1.00  0.00     0.000 A 
ENDBRANCH  46  60
BRANCH  47  66
ATOM     66  C   UNL A   1      40.316  34.392  36.518  1.00  0.00    -0.014 A 
ATOM     67  C   UNL A   1      39.441  34.173  37.594  1.00  0.00     0.009 A 
ATOM     68  C   UNL A   1      41.135  35.533  36.534  1.00  0.00     0.009 A 
ATOM     69  C   UNL A   1      39.368  35.091  38.645  1.00  0.00     0.001 A 
ATOM     70  C   UNL A   1      41.083  36.431  37.602  1.00  0.00     0.001 A 
ATOM     71  C   UNL A   1      40.191  36.215  38.651  1.00  0.00     0.000 A 
ENDBRANCH  47  66
BRANCH  59  72
ATOM     72  C   UNL A   1      43.884  28.547  35.249  1.00  0.00    -0.014 A 
ATOM     73  C   UNL A   1      45.254  28.839  35.140  1.00  0.00     0.009 A 
ATOM     74  C   UNL A   1      43.471  27.566  36.164  1.00  0.00     0.009 A 
ATOM     75  C   UNL A   1      46.188  28.146  35.913  1.00  0.00     0.001 A 
ATOM     76  C   UNL A   1      44.405  26.896  36.959  1.00  0.00     0.001 A 
ATOM     77  C   UNL A   1      45.762  27.182  36.827  1.00  0.00     0.000 A 
ENDBRANCH  59  72
ENDBRANCH  33  34
ENDBRANCH  26  28
ENDBRANCH  25  26
ENDBRANCH  24  25
ENDBRANCH  23  24
ENDBRANCH  22  23
ENDBRANCH  21  22
ENDBRANCH   1  21
TORSDOF 19
ENDMDL
