MODEL 1
REMARK VINA RESULT:     -12.8      0.000      0.000
REMARK SMILES O=C1O[C@@H](c2ccc(O)c(O)c2)[C@H](C(=O)OCCOCCOCCOC(=O)c2ccc(-c3c4nc(c(-c5ccccc5)c5ccc([nH]5)c(-c5ccccc5)c5nc(c(-c6ccccc6)c6ccc3[nH]6)C=C5)C=C4)cc2)/C1=C\c1ccc(O)c(O)c1
REMARK SMILES IDX 20 1 19 2 18 3 17 4 16 5 14 6 15 7 13 8 1 9 2 10 3 11 76 12
REMARK SMILES IDX 4 13 77 14 5 15 6 16 12 17 7 18 10 19 8 20 11 21 9 23 78 25
REMARK SMILES IDX 79 26 85 27 80 28 83 29 81 30 84 31 82 33 21 35 22 36 23 37
REMARK SMILES IDX 24 38 25 39 26 40 27 41 28 42 29 43 75 44 30 45 74 46 31 47
REMARK SMILES IDX 32 48 33 49 68 50 34 51 73 52 67 53 69 54 35 55 72 56 66 57
REMARK SMILES IDX 65 58 36 60 58 61 43 62 57 63 44 64 47 65 56 66 70 67 45 68
REMARK SMILES IDX 46 69 55 71 71 72 48 73 37 74 38 75 42 76 39 77 41 78 40 79
REMARK SMILES IDX 59 80 60 81 64 82 61 83 63 84 62 85 49 86 50 87 54 88 51 89
REMARK SMILES IDX 53 90 52 91
REMARK H PARENT 11 22 9 24 84 32 82 34 69 59 47 70
REMARK Flexibility Score: inf
ROOT
ATOM      1  C   UNL A   1      40.535  20.046  26.513  1.00  0.00     0.188 C 
ENDROOT
BRANCH   1   2
ATOM      2  O   UNL A   1      39.932  21.303  26.687  1.00  0.00    -0.376 OA
BRANCH   2   3
ATOM      3  C   UNL A   1      39.031  21.802  25.727  1.00  0.00     0.202 C 
BRANCH   3   4
ATOM      4  C   UNL A   1      37.828  22.690  26.086  1.00  0.00     0.261 C 
BRANCH   4   5
ATOM      5  O   UNL A   1      36.734  22.709  25.156  1.00  0.00    -0.463 OA
BRANCH   5   6
ATOM      6  C   UNL A   1      35.654  23.478  25.499  1.00  0.00     0.317 C 
ATOM      7  O   UNL A   1      35.723  24.595  25.987  1.00  0.00    -0.251 OA
BRANCH   6   8
ATOM      8  C   UNL A   1      34.360  22.747  25.144  1.00  0.00     0.182 C 
ATOM      9  O   UNL A   1      32.841  22.290  28.298  1.00  0.00    -0.247 OA
ATOM     10  C   UNL A   1      33.385  22.180  27.216  1.00  0.00     0.335 C 
ATOM     11  O   UNL A   1      34.221  21.166  26.849  1.00  0.00    -0.453 OA
ATOM     12  C   UNL A   1      33.247  23.105  26.061  1.00  0.00     0.056 C 
ATOM     13  C   UNL A   1      34.573  21.278  25.456  1.00  0.00     0.226 C 
ATOM     14  C   UNL A   1      32.212  23.959  25.965  1.00  0.00     0.020 C 
BRANCH  13  15
ATOM     15  C   UNL A   1      33.771  20.314  24.589  1.00  0.00    -0.002 A 
ATOM     16  C   UNL A   1      32.818  20.794  23.664  1.00  0.00     0.012 A 
ATOM     17  C   UNL A   1      34.011  18.932  24.636  1.00  0.00     0.057 A 
ATOM     18  C   UNL A   1      32.103  19.917  22.836  1.00  0.00     0.050 A 
ATOM     19  C   UNL A   1      33.304  18.071  23.806  1.00  0.00     0.157 A 
ATOM     20  C   UNL A   1      32.355  18.555  22.913  1.00  0.00     0.157 A 
BRANCH  19  21
ATOM     21  O   UNL A   1      33.565  16.732  23.866  1.00  0.00    -0.504 OA
ATOM     22  H   UNL A   1      33.963  16.366  24.631  1.00  0.00     0.293 HD
ENDBRANCH  19  21
BRANCH  20  23
ATOM     23  O   UNL A   1      31.709  17.649  22.120  1.00  0.00    -0.504 OA
ATOM     24  H   UNL A   1      30.798  17.759  21.929  1.00  0.00     0.293 HD
ENDBRANCH  20  23
ENDBRANCH  13  15
BRANCH  14  25
ATOM     25  C   UNL A   1      31.870  24.880  24.857  1.00  0.00    -0.021 A 
ATOM     26  C   UNL A   1      30.733  26.206  25.167  1.00  0.00     0.012 A 
ATOM     27  C   UNL A   1      32.741  24.708  23.348  1.00  0.00     0.058 A 
ATOM     28  C   UNL A   1      30.352  27.474  23.994  1.00  0.00     0.051 A 
ATOM     29  C   UNL A   1      32.476  25.918  22.033  1.00  0.00     0.157 A 
ATOM     30  C   UNL A   1      31.166  27.428  22.378  1.00  0.00     0.157 A 
BRANCH  29  31
ATOM     31  O   UNL A   1      33.231  25.433  20.954  1.00  0.00    -0.504 OA
ATOM     32  H   UNL A   1      33.240  25.901  20.142  1.00  0.00     0.293 HD
ENDBRANCH  29  31
BRANCH  30  33
ATOM     33  O   UNL A   1      30.584  28.447  21.616  1.00  0.00    -0.504 OA
ATOM     34  H   UNL A   1      30.586  28.392  20.681  1.00  0.00     0.293 HD
ENDBRANCH  30  33
ENDBRANCH  14  25
ENDBRANCH   6   8
ENDBRANCH   5   6
ENDBRANCH   4   5
ENDBRANCH   3   4
ENDBRANCH   2   3
ENDBRANCH   1   2
BRANCH   1  35
ATOM     35  C   UNL A   1      41.907  19.728  27.156  1.00  0.00     0.188 C 
BRANCH  35  36
ATOM     36  O   UNL A   1      42.855  18.956  26.459  1.00  0.00    -0.376 OA
BRANCH  36  37
ATOM     37  C   UNL A   1      43.478  19.534  25.325  1.00  0.00     0.202 C 
BRANCH  37  38
ATOM     38  C   UNL A   1      44.141  20.923  25.376  1.00  0.00     0.261 C 
BRANCH  38  39
ATOM     39  O   UNL A   1      43.382  21.986  24.780  1.00  0.00    -0.460 OA
BRANCH  39  40
ATOM     40  C   UNL A   1      44.055  23.141  24.578  1.00  0.00     0.338 C 
ATOM     41  O   UNL A   1      45.019  23.338  23.857  1.00  0.00    -0.246 OA
BRANCH  40  42
ATOM     42  C   UNL A   1      43.378  24.251  25.247  1.00  0.00     0.060 A 
ATOM     43  C   UNL A   1      44.088  25.922  25.248  1.00  0.00     0.016 A 
ATOM     44  C   UNL A   1      42.199  23.830  26.479  1.00  0.00     0.016 A 
ATOM     45  C   UNL A   1      43.479  27.203  26.691  1.00  0.00     0.010 A 
ATOM     46  C   UNL A   1      41.678  24.962  27.744  1.00  0.00     0.010 A 
ATOM     47  C   UNL A   1      42.281  26.612  27.899  1.00  0.00    -0.014 A 
BRANCH  47  48
ATOM     48  C   UNL A   1      41.860  27.429  29.047  1.00  0.00     0.031 A 
ATOM     49  C   UNL A   1      42.614  27.355  30.343  1.00  0.00     0.074 A 
ATOM     50  C   UNL A   1      40.755  28.182  28.915  1.00  0.00     0.049 A 
ATOM     51  N   UNL A   1      42.360  27.936  31.488  1.00  0.00    -0.248 NA
ATOM     52  C   UNL A   1      43.805  26.494  30.375  1.00  0.00     0.031 C 
ATOM     53  C   UNL A   1      39.936  28.276  27.709  1.00  0.00     0.029 A 
ATOM     54  N   UNL A   1      40.118  28.997  29.809  1.00  0.00    -0.354 N 
ATOM     55  C   UNL A   1      43.346  27.492  32.365  1.00  0.00     0.074 A 
ATOM     56  C   UNL A   1      44.174  26.561  31.643  1.00  0.00     0.031 C 
ATOM     57  C   UNL A   1      38.923  29.126  27.922  1.00  0.00     0.029 A 
ATOM     58  C   UNL A   1      38.987  29.588  29.300  1.00  0.00     0.049 A 
ATOM     59  H   UNL A   1      40.437  29.146  30.729  1.00  0.00     0.167 HD
ATOM     60  C   UNL A   1      43.546  27.839  33.658  1.00  0.00     0.031 A 
ATOM     61  C   UNL A   1      38.091  30.397  29.890  1.00  0.00     0.031 A 
ATOM     62  C   UNL A   1      42.683  28.748  34.360  1.00  0.00     0.049 A 
ATOM     63  C   UNL A   1      38.318  30.752  31.330  1.00  0.00     0.074 A 
ATOM     64  C   UNL A   1      42.772  29.202  35.662  1.00  0.00     0.029 A 
ATOM     65  N   UNL A   1      41.555  29.337  33.802  1.00  0.00    -0.354 N 
ATOM     66  N   UNL A   1      39.281  30.363  32.132  1.00  0.00    -0.248 NA
ATOM     67  C   UNL A   1      37.346  31.663  31.942  1.00  0.00     0.031 C 
ATOM     68  C   UNL A   1      41.663  30.017  35.909  1.00  0.00     0.029 A 
ATOM     69  C   UNL A   1      40.925  30.132  34.739  1.00  0.00     0.049 A 
ATOM     70  H   UNL A   1      41.250  29.206  32.875  1.00  0.00     0.167 HD
ATOM     71  C   UNL A   1      39.047  30.998  33.341  1.00  0.00     0.074 A 
ATOM     72  C   UNL A   1      37.864  31.819  33.152  1.00  0.00     0.031 C 
ATOM     73  C   UNL A   1      39.739  30.918  34.505  1.00  0.00     0.031 A 
BRANCH  60  74
ATOM     74  C   UNL A   1      44.706  27.203  34.381  1.00  0.00    -0.014 A 
ATOM     75  C   UNL A   1      44.553  26.009  35.110  1.00  0.00     0.009 A 
ATOM     76  C   UNL A   1      45.972  27.806  34.346  1.00  0.00     0.009 A 
ATOM     77  C   UNL A   1      45.626  25.463  35.822  1.00  0.00     0.001 A 
ATOM     78  C   UNL A   1      47.052  27.241  35.031  1.00  0.00     0.001 A 
ATOM     79  C   UNL A   1      46.875  26.079  35.780  1.00  0.00     0.000 A 
ENDBRANCH  60  74
BRANCH  61  80
ATOM     80  C   UNL A   1      36.928  30.914  29.119  1.00  0.00    -0.014 A 
ATOM     81  C   UNL A   1      36.892  32.248  28.687  1.00  0.00     0.009 A 
ATOM     82  C   UNL A   1      35.863  30.064  28.773  1.00  0.00     0.009 A 
ATOM     83  C   UNL A   1      35.806  32.726  27.948  1.00  0.00     0.001 A 
ATOM     84  C   UNL A   1      34.796  30.535  28.003  1.00  0.00     0.001 A 
ATOM     85  C   UNL A   1      34.763  31.868  27.601  1.00  0.00     0.000 A 
ENDBRANCH  61  80
BRANCH  73  86
ATOM     86  C   UNL A   1      39.242  31.770  35.635  1.00  0.00    -0.014 A 
ATOM     87  C   UNL A   1      38.273  31.300  36.534  1.00  0.00     0.009 A 
ATOM     88  C   UNL A   1      39.772  33.058  35.809  1.00  0.00     0.009 A 
ATOM     89  C   UNL A   1      37.809  32.126  37.558  1.00  0.00     0.001 A 
ATOM     90  C   UNL A   1      39.334  33.865  36.856  1.00  0.00     0.001 A 
ATOM     91  C   UNL A   1      38.343  33.404  37.720  1.00  0.00     0.000 A 
ENDBRANCH  73  86
ENDBRANCH  47  48
ENDBRANCH  40  42
ENDBRANCH  39  40
ENDBRANCH  38  39
ENDBRANCH  37  38
ENDBRANCH  36  37
ENDBRANCH  35  36
ENDBRANCH   1  35
TORSDOF 23
ENDMDL
MODEL 2
REMARK VINA RESULT:     -12.8      4.119     10.248
REMARK SMILES O=C1O[C@@H](c2ccc(O)c(O)c2)[C@H](C(=O)OCCOCCOCCOC(=O)c2ccc(-c3c4nc(c(-c5ccccc5)c5ccc([nH]5)c(-c5ccccc5)c5nc(c(-c6ccccc6)c6ccc3[nH]6)C=C5)C=C4)cc2)/C1=C\c1ccc(O)c(O)c1
REMARK SMILES IDX 20 1 19 2 18 3 17 4 16 5 14 6 15 7 13 8 1 9 2 10 3 11 76 12
REMARK SMILES IDX 4 13 77 14 5 15 6 16 12 17 7 18 10 19 8 20 11 21 9 23 78 25
REMARK SMILES IDX 79 26 85 27 80 28 83 29 81 30 84 31 82 33 21 35 22 36 23 37
REMARK SMILES IDX 24 38 25 39 26 40 27 41 28 42 29 43 75 44 30 45 74 46 31 47
REMARK SMILES IDX 32 48 33 49 68 50 34 51 73 52 67 53 69 54 35 55 72 56 66 57
REMARK SMILES IDX 65 58 36 60 58 61 43 62 57 63 44 64 47 65 56 66 70 67 45 68
REMARK SMILES IDX 46 69 55 71 71 72 48 73 37 74 38 75 42 76 39 77 41 78 40 79
REMARK SMILES IDX 59 80 60 81 64 82 61 83 63 84 62 85 49 86 50 87 54 88 51 89
REMARK SMILES IDX 53 90 52 91
REMARK H PARENT 11 22 9 24 84 32 82 34 69 59 47 70
REMARK Flexibility Score: inf
ROOT
ATOM      1  C   UNL A   1      34.234  33.048  28.137  1.00  0.00     0.188 C 
ENDROOT
BRANCH   1   2
ATOM      2  O   UNL A   1      33.714  31.791  27.786  1.00  0.00    -0.376 OA
BRANCH   2   3
ATOM      3  C   UNL A   1      34.568  30.680  27.641  1.00  0.00     0.202 C 
BRANCH   3   4
ATOM      4  C   UNL A   1      34.053  29.245  27.445  1.00  0.00     0.261 C 
BRANCH   4   5
ATOM      5  O   UNL A   1      33.355  28.966  26.221  1.00  0.00    -0.463 OA
BRANCH   5   6
ATOM      6  C   UNL A   1      33.567  27.734  25.664  1.00  0.00     0.317 C 
ATOM      7  O   UNL A   1      34.481  26.982  25.967  1.00  0.00    -0.251 OA
BRANCH   6   8
ATOM      8  C   UNL A   1      32.473  27.428  24.643  1.00  0.00     0.182 C 
ATOM      9  O   UNL A   1      34.084  28.074  21.569  1.00  0.00    -0.247 OA
ATOM     10  C   UNL A   1      33.380  28.065  22.560  1.00  0.00     0.335 C 
ATOM     11  O   UNL A   1      32.761  29.152  23.104  1.00  0.00    -0.453 OA
ATOM     12  C   UNL A   1      33.027  26.876  23.379  1.00  0.00     0.056 C 
ATOM     13  C   UNL A   1      31.899  28.756  24.188  1.00  0.00     0.226 C 
ATOM     14  C   UNL A   1      33.144  25.627  22.893  1.00  0.00     0.020 C 
BRANCH  13  15
ATOM     15  C   UNL A   1      30.436  28.712  23.762  1.00  0.00    -0.002 A 
ATOM     16  C   UNL A   1      29.710  27.502  23.791  1.00  0.00     0.012 A 
ATOM     17  C   UNL A   1      29.754  29.884  23.400  1.00  0.00     0.057 A 
ATOM     18  C   UNL A   1      28.354  27.459  23.438  1.00  0.00     0.050 A 
ATOM     19  C   UNL A   1      28.409  29.834  23.059  1.00  0.00     0.157 A 
ATOM     20  C   UNL A   1      27.710  28.633  23.074  1.00  0.00     0.157 A 
BRANCH  19  21
ATOM     21  O   UNL A   1      27.769  30.992  22.719  1.00  0.00    -0.504 OA
ATOM     22  H   UNL A   1      28.257  31.714  22.377  1.00  0.00     0.293 HD
ENDBRANCH  19  21
BRANCH  20  23
ATOM     23  O   UNL A   1      26.386  28.663  22.738  1.00  0.00    -0.504 OA
ATOM     24  H   UNL A   1      25.735  28.453  23.378  1.00  0.00     0.293 HD
ENDBRANCH  20  23
ENDBRANCH  13  15
BRANCH  14  25
ATOM     25  C   UNL A   1      32.762  24.345  23.528  1.00  0.00    -0.021 A 
ATOM     26  C   UNL A   1      33.789  22.922  23.271  1.00  0.00     0.012 A 
ATOM     27  C   UNL A   1      31.406  24.350  24.636  1.00  0.00     0.058 A 
ATOM     28  C   UNL A   1      33.551  21.371  24.087  1.00  0.00     0.051 A 
ATOM     29  C   UNL A   1      31.015  22.848  25.559  1.00  0.00     0.157 A 
ATOM     30  C   UNL A   1      32.179  21.215  25.258  1.00  0.00     0.157 A 
BRANCH  29  31
ATOM     31  O   UNL A   1      29.837  23.161  26.256  1.00  0.00    -0.504 OA
ATOM     32  H   UNL A   1      29.827  23.879  26.858  1.00  0.00     0.293 HD
ENDBRANCH  29  31
BRANCH  30  33
ATOM     33  O   UNL A   1      32.141  19.869  25.640  1.00  0.00    -0.504 OA
ATOM     34  H   UNL A   1      32.869  19.489  26.092  1.00  0.00     0.293 HD
ENDBRANCH  30  33
ENDBRANCH  14  25
ENDBRANCH   6   8
ENDBRANCH   5   6
ENDBRANCH   4   5
ENDBRANCH   3   4
ENDBRANCH   2   3
ENDBRANCH   1   2
BRANCH   1  35
ATOM     35  C   UNL A   1      33.295  34.256  28.375  1.00  0.00     0.188 C 
BRANCH  35  36
ATOM     36  O   UNL A   1      32.796  34.522  29.663  1.00  0.00    -0.376 OA
BRANCH  36  37
ATOM     37  C   UNL A   1      33.620  35.249  30.559  1.00  0.00     0.202 C 
BRANCH  37  38
ATOM     38  C   UNL A   1      34.029  34.686  31.933  1.00  0.00     0.261 C 
BRANCH  38  39
ATOM     39  O   UNL A   1      34.280  33.273  31.966  1.00  0.00    -0.460 OA
BRANCH  39  40
ATOM     40  C   UNL A   1      35.151  32.856  32.911  1.00  0.00     0.338 C 
ATOM     41  O   UNL A   1      35.154  33.116  34.104  1.00  0.00    -0.246 OA
BRANCH  40  42
ATOM     42  C   UNL A   1      36.081  31.876  32.354  1.00  0.00     0.060 A 
ATOM     43  C   UNL A   1      37.287  31.018  33.407  1.00  0.00     0.016 A 
ATOM     44  C   UNL A   1      36.374  31.960  30.624  1.00  0.00     0.016 A 
ATOM     45  C   UNL A   1      38.915  30.216  32.512  1.00  0.00     0.010 A 
ATOM     46  C   UNL A   1      37.811  31.256  29.853  1.00  0.00     0.010 A 
ATOM     47  C   UNL A   1      39.084  30.409  30.730  1.00  0.00    -0.014 A 
BRANCH  47  48
ATOM     48  C   UNL A   1      40.282  29.957  30.006  1.00  0.00     0.031 A 
ATOM     49  C   UNL A   1      41.438  30.895  29.800  1.00  0.00     0.074 A 
ATOM     50  C   UNL A   1      40.278  28.718  29.486  1.00  0.00     0.049 A 
ATOM     51  N   UNL A   1      42.547  30.713  29.129  1.00  0.00    -0.248 NA
ATOM     52  C   UNL A   1      41.333  32.228  30.408  1.00  0.00     0.031 C 
ATOM     53  C   UNL A   1      39.179  27.760  29.596  1.00  0.00     0.029 A 
ATOM     54  N   UNL A   1      41.217  28.057  28.744  1.00  0.00    -0.354 N 
ATOM     55  C   UNL A   1      43.248  31.912  29.226  1.00  0.00     0.074 A 
ATOM     56  C   UNL A   1      42.427  32.829  29.975  1.00  0.00     0.031 C 
ATOM     57  C   UNL A   1      39.516  26.622  28.976  1.00  0.00     0.029 A 
ATOM     58  C   UNL A   1      40.829  26.792  28.373  1.00  0.00     0.049 A 
ATOM     59  H   UNL A   1      42.087  28.448  28.500  1.00  0.00     0.167 HD
ATOM     60  C   UNL A   1      44.473  32.217  28.738  1.00  0.00     0.031 A 
ATOM     61  C   UNL A   1      41.457  25.882  27.611  1.00  0.00     0.031 A 
ATOM     62  C   UNL A   1      45.254  31.290  27.967  1.00  0.00     0.049 A 
ATOM     63  C   UNL A   1      42.804  26.247  27.060  1.00  0.00     0.074 A 
ATOM     64  C   UNL A   1      46.514  31.455  27.423  1.00  0.00     0.029 A 
ATOM     65  N   UNL A   1      44.829  30.012  27.624  1.00  0.00    -0.354 N 
ATOM     66  N   UNL A   1      43.475  27.367  27.199  1.00  0.00    -0.248 NA
ATOM     67  C   UNL A   1      43.485  25.225  26.260  1.00  0.00     0.031 C 
ATOM     68  C   UNL A   1      46.824  30.298  26.701  1.00  0.00     0.029 A 
ATOM     69  C   UNL A   1      45.791  29.384  26.857  1.00  0.00     0.049 A 
ATOM     70  H   UNL A   1      43.968  29.613  27.890  1.00  0.00     0.167 HD
ATOM     71  C   UNL A   1      44.670  27.179  26.523  1.00  0.00     0.074 A 
ATOM     72  C   UNL A   1      44.638  25.826  26.000  1.00  0.00     0.031 C 
ATOM     73  C   UNL A   1      45.704  28.039  26.347  1.00  0.00     0.031 A 
BRANCH  60  74
ATOM     74  C   UNL A   1      45.002  33.606  28.993  1.00  0.00    -0.014 A 
ATOM     75  C   UNL A   1      44.640  34.693  28.177  1.00  0.00     0.009 A 
ATOM     76  C   UNL A   1      45.884  33.837  30.060  1.00  0.00     0.009 A 
ATOM     77  C   UNL A   1      45.185  35.963  28.393  1.00  0.00     0.001 A 
ATOM     78  C   UNL A   1      46.402  35.114  30.295  1.00  0.00     0.001 A 
ATOM     79  C   UNL A   1      46.063  36.172  29.454  1.00  0.00     0.000 A 
ENDBRANCH  60  74
BRANCH  61  80
ATOM     80  C   UNL A   1      40.821  24.564  27.343  1.00  0.00    -0.014 A 
ATOM     81  C   UNL A   1      41.337  23.391  27.914  1.00  0.00     0.009 A 
ATOM     82  C   UNL A   1      39.667  24.474  26.547  1.00  0.00     0.009 A 
ATOM     83  C   UNL A   1      40.727  22.156  27.675  1.00  0.00     0.001 A 
ATOM     84  C   UNL A   1      39.038  23.243  26.338  1.00  0.00     0.001 A 
ATOM     85  C   UNL A   1      39.575  22.085  26.893  1.00  0.00     0.000 A 
ENDBRANCH  61  80
BRANCH  73  86
ATOM     86  C   UNL A   1      46.885  27.512  25.586  1.00  0.00    -0.014 A 
ATOM     87  C   UNL A   1      47.060  27.790  24.222  1.00  0.00     0.009 A 
ATOM     88  C   UNL A   1      47.846  26.741  26.259  1.00  0.00     0.009 A 
ATOM     89  C   UNL A   1      48.152  27.263  23.535  1.00  0.00     0.001 A 
ATOM     90  C   UNL A   1      48.956  26.248  25.577  1.00  0.00     0.001 A 
ATOM     91  C   UNL A   1      49.101  26.497  24.213  1.00  0.00     0.000 A 
ENDBRANCH  73  86
ENDBRANCH  47  48
ENDBRANCH  40  42
ENDBRANCH  39  40
ENDBRANCH  38  39
ENDBRANCH  37  38
ENDBRANCH  36  37
ENDBRANCH  35  36
ENDBRANCH   1  35
TORSDOF 23
ENDMDL
MODEL 3
REMARK VINA RESULT:     -12.6      0.647      5.614
REMARK SMILES O=C1O[C@@H](c2ccc(O)c(O)c2)[C@H](C(=O)OCCOCCOCCOC(=O)c2ccc(-c3c4nc(c(-c5ccccc5)c5ccc([nH]5)c(-c5ccccc5)c5nc(c(-c6ccccc6)c6ccc3[nH]6)C=C5)C=C4)cc2)/C1=C\c1ccc(O)c(O)c1
REMARK SMILES IDX 20 1 19 2 18 3 17 4 16 5 14 6 15 7 13 8 1 9 2 10 3 11 76 12
REMARK SMILES IDX 4 13 77 14 5 15 6 16 12 17 7 18 10 19 8 20 11 21 9 23 78 25
REMARK SMILES IDX 79 26 85 27 80 28 83 29 81 30 84 31 82 33 21 35 22 36 23 37
REMARK SMILES IDX 24 38 25 39 26 40 27 41 28 42 29 43 75 44 30 45 74 46 31 47
REMARK SMILES IDX 32 48 33 49 68 50 34 51 73 52 67 53 69 54 35 55 72 56 66 57
REMARK SMILES IDX 65 58 36 60 58 61 43 62 57 63 44 64 47 65 56 66 70 67 45 68
REMARK SMILES IDX 46 69 55 71 71 72 48 73 37 74 38 75 42 76 39 77 41 78 40 79
REMARK SMILES IDX 59 80 60 81 64 82 61 83 63 84 62 85 49 86 50 87 54 88 51 89
REMARK SMILES IDX 53 90 52 91
REMARK H PARENT 11 22 9 24 84 32 82 34 69 59 47 70
REMARK Flexibility Score: inf
ROOT
ATOM      1  C   UNL A   1      40.466  19.660  25.943  1.00  0.00     0.188 C 
ENDROOT
BRANCH   1   2
ATOM      2  O   UNL A   1      39.935  20.960  25.891  1.00  0.00    -0.376 OA
BRANCH   2   3
ATOM      3  C   UNL A   1      38.546  21.159  25.774  1.00  0.00     0.202 C 
BRANCH   3   4
ATOM      4  C   UNL A   1      37.898  22.553  25.744  1.00  0.00     0.261 C 
BRANCH   4   5
ATOM      5  O   UNL A   1      36.787  22.734  24.852  1.00  0.00    -0.463 OA
BRANCH   5   6
ATOM      6  C   UNL A   1      35.726  23.453  25.334  1.00  0.00     0.317 C 
ATOM      7  O   UNL A   1      35.820  24.524  25.915  1.00  0.00    -0.251 OA
BRANCH   6   8
ATOM      8  C   UNL A   1      34.418  22.739  25.004  1.00  0.00     0.182 C 
ATOM      9  O   UNL A   1      32.974  22.259  28.190  1.00  0.00    -0.247 OA
ATOM     10  C   UNL A   1      33.490  22.156  27.094  1.00  0.00     0.335 C 
ATOM     11  O   UNL A   1      34.307  21.139  26.694  1.00  0.00    -0.453 OA
ATOM     12  C   UNL A   1      33.332  23.095  25.953  1.00  0.00     0.056 C 
ATOM     13  C   UNL A   1      34.625  21.264  25.295  1.00  0.00     0.226 C 
ATOM     14  C   UNL A   1      32.302  23.960  25.892  1.00  0.00     0.020 C 
BRANCH  13  15
ATOM     15  C   UNL A   1      33.792  20.317  24.438  1.00  0.00    -0.002 A 
ATOM     16  C   UNL A   1      32.894  20.817  23.470  1.00  0.00     0.012 A 
ATOM     17  C   UNL A   1      33.951  18.926  24.538  1.00  0.00     0.057 A 
ATOM     18  C   UNL A   1      32.153  19.953  22.651  1.00  0.00     0.050 A 
ATOM     19  C   UNL A   1      33.219  18.078  23.718  1.00  0.00     0.157 A 
ATOM     20  C   UNL A   1      32.324  18.583  22.781  1.00  0.00     0.157 A 
BRANCH  19  21
ATOM     21  O   UNL A   1      33.400  16.729  23.831  1.00  0.00    -0.504 OA
ATOM     22  H   UNL A   1      34.241  16.353  23.661  1.00  0.00     0.293 HD
ENDBRANCH  19  21
BRANCH  20  23
ATOM     23  O   UNL A   1      31.648  17.687  22.001  1.00  0.00    -0.504 OA
ATOM     24  H   UNL A   1      32.101  16.960  21.621  1.00  0.00     0.293 HD
ENDBRANCH  20  23
ENDBRANCH  13  15
BRANCH  14  25
ATOM     25  C   UNL A   1      31.941  24.896  24.803  1.00  0.00    -0.021 A 
ATOM     26  C   UNL A   1      30.783  26.197  25.142  1.00  0.00     0.012 A 
ATOM     27  C   UNL A   1      32.809  24.768  23.288  1.00  0.00     0.058 A 
ATOM     28  C   UNL A   1      30.377  27.481  23.995  1.00  0.00     0.051 A 
ATOM     29  C   UNL A   1      32.520  25.998  21.998  1.00  0.00     0.157 A 
ATOM     30  C   UNL A   1      31.186  27.479  22.376  1.00  0.00     0.157 A 
BRANCH  29  31
ATOM     31  O   UNL A   1      33.278  25.547  20.907  1.00  0.00    -0.504 OA
ATOM     32  H   UNL A   1      33.053  25.815  20.038  1.00  0.00     0.293 HD
ENDBRANCH  29  31
BRANCH  30  33
ATOM     33  O   UNL A   1      30.585  28.503  21.636  1.00  0.00    -0.504 OA
ATOM     34  H   UNL A   1      30.785  28.603  20.726  1.00  0.00     0.293 HD
ENDBRANCH  30  33
ENDBRANCH  14  25
ENDBRANCH   6   8
ENDBRANCH   5   6
ENDBRANCH   4   5
ENDBRANCH   3   4
ENDBRANCH   2   3
ENDBRANCH   1   2
BRANCH   1  35
ATOM     35  C   UNL A   1      41.975  19.429  26.205  1.00  0.00     0.188 C 
BRANCH  35  36
ATOM     36  O   UNL A   1      42.909  19.600  25.167  1.00  0.00    -0.376 OA
BRANCH  36  37
ATOM     37  C   UNL A   1      43.971  20.516  25.373  1.00  0.00     0.202 C 
BRANCH  37  38
ATOM     38  C   UNL A   1      44.476  21.447  24.255  1.00  0.00     0.261 C 
BRANCH  38  39
ATOM     39  O   UNL A   1      43.830  22.727  24.186  1.00  0.00    -0.460 OA
BRANCH  39  40
ATOM     40  C   UNL A   1      44.527  23.761  24.709  1.00  0.00     0.338 C 
ATOM     41  O   UNL A   1      45.709  24.027  24.563  1.00  0.00    -0.246 OA
BRANCH  40  42
ATOM     42  C   UNL A   1      43.631  24.681  25.406  1.00  0.00     0.060 A 
ATOM     43  C   UNL A   1      43.913  26.475  25.373  1.00  0.00     0.016 A 
ATOM     44  C   UNL A   1      42.643  24.002  26.690  1.00  0.00     0.016 A 
ATOM     45  C   UNL A   1      43.073  27.587  26.840  1.00  0.00     0.010 A 
ATOM     46  C   UNL A   1      41.917  24.990  27.975  1.00  0.00     0.010 A 
ATOM     47  C   UNL A   1      42.107  26.738  28.101  1.00  0.00    -0.014 A 
BRANCH  47  48
ATOM     48  C   UNL A   1      41.550  27.443  29.265  1.00  0.00     0.031 A 
ATOM     49  C   UNL A   1      40.247  28.181  29.147  1.00  0.00     0.074 A 
ATOM     50  C   UNL A   1      42.268  27.457  30.400  1.00  0.00     0.049 A 
ATOM     51  N   UNL A   1      39.627  28.922  30.030  1.00  0.00    -0.248 NA
ATOM     52  C   UNL A   1      39.548  28.102  27.856  1.00  0.00     0.031 C 
ATOM     53  C   UNL A   1      43.564  26.808  30.587  1.00  0.00     0.029 A 
ATOM     54  N   UNL A   1      42.023  28.055  31.605  1.00  0.00    -0.354 N 
ATOM     55  C   UNL A   1      38.488  29.402  29.389  1.00  0.00     0.074 A 
ATOM     56  C   UNL A   1      38.520  28.914  28.035  1.00  0.00     0.031 C 
ATOM     57  C   UNL A   1      43.989  27.011  31.841  1.00  0.00     0.029 A 
ATOM     58  C   UNL A   1      43.023  27.856  32.526  1.00  0.00     0.049 A 
ATOM     59  H   UNL A   1      41.210  28.576  31.795  1.00  0.00     0.167 HD
ATOM     60  C   UNL A   1      37.498  30.176  29.892  1.00  0.00     0.031 A 
ATOM     61  C   UNL A   1      43.153  28.325  33.778  1.00  0.00     0.031 A 
ATOM     62  C   UNL A   1      37.511  30.674  31.240  1.00  0.00     0.049 A 
ATOM     63  C   UNL A   1      42.056  29.200  34.310  1.00  0.00     0.074 A 
ATOM     64  C   UNL A   1      36.572  31.453  31.888  1.00  0.00     0.029 A 
ATOM     65  N   UNL A   1      38.538  30.438  32.146  1.00  0.00    -0.354 N 
ATOM     66  N   UNL A   1      40.962  29.607  33.709  1.00  0.00    -0.248 NA
ATOM     67  C   UNL A   1      42.204  29.671  35.690  1.00  0.00     0.031 C 
ATOM     68  C   UNL A   1      37.061  31.738  33.168  1.00  0.00     0.029 A 
ATOM     69  C   UNL A   1      38.268  31.075  33.342  1.00  0.00     0.049 A 
ATOM     70  H   UNL A   1      39.339  29.896  31.963  1.00  0.00     0.167 HD
ATOM     71  C   UNL A   1      40.275  30.365  34.644  1.00  0.00     0.074 A 
ATOM     72  C   UNL A   1      41.069  30.335  35.859  1.00  0.00     0.031 C 
ATOM     73  C   UNL A   1      39.098  31.026  34.519  1.00  0.00     0.031 A 
BRANCH  60  74
ATOM     74  C   UNL A   1      36.366  30.551  28.969  1.00  0.00    -0.014 A 
ATOM     75  C   UNL A   1      36.130  31.887  28.600  1.00  0.00     0.009 A 
ATOM     76  C   UNL A   1      35.513  29.558  28.465  1.00  0.00     0.009 A 
ATOM     77  C   UNL A   1      35.041  32.224  27.789  1.00  0.00     0.001 A 
ATOM     78  C   UNL A   1      34.445  29.891  27.627  1.00  0.00     0.001 A 
ATOM     79  C   UNL A   1      34.201  31.224  27.301  1.00  0.00     0.000 A 
ENDBRANCH  60  74
BRANCH  61  80
ATOM     80  C   UNL A   1      44.348  27.969  34.590  1.00  0.00    -0.014 A 
ATOM     81  C   UNL A   1      45.510  28.752  34.536  1.00  0.00     0.009 A 
ATOM     82  C   UNL A   1      44.319  26.865  35.460  1.00  0.00     0.009 A 
ATOM     83  C   UNL A   1      46.625  28.425  35.313  1.00  0.00     0.001 A 
ATOM     84  C   UNL A   1      45.422  26.562  36.263  1.00  0.00     0.001 A 
ATOM     85  C   UNL A   1      46.577  27.335  36.181  1.00  0.00     0.000 A 
ENDBRANCH  61  80
BRANCH  73  86
ATOM     86  C   UNL A   1      38.599  31.734  35.745  1.00  0.00    -0.014 A 
ATOM     87  C   UNL A   1      37.889  31.051  36.745  1.00  0.00     0.009 A 
ATOM     88  C   UNL A   1      38.865  33.102  35.904  1.00  0.00     0.009 A 
ATOM     89  C   UNL A   1      37.412  31.741  37.859  1.00  0.00     0.001 A 
ATOM     90  C   UNL A   1      38.421  33.779  37.037  1.00  0.00     0.001 A 
ATOM     91  C   UNL A   1      37.683  33.102  38.006  1.00  0.00     0.000 A 
ENDBRANCH  73  86
ENDBRANCH  47  48
ENDBRANCH  40  42
ENDBRANCH  39  40
ENDBRANCH  38  39
ENDBRANCH  37  38
ENDBRANCH  36  37
ENDBRANCH  35  36
ENDBRANCH   1  35
TORSDOF 23
ENDMDL
