MODEL 1
REMARK VINA RESULT:     -10.6      0.000      0.000
REMARK SMILES C[C@H]1CCC[C@H](C)N1C(=O)[C@H]1[C@@H](C(=O)OCCOCCOCCOC(=O)c2ccc(-c3c4nc(c(-c5ccccc5)c5ccc([nH]5)c(-c5ccccc5)c5nc(c(-c6ccccc6)c6ccc3[nH]6)C=C5)C=C4)cc2)[C@H]2CC[C@@H]1O2
REMARK SMILES IDX 20 1 19 2 18 3 17 4 16 5 15 6 13 7 14 8 12 9 11 10 78 11
REMARK SMILES IDX 75 12 77 13 79 14 76 15 9 16 1 17 2 18 3 19 8 20 4 21 6 22
REMARK SMILES IDX 5 23 7 24 10 25 21 26 22 27 23 28 24 29 25 30 26 31 27 32
REMARK SMILES IDX 28 33 74 34 29 35 73 36 30 37 31 38 32 39 67 40 33 41 72 42
REMARK SMILES IDX 66 43 68 44 34 45 71 46 65 47 64 48 35 50 57 51 42 52 56 53
REMARK SMILES IDX 43 54 46 55 55 56 69 57 44 58 45 59 54 61 70 62 47 63 36 64
REMARK SMILES IDX 37 65 41 66 38 67 40 68 39 69 58 70 59 71 63 72 60 73 62 74
REMARK SMILES IDX 61 75 48 76 49 77 53 78 50 79 52 80 51 81
REMARK H PARENT 68 49 46 60
REMARK Flexibility Score: inf
ROOT
ATOM      1  C   UNL A   1      40.585  21.222  26.818  1.00  0.00     0.188 C 
ENDROOT
BRANCH   1   2
ATOM      2  C   UNL A   1      39.608  22.362  26.510  1.00  0.00     0.188 C 
BRANCH   2   3
ATOM      3  O   UNL A   1      38.298  21.933  26.226  1.00  0.00    -0.376 OA
BRANCH   3   4
ATOM      4  C   UNL A   1      37.644  22.333  25.030  1.00  0.00     0.202 C 
BRANCH   4   5
ATOM      5  C   UNL A   1      36.478  23.322  25.084  1.00  0.00     0.261 C 
BRANCH   5   6
ATOM      6  O   UNL A   1      35.736  23.464  26.311  1.00  0.00    -0.463 OA
BRANCH   6   7
ATOM      7  C   UNL A   1      34.557  22.827  26.576  1.00  0.00     0.312 C 
ATOM      8  O   UNL A   1      33.897  22.943  27.590  1.00  0.00    -0.252 OA
BRANCH   7   9
ATOM      9  C   UNL A   1      34.223  22.018  25.333  1.00  0.00     0.143 C 
ATOM     10  C   UNL A   1      33.001  22.278  24.466  1.00  0.00     0.124 C 
ATOM     11  C   UNL A   1      32.735  20.884  23.921  1.00  0.00     0.132 C 
ATOM     12  C   UNL A   1      34.346  20.459  25.469  1.00  0.00     0.133 C 
ATOM     13  C   UNL A   1      32.061  19.832  24.765  1.00  0.00     0.035 C 
ATOM     14  O   UNL A   1      34.092  20.356  24.044  1.00  0.00    -0.373 OA
ATOM     15  C   UNL A   1      33.208  19.381  25.653  1.00  0.00     0.036 C 
BRANCH  10  16
ATOM     16  C   UNL A   1      31.862  23.199  24.850  1.00  0.00     0.229 C 
ATOM     17  C   UNL A   1      33.114  23.794  21.671  1.00  0.00     0.031 C 
ATOM     18  C   UNL A   1      32.574  24.836  22.681  1.00  0.00     0.082 C 
ATOM     19  C   UNL A   1      31.860  26.120  21.595  1.00  0.00     0.025 C 
ATOM     20  N   UNL A   1      31.863  24.510  24.272  1.00  0.00    -0.337 N 
ATOM     21  C   UNL A   1      30.911  27.544  22.160  1.00  0.00     0.004 C 
ATOM     22  C   UNL A   1      30.930  25.867  25.239  1.00  0.00     0.082 C 
ATOM     23  C   UNL A   1      30.308  27.597  24.003  1.00  0.00     0.025 C 
ATOM     24  C   UNL A   1      31.541  25.735  26.759  1.00  0.00     0.031 C 
ATOM     25  O   UNL A   1      31.021  22.821  25.662  1.00  0.00    -0.274 OA
ENDBRANCH  10  16
ENDBRANCH   7   9
ENDBRANCH   6   7
ENDBRANCH   5   6
ENDBRANCH   4   5
ENDBRANCH   3   4
ENDBRANCH   2   3
ENDBRANCH   1   2
BRANCH   1  26
ATOM     26  O   UNL A   1      41.293  20.682  25.719  1.00  0.00    -0.376 OA
BRANCH  26  27
ATOM     27  C   UNL A   1      42.321  19.740  26.040  1.00  0.00     0.202 C 
BRANCH  27  28
ATOM     28  C   UNL A   1      43.764  20.005  25.546  1.00  0.00     0.261 C 
BRANCH  28  29
ATOM     29  O   UNL A   1      43.986  21.323  24.984  1.00  0.00    -0.460 OA
BRANCH  29  30
ATOM     30  C   UNL A   1      44.748  22.163  25.716  1.00  0.00     0.338 C 
ATOM     31  O   UNL A   1      45.967  22.193  25.773  1.00  0.00    -0.246 OA
BRANCH  30  32
ATOM     32  C   UNL A   1      43.944  23.273  26.266  1.00  0.00     0.060 A 
ATOM     33  C   UNL A   1      44.305  24.846  25.611  1.00  0.00     0.016 A 
ATOM     34  C   UNL A   1      43.205  23.219  27.804  1.00  0.00     0.016 A 
ATOM     35  C   UNL A   1      43.870  26.481  26.605  1.00  0.00     0.010 A 
ATOM     36  C   UNL A   1      42.761  24.637  28.697  1.00  0.00     0.010 A 
ATOM     37  C   UNL A   1      43.055  26.286  28.202  1.00  0.00    -0.014 A 
BRANCH  37  38
ATOM     38  C   UNL A   1      42.552  27.256  29.248  1.00  0.00     0.031 A 
ATOM     39  C   UNL A   1      43.096  27.206  30.672  1.00  0.00     0.074 A 
ATOM     40  C   UNL A   1      41.345  27.864  29.099  1.00  0.00     0.049 A 
ATOM     41  N   UNL A   1      42.775  27.934  31.721  1.00  0.00    -0.248 NA
ATOM     42  C   UNL A   1      44.096  26.175  30.978  1.00  0.00     0.031 C 
ATOM     43  C   UNL A   1      40.503  27.830  27.907  1.00  0.00     0.029 A 
ATOM     44  N   UNL A   1      40.576  28.595  29.992  1.00  0.00    -0.354 N 
ATOM     45  C   UNL A   1      43.585  27.492  32.764  1.00  0.00     0.074 A 
ATOM     46  C   UNL A   1      44.352  26.384  32.258  1.00  0.00     0.031 C 
ATOM     47  C   UNL A   1      39.373  28.522  28.115  1.00  0.00     0.029 A 
ATOM     48  C   UNL A   1      39.382  29.052  29.467  1.00  0.00     0.049 A 
ATOM     49  H   UNL A   1      40.856  28.774  30.918  1.00  0.00     0.167 HD
ATOM     50  C   UNL A   1      43.700  27.943  34.039  1.00  0.00     0.031 A 
ATOM     51  C   UNL A   1      38.401  29.823  29.982  1.00  0.00     0.031 A 
ATOM     52  C   UNL A   1      42.821  28.911  34.632  1.00  0.00     0.049 A 
ATOM     53  C   UNL A   1      38.524  30.323  31.396  1.00  0.00     0.074 A 
ATOM     54  C   UNL A   1      42.883  29.482  35.891  1.00  0.00     0.029 A 
ATOM     55  N   UNL A   1      41.672  29.394  34.028  1.00  0.00    -0.354 N 
ATOM     56  N   UNL A   1      39.461  30.082  32.280  1.00  0.00    -0.248 NA
ATOM     57  C   UNL A   1      37.465  31.224  31.873  1.00  0.00     0.031 C 
ATOM     58  C   UNL A   1      41.730  30.254  36.076  1.00  0.00     0.029 A 
ATOM     59  C   UNL A   1      40.998  30.233  34.899  1.00  0.00     0.049 A 
ATOM     60  H   UNL A   1      41.378  29.174  33.115  1.00  0.00     0.167 HD
ATOM     61  C   UNL A   1      39.128  30.836  33.398  1.00  0.00     0.074 A 
ATOM     62  C   UNL A   1      37.914  31.555  33.073  1.00  0.00     0.031 C 
ATOM     63  C   UNL A   1      39.779  30.931  34.583  1.00  0.00     0.031 A 
BRANCH  50  64
ATOM     64  C   UNL A   1      44.827  27.373  34.868  1.00  0.00    -0.014 A 
ATOM     65  C   UNL A   1      44.637  26.196  35.616  1.00  0.00     0.009 A 
ATOM     66  C   UNL A   1      46.086  27.992  34.904  1.00  0.00     0.009 A 
ATOM     67  C   UNL A   1      45.657  25.684  36.419  1.00  0.00     0.001 A 
ATOM     68  C   UNL A   1      47.118  27.457  35.681  1.00  0.00     0.001 A 
ATOM     69  C   UNL A   1      46.900  26.313  36.449  1.00  0.00     0.000 A 
ENDBRANCH  50  64
BRANCH  51  70
ATOM     70  C   UNL A   1      37.251  30.266  29.135  1.00  0.00    -0.014 A 
ATOM     71  C   UNL A   1      37.153  31.611  28.733  1.00  0.00     0.009 A 
ATOM     72  C   UNL A   1      36.243  29.376  28.734  1.00  0.00     0.009 A 
ATOM     73  C   UNL A   1      36.060  32.060  27.984  1.00  0.00     0.001 A 
ATOM     74  C   UNL A   1      35.168  29.819  27.953  1.00  0.00     0.001 A 
ATOM     75  C   UNL A   1      35.071  31.162  27.590  1.00  0.00     0.000 A 
ENDBRANCH  51  70
BRANCH  63  76
ATOM     76  C   UNL A   1      39.216  31.880  35.604  1.00  0.00    -0.014 A 
ATOM     77  C   UNL A   1      39.515  33.251  35.590  1.00  0.00     0.009 A 
ATOM     78  C   UNL A   1      38.355  31.385  36.597  1.00  0.00     0.009 A 
ATOM     79  C   UNL A   1      39.009  34.095  36.582  1.00  0.00     0.001 A 
ATOM     80  C   UNL A   1      37.816  32.237  37.561  1.00  0.00     0.001 A 
ATOM     81  C   UNL A   1      38.157  33.587  37.562  1.00  0.00     0.000 A 
ENDBRANCH  63  76
ENDBRANCH  37  38
ENDBRANCH  30  32
ENDBRANCH  29  30
ENDBRANCH  28  29
ENDBRANCH  27  28
ENDBRANCH  26  27
ENDBRANCH   1  26
TORSDOF 18
ENDMDL
MODEL 2
REMARK VINA RESULT:     -10.1      1.858      6.295
REMARK SMILES C[C@H]1CCC[C@H](C)N1C(=O)[C@H]1[C@@H](C(=O)OCCOCCOCCOC(=O)c2ccc(-c3c4nc(c(-c5ccccc5)c5ccc([nH]5)c(-c5ccccc5)c5nc(c(-c6ccccc6)c6ccc3[nH]6)C=C5)C=C4)cc2)[C@H]2CC[C@@H]1O2
REMARK SMILES IDX 20 1 19 2 18 3 17 4 16 5 15 6 13 7 14 8 12 9 11 10 78 11
REMARK SMILES IDX 75 12 77 13 79 14 76 15 9 16 1 17 2 18 3 19 8 20 4 21 6 22
REMARK SMILES IDX 5 23 7 24 10 25 21 26 22 27 23 28 24 29 25 30 26 31 27 32
REMARK SMILES IDX 28 33 74 34 29 35 73 36 30 37 31 38 32 39 67 40 33 41 72 42
REMARK SMILES IDX 66 43 68 44 34 45 71 46 65 47 64 48 35 50 57 51 42 52 56 53
REMARK SMILES IDX 43 54 46 55 55 56 69 57 44 58 45 59 54 61 70 62 47 63 36 64
REMARK SMILES IDX 37 65 41 66 38 67 40 68 39 69 58 70 59 71 63 72 60 73 62 74
REMARK SMILES IDX 61 75 48 76 49 77 53 78 50 79 52 80 51 81
REMARK H PARENT 68 49 46 60
REMARK Flexibility Score: inf
ROOT
ATOM      1  C   UNL A   1      39.128  22.907  26.502  1.00  0.00     0.188 C 
ENDROOT
BRANCH   1   2
ATOM      2  C   UNL A   1      37.784  23.513  26.084  1.00  0.00     0.188 C 
BRANCH   2   3
ATOM      3  O   UNL A   1      36.936  22.617  25.406  1.00  0.00    -0.376 OA
BRANCH   3   4
ATOM      4  C   UNL A   1      36.751  22.710  24.001  1.00  0.00     0.202 C 
BRANCH   4   5
ATOM      5  C   UNL A   1      35.435  23.245  23.433  1.00  0.00     0.261 C 
BRANCH   5   6
ATOM      6  O   UNL A   1      34.930  24.510  23.906  1.00  0.00    -0.463 OA
BRANCH   6   7
ATOM      7  C   UNL A   1      34.182  24.666  25.038  1.00  0.00     0.312 C 
ATOM      8  O   UNL A   1      34.593  25.052  26.114  1.00  0.00    -0.252 OA
BRANCH   7   9
ATOM      9  C   UNL A   1      32.751  24.328  24.652  1.00  0.00     0.143 C 
ATOM     10  C   UNL A   1      31.554  25.182  25.039  1.00  0.00     0.124 C 
ATOM     11  C   UNL A   1      30.461  24.128  25.108  1.00  0.00     0.132 C 
ATOM     12  C   UNL A   1      32.315  22.834  24.856  1.00  0.00     0.133 C 
ATOM     13  C   UNL A   1      30.339  23.207  26.295  1.00  0.00     0.035 C 
ATOM     14  O   UNL A   1      31.061  23.155  24.198  1.00  0.00    -0.373 OA
ATOM     15  C   UNL A   1      31.439  22.200  26.006  1.00  0.00     0.036 C 
BRANCH  10  16
ATOM     16  C   UNL A   1      31.605  26.324  26.033  1.00  0.00     0.229 C 
ATOM     17  C   UNL A   1      29.798  27.062  23.167  1.00  0.00     0.031 C 
ATOM     18  C   UNL A   1      30.688  28.023  23.993  1.00  0.00     0.082 C 
ATOM     19  C   UNL A   1      29.857  29.634  23.774  1.00  0.00     0.025 C 
ATOM     20  N   UNL A   1      31.544  27.652  25.501  1.00  0.00    -0.337 N 
ATOM     21  C   UNL A   1      30.305  31.156  24.630  1.00  0.00     0.004 C 
ATOM     22  C   UNL A   1      32.307  29.035  26.574  1.00  0.00     0.082 C 
ATOM     23  C   UNL A   1      31.537  31.063  26.124  1.00  0.00     0.025 C 
ATOM     24  C   UNL A   1      33.804  28.455  26.928  1.00  0.00     0.031 C 
ATOM     25  O   UNL A   1      31.745  26.082  27.230  1.00  0.00    -0.274 OA
ENDBRANCH  10  16
ENDBRANCH   7   9
ENDBRANCH   6   7
ENDBRANCH   5   6
ENDBRANCH   4   5
ENDBRANCH   3   4
ENDBRANCH   2   3
ENDBRANCH   1   2
BRANCH   1  26
ATOM     26  O   UNL A   1      39.555  21.765  25.786  1.00  0.00    -0.376 OA
BRANCH  26  27
ATOM     27  C   UNL A   1      40.598  20.999  26.397  1.00  0.00     0.202 C 
BRANCH  27  28
ATOM     28  C   UNL A   1      42.073  21.369  26.104  1.00  0.00     0.261 C 
BRANCH  28  29
ATOM     29  O   UNL A   1      42.259  22.367  25.069  1.00  0.00    -0.460 OA
BRANCH  29  30
ATOM     30  C   UNL A   1      43.054  23.411  25.384  1.00  0.00     0.338 C 
ATOM     31  O   UNL A   1      44.165  23.653  24.941  1.00  0.00    -0.246 OA
BRANCH  30  32
ATOM     32  C   UNL A   1      42.314  24.433  26.152  1.00  0.00     0.060 A 
ATOM     33  C   UNL A   1      42.449  26.060  25.545  1.00  0.00     0.016 A 
ATOM     34  C   UNL A   1      41.898  24.247  27.797  1.00  0.00     0.016 A 
ATOM     35  C   UNL A   1      42.128  27.606  26.710  1.00  0.00     0.010 A 
ATOM     36  C   UNL A   1      41.561  25.581  28.851  1.00  0.00     0.010 A 
ATOM     37  C   UNL A   1      41.658  27.270  28.419  1.00  0.00    -0.014 A 
BRANCH  37  38
ATOM     38  C   UNL A   1      41.319  28.147  29.604  1.00  0.00     0.031 A 
ATOM     39  C   UNL A   1      40.186  29.163  29.512  1.00  0.00     0.074 A 
ATOM     40  C   UNL A   1      42.242  28.379  30.575  1.00  0.00     0.049 A 
ATOM     41  N   UNL A   1      39.756  30.026  30.409  1.00  0.00    -0.248 NA
ATOM     42  C   UNL A   1      39.468  29.264  28.235  1.00  0.00     0.031 C 
ATOM     43  C   UNL A   1      43.534  27.712  30.715  1.00  0.00     0.029 A 
ATOM     44  N   UNL A   1      42.262  29.297  31.614  1.00  0.00    -0.354 N 
ATOM     45  C   UNL A   1      38.687  30.699  29.821  1.00  0.00     0.074 A 
ATOM     46  C   UNL A   1      38.579  30.213  28.471  1.00  0.00     0.031 C 
ATOM     47  C   UNL A   1      44.197  28.199  31.773  1.00  0.00     0.029 A 
ATOM     48  C   UNL A   1      43.396  29.235  32.401  1.00  0.00     0.049 A 
ATOM     49  H   UNL A   1      41.532  29.936  31.777  1.00  0.00     0.167 HD
ATOM     50  C   UNL A   1      37.856  31.642  30.331  1.00  0.00     0.031 A 
ATOM     51  C   UNL A   1      43.765  29.906  33.513  1.00  0.00     0.031 A 
ATOM     52  C   UNL A   1      38.051  32.287  31.599  1.00  0.00     0.049 A 
ATOM     53  C   UNL A   1      42.847  30.954  34.079  1.00  0.00     0.074 A 
ATOM     54  C   UNL A   1      37.241  33.209  32.238  1.00  0.00     0.029 A 
ATOM     55  N   UNL A   1      39.180  32.131  32.387  1.00  0.00    -0.354 N 
ATOM     56  N   UNL A   1      41.697  31.382  33.619  1.00  0.00    -0.248 NA
ATOM     57  C   UNL A   1      43.268  31.592  35.335  1.00  0.00     0.031 C 
ATOM     58  C   UNL A   1      37.914  33.666  33.376  1.00  0.00     0.029 A 
ATOM     59  C   UNL A   1      39.102  32.961  33.491  1.00  0.00     0.049 A 
ATOM     60  H   UNL A   1      39.925  31.519  32.191  1.00  0.00     0.167 HD
ATOM     61  C   UNL A   1      41.238  32.304  34.551  1.00  0.00     0.074 A 
ATOM     62  C   UNL A   1      42.223  32.358  35.610  1.00  0.00     0.031 C 
ATOM     63  C   UNL A   1      40.093  33.031  34.533  1.00  0.00     0.031 A 
BRANCH  50  64
ATOM     64  C   UNL A   1      36.659  32.025  29.493  1.00  0.00    -0.014 A 
ATOM     65  C   UNL A   1      36.661  33.222  28.753  1.00  0.00     0.009 A 
ATOM     66  C   UNL A   1      35.527  31.197  29.422  1.00  0.00     0.009 A 
ATOM     67  C   UNL A   1      35.544  33.607  28.009  1.00  0.00     0.001 A 
ATOM     68  C   UNL A   1      34.424  31.568  28.647  1.00  0.00     0.001 A 
ATOM     69  C   UNL A   1      34.427  32.778  27.953  1.00  0.00     0.000 A 
ENDBRANCH  50  64
BRANCH  51  70
ATOM     70  C   UNL A   1      45.024  29.549  34.239  1.00  0.00    -0.014 A 
ATOM     71  C   UNL A   1      45.005  28.542  35.223  1.00  0.00     0.009 A 
ATOM     72  C   UNL A   1      46.237  30.204  33.980  1.00  0.00     0.009 A 
ATOM     73  C   UNL A   1      46.156  28.227  35.951  1.00  0.00     0.001 A 
ATOM     74  C   UNL A   1      47.398  29.861  34.685  1.00  0.00     0.001 A 
ATOM     75  C   UNL A   1      47.354  28.883  35.677  1.00  0.00     0.000 A 
ENDBRANCH  51  70
BRANCH  63  76
ATOM     76  C   UNL A   1      39.822  33.917  35.717  1.00  0.00    -0.014 A 
ATOM     77  C   UNL A   1      39.134  33.457  36.849  1.00  0.00     0.009 A 
ATOM     78  C   UNL A   1      40.281  35.244  35.698  1.00  0.00     0.009 A 
ATOM     79  C   UNL A   1      38.861  34.321  37.912  1.00  0.00     0.001 A 
ATOM     80  C   UNL A   1      40.047  36.095  36.778  1.00  0.00     0.001 A 
ATOM     81  C   UNL A   1      39.322  35.637  37.876  1.00  0.00     0.000 A 
ENDBRANCH  63  76
ENDBRANCH  37  38
ENDBRANCH  30  32
ENDBRANCH  29  30
ENDBRANCH  28  29
ENDBRANCH  27  28
ENDBRANCH  26  27
ENDBRANCH   1  26
TORSDOF 18
ENDMDL
MODEL 3
REMARK VINA RESULT:     -10.0      6.693      9.386
REMARK SMILES C[C@H]1CCC[C@H](C)N1C(=O)[C@H]1[C@@H](C(=O)OCCOCCOCCOC(=O)c2ccc(-c3c4nc(c(-c5ccccc5)c5ccc([nH]5)c(-c5ccccc5)c5nc(c(-c6ccccc6)c6ccc3[nH]6)C=C5)C=C4)cc2)[C@H]2CC[C@@H]1O2
REMARK SMILES IDX 20 1 19 2 18 3 17 4 16 5 15 6 13 7 14 8 12 9 11 10 78 11
REMARK SMILES IDX 75 12 77 13 79 14 76 15 9 16 1 17 2 18 3 19 8 20 4 21 6 22
REMARK SMILES IDX 5 23 7 24 10 25 21 26 22 27 23 28 24 29 25 30 26 31 27 32
REMARK SMILES IDX 28 33 74 34 29 35 73 36 30 37 31 38 32 39 67 40 33 41 72 42
REMARK SMILES IDX 66 43 68 44 34 45 71 46 65 47 64 48 35 50 57 51 42 52 56 53
REMARK SMILES IDX 43 54 46 55 55 56 69 57 44 58 45 59 54 61 70 62 47 63 36 64
REMARK SMILES IDX 37 65 41 66 38 67 40 68 39 69 58 70 59 71 63 72 60 73 62 74
REMARK SMILES IDX 61 75 48 76 49 77 53 78 50 79 52 80 51 81
REMARK H PARENT 68 49 46 60
REMARK Flexibility Score: inf
ROOT
ATOM      1  C   UNL A   1      38.862  22.117  26.145  1.00  0.00     0.188 C 
ENDROOT
BRANCH   1   2
ATOM      2  C   UNL A   1      37.974  21.544  25.035  1.00  0.00     0.188 C 
BRANCH   2   3
ATOM      3  O   UNL A   1      36.802  22.287  24.799  1.00  0.00    -0.376 OA
BRANCH   3   4
ATOM      4  C   UNL A   1      36.594  22.943  23.557  1.00  0.00     0.202 C 
BRANCH   4   5
ATOM      5  C   UNL A   1      35.197  23.430  23.168  1.00  0.00     0.261 C 
BRANCH   5   6
ATOM      6  O   UNL A   1      34.693  24.650  23.748  1.00  0.00    -0.463 OA
BRANCH   6   7
ATOM      7  C   UNL A   1      33.782  25.470  23.146  1.00  0.00     0.312 C 
ATOM      8  O   UNL A   1      33.768  25.778  21.971  1.00  0.00    -0.252 OA
BRANCH   7   9
ATOM      9  C   UNL A   1      32.776  25.848  24.222  1.00  0.00     0.143 C 
ATOM     10  C   UNL A   1      31.635  24.942  24.658  1.00  0.00     0.124 C 
ATOM     11  C   UNL A   1      30.604  25.969  25.093  1.00  0.00     0.132 C 
ATOM     12  C   UNL A   1      32.181  27.297  24.133  1.00  0.00     0.133 C 
ATOM     13  C   UNL A   1      29.777  26.721  24.081  1.00  0.00     0.035 C 
ATOM     14  O   UNL A   1      31.524  27.060  25.406  1.00  0.00    -0.373 OA
ATOM     15  C   UNL A   1      30.770  27.765  23.601  1.00  0.00     0.036 C 
BRANCH  10  16
ATOM     16  C   UNL A   1      31.224  23.677  23.933  1.00  0.00     0.229 C 
ATOM     17  C   UNL A   1      32.707  23.089  27.012  1.00  0.00     0.031 C 
ATOM     18  C   UNL A   1      32.830  22.232  25.728  1.00  0.00     0.082 C 
ATOM     19  C   UNL A   1      33.029  20.541  26.388  1.00  0.00     0.025 C 
ATOM     20  N   UNL A   1      32.003  22.501  24.183  1.00  0.00    -0.337 N 
ATOM     21  C   UNL A   1      33.055  19.037  25.393  1.00  0.00     0.004 C 
ATOM     22  C   UNL A   1      31.989  21.165  22.820  1.00  0.00     0.082 C 
ATOM     23  C   UNL A   1      32.527  19.137  23.530  1.00  0.00     0.025 C 
ATOM     24  C   UNL A   1      32.354  22.012  21.458  1.00  0.00     0.031 C 
ATOM     25  O   UNL A   1      30.290  23.710  23.136  1.00  0.00    -0.274 OA
ENDBRANCH  10  16
ENDBRANCH   7   9
ENDBRANCH   6   7
ENDBRANCH   5   6
ENDBRANCH   4   5
ENDBRANCH   3   4
ENDBRANCH   2   3
ENDBRANCH   1   2
BRANCH   1  26
ATOM     26  O   UNL A   1      39.082  23.514  26.121  1.00  0.00    -0.376 OA
BRANCH  26  27
ATOM     27  C   UNL A   1      39.481  24.105  27.362  1.00  0.00     0.202 C 
BRANCH  27  28
ATOM     28  C   UNL A   1      40.972  24.460  27.579  1.00  0.00     0.261 C 
BRANCH  28  29
ATOM     29  O   UNL A   1      41.832  23.333  27.883  1.00  0.00    -0.460 OA
BRANCH  29  30
ATOM     30  C   UNL A   1      42.608  22.886  26.873  1.00  0.00     0.338 C 
ATOM     31  O   UNL A   1      42.317  22.050  26.033  1.00  0.00    -0.246 OA
BRANCH  30  32
ATOM     32  C   UNL A   1      43.805  23.735  26.704  1.00  0.00     0.060 A 
ATOM     33  C   UNL A   1      44.617  24.175  28.180  1.00  0.00     0.016 A 
ATOM     34  C   UNL A   1      44.054  24.739  25.347  1.00  0.00     0.016 A 
ATOM     35  C   UNL A   1      45.773  25.758  28.267  1.00  0.00     0.010 A 
ATOM     36  C   UNL A   1      45.102  26.120  25.364  1.00  0.00     0.010 A 
ATOM     37  C   UNL A   1      45.983  26.713  26.751  1.00  0.00    -0.014 A 
BRANCH  37  38
ATOM     38  C   UNL A   1      46.772  27.954  26.394  1.00  0.00     0.031 A 
ATOM     39  C   UNL A   1      48.296  27.921  26.381  1.00  0.00     0.074 A 
ATOM     40  C   UNL A   1      46.210  29.185  26.517  1.00  0.00     0.049 A 
ATOM     41  N   UNL A   1      49.156  28.885  26.127  1.00  0.00    -0.248 NA
ATOM     42  C   UNL A   1      48.949  26.657  26.746  1.00  0.00     0.031 C 
ATOM     43  C   UNL A   1      44.805  29.469  26.799  1.00  0.00     0.029 A 
ATOM     44  N   UNL A   1      46.771  30.453  26.476  1.00  0.00    -0.354 N 
ATOM     45  C   UNL A   1      50.423  28.315  26.231  1.00  0.00     0.074 A 
ATOM     46  C   UNL A   1      50.234  26.951  26.649  1.00  0.00     0.031 C 
ATOM     47  C   UNL A   1      44.603  30.793  26.870  1.00  0.00     0.029 A 
ATOM     48  C   UNL A   1      45.864  31.480  26.654  1.00  0.00     0.049 A 
ATOM     49  H   UNL A   1      47.733  30.608  26.332  1.00  0.00     0.167 HD
ATOM     50  C   UNL A   1      51.648  28.853  26.009  1.00  0.00     0.031 A 
ATOM     51  C   UNL A   1      45.999  32.822  26.630  1.00  0.00     0.031 A 
ATOM     52  C   UNL A   1      51.885  30.250  25.781  1.00  0.00     0.049 A 
ATOM     53  C   UNL A   1      47.357  33.421  26.387  1.00  0.00     0.074 A 
ATOM     54  C   UNL A   1      53.075  30.892  25.486  1.00  0.00     0.029 A 
ATOM     55  N   UNL A   1      50.917  31.234  25.900  1.00  0.00    -0.354 N 
ATOM     56  N   UNL A   1      48.510  32.820  26.229  1.00  0.00    -0.248 NA
ATOM     57  C   UNL A   1      47.425  34.887  26.293  1.00  0.00     0.031 C 
ATOM     58  C   UNL A   1      52.841  32.271  25.499  1.00  0.00     0.029 A 
ATOM     59  C   UNL A   1      51.488  32.481  25.714  1.00  0.00     0.049 A 
ATOM     60  H   UNL A   1      49.965  31.070  26.087  1.00  0.00     0.167 HD
ATOM     61  C   UNL A   1      49.430  33.828  25.972  1.00  0.00     0.074 A 
ATOM     62  C   UNL A   1      48.697  35.077  25.977  1.00  0.00     0.031 C 
ATOM     63  C   UNL A   1      50.762  33.725  25.741  1.00  0.00     0.031 A 
BRANCH  50  64
ATOM     64  C   UNL A   1      52.823  27.902  26.011  1.00  0.00    -0.014 A 
ATOM     65  C   UNL A   1      53.505  27.615  27.209  1.00  0.00     0.009 A 
ATOM     66  C   UNL A   1      53.254  27.279  24.830  1.00  0.00     0.009 A 
ATOM     67  C   UNL A   1      54.618  26.772  27.216  1.00  0.00     0.001 A 
ATOM     68  C   UNL A   1      54.348  26.407  24.846  1.00  0.00     0.001 A 
ATOM     69  C   UNL A   1      55.037  26.165  26.035  1.00  0.00     0.000 A 
ENDBRANCH  50  64
BRANCH  51  70
ATOM     70  C   UNL A   1      44.802  33.714  26.742  1.00  0.00    -0.014 A 
ATOM     71  C   UNL A   1      44.069  34.052  25.589  1.00  0.00     0.009 A 
ATOM     72  C   UNL A   1      44.389  34.244  27.974  1.00  0.00     0.009 A 
ATOM     73  C   UNL A   1      42.979  34.925  25.662  1.00  0.00     0.001 A 
ATOM     74  C   UNL A   1      43.274  35.088  28.049  1.00  0.00     0.001 A 
ATOM     75  C   UNL A   1      42.578  35.437  26.893  1.00  0.00     0.000 A 
ENDBRANCH  51  70
BRANCH  63  76
ATOM     76  C   UNL A   1      51.508  34.992  25.430  1.00  0.00    -0.014 A 
ATOM     77  C   UNL A   1      52.079  35.785  26.437  1.00  0.00     0.009 A 
ATOM     78  C   UNL A   1      51.651  35.392  24.092  1.00  0.00     0.009 A 
ATOM     79  C   UNL A   1      52.727  36.980  26.115  1.00  0.00     0.001 A 
ATOM     80  C   UNL A   1      52.337  36.563  23.768  1.00  0.00     0.001 A 
ATOM     81  C   UNL A   1      52.859  37.364  24.781  1.00  0.00     0.000 A 
ENDBRANCH  63  76
ENDBRANCH  37  38
ENDBRANCH  30  32
ENDBRANCH  29  30
ENDBRANCH  28  29
ENDBRANCH  27  28
ENDBRANCH  26  27
ENDBRANCH   1  26
TORSDOF 18
ENDMDL
