MODEL 1
REMARK VINA RESULT:     -10.8      0.000      0.000
REMARK SMILES CCC(=O)N1CCC[C@](C[C@H]2CC(c3ccc(C)cc3)=NO2)(C(=O)OCCOCCOCCOC(=O)c2ccc(-c3c4nc(c(-c5ccccc5)c5ccc([nH]5)c(-c5ccccc5)c5nc(c(-c6ccccc6)c6ccc3[nH]6)C=C5)C=C4)cc2)C1
REMARK SMILES IDX 29 1 28 2 27 3 26 4 25 5 23 6 24 7 9 8 5 9 6 10 85 11 7 12
REMARK SMILES IDX 8 13 3 14 4 15 2 16 1 17 10 18 11 19 12 20 22 21 13 22 21 23
REMARK SMILES IDX 14 24 15 25 20 26 16 27 19 28 17 29 18 30 30 31 31 32 32 33
REMARK SMILES IDX 33 34 34 35 35 36 36 37 37 38 38 39 84 40 39 41 83 42 40 43
REMARK SMILES IDX 41 44 42 45 77 46 43 47 82 48 76 49 78 50 44 51 81 52 75 53
REMARK SMILES IDX 74 54 45 56 67 57 52 58 66 59 53 60 56 61 65 62 79 63 54 64
REMARK SMILES IDX 55 65 64 67 80 68 57 69 46 70 47 71 51 72 48 73 50 74 49 75
REMARK SMILES IDX 68 76 69 77 73 78 70 79 72 80 71 81 58 82 59 83 63 84 60 85
REMARK SMILES IDX 62 86 61 87
REMARK H PARENT 78 55 56 66
REMARK Flexibility Score: inf
ROOT
ATOM      1  C   UNL A   1      35.236  30.134  28.103  1.00  0.00     0.188 C 
ENDROOT
BRANCH   1   2
ATOM      2  O   UNL A   1      34.208  30.018  27.041  1.00  0.00    -0.376 OA
BRANCH   2   3
ATOM      3  C   UNL A   1      33.010  29.165  27.047  1.00  0.00     0.202 C 
BRANCH   3   4
ATOM      4  C   UNL A   1      32.730  27.581  26.328  1.00  0.00     0.261 C 
BRANCH   4   5
ATOM      5  O   UNL A   1      33.530  25.998  26.093  1.00  0.00    -0.463 OA
BRANCH   5   6
ATOM      6  C   UNL A   1      33.447  24.602  25.168  1.00  0.00     0.314 C 
ATOM      7  O   UNL A   1      33.983  24.444  24.058  1.00  0.00    -0.252 OA
BRANCH   6   8
ATOM      8  C   UNL A   1      32.372  23.532  25.521  1.00  0.00     0.089 C 
ATOM      9  N   UNL A   1      35.268  22.581  26.229  1.00  0.00    -0.342 N 
ATOM     10  C   UNL A   1      35.065  21.107  25.900  1.00  0.00     0.119 C 
ATOM     11  C   UNL A   1      33.888  23.481  26.774  1.00  0.00     0.138 C 
ATOM     12  C   UNL A   1      33.885  20.758  24.446  1.00  0.00     0.023 C 
ATOM     13  C   UNL A   1      31.914  21.809  24.440  1.00  0.00     0.022 C 
BRANCH   9  14
ATOM     14  C   UNL A   1      36.529  23.006  25.721  1.00  0.00     0.222 C 
ATOM     15  O   UNL A   1      37.102  23.981  26.241  1.00  0.00    -0.275 OA
BRANCH  14  16
ATOM     16  C   UNL A   1      37.278  22.365  24.550  1.00  0.00     0.097 C 
ATOM     17  C   UNL A   1      36.771  22.825  23.152  1.00  0.00     0.014 C 
ENDBRANCH  14  16
ENDBRANCH   9  14
BRANCH   8  18
ATOM     18  C   UNL A   1      31.001  24.243  25.713  1.00  0.00     0.069 C 
BRANCH  18  19
ATOM     19  C   UNL A   1      30.248  24.803  24.519  1.00  0.00     0.212 C 
ATOM     20  C   UNL A   1      29.611  26.140  24.809  1.00  0.00     0.108 C 
ATOM     21  O   UNL A   1      31.104  24.967  23.393  1.00  0.00    -0.392 OA
ATOM     22  C   UNL A   1      30.163  26.905  23.671  1.00  0.00     0.091 C 
ATOM     23  N   UNL A   1      30.967  26.272  22.887  1.00  0.00    -0.090 NA
BRANCH  22  24
ATOM     24  C   UNL A   1      29.745  28.285  23.452  1.00  0.00    -0.001 A 
ATOM     25  C   UNL A   1      30.426  29.331  24.074  1.00  0.00     0.010 A 
ATOM     26  C   UNL A   1      28.612  28.516  22.673  1.00  0.00     0.010 A 
ATOM     27  C   UNL A   1      29.940  30.629  23.944  1.00  0.00     0.004 A 
ATOM     28  C   UNL A   1      28.122  29.813  22.562  1.00  0.00     0.004 A 
ATOM     29  C   UNL A   1      28.774  30.875  23.206  1.00  0.00    -0.051 A 
ATOM     30  C   UNL A   1      28.191  32.254  23.134  1.00  0.00     0.044 C 
ENDBRANCH  22  24
ENDBRANCH  18  19
ENDBRANCH   8  18
ENDBRANCH   6   8
ENDBRANCH   5   6
ENDBRANCH   4   5
ENDBRANCH   3   4
ENDBRANCH   2   3
ENDBRANCH   1   2
BRANCH   1  31
ATOM     31  C   UNL A   1      36.520  31.020  28.046  1.00  0.00     0.188 C 
BRANCH  31  32
ATOM     32  O   UNL A   1      36.223  32.338  28.485  1.00  0.00    -0.376 OA
BRANCH  32  33
ATOM     33  C   UNL A   1      35.027  32.625  29.193  1.00  0.00     0.202 C 
BRANCH  33  34
ATOM     34  C   UNL A   1      35.096  32.709  30.744  1.00  0.00     0.261 C 
BRANCH  34  35
ATOM     35  O   UNL A   1      36.268  33.269  31.512  1.00  0.00    -0.460 OA
BRANCH  35  36
ATOM     36  C   UNL A   1      37.597  33.122  31.819  1.00  0.00     0.338 C 
ATOM     37  O   UNL A   1      37.949  32.818  32.954  1.00  0.00    -0.246 OA
BRANCH  36  38
ATOM     38  C   UNL A   1      38.633  33.000  30.743  1.00  0.00     0.060 A 
ATOM     39  C   UNL A   1      39.344  34.458  30.250  1.00  0.00     0.016 A 
ATOM     40  C   UNL A   1      39.426  31.630  30.864  1.00  0.00     0.016 A 
ATOM     41  C   UNL A   1      41.106  34.477  29.936  1.00  0.00     0.010 A 
ATOM     42  C   UNL A   1      41.029  31.479  30.637  1.00  0.00     0.010 A 
ATOM     43  C   UNL A   1      42.094  32.745  30.132  1.00  0.00    -0.014 A 
BRANCH  43  44
ATOM     44  C   UNL A   1      43.249  31.543  29.135  1.00  0.00     0.031 A 
ATOM     45  C   UNL A   1      43.231  29.679  29.016  1.00  0.00     0.074 A 
ATOM     46  C   UNL A   1      44.104  31.898  28.149  1.00  0.00     0.049 A 
ATOM     47  N   UNL A   1      44.217  28.881  28.642  1.00  0.00    -0.248 NA
ATOM     48  C   UNL A   1      42.121  28.693  29.550  1.00  0.00     0.031 C 
ATOM     49  C   UNL A   1      44.362  31.099  26.938  1.00  0.00     0.029 A 
ATOM     50  N   UNL A   1      44.784  33.064  27.904  1.00  0.00    -0.354 N 
ATOM     51  C   UNL A   1      43.700  27.571  28.784  1.00  0.00     0.074 A 
ATOM     52  C   UNL A   1      42.815  27.608  29.843  1.00  0.00     0.031 C 
ATOM     53  C   UNL A   1      45.230  31.743  26.149  1.00  0.00     0.029 A 
ATOM     54  C   UNL A   1      45.735  32.860  26.902  1.00  0.00     0.049 A 
ATOM     55  H   UNL A   1      44.624  33.919  28.366  1.00  0.00     0.167 HD
ATOM     56  C   UNL A   1      43.606  26.620  27.810  1.00  0.00     0.031 A 
ATOM     57  C   UNL A   1      47.041  33.124  27.167  1.00  0.00     0.031 A 
ATOM     58  C   UNL A   1      44.640  26.894  26.857  1.00  0.00     0.049 A 
ATOM     59  C   UNL A   1      47.850  31.836  27.211  1.00  0.00     0.074 A 
ATOM     60  C   UNL A   1      44.687  27.478  25.610  1.00  0.00     0.029 A 
ATOM     61  N   UNL A   1      45.901  27.048  27.412  1.00  0.00    -0.354 N 
ATOM     62  N   UNL A   1      47.346  30.644  26.997  1.00  0.00    -0.248 NA
ATOM     63  C   UNL A   1      49.281  31.768  27.475  1.00  0.00     0.031 C 
ATOM     64  C   UNL A   1      45.950  28.162  25.529  1.00  0.00     0.029 A 
ATOM     65  C   UNL A   1      46.685  27.916  26.684  1.00  0.00     0.049 A 
ATOM     66  H   UNL A   1      46.200  26.591  28.230  1.00  0.00     0.167 HD
ATOM     67  C   UNL A   1      48.279  29.674  27.222  1.00  0.00     0.074 A 
ATOM     68  C   UNL A   1      49.494  30.439  27.454  1.00  0.00     0.031 C 
ATOM     69  C   UNL A   1      47.970  28.339  27.270  1.00  0.00     0.031 A 
BRANCH  56  70
ATOM     70  C   UNL A   1      42.452  25.569  27.762  1.00  0.00    -0.014 A 
ATOM     71  C   UNL A   1      42.663  24.252  28.181  1.00  0.00     0.009 A 
ATOM     72  C   UNL A   1      41.137  25.787  27.237  1.00  0.00     0.009 A 
ATOM     73  C   UNL A   1      41.648  23.262  28.100  1.00  0.00     0.001 A 
ATOM     74  C   UNL A   1      40.112  24.829  27.186  1.00  0.00     0.001 A 
ATOM     75  C   UNL A   1      40.373  23.550  27.615  1.00  0.00     0.000 A 
ENDBRANCH  56  70
BRANCH  57  76
ATOM     76  C   UNL A   1      47.145  34.411  27.941  1.00  0.00    -0.014 A 
ATOM     77  C   UNL A   1      47.712  34.294  29.237  1.00  0.00     0.009 A 
ATOM     78  C   UNL A   1      47.267  35.655  27.296  1.00  0.00     0.009 A 
ATOM     79  C   UNL A   1      48.492  35.317  29.796  1.00  0.00     0.001 A 
ATOM     80  C   UNL A   1      48.044  36.683  27.869  1.00  0.00     0.001 A 
ATOM     81  C   UNL A   1      48.684  36.501  29.095  1.00  0.00     0.000 A 
ENDBRANCH  57  76
BRANCH  69  82
ATOM     82  C   UNL A   1      48.838  27.304  27.996  1.00  0.00    -0.014 A 
ATOM     83  C   UNL A   1      48.964  27.231  29.391  1.00  0.00     0.009 A 
ATOM     84  C   UNL A   1      49.435  26.236  27.280  1.00  0.00     0.009 A 
ATOM     85  C   UNL A   1      49.677  26.202  30.023  1.00  0.00     0.001 A 
ATOM     86  C   UNL A   1      50.050  25.150  27.910  1.00  0.00     0.001 A 
ATOM     87  C   UNL A   1      50.198  25.148  29.285  1.00  0.00     0.000 A 
ENDBRANCH  69  82
ENDBRANCH  43  44
ENDBRANCH  36  38
ENDBRANCH  35  36
ENDBRANCH  34  35
ENDBRANCH  33  34
ENDBRANCH  32  33
ENDBRANCH  31  32
ENDBRANCH   1  31
TORSDOF 22
ENDMDL
MODEL 2
REMARK VINA RESULT:     -10.3      3.518      4.532
REMARK SMILES CCC(=O)N1CCC[C@](C[C@H]2CC(c3ccc(C)cc3)=NO2)(C(=O)OCCOCCOCCOC(=O)c2ccc(-c3c4nc(c(-c5ccccc5)c5ccc([nH]5)c(-c5ccccc5)c5nc(c(-c6ccccc6)c6ccc3[nH]6)C=C5)C=C4)cc2)C1
REMARK SMILES IDX 29 1 28 2 27 3 26 4 25 5 23 6 24 7 9 8 5 9 6 10 85 11 7 12
REMARK SMILES IDX 8 13 3 14 4 15 2 16 1 17 10 18 11 19 12 20 22 21 13 22 21 23
REMARK SMILES IDX 14 24 15 25 20 26 16 27 19 28 17 29 18 30 30 31 31 32 32 33
REMARK SMILES IDX 33 34 34 35 35 36 36 37 37 38 38 39 84 40 39 41 83 42 40 43
REMARK SMILES IDX 41 44 42 45 77 46 43 47 82 48 76 49 78 50 44 51 81 52 75 53
REMARK SMILES IDX 74 54 45 56 67 57 52 58 66 59 53 60 56 61 65 62 79 63 54 64
REMARK SMILES IDX 55 65 64 67 80 68 57 69 46 70 47 71 51 72 48 73 50 74 49 75
REMARK SMILES IDX 68 76 69 77 73 78 70 79 72 80 71 81 58 82 59 83 63 84 60 85
REMARK SMILES IDX 62 86 61 87
REMARK H PARENT 78 55 56 66
REMARK Flexibility Score: inf
ROOT
ATOM      1  C   UNL A   1      36.001  30.037  28.518  1.00  0.00     0.188 C 
ENDROOT
BRANCH   1   2
ATOM      2  O   UNL A   1      35.313  29.737  27.239  1.00  0.00    -0.376 OA
BRANCH   2   3
ATOM      3  C   UNL A   1      33.992  29.116  27.059  1.00  0.00     0.202 C 
BRANCH   3   4
ATOM      4  C   UNL A   1      33.517  27.681  26.155  1.00  0.00     0.261 C 
BRANCH   4   5
ATOM      5  O   UNL A   1      34.002  25.979  25.889  1.00  0.00    -0.463 OA
BRANCH   5   6
ATOM      6  C   UNL A   1      33.630  24.630  24.966  1.00  0.00     0.314 C 
ATOM      7  O   UNL A   1      34.014  24.429  23.802  1.00  0.00    -0.252 OA
BRANCH   6   8
ATOM      8  C   UNL A   1      32.466  23.703  25.428  1.00  0.00     0.089 C 
ATOM      9  N   UNL A   1      35.273  22.549  26.190  1.00  0.00    -0.342 N 
ATOM     10  C   UNL A   1      34.926  21.077  26.001  1.00  0.00     0.119 C 
ATOM     11  C   UNL A   1      33.994  23.623  26.664  1.00  0.00     0.138 C 
ATOM     12  C   UNL A   1      33.690  20.712  24.598  1.00  0.00     0.023 C 
ATOM     13  C   UNL A   1      31.828  21.941  24.515  1.00  0.00     0.022 C 
BRANCH   9  14
ATOM     14  C   UNL A   1      36.558  22.804  25.632  1.00  0.00     0.222 C 
ATOM     15  O   UNL A   1      37.316  23.622  26.186  1.00  0.00    -0.275 OA
BRANCH  14  16
ATOM     16  C   UNL A   1      37.123  22.154  24.366  1.00  0.00     0.097 C 
ATOM     17  C   UNL A   1      36.816  22.947  23.062  1.00  0.00     0.014 C 
ENDBRANCH  14  16
ENDBRANCH   9  14
BRANCH   8  18
ATOM     18  C   UNL A   1      31.172  24.557  25.568  1.00  0.00     0.069 C 
BRANCH  18  19
ATOM     19  C   UNL A   1      30.346  24.913  24.344  1.00  0.00     0.212 C 
ATOM     20  C   UNL A   1      29.595  26.212  24.509  1.00  0.00     0.108 C 
ATOM     21  O   UNL A   1      31.161  25.029  23.182  1.00  0.00    -0.392 OA
ATOM     22  C   UNL A   1      30.051  26.894  23.279  1.00  0.00     0.091 C 
ATOM     23  N   UNL A   1      30.894  26.253  22.543  1.00  0.00    -0.090 NA
BRANCH  22  24
ATOM     24  C   UNL A   1      29.504  28.199  22.926  1.00  0.00    -0.001 A 
ATOM     25  C   UNL A   1      28.152  28.471  23.134  1.00  0.00     0.010 A 
ATOM     26  C   UNL A   1      30.347  29.126  22.315  1.00  0.00     0.010 A 
ATOM     27  C   UNL A   1      27.627  29.680  22.684  1.00  0.00     0.004 A 
ATOM     28  C   UNL A   1      29.812  30.324  21.853  1.00  0.00     0.004 A 
ATOM     29  C   UNL A   1      28.448  30.603  22.023  1.00  0.00    -0.051 A 
ATOM     30  C   UNL A   1      27.875  31.866  21.455  1.00  0.00     0.044 C 
ENDBRANCH  22  24
ENDBRANCH  18  19
ENDBRANCH   8  18
ENDBRANCH   6   8
ENDBRANCH   5   6
ENDBRANCH   4   5
ENDBRANCH   3   4
ENDBRANCH   2   3
ENDBRANCH   1   2
BRANCH   1  31
ATOM     31  C   UNL A   1      37.002  31.206  28.770  1.00  0.00     0.188 C 
BRANCH  31  32
ATOM     32  O   UNL A   1      36.293  32.410  29.028  1.00  0.00    -0.376 OA
BRANCH  32  33
ATOM     33  C   UNL A   1      34.979  32.388  29.564  1.00  0.00     0.202 C 
BRANCH  33  34
ATOM     34  C   UNL A   1      34.735  33.089  30.931  1.00  0.00     0.261 C 
BRANCH  34  35
ATOM     35  O   UNL A   1      35.671  34.101  31.544  1.00  0.00    -0.460 OA
BRANCH  35  36
ATOM     36  C   UNL A   1      36.920  34.318  32.070  1.00  0.00     0.338 C 
ATOM     37  O   UNL A   1      37.055  34.808  33.186  1.00  0.00    -0.246 OA
BRANCH  36  38
ATOM     38  C   UNL A   1      38.135  33.680  31.467  1.00  0.00     0.060 A 
ATOM     39  C   UNL A   1      39.208  34.744  30.699  1.00  0.00     0.016 A 
ATOM     40  C   UNL A   1      38.601  32.420  32.315  1.00  0.00     0.016 A 
ATOM     41  C   UNL A   1      40.965  34.488  30.928  1.00  0.00     0.010 A 
ATOM     42  C   UNL A   1      40.152  32.059  32.637  1.00  0.00     0.010 A 
ATOM     43  C   UNL A   1      41.528  32.914  32.032  1.00  0.00    -0.014 A 
BRANCH  43  44
ATOM     44  C   UNL A   1      42.632  31.319  31.936  1.00  0.00     0.031 A 
ATOM     45  C   UNL A   1      42.317  29.687  31.083  1.00  0.00     0.074 A 
ATOM     46  C   UNL A   1      43.940  31.236  32.266  1.00  0.00     0.049 A 
ATOM     47  N   UNL A   1      42.892  28.521  31.327  1.00  0.00    -0.248 NA
ATOM     48  C   UNL A   1      41.155  29.338  30.074  1.00  0.00     0.031 C 
ATOM     49  C   UNL A   1      44.936  30.423  31.545  1.00  0.00     0.029 A 
ATOM     50  N   UNL A   1      44.705  31.945  33.159  1.00  0.00    -0.354 N 
ATOM     51  C   UNL A   1      42.256  27.610  30.449  1.00  0.00     0.074 A 
ATOM     52  C   UNL A   1      40.956  28.051  30.295  1.00  0.00     0.031 C 
ATOM     53  C   UNL A   1      46.141  30.587  32.101  1.00  0.00     0.029 A 
ATOM     54  C   UNL A   1      45.945  31.325  33.321  1.00  0.00     0.049 A 
ATOM     55  H   UNL A   1      44.420  32.768  33.618  1.00  0.00     0.167 HD
ATOM     56  C   UNL A   1      42.859  26.827  29.508  1.00  0.00     0.031 A 
ATOM     57  C   UNL A   1      46.333  30.937  34.564  1.00  0.00     0.031 A 
ATOM     58  C   UNL A   1      44.199  26.589  29.958  1.00  0.00     0.049 A 
ATOM     59  C   UNL A   1      46.357  29.419  34.668  1.00  0.00     0.074 A 
ATOM     60  C   UNL A   1      45.439  27.094  29.637  1.00  0.00     0.029 A 
ATOM     61  N   UNL A   1      44.288  26.122  31.260  1.00  0.00    -0.354 N 
ATOM     62  N   UNL A   1      46.065  28.609  33.678  1.00  0.00    -0.248 NA
ATOM     63  C   UNL A   1      46.726  28.678  35.868  1.00  0.00     0.031 C 
ATOM     64  C   UNL A   1      46.203  27.099  30.856  1.00  0.00     0.029 A 
ATOM     65  C   UNL A   1      45.453  26.522  31.876  1.00  0.00     0.049 A 
ATOM     66  H   UNL A   1      43.599  25.569  31.694  1.00  0.00     0.167 HD
ATOM     67  C   UNL A   1      46.055  27.310  34.097  1.00  0.00     0.074 A 
ATOM     68  C   UNL A   1      46.542  27.407  35.464  1.00  0.00     0.031 C 
ATOM     69  C   UNL A   1      45.585  26.281  33.323  1.00  0.00     0.031 A 
BRANCH  56  70
ATOM     70  C   UNL A   1      42.174  26.448  28.157  1.00  0.00    -0.014 A 
ATOM     71  C   UNL A   1      42.511  27.109  26.971  1.00  0.00     0.009 A 
ATOM     72  C   UNL A   1      41.120  25.493  27.987  1.00  0.00     0.009 A 
ATOM     73  C   UNL A   1      41.868  26.821  25.738  1.00  0.00     0.001 A 
ATOM     74  C   UNL A   1      40.501  25.172  26.769  1.00  0.00     0.001 A 
ATOM     75  C   UNL A   1      40.874  25.849  25.632  1.00  0.00     0.000 A 
ENDBRANCH  56  70
BRANCH  57  76
ATOM     76  C   UNL A   1      45.984  32.012  35.556  1.00  0.00    -0.014 A 
ATOM     77  C   UNL A   1      45.060  31.630  36.565  1.00  0.00     0.009 A 
ATOM     78  C   UNL A   1      46.878  33.054  35.866  1.00  0.00     0.009 A 
ATOM     79  C   UNL A   1      45.128  32.154  37.865  1.00  0.00     0.001 A 
ATOM     80  C   UNL A   1      46.934  33.583  37.171  1.00  0.00     0.001 A 
ATOM     81  C   UNL A   1      46.089  33.109  38.175  1.00  0.00     0.000 A 
ENDBRANCH  57  76
BRANCH  69  82
ATOM     82  C   UNL A   1      45.094  24.951  33.908  1.00  0.00    -0.014 A 
ATOM     83  C   UNL A   1      45.876  23.788  33.969  1.00  0.00     0.009 A 
ATOM     84  C   UNL A   1      43.853  24.878  34.588  1.00  0.00     0.009 A 
ATOM     85  C   UNL A   1      45.434  22.623  34.612  1.00  0.00     0.001 A 
ATOM     86  C   UNL A   1      43.455  23.758  35.325  1.00  0.00     0.001 A 
ATOM     87  C   UNL A   1      44.235  22.616  35.311  1.00  0.00     0.000 A 
ENDBRANCH  69  82
ENDBRANCH  43  44
ENDBRANCH  36  38
ENDBRANCH  35  36
ENDBRANCH  34  35
ENDBRANCH  33  34
ENDBRANCH  32  33
ENDBRANCH  31  32
ENDBRANCH   1  31
TORSDOF 22
ENDMDL
MODEL 3
REMARK VINA RESULT:      -9.6      7.724     11.410
REMARK SMILES CCC(=O)N1CCC[C@](C[C@H]2CC(c3ccc(C)cc3)=NO2)(C(=O)OCCOCCOCCOC(=O)c2ccc(-c3c4nc(c(-c5ccccc5)c5ccc([nH]5)c(-c5ccccc5)c5nc(c(-c6ccccc6)c6ccc3[nH]6)C=C5)C=C4)cc2)C1
REMARK SMILES IDX 29 1 28 2 27 3 26 4 25 5 23 6 24 7 9 8 5 9 6 10 85 11 7 12
REMARK SMILES IDX 8 13 3 14 4 15 2 16 1 17 10 18 11 19 12 20 22 21 13 22 21 23
REMARK SMILES IDX 14 24 15 25 20 26 16 27 19 28 17 29 18 30 30 31 31 32 32 33
REMARK SMILES IDX 33 34 34 35 35 36 36 37 37 38 38 39 84 40 39 41 83 42 40 43
REMARK SMILES IDX 41 44 42 45 77 46 43 47 82 48 76 49 78 50 44 51 81 52 75 53
REMARK SMILES IDX 74 54 45 56 67 57 52 58 66 59 53 60 56 61 65 62 79 63 54 64
REMARK SMILES IDX 55 65 64 67 80 68 57 69 46 70 47 71 51 72 48 73 50 74 49 75
REMARK SMILES IDX 68 76 69 77 73 78 70 79 72 80 71 81 58 82 59 83 63 84 60 85
REMARK SMILES IDX 62 86 61 87
REMARK H PARENT 78 55 56 66
REMARK Flexibility Score: inf
ROOT
ATOM      1  C   UNL A   1      36.308  29.716  28.622  1.00  0.00     0.188 C 
ENDROOT
BRANCH   1   2
ATOM      2  O   UNL A   1      35.681  29.709  27.279  1.00  0.00    -0.376 OA
BRANCH   2   3
ATOM      3  C   UNL A   1      34.292  29.359  26.943  1.00  0.00     0.202 C 
BRANCH   3   4
ATOM      4  C   UNL A   1      33.636  27.952  26.111  1.00  0.00     0.261 C 
BRANCH   4   5
ATOM      5  O   UNL A   1      33.729  26.165  26.112  1.00  0.00    -0.463 OA
BRANCH   5   6
ATOM      6  C   UNL A   1      33.748  24.844  25.080  1.00  0.00     0.314 C 
ATOM      7  O   UNL A   1      34.291  24.813  23.963  1.00  0.00    -0.252 OA
BRANCH   6   8
ATOM      8  C   UNL A   1      32.757  23.672  25.344  1.00  0.00     0.089 C 
ATOM      9  N   UNL A   1      35.676  22.979  26.233  1.00  0.00    -0.342 N 
ATOM     10  C   UNL A   1      35.634  21.499  25.871  1.00  0.00     0.119 C 
ATOM     11  C   UNL A   1      34.185  23.736  26.696  1.00  0.00     0.138 C 
ATOM     12  C   UNL A   1      34.591  21.072  24.335  1.00  0.00     0.023 C 
ATOM     13  C   UNL A   1      32.535  21.936  24.210  1.00  0.00     0.022 C 
BRANCH   9  14
ATOM     14  C   UNL A   1      36.922  23.528  25.818  1.00  0.00     0.222 C 
ATOM     15  O   UNL A   1      37.278  23.415  24.630  1.00  0.00    -0.275 OA
BRANCH  14  16
ATOM     16  C   UNL A   1      37.913  24.267  26.722  1.00  0.00     0.097 C 
ATOM     17  C   UNL A   1      39.379  23.762  26.593  1.00  0.00     0.014 C 
ENDBRANCH  14  16
ENDBRANCH   9  14
BRANCH   8  18
ATOM     18  C   UNL A   1      31.315  24.249  25.453  1.00  0.00     0.069 C 
BRANCH  18  19
ATOM     19  C   UNL A   1      30.550  24.653  24.205  1.00  0.00     0.212 C 
ATOM     20  C   UNL A   1      29.721  25.897  24.410  1.00  0.00     0.108 C 
ATOM     21  O   UNL A   1      31.428  24.894  23.110  1.00  0.00    -0.392 OA
ATOM     22  C   UNL A   1      30.215  26.690  23.265  1.00  0.00     0.091 C 
ATOM     23  N   UNL A   1      31.135  26.148  22.543  1.00  0.00    -0.090 NA
BRANCH  22  24
ATOM     24  C   UNL A   1      29.620  27.988  22.969  1.00  0.00    -0.001 A 
ATOM     25  C   UNL A   1      30.429  29.061  22.594  1.00  0.00     0.010 A 
ATOM     26  C   UNL A   1      28.246  28.140  23.143  1.00  0.00     0.010 A 
ATOM     27  C   UNL A   1      29.854  30.318  22.429  1.00  0.00     0.004 A 
ATOM     28  C   UNL A   1      27.680  29.403  22.994  1.00  0.00     0.004 A 
ATOM     29  C   UNL A   1      28.482  30.501  22.649  1.00  0.00    -0.051 A 
ATOM     30  C   UNL A   1      27.869  31.866  22.563  1.00  0.00     0.044 C 
ENDBRANCH  22  24
ENDBRANCH  18  19
ENDBRANCH   8  18
ENDBRANCH   6   8
ENDBRANCH   5   6
ENDBRANCH   4   5
ENDBRANCH   3   4
ENDBRANCH   2   3
ENDBRANCH   1   2
BRANCH   1  31
ATOM     31  C   UNL A   1      37.836  29.824  28.922  1.00  0.00     0.188 C 
BRANCH  31  32
ATOM     32  O   UNL A   1      38.192  31.178  29.161  1.00  0.00    -0.376 OA
BRANCH  32  33
ATOM     33  C   UNL A   1      37.206  32.196  29.231  1.00  0.00     0.202 C 
BRANCH  33  34
ATOM     34  C   UNL A   1      37.227  33.152  30.458  1.00  0.00     0.261 C 
BRANCH  34  35
ATOM     35  O   UNL A   1      37.883  32.826  31.777  1.00  0.00    -0.460 OA
BRANCH  35  36
ATOM     36  C   UNL A   1      37.692  32.634  33.122  1.00  0.00     0.338 C 
ATOM     37  O   UNL A   1      36.755  31.957  33.533  1.00  0.00    -0.246 OA
BRANCH  36  38
ATOM     38  C   UNL A   1      38.772  32.951  34.111  1.00  0.00     0.060 A 
ATOM     39  C   UNL A   1      40.318  32.389  33.704  1.00  0.00     0.016 A 
ATOM     40  C   UNL A   1      38.503  34.343  34.827  1.00  0.00     0.016 A 
ATOM     41  C   UNL A   1      41.719  33.459  34.015  1.00  0.00     0.010 A 
ATOM     42  C   UNL A   1      39.656  35.439  35.158  1.00  0.00     0.010 A 
ATOM     43  C   UNL A   1      41.350  35.226  34.884  1.00  0.00    -0.014 A 
BRANCH  43  44
ATOM     44  C   UNL A   1      41.860  36.284  36.432  1.00  0.00     0.031 A 
ATOM     45  C   UNL A   1      41.115  36.347  38.143  1.00  0.00     0.074 A 
ATOM     46  C   UNL A   1      43.018  36.963  36.584  1.00  0.00     0.049 A 
ATOM     47  N   UNL A   1      41.234  37.309  39.044  1.00  0.00    -0.248 NA
ATOM     48  C   UNL A   1      40.025  35.383  38.754  1.00  0.00     0.031 C 
ATOM     49  C   UNL A   1      43.758  37.081  37.853  1.00  0.00     0.029 A 
ATOM     50  N   UNL A   1      43.870  37.536  35.672  1.00  0.00    -0.354 N 
ATOM     51  C   UNL A   1      40.434  36.889  40.134  1.00  0.00     0.074 A 
ATOM     52  C   UNL A   1      39.383  36.170  39.599  1.00  0.00     0.031 C 
ATOM     53  C   UNL A   1      44.878  37.787  37.659  1.00  0.00     0.029 A 
ATOM     54  C   UNL A   1      44.804  38.338  36.331  1.00  0.00     0.049 A 
ATOM     55  H   UNL A   1      43.827  37.401  34.698  1.00  0.00     0.167 HD
ATOM     56  C   UNL A   1      40.842  36.703  41.422  1.00  0.00     0.031 A 
ATOM     57  C   UNL A   1      44.895  39.652  36.001  1.00  0.00     0.031 A 
ATOM     58  C   UNL A   1      41.964  37.569  41.635  1.00  0.00     0.049 A 
ATOM     59  C   UNL A   1      44.398  40.526  37.143  1.00  0.00     0.074 A 
ATOM     60  C   UNL A   1      43.330  37.399  41.686  1.00  0.00     0.029 A 
ATOM     61  N   UNL A   1      41.744  38.888  41.270  1.00  0.00    -0.354 N 
ATOM     62  N   UNL A   1      43.965  40.061  38.291  1.00  0.00    -0.248 NA
ATOM     63  C   UNL A   1      44.359  41.983  37.112  1.00  0.00     0.031 C 
ATOM     64  C   UNL A   1      43.908  38.598  41.140  1.00  0.00     0.029 A 
ATOM     65  C   UNL A   1      42.898  39.508  40.847  1.00  0.00     0.049 A 
ATOM     66  H   UNL A   1      40.864  39.329  41.309  1.00  0.00     0.167 HD
ATOM     67  C   UNL A   1      43.473  41.068  39.070  1.00  0.00     0.074 A 
ATOM     68  C   UNL A   1      43.807  42.260  38.309  1.00  0.00     0.031 C 
ATOM     69  C   UNL A   1      42.777  40.841  40.229  1.00  0.00     0.031 A 
BRANCH  56  70
ATOM     70  C   UNL A   1      40.227  35.612  42.356  1.00  0.00    -0.014 A 
ATOM     71  C   UNL A   1      40.767  34.324  42.407  1.00  0.00     0.009 A 
ATOM     72  C   UNL A   1      39.054  35.761  43.165  1.00  0.00     0.009 A 
ATOM     73  C   UNL A   1      40.198  33.297  43.207  1.00  0.00     0.001 A 
ATOM     74  C   UNL A   1      38.501  34.768  43.988  1.00  0.00     0.001 A 
ATOM     75  C   UNL A   1      39.075  33.519  44.003  1.00  0.00     0.000 A 
ENDBRANCH  56  70
BRANCH  57  76
ATOM     76  C   UNL A   1      44.817  39.801  34.506  1.00  0.00    -0.014 A 
ATOM     77  C   UNL A   1      43.602  40.347  34.014  1.00  0.00     0.009 A 
ATOM     78  C   UNL A   1      45.969  39.982  33.718  1.00  0.00     0.009 A 
ATOM     79  C   UNL A   1      43.569  41.163  32.873  1.00  0.00     0.001 A 
ATOM     80  C   UNL A   1      45.925  40.794  32.567  1.00  0.00     0.001 A 
ATOM     81  C   UNL A   1      44.740  41.412  32.168  1.00  0.00     0.000 A 
ENDBRANCH  57  76
BRANCH  69  82
ATOM     82  C   UNL A   1      41.805  41.861  40.836  1.00  0.00    -0.014 A 
ATOM     83  C   UNL A   1      42.053  42.565  42.023  1.00  0.00     0.009 A 
ATOM     84  C   UNL A   1      40.658  42.278  40.116  1.00  0.00     0.009 A 
ATOM     85  C   UNL A   1      41.194  43.572  42.488  1.00  0.00     0.001 A 
ATOM     86  C   UNL A   1      39.860  43.355  40.516  1.00  0.00     0.001 A 
ATOM     87  C   UNL A   1      40.112  43.984  41.722  1.00  0.00     0.000 A 
ENDBRANCH  69  82
ENDBRANCH  43  44
ENDBRANCH  36  38
ENDBRANCH  35  36
ENDBRANCH  34  35
ENDBRANCH  33  34
ENDBRANCH  32  33
ENDBRANCH  31  32
ENDBRANCH   1  31
TORSDOF 22
ENDMDL
