MODEL 1
REMARK VINA RESULT:     -10.5      0.000      0.000
REMARK SMILES O=C(C[C@H]1C[C@H]2CC[C@@H](C1)N2C(=O)NCc1ncn[nH]1)OCCOCCOCCOC(=O)c1ccc(-c2c3nc(c(-c4ccccc4)c4ccc([nH]4)c(-c4ccccc4)c4nc(c(-c5ccccc5)c5ccc2[nH]5)C=C4)C=C3)cc1
REMARK SMILES IDX 25 1 24 2 23 3 22 4 21 5 2 6 1 7 3 8 4 9 5 10 10 11 6 12
REMARK SMILES IDX 9 13 7 14 11 15 8 16 12 17 13 18 14 19 15 21 16 22 17 23
REMARK SMILES IDX 20 24 18 25 19 26 26 28 27 29 28 30 29 31 30 32 31 33 32 34
REMARK SMILES IDX 33 35 34 36 80 37 35 38 79 39 36 40 37 41 38 42 73 43 39 44
REMARK SMILES IDX 78 45 72 46 74 47 40 48 77 49 71 50 70 51 41 53 63 54 48 55
REMARK SMILES IDX 62 56 49 57 52 58 61 59 75 60 50 61 51 62 60 64 76 65 53 66
REMARK SMILES IDX 42 67 43 68 47 69 44 70 46 71 45 72 64 73 65 74 69 75 66 76
REMARK SMILES IDX 68 77 67 78 54 79 55 80 59 81 56 82 58 83 57 84
REMARK H PARENT 14 20 20 27 74 52 52 63
REMARK Flexibility Score: inf
ROOT
ATOM      1  C   UNL A   1      40.055  21.123  26.440  1.00  0.00     0.188 C 
ENDROOT
BRANCH   1   2
ATOM      2  O   UNL A   1      38.817  21.296  25.764  1.00  0.00    -0.376 OA
BRANCH   2   3
ATOM      3  C   UNL A   1      38.251  22.596  25.766  1.00  0.00     0.202 C 
BRANCH   3   4
ATOM      4  C   UNL A   1      36.943  22.770  24.982  1.00  0.00     0.261 C 
BRANCH   4   5
ATOM      5  O   UNL A   1      36.056  23.784  25.471  1.00  0.00    -0.463 OA
BRANCH   5   6
ATOM      6  C   UNL A   1      34.735  23.545  25.651  1.00  0.00     0.306 C 
ATOM      7  O   UNL A   1      34.261  22.448  25.365  1.00  0.00    -0.252 OA
BRANCH   6   8
ATOM      8  C   UNL A   1      33.831  24.724  25.971  1.00  0.00     0.126 C 
BRANCH   8   9
ATOM      9  C   UNL A   1      33.959  25.925  25.017  1.00  0.00     0.004 C 
ATOM     10  C   UNL A   1      32.983  25.848  23.818  1.00  0.00     0.029 C 
ATOM     11  C   UNL A   1      33.839  27.288  25.760  1.00  0.00     0.029 C 
ATOM     12  C   UNL A   1      31.661  26.626  23.971  1.00  0.00     0.087 C 
ATOM     13  C   UNL A   1      32.434  27.925  25.707  1.00  0.00     0.087 C 
ATOM     14  C   UNL A   1      30.790  26.233  25.157  1.00  0.00     0.027 C 
ATOM     15  N   UNL A   1      32.018  27.987  24.311  1.00  0.00    -0.319 N 
ATOM     16  C   UNL A   1      31.378  27.004  26.342  1.00  0.00     0.027 C 
BRANCH  15  17
ATOM     17  C   UNL A   1      32.060  28.909  23.323  1.00  0.00     0.318 C 
ATOM     18  O   UNL A   1      33.104  29.131  22.700  1.00  0.00    -0.249 OA
ATOM     19  N   UNL A   1      31.007  29.624  22.927  1.00  0.00    -0.331 N 
ATOM     20  H   UNL A   1      31.230  30.219  22.175  1.00  0.00     0.165 HD
BRANCH  19  21
ATOM     21  C   UNL A   1      29.629  29.747  23.318  1.00  0.00     0.194 C 
BRANCH  21  22
ATOM     22  C   UNL A   1      28.958  30.763  22.467  1.00  0.00     0.143 A 
ATOM     23  N   UNL A   1      28.803  32.055  22.677  1.00  0.00    -0.218 NA
ATOM     24  N   UNL A   1      28.441  30.457  21.241  1.00  0.00    -0.262 N 
ATOM     25  C   UNL A   1      28.187  32.490  21.542  1.00  0.00     0.246 A 
ATOM     26  N   UNL A   1      27.952  31.545  20.629  1.00  0.00    -0.162 NA
ATOM     27  H   UNL A   1      28.428  29.551  20.855  1.00  0.00     0.192 HD
ENDBRANCH  21  22
ENDBRANCH  19  21
ENDBRANCH  15  17
ENDBRANCH   8   9
ENDBRANCH   6   8
ENDBRANCH   5   6
ENDBRANCH   4   5
ENDBRANCH   3   4
ENDBRANCH   2   3
ENDBRANCH   1   2
BRANCH   1  28
ATOM     28  C   UNL A   1      40.673  19.727  26.383  1.00  0.00     0.188 C 
BRANCH  28  29
ATOM     29  O   UNL A   1      41.638  19.571  25.354  1.00  0.00    -0.376 OA
BRANCH  29  30
ATOM     30  C   UNL A   1      42.987  19.545  25.817  1.00  0.00     0.202 C 
BRANCH  30  31
ATOM     31  C   UNL A   1      43.805  20.802  25.495  1.00  0.00     0.261 C 
BRANCH  31  32
ATOM     32  O   UNL A   1      43.357  22.036  26.087  1.00  0.00    -0.460 OA
BRANCH  32  33
ATOM     33  C   UNL A   1      43.494  23.161  25.367  1.00  0.00     0.338 C 
ATOM     34  O   UNL A   1      44.012  23.290  24.264  1.00  0.00    -0.246 OA
BRANCH  33  35
ATOM     35  C   UNL A   1      42.958  24.282  26.151  1.00  0.00     0.060 A 
ATOM     36  C   UNL A   1      43.490  25.570  26.021  1.00  0.00     0.016 A 
ATOM     37  C   UNL A   1      41.969  24.013  27.100  1.00  0.00     0.016 A 
ATOM     38  C   UNL A   1      43.045  26.594  26.868  1.00  0.00     0.010 A 
ATOM     39  C   UNL A   1      41.531  25.033  27.943  1.00  0.00     0.010 A 
ATOM     40  C   UNL A   1      42.087  26.322  27.856  1.00  0.00    -0.014 A 
BRANCH  40  41
ATOM     41  C   UNL A   1      41.754  27.309  28.913  1.00  0.00     0.031 A 
ATOM     42  C   UNL A   1      42.514  27.268  30.210  1.00  0.00     0.074 A 
ATOM     43  C   UNL A   1      40.737  28.176  28.765  1.00  0.00     0.049 A 
ATOM     44  N   UNL A   1      42.282  27.904  31.330  1.00  0.00    -0.248 NA
ATOM     45  C   UNL A   1      43.685  26.378  30.248  1.00  0.00     0.031 C 
ATOM     46  C   UNL A   1      39.936  28.350  27.555  1.00  0.00     0.029 A 
ATOM     47  N   UNL A   1      40.185  29.052  29.667  1.00  0.00    -0.354 N 
ATOM     48  C   UNL A   1      43.261  27.470  32.216  1.00  0.00     0.074 A 
ATOM     49  C   UNL A   1      44.078  26.509  31.506  1.00  0.00     0.031 C 
ATOM     50  C   UNL A   1      38.973  29.256  27.800  1.00  0.00     0.029 A 
ATOM     51  C   UNL A   1      39.067  29.693  29.194  1.00  0.00     0.049 A 
ATOM     52  H   UNL A   1      40.556  29.207  30.566  1.00  0.00     0.167 HD
ATOM     53  C   UNL A   1      43.463  27.833  33.506  1.00  0.00     0.031 A 
ATOM     54  C   UNL A   1      38.195  30.506  29.821  1.00  0.00     0.031 A 
ATOM     55  C   UNL A   1      42.644  28.773  34.224  1.00  0.00     0.049 A 
ATOM     56  C   UNL A   1      38.393  30.850  31.273  1.00  0.00     0.074 A 
ATOM     57  C   UNL A   1      42.787  29.223  35.525  1.00  0.00     0.029 A 
ATOM     58  N   UNL A   1      41.519  29.396  33.706  1.00  0.00    -0.354 N 
ATOM     59  N   UNL A   1      39.331  30.450  32.095  1.00  0.00    -0.248 NA
ATOM     60  C   UNL A   1      37.410  31.760  31.880  1.00  0.00     0.031 C 
ATOM     61  C   UNL A   1      41.714  30.073  35.813  1.00  0.00     0.029 A 
ATOM     62  C   UNL A   1      40.940  30.202  34.671  1.00  0.00     0.049 A 
ATOM     63  H   UNL A   1      41.183  29.282  32.788  1.00  0.00     0.167 HD
ATOM     64  C   UNL A   1      39.069  31.080  33.308  1.00  0.00     0.074 A 
ATOM     65  C   UNL A   1      37.884  31.889  33.113  1.00  0.00     0.031 C 
ATOM     66  C   UNL A   1      39.757  31.000  34.473  1.00  0.00     0.031 A 
BRANCH  53  67
ATOM     67  C   UNL A   1      44.589  27.157  34.239  1.00  0.00    -0.014 A 
ATOM     68  C   UNL A   1      44.350  26.121  35.156  1.00  0.00     0.009 A 
ATOM     69  C   UNL A   1      45.911  27.565  34.004  1.00  0.00     0.009 A 
ATOM     70  C   UNL A   1      45.410  25.542  35.858  1.00  0.00     0.001 A 
ATOM     71  C   UNL A   1      46.970  26.963  34.683  1.00  0.00     0.001 A 
ATOM     72  C   UNL A   1      46.719  25.962  35.619  1.00  0.00     0.000 A 
ENDBRANCH  53  67
BRANCH  54  73
ATOM     73  C   UNL A   1      37.020  31.028  29.077  1.00  0.00    -0.014 A 
ATOM     74  C   UNL A   1      35.921  30.201  28.807  1.00  0.00     0.009 A 
ATOM     75  C   UNL A   1      36.996  32.361  28.636  1.00  0.00     0.009 A 
ATOM     76  C   UNL A   1      34.821  30.697  28.104  1.00  0.00     0.001 A 
ATOM     77  C   UNL A   1      35.891  32.857  27.943  1.00  0.00     0.001 A 
ATOM     78  C   UNL A   1      34.804  32.026  27.679  1.00  0.00     0.000 A 
ENDBRANCH  54  73
BRANCH  66  79
ATOM     79  C   UNL A   1      39.279  31.837  35.628  1.00  0.00    -0.014 A 
ATOM     80  C   UNL A   1      39.782  33.128  35.857  1.00  0.00     0.009 A 
ATOM     81  C   UNL A   1      38.254  31.351  36.455  1.00  0.00     0.009 A 
ATOM     82  C   UNL A   1      39.280  33.904  36.906  1.00  0.00     0.001 A 
ATOM     83  C   UNL A   1      37.737  32.139  37.486  1.00  0.00     0.001 A 
ATOM     84  C   UNL A   1      38.255  33.412  37.714  1.00  0.00     0.000 A 
ENDBRANCH  66  79
ENDBRANCH  40  41
ENDBRANCH  33  35
ENDBRANCH  32  33
ENDBRANCH  31  32
ENDBRANCH  30  31
ENDBRANCH  29  30
ENDBRANCH  28  29
ENDBRANCH   1  28
TORSDOF 21
ENDMDL
MODEL 2
REMARK VINA RESULT:     -10.2      4.183      9.794
REMARK SMILES O=C(C[C@H]1C[C@H]2CC[C@@H](C1)N2C(=O)NCc1ncn[nH]1)OCCOCCOCCOC(=O)c1ccc(-c2c3nc(c(-c4ccccc4)c4ccc([nH]4)c(-c4ccccc4)c4nc(c(-c5ccccc5)c5ccc2[nH]5)C=C4)C=C3)cc1
REMARK SMILES IDX 25 1 24 2 23 3 22 4 21 5 2 6 1 7 3 8 4 9 5 10 10 11 6 12
REMARK SMILES IDX 9 13 7 14 11 15 8 16 12 17 13 18 14 19 15 21 16 22 17 23
REMARK SMILES IDX 20 24 18 25 19 26 26 28 27 29 28 30 29 31 30 32 31 33 32 34
REMARK SMILES IDX 33 35 34 36 80 37 35 38 79 39 36 40 37 41 38 42 73 43 39 44
REMARK SMILES IDX 78 45 72 46 74 47 40 48 77 49 71 50 70 51 41 53 63 54 48 55
REMARK SMILES IDX 62 56 49 57 52 58 61 59 75 60 50 61 51 62 60 64 76 65 53 66
REMARK SMILES IDX 42 67 43 68 47 69 44 70 46 71 45 72 64 73 65 74 69 75 66 76
REMARK SMILES IDX 68 77 67 78 54 79 55 80 59 81 56 82 58 83 57 84
REMARK H PARENT 14 20 20 27 74 52 52 63
REMARK Flexibility Score: inf
ROOT
ATOM      1  C   UNL A   1      36.048  32.404  28.186  1.00  0.00     0.188 C 
ENDROOT
BRANCH   1   2
ATOM      2  O   UNL A   1      35.157  31.567  27.461  1.00  0.00    -0.376 OA
BRANCH   2   3
ATOM      3  C   UNL A   1      35.353  30.166  27.563  1.00  0.00     0.202 C 
BRANCH   3   4
ATOM      4  C   UNL A   1      34.130  29.285  27.272  1.00  0.00     0.261 C 
BRANCH   4   5
ATOM      5  O   UNL A   1      34.268  28.374  26.174  1.00  0.00    -0.463 OA
BRANCH   5   6
ATOM      6  C   UNL A   1      33.189  27.828  25.565  1.00  0.00     0.306 C 
ATOM      7  O   UNL A   1      32.076  28.325  25.720  1.00  0.00    -0.252 OA
BRANCH   6   8
ATOM      8  C   UNL A   1      33.351  26.470  24.904  1.00  0.00     0.126 C 
BRANCH   8   9
ATOM      9  C   UNL A   1      33.732  25.321  25.854  1.00  0.00     0.004 C 
ATOM     10  C   UNL A   1      32.571  24.326  26.095  1.00  0.00     0.029 C 
ATOM     11  C   UNL A   1      35.027  24.583  25.401  1.00  0.00     0.029 C 
ATOM     12  C   UNL A   1      32.571  23.061  25.216  1.00  0.00     0.087 C 
ATOM     13  C   UNL A   1      34.778  23.286  24.603  1.00  0.00     0.087 C 
ATOM     14  C   UNL A   1      32.526  23.294  23.711  1.00  0.00     0.027 C 
ATOM     15  N   UNL A   1      33.872  22.445  25.376  1.00  0.00    -0.319 N 
ATOM     16  C   UNL A   1      33.980  23.565  23.318  1.00  0.00     0.027 C 
BRANCH  15  17
ATOM     17  C   UNL A   1      34.001  21.429  26.258  1.00  0.00     0.318 C 
ATOM     18  O   UNL A   1      34.382  21.633  27.416  1.00  0.00    -0.249 OA
ATOM     19  N   UNL A   1      33.717  20.158  25.976  1.00  0.00    -0.331 N 
ATOM     20  H   UNL A   1      33.845  19.572  26.757  1.00  0.00     0.165 HD
BRANCH  19  21
ATOM     21  C   UNL A   1      33.271  19.425  24.823  1.00  0.00     0.194 C 
BRANCH  21  22
ATOM     22  C   UNL A   1      33.177  17.980  25.156  1.00  0.00     0.143 A 
ATOM     23  N   UNL A   1      32.104  17.229  25.311  1.00  0.00    -0.218 NA
ATOM     24  N   UNL A   1      34.282  17.190  25.286  1.00  0.00    -0.262 N 
ATOM     25  C   UNL A   1      32.616  15.985  25.530  1.00  0.00     0.246 A 
ATOM     26  N   UNL A   1      33.949  15.912  25.515  1.00  0.00    -0.162 NA
ATOM     27  H   UNL A   1      35.209  17.517  25.220  1.00  0.00     0.192 HD
ENDBRANCH  21  22
ENDBRANCH  19  21
ENDBRANCH  15  17
ENDBRANCH   8   9
ENDBRANCH   6   8
ENDBRANCH   5   6
ENDBRANCH   4   5
ENDBRANCH   3   4
ENDBRANCH   2   3
ENDBRANCH   1   2
BRANCH   1  28
ATOM     28  C   UNL A   1      35.410  33.434  29.117  1.00  0.00     0.188 C 
BRANCH  28  29
ATOM     29  O   UNL A   1      34.187  33.964  28.629  1.00  0.00    -0.376 OA
BRANCH  29  30
ATOM     30  C   UNL A   1      34.096  35.386  28.702  1.00  0.00     0.202 C 
BRANCH  30  31
ATOM     31  C   UNL A   1      32.884  35.916  29.479  1.00  0.00     0.261 C 
BRANCH  31  32
ATOM     32  O   UNL A   1      32.483  35.168  30.643  1.00  0.00    -0.460 OA
BRANCH  32  33
ATOM     33  C   UNL A   1      32.717  35.713  31.848  1.00  0.00     0.338 C 
ATOM     34  O   UNL A   1      32.133  36.653  32.373  1.00  0.00    -0.246 OA
BRANCH  33  35
ATOM     35  C   UNL A   1      33.867  35.026  32.452  1.00  0.00     0.060 A 
ATOM     36  C   UNL A   1      35.139  35.609  32.442  1.00  0.00     0.016 A 
ATOM     37  C   UNL A   1      33.679  33.736  32.953  1.00  0.00     0.016 A 
ATOM     38  C   UNL A   1      36.239  34.882  32.914  1.00  0.00     0.010 A 
ATOM     39  C   UNL A   1      34.776  33.014  33.419  1.00  0.00     0.010 A 
ATOM     40  C   UNL A   1      36.068  33.568  33.374  1.00  0.00    -0.014 A 
BRANCH  40  41
ATOM     41  C   UNL A   1      37.226  32.687  33.671  1.00  0.00     0.031 A 
ATOM     42  C   UNL A   1      38.008  32.919  34.934  1.00  0.00     0.074 A 
ATOM     43  C   UNL A   1      37.636  31.751  32.797  1.00  0.00     0.049 A 
ATOM     44  N   UNL A   1      39.148  32.401  35.313  1.00  0.00    -0.248 NA
ATOM     45  C   UNL A   1      37.428  33.875  35.891  1.00  0.00     0.031 C 
ATOM     46  C   UNL A   1      36.958  31.396  31.552  1.00  0.00     0.029 A 
ATOM     47  N   UNL A   1      38.751  30.950  32.819  1.00  0.00    -0.354 N 
ATOM     48  C   UNL A   1      39.437  32.988  36.540  1.00  0.00     0.074 A 
ATOM     49  C   UNL A   1      38.360  33.910  36.831  1.00  0.00     0.031 C 
ATOM     50  C   UNL A   1      37.691  30.467  30.911  1.00  0.00     0.029 A 
ATOM     51  C   UNL A   1      38.905  30.196  31.683  1.00  0.00     0.049 A 
ATOM     52  H   UNL A   1      39.379  30.920  33.577  1.00  0.00     0.167 HD
ATOM     53  C   UNL A   1      40.504  32.784  37.350  1.00  0.00     0.031 A 
ATOM     54  C   UNL A   1      39.924  29.408  31.289  1.00  0.00     0.031 A 
ATOM     55  C   UNL A   1      41.588  31.885  37.058  1.00  0.00     0.049 A 
ATOM     56  C   UNL A   1      41.134  29.242  32.169  1.00  0.00     0.074 A 
ATOM     57  C   UNL A   1      42.698  31.593  37.831  1.00  0.00     0.029 A 
ATOM     58  N   UNL A   1      41.704  31.142  35.893  1.00  0.00    -0.354 N 
ATOM     59  N   UNL A   1      41.389  29.786  33.332  1.00  0.00    -0.248 NA
ATOM     60  C   UNL A   1      42.195  28.350  31.677  1.00  0.00     0.031 C 
ATOM     61  C   UNL A   1      43.516  30.719  37.107  1.00  0.00     0.029 A 
ATOM     62  C   UNL A   1      42.883  30.416  35.912  1.00  0.00     0.049 A 
ATOM     63  H   UNL A   1      41.046  31.132  35.161  1.00  0.00     0.167 HD
ATOM     64  C   UNL A   1      42.624  29.282  33.727  1.00  0.00     0.074 A 
ATOM     65  C   UNL A   1      43.067  28.388  32.677  1.00  0.00     0.031 C 
ATOM     66  C   UNL A   1      43.321  29.533  34.862  1.00  0.00     0.031 A 
BRANCH  53  67
ATOM     67  C   UNL A   1      40.573  33.603  38.609  1.00  0.00    -0.014 A 
ATOM     68  C   UNL A   1      40.020  33.144  39.816  1.00  0.00     0.009 A 
ATOM     69  C   UNL A   1      41.206  34.856  38.587  1.00  0.00     0.009 A 
ATOM     70  C   UNL A   1      40.056  33.945  40.959  1.00  0.00     0.001 A 
ATOM     71  C   UNL A   1      41.269  35.640  39.738  1.00  0.00     0.001 A 
ATOM     72  C   UNL A   1      40.682  35.190  40.920  1.00  0.00     0.000 A 
ENDBRANCH  53  67
BRANCH  54  73
ATOM     73  C   UNL A   1      39.858  28.738  29.965  1.00  0.00    -0.014 A 
ATOM     74  C   UNL A   1      40.248  29.415  28.801  1.00  0.00     0.009 A 
ATOM     75  C   UNL A   1      39.404  27.413  29.864  1.00  0.00     0.009 A 
ATOM     76  C   UNL A   1      40.180  28.780  27.560  1.00  0.00     0.001 A 
ATOM     77  C   UNL A   1      39.347  26.777  28.623  1.00  0.00     0.001 A 
ATOM     78  C   UNL A   1      39.737  27.459  27.472  1.00  0.00     0.000 A 
ENDBRANCH  54  73
BRANCH  66  79
ATOM     79  C   UNL A   1      44.622  28.804  35.061  1.00  0.00    -0.014 A 
ATOM     80  C   UNL A   1      45.843  29.353  34.639  1.00  0.00     0.009 A 
ATOM     81  C   UNL A   1      44.630  27.580  35.749  1.00  0.00     0.009 A 
ATOM     82  C   UNL A   1      47.042  28.679  34.885  1.00  0.00     0.001 A 
ATOM     83  C   UNL A   1      45.832  26.921  36.015  1.00  0.00     0.001 A 
ATOM     84  C   UNL A   1      47.036  27.468  35.578  1.00  0.00     0.000 A 
ENDBRANCH  66  79
ENDBRANCH  40  41
ENDBRANCH  33  35
ENDBRANCH  32  33
ENDBRANCH  31  32
ENDBRANCH  30  31
ENDBRANCH  29  30
ENDBRANCH  28  29
ENDBRANCH   1  28
TORSDOF 21
ENDMDL
MODEL 3
REMARK VINA RESULT:      -9.5      1.477      6.022
REMARK SMILES O=C(C[C@H]1C[C@H]2CC[C@@H](C1)N2C(=O)NCc1ncn[nH]1)OCCOCCOCCOC(=O)c1ccc(-c2c3nc(c(-c4ccccc4)c4ccc([nH]4)c(-c4ccccc4)c4nc(c(-c5ccccc5)c5ccc2[nH]5)C=C4)C=C3)cc1
REMARK SMILES IDX 25 1 24 2 23 3 22 4 21 5 2 6 1 7 3 8 4 9 5 10 10 11 6 12
REMARK SMILES IDX 9 13 7 14 11 15 8 16 12 17 13 18 14 19 15 21 16 22 17 23
REMARK SMILES IDX 20 24 18 25 19 26 26 28 27 29 28 30 29 31 30 32 31 33 32 34
REMARK SMILES IDX 33 35 34 36 80 37 35 38 79 39 36 40 37 41 38 42 73 43 39 44
REMARK SMILES IDX 78 45 72 46 74 47 40 48 77 49 71 50 70 51 41 53 63 54 48 55
REMARK SMILES IDX 62 56 49 57 52 58 61 59 75 60 50 61 51 62 60 64 76 65 53 66
REMARK SMILES IDX 42 67 43 68 47 69 44 70 46 71 45 72 64 73 65 74 69 75 66 76
REMARK SMILES IDX 68 77 67 78 54 79 55 80 59 81 56 82 58 83 57 84
REMARK H PARENT 14 20 20 27 74 52 52 63
REMARK Flexibility Score: inf
ROOT
ATOM      1  C   UNL A   1      38.882  22.606  26.303  1.00  0.00     0.188 C 
ENDROOT
BRANCH   1   2
ATOM      2  O   UNL A   1      38.531  21.348  25.741  1.00  0.00    -0.376 OA
BRANCH   2   3
ATOM      3  C   UNL A   1      37.275  21.256  25.089  1.00  0.00     0.202 C 
BRANCH   3   4
ATOM      4  C   UNL A   1      37.001  22.290  23.989  1.00  0.00     0.261 C 
BRANCH   4   5
ATOM      5  O   UNL A   1      35.672  22.827  23.957  1.00  0.00    -0.463 OA
BRANCH   5   6
ATOM      6  C   UNL A   1      35.240  23.708  24.890  1.00  0.00     0.306 C 
ATOM      7  O   UNL A   1      36.029  24.182  25.704  1.00  0.00    -0.252 OA
BRANCH   6   8
ATOM      8  C   UNL A   1      33.741  23.897  25.056  1.00  0.00     0.126 C 
BRANCH   8   9
ATOM      9  C   UNL A   1      33.298  25.322  25.428  1.00  0.00     0.004 C 
ATOM     10  C   UNL A   1      33.525  26.343  24.286  1.00  0.00     0.029 C 
ATOM     11  C   UNL A   1      31.831  25.371  25.948  1.00  0.00     0.029 C 
ATOM     12  C   UNL A   1      32.307  26.633  23.387  1.00  0.00     0.087 C 
ATOM     13  C   UNL A   1      30.787  25.770  24.884  1.00  0.00     0.087 C 
ATOM     14  C   UNL A   1      31.707  25.432  22.669  1.00  0.00     0.027 C 
ATOM     15  N   UNL A   1      31.224  27.017  24.267  1.00  0.00    -0.319 N 
ATOM     16  C   UNL A   1      30.785  24.783  23.705  1.00  0.00     0.027 C 
BRANCH  15  17
ATOM     17  C   UNL A   1      30.981  28.333  24.455  1.00  0.00     0.318 C 
ATOM     18  O   UNL A   1      31.441  28.936  25.432  1.00  0.00    -0.249 OA
ATOM     19  N   UNL A   1      30.265  29.085  23.619  1.00  0.00    -0.331 N 
ATOM     20  H   UNL A   1      30.226  30.024  23.911  1.00  0.00     0.165 HD
BRANCH  19  21
ATOM     21  C   UNL A   1      29.534  28.872  22.399  1.00  0.00     0.194 C 
BRANCH  21  22
ATOM     22  C   UNL A   1      29.044  30.174  21.878  1.00  0.00     0.143 A 
ATOM     23  N   UNL A   1      28.047  30.418  21.051  1.00  0.00    -0.218 NA
ATOM     24  N   UNL A   1      29.575  31.366  22.282  1.00  0.00    -0.262 N 
ATOM     25  C   UNL A   1      28.012  31.780  20.989  1.00  0.00     0.246 A 
ATOM     26  N   UNL A   1      28.926  32.403  21.735  1.00  0.00    -0.162 NA
ATOM     27  H   UNL A   1      30.339  31.452  22.898  1.00  0.00     0.192 HD
ENDBRANCH  21  22
ENDBRANCH  19  21
ENDBRANCH  15  17
ENDBRANCH   8   9
ENDBRANCH   6   8
ENDBRANCH   5   6
ENDBRANCH   4   5
ENDBRANCH   3   4
ENDBRANCH   2   3
ENDBRANCH   1   2
BRANCH   1  28
ATOM     28  C   UNL A   1      40.364  22.825  26.606  1.00  0.00     0.188 C 
BRANCH  28  29
ATOM     29  O   UNL A   1      41.223  21.904  25.952  1.00  0.00    -0.376 OA
BRANCH  29  30
ATOM     30  C   UNL A   1      42.608  22.231  26.044  1.00  0.00     0.202 C 
BRANCH  30  31
ATOM     31  C   UNL A   1      43.095  23.270  25.026  1.00  0.00     0.261 C 
BRANCH  31  32
ATOM     32  O   UNL A   1      42.669  24.630  25.234  1.00  0.00    -0.460 OA
BRANCH  32  33
ATOM     33  C   UNL A   1      43.572  25.502  25.711  1.00  0.00     0.338 C 
ATOM     34  O   UNL A   1      44.760  25.588  25.421  1.00  0.00    -0.246 OA
BRANCH  33  35
ATOM     35  C   UNL A   1      42.917  26.344  26.721  1.00  0.00     0.060 A 
ATOM     36  C   UNL A   1      43.299  27.677  26.904  1.00  0.00     0.016 A 
ATOM     37  C   UNL A   1      41.968  25.754  27.560  1.00  0.00     0.016 A 
ATOM     38  C   UNL A   1      42.745  28.421  27.954  1.00  0.00     0.010 A 
ATOM     39  C   UNL A   1      41.421  26.496  28.606  1.00  0.00     0.010 A 
ATOM     40  C   UNL A   1      41.828  27.823  28.831  1.00  0.00    -0.014 A 
BRANCH  40  41
ATOM     41  C   UNL A   1      41.388  28.495  30.079  1.00  0.00     0.031 A 
ATOM     42  C   UNL A   1      40.206  29.423  30.025  1.00  0.00     0.074 A 
ATOM     43  C   UNL A   1      42.073  28.356  31.228  1.00  0.00     0.049 A 
ATOM     44  N   UNL A   1      39.755  30.249  30.936  1.00  0.00    -0.248 NA
ATOM     45  C   UNL A   1      39.441  29.427  28.769  1.00  0.00     0.031 C 
ATOM     46  C   UNL A   1      43.215  27.468  31.434  1.00  0.00     0.029 A 
ATOM     47  N   UNL A   1      41.918  28.998  32.432  1.00  0.00    -0.354 N 
ATOM     48  C   UNL A   1      38.669  30.891  30.353  1.00  0.00     0.074 A 
ATOM     49  C   UNL A   1      38.541  30.370  29.009  1.00  0.00     0.031 C 
ATOM     50  C   UNL A   1      43.680  27.645  32.685  1.00  0.00     0.029 A 
ATOM     51  C   UNL A   1      42.892  28.685  33.347  1.00  0.00     0.049 A 
ATOM     52  H   UNL A   1      41.180  29.622  32.621  1.00  0.00     0.167 HD
ATOM     53  C   UNL A   1      37.854  31.835  30.883  1.00  0.00     0.031 A 
ATOM     54  C   UNL A   1      43.146  29.204  34.564  1.00  0.00     0.031 A 
ATOM     55  C   UNL A   1      37.987  32.372  32.210  1.00  0.00     0.049 A 
ATOM     56  C   UNL A   1      42.271  30.299  35.116  1.00  0.00     0.074 A 
ATOM     57  C   UNL A   1      37.192  33.311  32.844  1.00  0.00     0.029 A 
ATOM     58  N   UNL A   1      38.990  32.028  33.103  1.00  0.00    -0.354 N 
ATOM     59  N   UNL A   1      41.238  30.886  34.565  1.00  0.00    -0.248 NA
ATOM     60  C   UNL A   1      42.601  30.799  36.459  1.00  0.00     0.031 C 
ATOM     61  C   UNL A   1      37.749  33.579  34.099  1.00  0.00     0.029 A 
ATOM     62  C   UNL A   1      38.853  32.760  34.271  1.00  0.00     0.049 A 
ATOM     63  H   UNL A   1      39.695  31.363  32.933  1.00  0.00     0.167 HD
ATOM     64  C   UNL A   1      40.776  31.804  35.503  1.00  0.00     0.074 A 
ATOM     65  C   UNL A   1      41.643  31.695  36.658  1.00  0.00     0.031 C 
ATOM     66  C   UNL A   1      39.722  32.651  35.415  1.00  0.00     0.031 A 
BRANCH  53  67
ATOM     67  C   UNL A   1      36.776  32.387  29.992  1.00  0.00    -0.014 A 
ATOM     68  C   UNL A   1      35.527  31.756  29.872  1.00  0.00     0.009 A 
ATOM     69  C   UNL A   1      37.015  33.562  29.262  1.00  0.00     0.009 A 
ATOM     70  C   UNL A   1      34.561  32.264  29.001  1.00  0.00     0.001 A 
ATOM     71  C   UNL A   1      36.037  34.085  28.417  1.00  0.00     0.001 A 
ATOM     72  C   UNL A   1      34.815  33.428  28.277  1.00  0.00     0.000 A 
ENDBRANCH  53  67
BRANCH  54  73
ATOM     73  C   UNL A   1      44.315  28.714  35.337  1.00  0.00    -0.014 A 
ATOM     74  C   UNL A   1      44.173  27.670  36.262  1.00  0.00     0.009 A 
ATOM     75  C   UNL A   1      45.581  29.291  35.147  1.00  0.00     0.009 A 
ATOM     76  C   UNL A   1      45.277  27.217  36.988  1.00  0.00     0.001 A 
ATOM     77  C   UNL A   1      46.685  28.829  35.866  1.00  0.00     0.001 A 
ATOM     78  C   UNL A   1      46.533  27.790  36.784  1.00  0.00     0.000 A 
ENDBRANCH  54  73
BRANCH  66  79
ATOM     79  C   UNL A   1      39.410  33.508  36.612  1.00  0.00    -0.014 A 
ATOM     80  C   UNL A   1      38.628  33.029  37.674  1.00  0.00     0.009 A 
ATOM     81  C   UNL A   1      39.973  34.791  36.708  1.00  0.00     0.009 A 
ATOM     82  C   UNL A   1      38.399  33.828  38.798  1.00  0.00     0.001 A 
ATOM     83  C   UNL A   1      39.763  35.577  37.843  1.00  0.00     0.001 A 
ATOM     84  C   UNL A   1      38.972  35.097  38.884  1.00  0.00     0.000 A 
ENDBRANCH  66  79
ENDBRANCH  40  41
ENDBRANCH  33  35
ENDBRANCH  32  33
ENDBRANCH  31  32
ENDBRANCH  30  31
ENDBRANCH  29  30
ENDBRANCH  28  29
ENDBRANCH   1  28
TORSDOF 21
ENDMDL
