MODEL 1
REMARK VINA RESULT:     -11.4      0.000      0.000
REMARK SMILES Cc1cc(NC(=O)c2ccc(Br)cc2N)ccc1C(=O)OCCOCCOCCOC(=O)c1ccc(-c2c3nc(c(-c4ccccc4)c4ccc([nH]4)c(-c4ccccc4)c4nc(c(-c5ccccc5)c5ccc2[nH]5)C=C4)C=C3)cc1
REMARK SMILES IDX 25 1 24 2 23 3 22 4 21 5 19 6 20 7 18 8 1 9 2 10 3 11 4 12
REMARK SMILES IDX 17 13 16 14 5 15 6 16 7 18 8 19 9 20 14 21 10 22 13 23 11 24
REMARK SMILES IDX 12 25 15 26 26 29 27 30 28 31 29 32 30 33 31 34 32 35 33 36
REMARK SMILES IDX 34 37 80 38 35 39 79 40 36 41 37 42 38 43 73 44 39 45 78 46
REMARK SMILES IDX 72 47 74 48 40 49 77 50 71 51 70 52 41 54 63 55 48 56 62 57
REMARK SMILES IDX 49 58 52 59 61 60 75 61 50 62 51 63 60 65 76 66 53 67 42 68
REMARK SMILES IDX 43 69 47 70 44 71 46 72 45 73 64 74 65 75 69 76 66 77 68 78
REMARK SMILES IDX 67 79 54 80 55 81 59 82 56 83 58 84 57 85
REMARK H PARENT 5 17 15 27 15 28 74 53 52 64
REMARK Flexibility Score: inf
ROOT
ATOM      1  C   UNL A   1      40.776  20.384  26.638  1.00  0.00     0.188 C 
ENDROOT
BRANCH   1   2
ATOM      2  O   UNL A   1      39.630  21.268  26.667  1.00  0.00    -0.376 OA
BRANCH   2   3
ATOM      3  C   UNL A   1      38.711  21.481  25.562  1.00  0.00     0.202 C 
BRANCH   3   4
ATOM      4  C   UNL A   1      37.358  22.437  25.747  1.00  0.00     0.261 C 
BRANCH   4   5
ATOM      5  O   UNL A   1      36.276  22.870  24.571  1.00  0.00    -0.460 OA
BRANCH   5   6
ATOM      6  C   UNL A   1      35.094  23.656  24.575  1.00  0.00     0.338 C 
ATOM      7  O   UNL A   1      34.903  24.746  25.112  1.00  0.00    -0.246 OA
BRANCH   6   8
ATOM      8  C   UNL A   1      33.804  23.403  23.885  1.00  0.00     0.063 A 
ATOM      9  C   UNL A   1      33.095  22.019  25.838  1.00  0.00     0.045 C 
ATOM     10  C   UNL A   1      32.779  22.860  24.644  1.00  0.00    -0.035 A 
ATOM     11  C   UNL A   1      31.464  23.330  24.431  1.00  0.00     0.030 A 
ATOM     12  C   UNL A   1      31.163  24.324  23.482  1.00  0.00     0.041 A 
ATOM     13  C   UNL A   1      33.450  24.337  22.851  1.00  0.00     0.018 A 
ATOM     14  C   UNL A   1      32.143  24.762  22.614  1.00  0.00     0.027 A 
BRANCH  12  15
ATOM     15  N   UNL A   1      29.929  24.994  23.462  1.00  0.00    -0.322 N 
ATOM     16  C   UNL A   1      29.574  26.099  24.213  1.00  0.00     0.257 C 
ATOM     17  H   UNL A   1      29.246  24.640  22.847  1.00  0.00     0.170 HD
ATOM     18  O   UNL A   1      28.399  26.447  24.311  1.00  0.00    -0.269 OA
BRANCH  16  19
ATOM     19  C   UNL A   1      30.637  26.931  24.834  1.00  0.00     0.063 A 
ATOM     20  C   UNL A   1      31.262  26.405  25.975  1.00  0.00     0.017 A 
ATOM     21  C   UNL A   1      31.024  28.186  24.310  1.00  0.00     0.045 A 
ATOM     22  C   UNL A   1      32.295  27.110  26.591  1.00  0.00     0.016 A 
ATOM     23  C   UNL A   1      32.039  28.893  24.971  1.00  0.00     0.042 A 
ATOM     24  C   UNL A   1      32.680  28.348  26.085  1.00  0.00     0.020 A 
ATOM     25  Br  UNL A   1      34.075  29.314  26.921  1.00  0.00    -0.051 Br
BRANCH  21  26
ATOM     26  N   UNL A   1      30.348  28.832  23.275  1.00  0.00    -0.398 N 
ATOM     27  H   UNL A   1      30.047  28.320  22.489  1.00  0.00     0.156 HD
ATOM     28  H   UNL A   1      30.171  29.799  23.331  1.00  0.00     0.156 HD
ENDBRANCH  21  26
ENDBRANCH  16  19
ENDBRANCH  12  15
ENDBRANCH   6   8
ENDBRANCH   5   6
ENDBRANCH   4   5
ENDBRANCH   3   4
ENDBRANCH   2   3
ENDBRANCH   1   2
BRANCH   1  29
ATOM     29  C   UNL A   1      42.038  20.600  27.482  1.00  0.00     0.188 C 
BRANCH  29  30
ATOM     30  O   UNL A   1      42.646  21.833  27.145  1.00  0.00    -0.376 OA
BRANCH  30  31
ATOM     31  C   UNL A   1      42.720  22.797  28.184  1.00  0.00     0.202 C 
BRANCH  31  32
ATOM     32  C   UNL A   1      43.013  24.224  27.668  1.00  0.00     0.261 C 
BRANCH  32  33
ATOM     33  O   UNL A   1      41.788  24.990  27.535  1.00  0.00    -0.460 OA
BRANCH  33  34
ATOM     34  C   UNL A   1      41.682  25.852  26.470  1.00  0.00     0.338 C 
ATOM     35  O   UNL A   1      42.440  25.865  25.510  1.00  0.00    -0.246 OA
BRANCH  34  36
ATOM     36  C   UNL A   1      40.664  26.920  26.762  1.00  0.00     0.060 A 
ATOM     37  C   UNL A   1      40.785  28.307  26.569  1.00  0.00     0.016 A 
ATOM     38  C   UNL A   1      39.678  26.554  27.609  1.00  0.00     0.016 A 
ATOM     39  C   UNL A   1      39.985  29.277  27.334  1.00  0.00     0.010 A 
ATOM     40  C   UNL A   1      39.195  27.539  28.466  1.00  0.00     0.010 A 
ATOM     41  C   UNL A   1      39.142  28.914  28.387  1.00  0.00    -0.014 A 
BRANCH  41  42
ATOM     42  C   UNL A   1      38.480  29.760  29.555  1.00  0.00     0.031 A 
ATOM     43  C   UNL A   1      37.709  31.214  29.656  1.00  0.00     0.074 A 
ATOM     44  C   UNL A   1      38.577  29.135  30.750  1.00  0.00     0.049 A 
ATOM     45  N   UNL A   1      37.866  32.056  30.667  1.00  0.00    -0.248 NA
ATOM     46  C   UNL A   1      36.766  31.906  28.701  1.00  0.00     0.031 C 
ATOM     47  C   UNL A   1      37.990  29.504  32.029  1.00  0.00     0.029 A 
ATOM     48  N   UNL A   1      39.456  28.091  31.067  1.00  0.00    -0.354 N 
ATOM     49  C   UNL A   1      36.987  33.133  30.466  1.00  0.00     0.074 A 
ATOM     50  C   UNL A   1      36.711  33.164  29.095  1.00  0.00     0.031 C 
ATOM     51  C   UNL A   1      38.744  28.965  33.003  1.00  0.00     0.029 A 
ATOM     52  C   UNL A   1      39.894  28.337  32.371  1.00  0.00     0.049 A 
ATOM     53  H   UNL A   1      39.713  27.338  30.488  1.00  0.00     0.167 HD
ATOM     54  C   UNL A   1      36.301  33.797  31.437  1.00  0.00     0.031 A 
ATOM     55  C   UNL A   1      41.209  28.608  32.602  1.00  0.00     0.031 A 
ATOM     56  C   UNL A   1      36.903  33.523  32.711  1.00  0.00     0.049 A 
ATOM     57  C   UNL A   1      41.415  29.971  33.227  1.00  0.00     0.074 A 
ATOM     58  C   UNL A   1      36.582  32.698  33.769  1.00  0.00     0.029 A 
ATOM     59  N   UNL A   1      38.240  33.853  32.842  1.00  0.00    -0.354 N 
ATOM     60  N   UNL A   1      40.477  30.872  33.352  1.00  0.00    -0.248 NA
ATOM     61  C   UNL A   1      42.697  30.440  33.745  1.00  0.00     0.031 C 
ATOM     62  C   UNL A   1      37.810  32.380  34.427  1.00  0.00     0.029 A 
ATOM     63  C   UNL A   1      38.838  33.079  33.812  1.00  0.00     0.049 A 
ATOM     64  H   UNL A   1      38.701  34.546  32.315  1.00  0.00     0.167 HD
ATOM     65  C   UNL A   1      41.004  32.024  33.862  1.00  0.00     0.074 A 
ATOM     66  C   UNL A   1      42.389  31.690  34.134  1.00  0.00     0.031 C 
ATOM     67  C   UNL A   1      40.282  33.177  33.975  1.00  0.00     0.031 A 
BRANCH  54  68
ATOM     68  C   UNL A   1      34.996  34.583  31.203  1.00  0.00    -0.014 A 
ATOM     69  C   UNL A   1      34.481  35.412  32.213  1.00  0.00     0.009 A 
ATOM     70  C   UNL A   1      34.168  34.490  30.053  1.00  0.00     0.009 A 
ATOM     71  C   UNL A   1      33.262  36.113  32.066  1.00  0.00     0.001 A 
ATOM     72  C   UNL A   1      32.982  35.223  29.874  1.00  0.00     0.001 A 
ATOM     73  C   UNL A   1      32.523  36.035  30.890  1.00  0.00     0.000 A 
ENDBRANCH  54  68
BRANCH  55  74
ATOM     74  C   UNL A   1      42.160  27.859  31.710  1.00  0.00    -0.014 A 
ATOM     75  C   UNL A   1      42.154  28.186  30.331  1.00  0.00     0.009 A 
ATOM     76  C   UNL A   1      43.230  27.088  32.183  1.00  0.00     0.009 A 
ATOM     77  C   UNL A   1      43.227  27.868  29.490  1.00  0.00     0.001 A 
ATOM     78  C   UNL A   1      44.297  26.743  31.326  1.00  0.00     0.001 A 
ATOM     79  C   UNL A   1      44.309  27.161  29.993  1.00  0.00     0.000 A 
ENDBRANCH  55  74
BRANCH  67  80
ATOM     80  C   UNL A   1      40.890  34.545  34.183  1.00  0.00    -0.014 A 
ATOM     81  C   UNL A   1      40.643  35.337  35.313  1.00  0.00     0.009 A 
ATOM     82  C   UNL A   1      41.905  34.987  33.306  1.00  0.00     0.009 A 
ATOM     83  C   UNL A   1      41.339  36.532  35.531  1.00  0.00     0.001 A 
ATOM     84  C   UNL A   1      42.645  36.145  33.554  1.00  0.00     0.001 A 
ATOM     85  C   UNL A   1      42.349  36.928  34.661  1.00  0.00     0.000 A 
ENDBRANCH  67  80
ENDBRANCH  41  42
ENDBRANCH  34  36
ENDBRANCH  33  34
ENDBRANCH  32  33
ENDBRANCH  31  32
ENDBRANCH  30  31
ENDBRANCH  29  30
ENDBRANCH   1  29
TORSDOF 20
ENDMDL
MODEL 2
REMARK VINA RESULT:     -11.0      2.686      3.599
REMARK SMILES Cc1cc(NC(=O)c2ccc(Br)cc2N)ccc1C(=O)OCCOCCOCCOC(=O)c1ccc(-c2c3nc(c(-c4ccccc4)c4ccc([nH]4)c(-c4ccccc4)c4nc(c(-c5ccccc5)c5ccc2[nH]5)C=C4)C=C3)cc1
REMARK SMILES IDX 25 1 24 2 23 3 22 4 21 5 19 6 20 7 18 8 1 9 2 10 3 11 4 12
REMARK SMILES IDX 17 13 16 14 5 15 6 16 7 18 8 19 9 20 14 21 10 22 13 23 11 24
REMARK SMILES IDX 12 25 15 26 26 29 27 30 28 31 29 32 30 33 31 34 32 35 33 36
REMARK SMILES IDX 34 37 80 38 35 39 79 40 36 41 37 42 38 43 73 44 39 45 78 46
REMARK SMILES IDX 72 47 74 48 40 49 77 50 71 51 70 52 41 54 63 55 48 56 62 57
REMARK SMILES IDX 49 58 52 59 61 60 75 61 50 62 51 63 60 65 76 66 53 67 42 68
REMARK SMILES IDX 43 69 47 70 44 71 46 72 45 73 64 74 65 75 69 76 66 77 68 78
REMARK SMILES IDX 67 79 54 80 55 81 59 82 56 83 58 84 57 85
REMARK H PARENT 5 17 15 27 15 28 74 53 52 64
REMARK Flexibility Score: inf
ROOT
ATOM      1  C   UNL A   1      36.062  19.397  24.980  1.00  0.00     0.188 C 
ENDROOT
BRANCH   1   2
ATOM      2  O   UNL A   1      35.444  18.286  24.288  1.00  0.00    -0.376 OA
BRANCH   2   3
ATOM      3  C   UNL A   1      34.130  17.743  24.583  1.00  0.00     0.202 C 
BRANCH   3   4
ATOM      4  C   UNL A   1      32.946  18.694  25.271  1.00  0.00     0.261 C 
BRANCH   4   5
ATOM      5  O   UNL A   1      32.849  20.346  25.235  1.00  0.00    -0.460 OA
BRANCH   5   6
ATOM      6  C   UNL A   1      32.463  21.279  24.238  1.00  0.00     0.338 C 
ATOM      7  O   UNL A   1      32.084  21.056  23.089  1.00  0.00    -0.246 OA
BRANCH   6   8
ATOM      8  C   UNL A   1      32.355  22.757  24.334  1.00  0.00     0.063 A 
ATOM      9  C   UNL A   1      34.628  22.934  23.319  1.00  0.00     0.045 C 
ATOM     10  C   UNL A   1      33.282  23.504  23.625  1.00  0.00    -0.035 A 
ATOM     11  C   UNL A   1      32.843  24.681  22.979  1.00  0.00     0.030 A 
ATOM     12  C   UNL A   1      31.505  25.115  23.031  1.00  0.00     0.041 A 
ATOM     13  C   UNL A   1      31.022  23.283  24.458  1.00  0.00     0.018 A 
ATOM     14  C   UNL A   1      30.606  24.471  23.856  1.00  0.00     0.027 A 
BRANCH  12  15
ATOM     15  N   UNL A   1      31.004  26.108  22.172  1.00  0.00    -0.322 N 
ATOM     16  C   UNL A   1      30.874  27.455  22.451  1.00  0.00     0.257 C 
ATOM     17  H   UNL A   1      30.715  25.812  21.278  1.00  0.00     0.170 HD
ATOM     18  O   UNL A   1      30.192  28.187  21.737  1.00  0.00    -0.269 OA
BRANCH  16  19
ATOM     19  C   UNL A   1      31.646  28.045  23.576  1.00  0.00     0.063 A 
ATOM     20  C   UNL A   1      31.006  28.091  24.823  1.00  0.00     0.017 A 
ATOM     21  C   UNL A   1      32.965  28.529  23.421  1.00  0.00     0.045 A 
ATOM     22  C   UNL A   1      31.679  28.595  25.935  1.00  0.00     0.016 A 
ATOM     23  C   UNL A   1      33.607  29.066  24.546  1.00  0.00     0.042 A 
ATOM     24  C   UNL A   1      32.977  29.077  25.792  1.00  0.00     0.020 A 
ATOM     25  Br  UNL A   1      33.893  29.771  27.293  1.00  0.00    -0.051 Br
BRANCH  21  26
ATOM     26  N   UNL A   1      33.604  28.651  22.187  1.00  0.00    -0.398 N 
ATOM     27  H   UNL A   1      33.672  29.532  21.753  1.00  0.00     0.156 HD
ATOM     28  H   UNL A   1      33.987  27.855  21.751  1.00  0.00     0.156 HD
ENDBRANCH  21  26
ENDBRANCH  16  19
ENDBRANCH  12  15
ENDBRANCH   6   8
ENDBRANCH   5   6
ENDBRANCH   4   5
ENDBRANCH   3   4
ENDBRANCH   2   3
ENDBRANCH   1   2
BRANCH   1  29
ATOM     29  C   UNL A   1      37.505  19.854  24.738  1.00  0.00     0.188 C 
BRANCH  29  30
ATOM     30  O   UNL A   1      37.690  21.169  25.228  1.00  0.00    -0.376 OA
BRANCH  30  31
ATOM     31  C   UNL A   1      38.890  21.404  25.948  1.00  0.00     0.202 C 
BRANCH  31  32
ATOM     32  C   UNL A   1      39.134  22.899  26.252  1.00  0.00     0.261 C 
BRANCH  32  33
ATOM     33  O   UNL A   1      40.489  23.121  26.721  1.00  0.00    -0.460 OA
BRANCH  33  34
ATOM     34  C   UNL A   1      41.019  24.380  26.577  1.00  0.00     0.338 C 
ATOM     35  O   UNL A   1      41.749  24.725  25.659  1.00  0.00    -0.246 OA
BRANCH  34  36
ATOM     36  C   UNL A   1      40.775  25.194  27.819  1.00  0.00     0.060 A 
ATOM     37  C   UNL A   1      39.612  25.245  28.606  1.00  0.00     0.016 A 
ATOM     38  C   UNL A   1      41.621  26.232  27.996  1.00  0.00     0.016 A 
ATOM     39  C   UNL A   1      39.290  26.405  29.452  1.00  0.00     0.010 A 
ATOM     40  C   UNL A   1      41.089  27.375  28.587  1.00  0.00     0.010 A 
ATOM     41  C   UNL A   1      40.035  27.586  29.451  1.00  0.00    -0.014 A 
BRANCH  41  42
ATOM     42  C   UNL A   1      39.707  29.049  29.973  1.00  0.00     0.031 A 
ATOM     43  C   UNL A   1      38.696  30.262  29.498  1.00  0.00     0.074 A 
ATOM     44  C   UNL A   1      40.435  29.371  31.065  1.00  0.00     0.049 A 
ATOM     45  N   UNL A   1      39.025  31.545  29.538  1.00  0.00    -0.248 NA
ATOM     46  C   UNL A   1      37.305  30.223  28.913  1.00  0.00     0.031 C 
ATOM     47  C   UNL A   1      40.341  30.547  31.916  1.00  0.00     0.029 A 
ATOM     48  N   UNL A   1      41.604  28.731  31.497  1.00  0.00    -0.354 N 
ATOM     49  C   UNL A   1      37.896  32.287  29.158  1.00  0.00     0.074 A 
ATOM     50  C   UNL A   1      37.092  31.423  28.407  1.00  0.00     0.031 C 
ATOM     51  C   UNL A   1      41.535  30.728  32.507  1.00  0.00     0.029 A 
ATOM     52  C   UNL A   1      42.451  29.741  31.958  1.00  0.00     0.049 A 
ATOM     53  H   UNL A   1      41.790  27.764  31.479  1.00  0.00     0.167 HD
ATOM     54  C   UNL A   1      37.513  33.486  29.680  1.00  0.00     0.031 A 
ATOM     55  C   UNL A   1      43.629  29.980  31.316  1.00  0.00     0.031 A 
ATOM     56  C   UNL A   1      38.627  34.077  30.367  1.00  0.00     0.049 A 
ATOM     57  C   UNL A   1      43.711  31.388  30.768  1.00  0.00     0.074 A 
ATOM     58  C   UNL A   1      38.984  34.196  31.694  1.00  0.00     0.029 A 
ATOM     59  N   UNL A   1      39.769  34.291  29.616  1.00  0.00    -0.354 N 
ATOM     60  N   UNL A   1      42.706  32.222  30.730  1.00  0.00    -0.248 NA
ATOM     61  C   UNL A   1      44.925  31.968  30.200  1.00  0.00     0.031 C 
ATOM     62  C   UNL A   1      40.410  34.290  31.727  1.00  0.00     0.029 A 
ATOM     63  C   UNL A   1      40.884  34.309  30.424  1.00  0.00     0.049 A 
ATOM     64  H   UNL A   1      39.782  34.414  28.639  1.00  0.00     0.167 HD
ATOM     65  C   UNL A   1      43.078  33.369  30.089  1.00  0.00     0.074 A 
ATOM     66  C   UNL A   1      44.489  33.180  29.815  1.00  0.00     0.031 C 
ATOM     67  C   UNL A   1      42.192  34.363  29.786  1.00  0.00     0.031 A 
BRANCH  54  68
ATOM     68  C   UNL A   1      36.071  34.029  29.661  1.00  0.00    -0.014 A 
ATOM     69  C   UNL A   1      35.521  34.530  28.470  1.00  0.00     0.009 A 
ATOM     70  C   UNL A   1      35.222  34.163  30.791  1.00  0.00     0.009 A 
ATOM     71  C   UNL A   1      34.222  35.084  28.413  1.00  0.00     0.001 A 
ATOM     72  C   UNL A   1      33.910  34.663  30.737  1.00  0.00     0.001 A 
ATOM     73  C   UNL A   1      33.408  35.133  29.540  1.00  0.00     0.000 A 
ENDBRANCH  54  68
BRANCH  55  74
ATOM     74  C   UNL A   1      44.297  28.748  30.772  1.00  0.00    -0.014 A 
ATOM     75  C   UNL A   1      44.237  28.538  29.373  1.00  0.00     0.009 A 
ATOM     76  C   UNL A   1      45.203  27.965  31.501  1.00  0.00     0.009 A 
ATOM     77  C   UNL A   1      45.126  27.681  28.712  1.00  0.00     0.001 A 
ATOM     78  C   UNL A   1      46.079  27.079  30.836  1.00  0.00     0.001 A 
ATOM     79  C   UNL A   1      46.061  26.964  29.445  1.00  0.00     0.000 A 
ENDBRANCH  55  74
BRANCH  67  80
ATOM     80  C   UNL A   1      42.458  35.463  28.784  1.00  0.00    -0.014 A 
ATOM     81  C   UNL A   1      42.384  35.280  27.397  1.00  0.00     0.009 A 
ATOM     82  C   UNL A   1      42.602  36.791  29.243  1.00  0.00     0.009 A 
ATOM     83  C   UNL A   1      42.496  36.359  26.511  1.00  0.00     0.001 A 
ATOM     84  C   UNL A   1      42.650  37.877  28.366  1.00  0.00     0.001 A 
ATOM     85  C   UNL A   1      42.614  37.658  26.996  1.00  0.00     0.000 A 
ENDBRANCH  67  80
ENDBRANCH  41  42
ENDBRANCH  34  36
ENDBRANCH  33  34
ENDBRANCH  32  33
ENDBRANCH  31  32
ENDBRANCH  30  31
ENDBRANCH  29  30
ENDBRANCH   1  29
TORSDOF 20
ENDMDL
MODEL 3
REMARK VINA RESULT:     -10.7      2.854      4.273
REMARK SMILES Cc1cc(NC(=O)c2ccc(Br)cc2N)ccc1C(=O)OCCOCCOCCOC(=O)c1ccc(-c2c3nc(c(-c4ccccc4)c4ccc([nH]4)c(-c4ccccc4)c4nc(c(-c5ccccc5)c5ccc2[nH]5)C=C4)C=C3)cc1
REMARK SMILES IDX 25 1 24 2 23 3 22 4 21 5 19 6 20 7 18 8 1 9 2 10 3 11 4 12
REMARK SMILES IDX 17 13 16 14 5 15 6 16 7 18 8 19 9 20 14 21 10 22 13 23 11 24
REMARK SMILES IDX 12 25 15 26 26 29 27 30 28 31 29 32 30 33 31 34 32 35 33 36
REMARK SMILES IDX 34 37 80 38 35 39 79 40 36 41 37 42 38 43 73 44 39 45 78 46
REMARK SMILES IDX 72 47 74 48 40 49 77 50 71 51 70 52 41 54 63 55 48 56 62 57
REMARK SMILES IDX 49 58 52 59 61 60 75 61 50 62 51 63 60 65 76 66 53 67 42 68
REMARK SMILES IDX 43 69 47 70 44 71 46 72 45 73 64 74 65 75 69 76 66 77 68 78
REMARK SMILES IDX 67 79 54 80 55 81 59 82 56 83 58 84 57 85
REMARK H PARENT 5 17 15 27 15 28 74 53 52 64
REMARK Flexibility Score: inf
ROOT
ATOM      1  C   UNL A   1      35.176  22.450  25.334  1.00  0.00     0.188 C 
ENDROOT
BRANCH   1   2
ATOM      2  O   UNL A   1      34.001  22.726  24.534  1.00  0.00    -0.376 OA
BRANCH   2   3
ATOM      3  C   UNL A   1      33.747  22.187  23.209  1.00  0.00     0.202 C 
BRANCH   3   4
ATOM      4  C   UNL A   1      33.379  23.193  21.932  1.00  0.00     0.261 C 
BRANCH   4   5
ATOM      5  O   UNL A   1      32.627  24.666  22.009  1.00  0.00    -0.460 OA
BRANCH   5   6
ATOM      6  C   UNL A   1      32.705  25.843  21.219  1.00  0.00     0.338 C 
ATOM      7  O   UNL A   1      32.649  25.946  19.995  1.00  0.00    -0.246 OA
BRANCH   6   8
ATOM      8  C   UNL A   1      32.809  27.257  21.660  1.00  0.00     0.063 A 
ATOM      9  C   UNL A   1      30.396  27.177  22.297  1.00  0.00     0.045 C 
ATOM     10  C   UNL A   1      31.767  27.756  22.427  1.00  0.00    -0.035 A 
ATOM     11  C   UNL A   1      32.078  28.616  23.503  1.00  0.00     0.030 A 
ATOM     12  C   UNL A   1      33.400  28.980  23.820  1.00  0.00     0.041 A 
ATOM     13  C   UNL A   1      34.136  27.732  21.942  1.00  0.00     0.018 A 
ATOM     14  C   UNL A   1      34.432  28.620  22.977  1.00  0.00     0.027 A 
BRANCH  12  15
ATOM     15  N   UNL A   1      33.740  29.591  25.038  1.00  0.00    -0.322 N 
ATOM     16  C   UNL A   1      33.400  29.157  26.306  1.00  0.00     0.257 C 
ATOM     17  H   UNL A   1      34.277  30.415  24.983  1.00  0.00     0.170 HD
ATOM     18  O   UNL A   1      33.522  29.893  27.282  1.00  0.00    -0.269 OA
BRANCH  16  19
ATOM     19  C   UNL A   1      32.968  27.748  26.503  1.00  0.00     0.063 A 
ATOM     20  C   UNL A   1      33.740  26.760  25.873  1.00  0.00     0.017 A 
ATOM     21  C   UNL A   1      31.848  27.399  27.291  1.00  0.00     0.045 A 
ATOM     22  C   UNL A   1      33.421  25.414  26.042  1.00  0.00     0.016 A 
ATOM     23  C   UNL A   1      31.525  26.040  27.415  1.00  0.00     0.042 A 
ATOM     24  C   UNL A   1      32.318  25.060  26.814  1.00  0.00     0.020 A 
ATOM     25  Br  UNL A   1      31.873  23.236  27.040  1.00  0.00    -0.051 Br
BRANCH  21  26
ATOM     26  N   UNL A   1      30.955  28.332  27.820  1.00  0.00    -0.398 N 
ATOM     27  H   UNL A   1      29.996  28.116  27.878  1.00  0.00     0.156 HD
ATOM     28  H   UNL A   1      31.285  29.204  28.136  1.00  0.00     0.156 HD
ENDBRANCH  21  26
ENDBRANCH  16  19
ENDBRANCH  12  15
ENDBRANCH   6   8
ENDBRANCH   5   6
ENDBRANCH   4   5
ENDBRANCH   3   4
ENDBRANCH   2   3
ENDBRANCH   1   2
BRANCH   1  29
ATOM     29  C   UNL A   1      35.809  21.060  25.464  1.00  0.00     0.188 C 
BRANCH  29  30
ATOM     30  O   UNL A   1      37.155  21.094  25.028  1.00  0.00    -0.376 OA
BRANCH  30  31
ATOM     31  C   UNL A   1      37.928  22.199  25.472  1.00  0.00     0.202 C 
BRANCH  31  32
ATOM     32  C   UNL A   1      39.322  21.792  25.999  1.00  0.00     0.261 C 
BRANCH  32  33
ATOM     33  O   UNL A   1      39.722  22.632  27.113  1.00  0.00    -0.460 OA
BRANCH  33  34
ATOM     34  C   UNL A   1      40.730  23.541  26.901  1.00  0.00     0.338 C 
ATOM     35  O   UNL A   1      41.922  23.266  26.887  1.00  0.00    -0.246 OA
BRANCH  34  36
ATOM     36  C   UNL A   1      40.183  24.943  26.926  1.00  0.00     0.060 A 
ATOM     37  C   UNL A   1      40.730  26.096  26.338  1.00  0.00     0.016 A 
ATOM     38  C   UNL A   1      39.272  25.182  27.893  1.00  0.00     0.016 A 
ATOM     39  C   UNL A   1      40.426  27.447  26.835  1.00  0.00     0.010 A 
ATOM     40  C   UNL A   1      39.281  26.455  28.457  1.00  0.00     0.010 A 
ATOM     41  C   UNL A   1      39.679  27.690  27.990  1.00  0.00    -0.014 A 
BRANCH  41  42
ATOM     42  C   UNL A   1      39.521  28.980  28.900  1.00  0.00     0.031 A 
ATOM     43  C   UNL A   1      38.517  30.287  28.913  1.00  0.00     0.074 A 
ATOM     44  C   UNL A   1      40.433  29.010  29.898  1.00  0.00     0.049 A 
ATOM     45  N   UNL A   1      38.918  31.515  29.208  1.00  0.00    -0.248 NA
ATOM     46  C   UNL A   1      37.049  30.415  28.582  1.00  0.00     0.031 C 
ATOM     47  C   UNL A   1      40.543  29.939  31.012  1.00  0.00     0.029 A 
ATOM     48  N   UNL A   1      41.619  28.266  29.955  1.00  0.00    -0.354 N 
ATOM     49  C   UNL A   1      37.785  32.345  29.218  1.00  0.00     0.074 A 
ATOM     50  C   UNL A   1      36.824  31.706  28.427  1.00  0.00     0.031 C 
ATOM     51  C   UNL A   1      41.825  29.951  31.418  1.00  0.00     0.029 A 
ATOM     52  C   UNL A   1      42.584  29.118  30.497  1.00  0.00     0.049 A 
ATOM     53  H   UNL A   1      41.746  27.333  29.671  1.00  0.00     0.167 HD
ATOM     54  C   UNL A   1      37.559  33.381  30.072  1.00  0.00     0.031 A 
ATOM     55  C   UNL A   1      43.655  29.494  29.742  1.00  0.00     0.031 A 
ATOM     56  C   UNL A   1      38.801  33.767  30.683  1.00  0.00     0.049 A 
ATOM     57  C   UNL A   1      43.725  30.993  29.547  1.00  0.00     0.074 A 
ATOM     58  C   UNL A   1      39.373  33.547  31.918  1.00  0.00     0.029 A 
ATOM     59  N   UNL A   1      39.816  34.145  29.823  1.00  0.00    -0.354 N 
ATOM     60  N   UNL A   1      42.775  31.823  29.885  1.00  0.00    -0.248 NA
ATOM     61  C   UNL A   1      44.862  31.678  28.939  1.00  0.00     0.031 C 
ATOM     62  C   UNL A   1      40.788  33.610  31.730  1.00  0.00     0.029 A 
ATOM     63  C   UNL A   1      41.046  33.946  30.410  1.00  0.00     0.049 A 
ATOM     64  H   UNL A   1      39.679  34.507  28.918  1.00  0.00     0.167 HD
ATOM     65  C   UNL A   1      43.102  33.089  29.488  1.00  0.00     0.074 A 
ATOM     66  C   UNL A   1      44.438  32.954  28.940  1.00  0.00     0.031 C 
ATOM     67  C   UNL A   1      42.236  34.139  29.591  1.00  0.00     0.031 A 
BRANCH  54  68
ATOM     68  C   UNL A   1      36.165  33.931  30.431  1.00  0.00    -0.014 A 
ATOM     69  C   UNL A   1      35.780  34.055  31.776  1.00  0.00     0.009 A 
ATOM     70  C   UNL A   1      35.142  34.263  29.504  1.00  0.00     0.009 A 
ATOM     71  C   UNL A   1      34.496  34.506  32.155  1.00  0.00     0.001 A 
ATOM     72  C   UNL A   1      33.880  34.763  29.868  1.00  0.00     0.001 A 
ATOM     73  C   UNL A   1      33.552  34.880  31.203  1.00  0.00     0.000 A 
ENDBRANCH  54  68
BRANCH  55  74
ATOM     74  C   UNL A   1      44.156  28.426  28.810  1.00  0.00    -0.014 A 
ATOM     75  C   UNL A   1      44.483  27.169  29.374  1.00  0.00     0.009 A 
ATOM     76  C   UNL A   1      44.047  28.495  27.414  1.00  0.00     0.009 A 
ATOM     77  C   UNL A   1      44.571  26.007  28.597  1.00  0.00     0.001 A 
ATOM     78  C   UNL A   1      44.166  27.328  26.629  1.00  0.00     0.001 A 
ATOM     79  C   UNL A   1      44.394  26.085  27.223  1.00  0.00     0.000 A 
ENDBRANCH  55  74
BRANCH  67  80
ATOM     80  C   UNL A   1      42.397  35.450  28.856  1.00  0.00    -0.014 A 
ATOM     81  C   UNL A   1      43.052  36.564  29.397  1.00  0.00     0.009 A 
ATOM     82  C   UNL A   1      42.048  35.519  27.489  1.00  0.00     0.009 A 
ATOM     83  C   UNL A   1      43.303  37.707  28.628  1.00  0.00     0.001 A 
ATOM     84  C   UNL A   1      42.354  36.631  26.702  1.00  0.00     0.001 A 
ATOM     85  C   UNL A   1      42.968  37.734  27.277  1.00  0.00     0.000 A 
ENDBRANCH  67  80
ENDBRANCH  41  42
ENDBRANCH  34  36
ENDBRANCH  33  34
ENDBRANCH  32  33
ENDBRANCH  31  32
ENDBRANCH  30  31
ENDBRANCH  29  30
ENDBRANCH   1  29
TORSDOF 20
ENDMDL
