MODEL 1
REMARK VINA RESULT:      -9.7      0.000      0.000
REMARK SMILES CC(=O)c1cc2c(cc1NC(=O)/C=C/C(=O)OCCOCCOCCOC(=O)c1ccc(-c3c4nc(c(-c5ccccc5)c5ccc([nH]5)c(-c5ccccc5)c5nc(c(-c6ccccc6)c6ccc3[nH]6)C=C5)C=C4)cc1)OCO2
REMARK SMILES IDX 21 1 20 2 19 3 18 4 17 5 15 6 16 7 14 8 13 9 11 10 10 11
REMARK SMILES IDX 12 13 9 14 4 15 5 16 6 17 8 18 7 19 79 20 77 21 78 22 2 23
REMARK SMILES IDX 1 24 3 25 22 26 23 27 24 28 25 29 26 30 27 31 28 32 29 33
REMARK SMILES IDX 30 34 76 35 31 36 75 37 32 38 33 39 34 40 69 41 35 42 74 43
REMARK SMILES IDX 68 44 70 45 36 46 73 47 67 48 66 49 37 51 59 52 44 53 58 54
REMARK SMILES IDX 45 55 48 56 57 57 71 58 46 59 47 60 56 62 72 63 49 64 38 65
REMARK SMILES IDX 39 66 43 67 40 68 42 69 41 70 60 71 61 72 65 73 62 74 64 75
REMARK SMILES IDX 63 76 50 77 51 78 55 79 52 80 54 81 53 82
REMARK H PARENT 10 12 70 50 48 61
REMARK Flexibility Score: inf
ROOT
ATOM      1  C   UNL A   1      31.616  27.939  26.052  1.00  0.00     0.188 C 
ENDROOT
BRANCH   1   2
ATOM      2  O   UNL A   1      32.824  27.202  26.074  1.00  0.00    -0.376 OA
BRANCH   2   3
ATOM      3  C   UNL A   1      32.704  25.786  26.068  1.00  0.00     0.202 C 
BRANCH   3   4
ATOM      4  C   UNL A   1      31.291  25.211  26.242  1.00  0.00     0.261 C 
BRANCH   4   5
ATOM      5  O   UNL A   1      31.152  24.256  27.312  1.00  0.00    -0.460 OA
BRANCH   5   6
ATOM      6  C   UNL A   1      30.346  23.190  27.111  1.00  0.00     0.331 C 
ATOM      7  O   UNL A   1      29.330  22.931  27.733  1.00  0.00    -0.247 OA
BRANCH   6   8
ATOM      8  C   UNL A   1      30.791  22.390  25.942  1.00  0.00     0.099 C 
ATOM      9  C   UNL A   1      31.710  21.414  26.009  1.00  0.00     0.079 C 
BRANCH   9  10
ATOM     10  C   UNL A   1      32.245  20.719  24.815  1.00  0.00     0.248 C 
ATOM     11  N   UNL A   1      32.767  21.401  23.748  1.00  0.00    -0.322 N 
ATOM     12  H   UNL A   1      33.022  20.813  23.000  1.00  0.00     0.170 HD
ATOM     13  O   UNL A   1      32.224  19.489  24.812  1.00  0.00    -0.270 OA
BRANCH  11  14
ATOM     14  C   UNL A   1      33.018  22.771  23.493  1.00  0.00     0.056 A 
ATOM     15  C   UNL A   1      34.314  23.318  23.727  1.00  0.00     0.045 A 
ATOM     16  C   UNL A   1      34.666  24.576  23.200  1.00  0.00     0.064 A 
ATOM     17  C   UNL A   1      33.710  25.251  22.475  1.00  0.00     0.166 A 
ATOM     18  C   UNL A   1      32.038  23.604  22.958  1.00  0.00     0.077 A 
ATOM     19  C   UNL A   1      32.422  24.796  22.396  1.00  0.00     0.167 A 
ATOM     20  O   UNL A   1      33.890  26.381  21.740  1.00  0.00    -0.454 OA
ATOM     21  O   UNL A   1      31.627  25.597  21.639  1.00  0.00    -0.454 OA
ATOM     22  C   UNL A   1      32.635  26.422  21.023  1.00  0.00     0.468 C 
BRANCH  15  23
ATOM     23  C   UNL A   1      35.329  22.552  24.506  1.00  0.00     0.162 C 
ATOM     24  C   UNL A   1      36.661  22.264  23.859  1.00  0.00     0.093 C 
ATOM     25  O   UNL A   1      35.098  22.251  25.675  1.00  0.00    -0.294 OA
ENDBRANCH  15  23
ENDBRANCH  11  14
ENDBRANCH   9  10
ENDBRANCH   6   8
ENDBRANCH   5   6
ENDBRANCH   4   5
ENDBRANCH   3   4
ENDBRANCH   2   3
ENDBRANCH   1   2
BRANCH   1  26
ATOM     26  C   UNL A   1      31.828  29.467  26.043  1.00  0.00     0.188 C 
BRANCH  26  27
ATOM     27  O   UNL A   1      33.146  29.993  26.093  1.00  0.00    -0.376 OA
BRANCH  27  28
ATOM     28  C   UNL A   1      33.521  30.805  27.200  1.00  0.00     0.202 C 
BRANCH  28  29
ATOM     29  C   UNL A   1      32.557  31.912  27.639  1.00  0.00     0.261 C 
BRANCH  29  30
ATOM     30  O   UNL A   1      33.003  33.245  27.325  1.00  0.00    -0.460 OA
BRANCH  30  31
ATOM     31  C   UNL A   1      33.232  34.038  28.400  1.00  0.00     0.338 C 
ATOM     32  O   UNL A   1      32.466  34.838  28.909  1.00  0.00    -0.246 OA
BRANCH  31  33
ATOM     33  C   UNL A   1      34.543  33.733  29.002  1.00  0.00     0.060 A 
ATOM     34  C   UNL A   1      35.693  34.042  28.266  1.00  0.00     0.016 A 
ATOM     35  C   UNL A   1      34.635  33.022  30.199  1.00  0.00     0.016 A 
ATOM     36  C   UNL A   1      36.941  33.600  28.707  1.00  0.00     0.010 A 
ATOM     37  C   UNL A   1      35.886  32.566  30.631  1.00  0.00     0.010 A 
ATOM     38  C   UNL A   1      37.039  32.822  29.869  1.00  0.00    -0.014 A 
BRANCH  38  39
ATOM     39  C   UNL A   1      38.330  32.179  30.213  1.00  0.00     0.031 A 
ATOM     40  C   UNL A   1      39.227  32.814  31.232  1.00  0.00     0.074 A 
ATOM     41  C   UNL A   1      38.691  31.016  29.646  1.00  0.00     0.049 A 
ATOM     42  N   UNL A   1      40.380  32.399  31.688  1.00  0.00    -0.248 NA
ATOM     43  C   UNL A   1      38.769  34.090  31.800  1.00  0.00     0.031 C 
ATOM     44  C   UNL A   1      37.898  30.302  28.657  1.00  0.00     0.029 A 
ATOM     45  N   UNL A   1      39.795  30.223  29.830  1.00  0.00    -0.354 N 
ATOM     46  C   UNL A   1      40.800  33.372  32.583  1.00  0.00     0.074 A 
ATOM     47  C   UNL A   1      39.781  34.401  32.597  1.00  0.00     0.031 C 
ATOM     48  C   UNL A   1      38.510  29.144  28.358  1.00  0.00     0.029 A 
ATOM     49  C   UNL A   1      39.763  29.061  29.100  1.00  0.00     0.049 A 
ATOM     50  H   UNL A   1      40.539  30.464  30.429  1.00  0.00     0.167 HD
ATOM     51  C   UNL A   1      41.938  33.413  33.315  1.00  0.00     0.031 A 
ATOM     52  C   UNL A   1      40.644  28.045  29.033  1.00  0.00     0.031 A 
ATOM     53  C   UNL A   1      42.968  32.408  33.276  1.00  0.00     0.049 A 
ATOM     54  C   UNL A   1      41.917  28.131  29.825  1.00  0.00     0.074 A 
ATOM     55  C   UNL A   1      44.161  32.366  33.977  1.00  0.00     0.029 A 
ATOM     56  N   UNL A   1      42.930  31.271  32.482  1.00  0.00    -0.354 N 
ATOM     57  N   UNL A   1      42.299  29.053  30.674  1.00  0.00    -0.248 NA
ATOM     58  C   UNL A   1      42.890  27.045  29.635  1.00  0.00     0.031 C 
ATOM     59  C   UNL A   1      44.867  31.228  33.568  1.00  0.00     0.029 A 
ATOM     60  C   UNL A   1      44.090  30.534  32.655  1.00  0.00     0.049 A 
ATOM     61  H   UNL A   1      42.189  31.025  31.884  1.00  0.00     0.167 HD
ATOM     62  C   UNL A   1      43.554  28.661  31.121  1.00  0.00     0.074 A 
ATOM     63  C   UNL A   1      43.856  27.401  30.471  1.00  0.00     0.031 C 
ATOM     64  C   UNL A   1      44.384  29.292  31.986  1.00  0.00     0.031 A 
BRANCH  51  65
ATOM     65  C   UNL A   1      42.144  34.631  34.169  1.00  0.00    -0.014 A 
ATOM     66  C   UNL A   1      42.599  35.840  33.621  1.00  0.00     0.009 A 
ATOM     67  C   UNL A   1      41.906  34.556  35.551  1.00  0.00     0.009 A 
ATOM     68  C   UNL A   1      42.857  36.936  34.447  1.00  0.00     0.001 A 
ATOM     69  C   UNL A   1      42.140  35.661  36.370  1.00  0.00     0.001 A 
ATOM     70  C   UNL A   1      42.627  36.846  35.820  1.00  0.00     0.000 A 
ENDBRANCH  51  65
BRANCH  52  71
ATOM     71  C   UNL A   1      40.357  26.859  28.183  1.00  0.00    -0.014 A 
ATOM     72  C   UNL A   1      39.591  25.796  28.687  1.00  0.00     0.009 A 
ATOM     73  C   UNL A   1      40.845  26.779  26.870  1.00  0.00     0.009 A 
ATOM     74  C   UNL A   1      39.329  24.674  27.898  1.00  0.00     0.001 A 
ATOM     75  C   UNL A   1      40.559  25.668  26.074  1.00  0.00     0.001 A 
ATOM     76  C   UNL A   1      39.807  24.614  26.590  1.00  0.00     0.000 A 
ENDBRANCH  52  71
BRANCH  64  77
ATOM     77  C   UNL A   1      45.696  28.622  32.284  1.00  0.00    -0.014 A 
ATOM     78  C   UNL A   1      46.845  28.912  31.533  1.00  0.00     0.009 A 
ATOM     79  C   UNL A   1      45.787  27.709  33.346  1.00  0.00     0.009 A 
ATOM     80  C   UNL A   1      48.055  28.278  31.822  1.00  0.00     0.001 A 
ATOM     81  C   UNL A   1      47.003  27.096  33.649  1.00  0.00     0.001 A 
ATOM     82  C   UNL A   1      48.134  27.373  32.881  1.00  0.00     0.000 A 
ENDBRANCH  64  77
ENDBRANCH  38  39
ENDBRANCH  31  33
ENDBRANCH  30  31
ENDBRANCH  29  30
ENDBRANCH  28  29
ENDBRANCH  27  28
ENDBRANCH  26  27
ENDBRANCH   1  26
TORSDOF 20
ENDMDL
MODEL 2
REMARK VINA RESULT:      -9.6      3.145      8.306
REMARK SMILES CC(=O)c1cc2c(cc1NC(=O)/C=C/C(=O)OCCOCCOCCOC(=O)c1ccc(-c3c4nc(c(-c5ccccc5)c5ccc([nH]5)c(-c5ccccc5)c5nc(c(-c6ccccc6)c6ccc3[nH]6)C=C5)C=C4)cc1)OCO2
REMARK SMILES IDX 21 1 20 2 19 3 18 4 17 5 15 6 16 7 14 8 13 9 11 10 10 11
REMARK SMILES IDX 12 13 9 14 4 15 5 16 6 17 8 18 7 19 79 20 77 21 78 22 2 23
REMARK SMILES IDX 1 24 3 25 22 26 23 27 24 28 25 29 26 30 27 31 28 32 29 33
REMARK SMILES IDX 30 34 76 35 31 36 75 37 32 38 33 39 34 40 69 41 35 42 74 43
REMARK SMILES IDX 68 44 70 45 36 46 73 47 67 48 66 49 37 51 59 52 44 53 58 54
REMARK SMILES IDX 45 55 48 56 57 57 71 58 46 59 47 60 56 62 72 63 49 64 38 65
REMARK SMILES IDX 39 66 43 67 40 68 42 69 41 70 60 71 61 72 65 73 62 74 64 75
REMARK SMILES IDX 63 76 50 77 51 78 55 79 52 80 54 81 53 82
REMARK H PARENT 10 12 70 50 48 61
REMARK Flexibility Score: inf
ROOT
ATOM      1  C   UNL A   1      41.596  21.252  27.078  1.00  0.00     0.188 C 
ENDROOT
BRANCH   1   2
ATOM      2  O   UNL A   1      40.688  21.902  26.208  1.00  0.00    -0.376 OA
BRANCH   2   3
ATOM      3  C   UNL A   1      39.600  22.582  26.818  1.00  0.00     0.202 C 
BRANCH   3   4
ATOM      4  C   UNL A   1      38.764  23.500  25.915  1.00  0.00     0.261 C 
BRANCH   4   5
ATOM      5  O   UNL A   1      37.342  23.269  25.964  1.00  0.00    -0.460 OA
BRANCH   5   6
ATOM      6  C   UNL A   1      36.677  23.151  24.794  1.00  0.00     0.331 C 
ATOM      7  O   UNL A   1      37.001  22.449  23.852  1.00  0.00    -0.247 OA
BRANCH   6   8
ATOM      8  C   UNL A   1      35.407  23.920  24.817  1.00  0.00     0.099 C 
ATOM      9  C   UNL A   1      34.787  24.307  25.943  1.00  0.00     0.079 C 
BRANCH   9  10
ATOM     10  C   UNL A   1      33.453  24.951  25.954  1.00  0.00     0.248 C 
ATOM     11  N   UNL A   1      32.357  24.370  25.373  1.00  0.00    -0.322 N 
ATOM     12  H   UNL A   1      31.556  24.941  25.399  1.00  0.00     0.170 HD
ATOM     13  O   UNL A   1      33.347  26.037  26.523  1.00  0.00    -0.270 OA
BRANCH  11  14
ATOM     14  C   UNL A   1      32.133  23.121  24.745  1.00  0.00     0.056 A 
ATOM     15  C   UNL A   1      32.123  23.025  23.322  1.00  0.00     0.045 A 
ATOM     16  C   UNL A   1      32.210  21.771  22.688  1.00  0.00     0.064 A 
ATOM     17  C   UNL A   1      32.286  20.656  23.491  1.00  0.00     0.166 A 
ATOM     18  C   UNL A   1      31.976  21.950  25.484  1.00  0.00     0.077 A 
ATOM     19  C   UNL A   1      32.129  20.744  24.848  1.00  0.00     0.167 A 
ATOM     20  O   UNL A   1      32.550  19.382  23.097  1.00  0.00    -0.454 OA
ATOM     21  O   UNL A   1      32.235  19.539  25.468  1.00  0.00    -0.454 OA
ATOM     22  C   UNL A   1      32.768  18.757  24.382  1.00  0.00     0.468 C 
BRANCH  15  23
ATOM     23  C   UNL A   1      32.053  24.255  22.483  1.00  0.00     0.162 C 
ATOM     24  C   UNL A   1      33.183  24.533  21.523  1.00  0.00     0.093 C 
ATOM     25  O   UNL A   1      31.049  24.963  22.524  1.00  0.00    -0.294 OA
ENDBRANCH  15  23
ENDBRANCH  11  14
ENDBRANCH   9  10
ENDBRANCH   6   8
ENDBRANCH   5   6
ENDBRANCH   4   5
ENDBRANCH   3   4
ENDBRANCH   2   3
ENDBRANCH   1   2
BRANCH   1  26
ATOM     26  C   UNL A   1      42.537  20.263  26.360  1.00  0.00     0.188 C 
BRANCH  26  27
ATOM     27  O   UNL A   1      43.048  20.588  25.075  1.00  0.00    -0.376 OA
BRANCH  27  28
ATOM     28  C   UNL A   1      44.436  20.871  24.939  1.00  0.00     0.202 C 
BRANCH  28  29
ATOM     29  C   UNL A   1      44.839  22.217  24.328  1.00  0.00     0.261 C 
BRANCH  29  30
ATOM     30  O   UNL A   1      43.938  23.299  24.634  1.00  0.00    -0.460 OA
BRANCH  30  31
ATOM     31  C   UNL A   1      44.542  24.459  24.994  1.00  0.00     0.338 C 
ATOM     32  O   UNL A   1      45.601  24.903  24.586  1.00  0.00    -0.246 OA
BRANCH  31  33
ATOM     33  C   UNL A   1      43.676  25.235  25.900  1.00  0.00     0.060 A 
ATOM     34  C   UNL A   1      43.843  26.625  25.940  1.00  0.00     0.016 A 
ATOM     35  C   UNL A   1      42.822  24.596  26.800  1.00  0.00     0.016 A 
ATOM     36  C   UNL A   1      43.185  27.377  26.914  1.00  0.00     0.010 A 
ATOM     37  C   UNL A   1      42.175  25.350  27.786  1.00  0.00     0.010 A 
ATOM     38  C   UNL A   1      42.381  26.738  27.869  1.00  0.00    -0.014 A 
BRANCH  38  39
ATOM     39  C   UNL A   1      41.862  27.511  29.023  1.00  0.00     0.031 A 
ATOM     40  C   UNL A   1      42.645  27.552  30.301  1.00  0.00     0.074 A 
ATOM     41  C   UNL A   1      40.714  28.202  28.928  1.00  0.00     0.049 A 
ATOM     42  N   UNL A   1      42.377  28.188  31.411  1.00  0.00    -0.248 NA
ATOM     43  C   UNL A   1      43.885  26.764  30.332  1.00  0.00     0.031 C 
ATOM     44  C   UNL A   1      39.877  28.246  27.738  1.00  0.00     0.029 A 
ATOM     45  N   UNL A   1      40.065  29.008  29.828  1.00  0.00    -0.354 N 
ATOM     46  C   UNL A   1      43.403  27.861  32.285  1.00  0.00     0.074 A 
ATOM     47  C   UNL A   1      44.292  26.964  31.577  1.00  0.00     0.031 C 
ATOM     48  C   UNL A   1      38.850  29.085  27.956  1.00  0.00     0.029 A 
ATOM     49  C   UNL A   1      38.933  29.597  29.319  1.00  0.00     0.049 A 
ATOM     50  H   UNL A   1      40.381  29.152  30.749  1.00  0.00     0.167 HD
ATOM     51  C   UNL A   1      43.581  28.259  33.568  1.00  0.00     0.031 A 
ATOM     52  C   UNL A   1      38.059  30.449  29.887  1.00  0.00     0.031 A 
ATOM     53  C   UNL A   1      42.680  29.122  34.284  1.00  0.00     0.049 A 
ATOM     54  C   UNL A   1      38.256  30.846  31.323  1.00  0.00     0.074 A 
ATOM     55  C   UNL A   1      42.771  29.575  35.590  1.00  0.00     0.029 A 
ATOM     56  N   UNL A   1      41.512  29.655  33.758  1.00  0.00    -0.354 N 
ATOM     57  N   UNL A   1      39.236  30.535  32.136  1.00  0.00    -0.248 NA
ATOM     58  C   UNL A   1      37.217  31.694  31.923  1.00  0.00     0.031 C 
ATOM     59  C   UNL A   1      41.632  30.341  35.867  1.00  0.00     0.029 A 
ATOM     60  C   UNL A   1      40.860  30.411  34.718  1.00  0.00     0.049 A 
ATOM     61  H   UNL A   1      41.193  29.516  32.837  1.00  0.00     0.167 HD
ATOM     62  C   UNL A   1      38.933  31.150  33.344  1.00  0.00     0.074 A 
ATOM     63  C   UNL A   1      37.694  31.876  33.147  1.00  0.00     0.031 C 
ATOM     64  C   UNL A   1      39.617  31.110  34.513  1.00  0.00     0.031 A 
BRANCH  51  65
ATOM     65  C   UNL A   1      44.773  27.696  34.286  1.00  0.00    -0.014 A 
ATOM     66  C   UNL A   1      46.021  28.337  34.246  1.00  0.00     0.009 A 
ATOM     67  C   UNL A   1      44.650  26.489  34.991  1.00  0.00     0.009 A 
ATOM     68  C   UNL A   1      47.133  27.754  34.857  1.00  0.00     0.001 A 
ATOM     69  C   UNL A   1      45.757  25.922  35.624  1.00  0.00     0.001 A 
ATOM     70  C   UNL A   1      47.000  26.548  35.545  1.00  0.00     0.000 A 
ENDBRANCH  51  65
BRANCH  52  71
ATOM     71  C   UNL A   1      36.916  30.985  29.102  1.00  0.00    -0.014 A 
ATOM     72  C   UNL A   1      35.871  30.136  28.704  1.00  0.00     0.009 A 
ATOM     73  C   UNL A   1      36.860  32.341  28.746  1.00  0.00     0.009 A 
ATOM     74  C   UNL A   1      34.801  30.632  27.955  1.00  0.00     0.001 A 
ATOM     75  C   UNL A   1      35.775  32.839  28.021  1.00  0.00     0.001 A 
ATOM     76  C   UNL A   1      34.750  31.984  27.621  1.00  0.00     0.000 A 
ENDBRANCH  52  71
BRANCH  64  77
ATOM     77  C   UNL A   1      39.041  31.882  35.667  1.00  0.00    -0.014 A 
ATOM     78  C   UNL A   1      39.316  33.247  35.835  1.00  0.00     0.009 A 
ATOM     79  C   UNL A   1      38.190  31.239  36.580  1.00  0.00     0.009 A 
ATOM     80  C   UNL A   1      38.774  33.948  36.914  1.00  0.00     0.001 A 
ATOM     81  C   UNL A   1      37.629  31.948  37.643  1.00  0.00     0.001 A 
ATOM     82  C   UNL A   1      37.929  33.299  37.814  1.00  0.00     0.000 A 
ENDBRANCH  64  77
ENDBRANCH  38  39
ENDBRANCH  31  33
ENDBRANCH  30  31
ENDBRANCH  29  30
ENDBRANCH  28  29
ENDBRANCH  27  28
ENDBRANCH  26  27
ENDBRANCH   1  26
TORSDOF 20
ENDMDL
MODEL 3
REMARK VINA RESULT:      -9.5      4.580     10.692
REMARK SMILES CC(=O)c1cc2c(cc1NC(=O)/C=C/C(=O)OCCOCCOCCOC(=O)c1ccc(-c3c4nc(c(-c5ccccc5)c5ccc([nH]5)c(-c5ccccc5)c5nc(c(-c6ccccc6)c6ccc3[nH]6)C=C5)C=C4)cc1)OCO2
REMARK SMILES IDX 21 1 20 2 19 3 18 4 17 5 15 6 16 7 14 8 13 9 11 10 10 11
REMARK SMILES IDX 12 13 9 14 4 15 5 16 6 17 8 18 7 19 79 20 77 21 78 22 2 23
REMARK SMILES IDX 1 24 3 25 22 26 23 27 24 28 25 29 26 30 27 31 28 32 29 33
REMARK SMILES IDX 30 34 76 35 31 36 75 37 32 38 33 39 34 40 69 41 35 42 74 43
REMARK SMILES IDX 68 44 70 45 36 46 73 47 67 48 66 49 37 51 59 52 44 53 58 54
REMARK SMILES IDX 45 55 48 56 57 57 71 58 46 59 47 60 56 62 72 63 49 64 38 65
REMARK SMILES IDX 39 66 43 67 40 68 42 69 41 70 60 71 61 72 65 73 62 74 64 75
REMARK SMILES IDX 63 76 50 77 51 78 55 79 52 80 54 81 53 82
REMARK H PARENT 10 12 70 50 48 61
REMARK Flexibility Score: inf
ROOT
ATOM      1  C   UNL A   1      43.946  18.968  25.080  1.00  0.00     0.188 C 
ENDROOT
BRANCH   1   2
ATOM      2  O   UNL A   1      44.060  20.253  24.498  1.00  0.00    -0.376 OA
BRANCH   2   3
ATOM      3  C   UNL A   1      45.157  21.049  24.925  1.00  0.00     0.202 C 
BRANCH   3   4
ATOM      4  C   UNL A   1      44.854  22.511  25.281  1.00  0.00     0.261 C 
BRANCH   4   5
ATOM      5  O   UNL A   1      44.451  22.732  26.647  1.00  0.00    -0.460 OA
BRANCH   5   6
ATOM      6  C   UNL A   1      43.644  23.784  26.909  1.00  0.00     0.331 C 
ATOM      7  O   UNL A   1      42.980  23.946  27.918  1.00  0.00    -0.247 OA
BRANCH   6   8
ATOM      8  C   UNL A   1      43.733  24.810  25.839  1.00  0.00     0.099 C 
ATOM      9  C   UNL A   1      44.045  26.097  26.061  1.00  0.00     0.079 C 
BRANCH   9  10
ATOM     10  C   UNL A   1      43.995  27.137  25.008  1.00  0.00     0.248 C 
ATOM     11  N   UNL A   1      45.090  27.888  24.671  1.00  0.00    -0.322 N 
ATOM     12  H   UNL A   1      44.892  28.585  24.004  1.00  0.00     0.170 HD
ATOM     13  O   UNL A   1      42.927  27.304  24.419  1.00  0.00    -0.270 OA
BRANCH  11  14
ATOM     14  C   UNL A   1      46.446  27.874  25.079  1.00  0.00     0.056 A 
ATOM     15  C   UNL A   1      46.922  28.835  26.019  1.00  0.00     0.045 A 
ATOM     16  C   UNL A   1      48.162  28.654  26.662  1.00  0.00     0.064 A 
ATOM     17  C   UNL A   1      48.890  27.534  26.334  1.00  0.00     0.166 A 
ATOM     18  C   UNL A   1      47.333  26.899  24.627  1.00  0.00     0.077 A 
ATOM     19  C   UNL A   1      48.505  26.706  25.314  1.00  0.00     0.167 A 
ATOM     20  O   UNL A   1      50.012  27.079  26.954  1.00  0.00    -0.454 OA
ATOM     21  O   UNL A   1      49.351  25.657  25.141  1.00  0.00    -0.454 OA
ATOM     22  C   UNL A   1      50.124  25.769  26.352  1.00  0.00     0.468 C 
BRANCH  15  23
ATOM     23  C   UNL A   1      46.100  30.031  26.360  1.00  0.00     0.162 C 
ATOM     24  C   UNL A   1      45.387  30.055  27.689  1.00  0.00     0.093 C 
ATOM     25  O   UNL A   1      46.089  30.998  25.601  1.00  0.00    -0.294 OA
ENDBRANCH  15  23
ENDBRANCH  11  14
ENDBRANCH   9  10
ENDBRANCH   6   8
ENDBRANCH   5   6
ENDBRANCH   4   5
ENDBRANCH   3   4
ENDBRANCH   2   3
ENDBRANCH   1   2
BRANCH   1  26
ATOM     26  C   UNL A   1      42.616  18.748  25.829  1.00  0.00     0.188 C 
BRANCH  26  27
ATOM     27  O   UNL A   1      41.507  19.592  25.554  1.00  0.00    -0.376 OA
BRANCH  27  28
ATOM     28  C   UNL A   1      41.062  20.494  26.560  1.00  0.00     0.202 C 
BRANCH  28  29
ATOM     29  C   UNL A   1      40.531  21.862  26.118  1.00  0.00     0.261 C 
BRANCH  29  30
ATOM     30  O   UNL A   1      39.162  22.112  26.487  1.00  0.00    -0.460 OA
BRANCH  30  31
ATOM     31  C   UNL A   1      38.690  23.333  26.133  1.00  0.00     0.338 C 
ATOM     32  O   UNL A   1      37.742  23.582  25.409  1.00  0.00    -0.246 OA
BRANCH  31  33
ATOM     33  C   UNL A   1      39.415  24.398  26.850  1.00  0.00     0.060 A 
ATOM     34  C   UNL A   1      39.244  24.491  28.237  1.00  0.00     0.016 A 
ATOM     35  C   UNL A   1      40.128  25.376  26.155  1.00  0.00     0.016 A 
ATOM     36  C   UNL A   1      39.753  25.591  28.928  1.00  0.00     0.010 A 
ATOM     37  C   UNL A   1      40.623  26.487  26.848  1.00  0.00     0.010 A 
ATOM     38  C   UNL A   1      40.408  26.616  28.231  1.00  0.00    -0.014 A 
BRANCH  38  39
ATOM     39  C   UNL A   1      40.753  27.875  28.935  1.00  0.00     0.031 A 
ATOM     40  C   UNL A   1      39.720  28.952  29.077  1.00  0.00     0.074 A 
ATOM     41  C   UNL A   1      41.971  28.050  29.474  1.00  0.00     0.049 A 
ATOM     42  N   UNL A   1      39.815  30.111  29.676  1.00  0.00    -0.248 NA
ATOM     43  C   UNL A   1      38.416  28.693  28.453  1.00  0.00     0.031 C 
ATOM     44  C   UNL A   1      43.047  27.073  29.409  1.00  0.00     0.029 A 
ATOM     45  N   UNL A   1      42.502  29.090  30.193  1.00  0.00    -0.354 N 
ATOM     46  C   UNL A   1      38.590  30.731  29.483  1.00  0.00     0.074 A 
ATOM     47  C   UNL A   1      37.773  29.823  28.705  1.00  0.00     0.031 C 
ATOM     48  C   UNL A   1      44.097  27.530  30.111  1.00  0.00     0.029 A 
ATOM     49  C   UNL A   1      43.781  28.855  30.633  1.00  0.00     0.049 A 
ATOM     50  H   UNL A   1      42.012  29.924  30.378  1.00  0.00     0.167 HD
ATOM     51  C   UNL A   1      38.186  31.954  29.904  1.00  0.00     0.031 A 
ATOM     52  C   UNL A   1      44.609  29.622  31.368  1.00  0.00     0.031 A 
ATOM     53  C   UNL A   1      39.008  32.872  30.647  1.00  0.00     0.049 A 
ATOM     54  C   UNL A   1      44.152  30.990  31.790  1.00  0.00     0.074 A 
ATOM     55  C   UNL A   1      38.689  34.137  31.111  1.00  0.00     0.029 A 
ATOM     56  N   UNL A   1      40.319  32.626  31.027  1.00  0.00    -0.354 N 
ATOM     57  N   UNL A   1      42.987  31.563  31.608  1.00  0.00    -0.248 NA
ATOM     58  C   UNL A   1      45.131  31.825  32.501  1.00  0.00     0.031 C 
ATOM     59  C   UNL A   1      39.825  34.675  31.728  1.00  0.00     0.029 A 
ATOM     60  C   UNL A   1      40.833  33.725  31.696  1.00  0.00     0.049 A 
ATOM     61  H   UNL A   1      40.812  31.794  30.847  1.00  0.00     0.167 HD
ATOM     62  C   UNL A   1      43.091  32.823  32.183  1.00  0.00     0.074 A 
ATOM     63  C   UNL A   1      44.424  32.919  32.745  1.00  0.00     0.031 C 
ATOM     64  C   UNL A   1      42.167  33.813  32.232  1.00  0.00     0.031 A 
BRANCH  51  65
ATOM     65  C   UNL A   1      36.805  32.381  29.498  1.00  0.00    -0.014 A 
ATOM     66  C   UNL A   1      36.550  32.921  28.228  1.00  0.00     0.009 A 
ATOM     67  C   UNL A   1      35.748  32.268  30.414  1.00  0.00     0.009 A 
ATOM     68  C   UNL A   1      35.273  33.383  27.901  1.00  0.00     0.001 A 
ATOM     69  C   UNL A   1      34.467  32.705  30.076  1.00  0.00     0.001 A 
ATOM     70  C   UNL A   1      34.233  33.275  28.825  1.00  0.00     0.000 A 
ENDBRANCH  51  65
BRANCH  52  71
ATOM     71  C   UNL A   1      45.954  29.119  31.753  1.00  0.00    -0.014 A 
ATOM     72  C   UNL A   1      46.100  28.262  32.855  1.00  0.00     0.009 A 
ATOM     73  C   UNL A   1      47.096  29.489  31.026  1.00  0.00     0.009 A 
ATOM     74  C   UNL A   1      47.363  27.797  33.229  1.00  0.00     0.001 A 
ATOM     75  C   UNL A   1      48.354  29.000  31.386  1.00  0.00     0.001 A 
ATOM     76  C   UNL A   1      48.487  28.159  32.490  1.00  0.00     0.000 A 
ENDBRANCH  52  71
BRANCH  64  77
ATOM     77  C   UNL A   1      42.568  35.084  32.927  1.00  0.00    -0.014 A 
ATOM     78  C   UNL A   1      42.262  35.298  34.280  1.00  0.00     0.009 A 
ATOM     79  C   UNL A   1      43.284  36.066  32.226  1.00  0.00     0.009 A 
ATOM     80  C   UNL A   1      42.640  36.486  34.908  1.00  0.00     0.001 A 
ATOM     81  C   UNL A   1      43.683  37.241  32.864  1.00  0.00     0.001 A 
ATOM     82  C   UNL A   1      43.352  37.454  34.202  1.00  0.00     0.000 A 
ENDBRANCH  64  77
ENDBRANCH  38  39
ENDBRANCH  31  33
ENDBRANCH  30  31
ENDBRANCH  29  30
ENDBRANCH  28  29
ENDBRANCH  27  28
ENDBRANCH  26  27
ENDBRANCH   1  26
TORSDOF 20
ENDMDL
