MODEL 1
REMARK VINA RESULT:     -10.3      0.000      0.000
REMARK SMILES CS(=O)(=O)c1ccc(/C=C(/C(=O)OCCOCCOCCOC(=O)c2ccc(-c3c4nc(c(-c5ccccc5)c5ccc([nH]5)c(-c5ccccc5)c5nc(c(-c6ccccc6)c6ccc3[nH]6)C=C5)C=C4)cc2)c2cccc(-c3ccc(S(C)(=O)=O)cc3)c2)cc1
REMARK SMILES IDX 17 1 16 2 15 3 14 4 13 5 11 6 12 7 10 8 9 9 8 10 5 11 6 12
REMARK SMILES IDX 90 13 7 14 89 15 2 16 1 17 3 18 4 19 73 20 74 21 88 22 75 23
REMARK SMILES IDX 77 24 76 25 78 26 79 27 87 28 80 29 86 30 81 31 82 32 83 33
REMARK SMILES IDX 84 34 85 35 18 36 19 37 20 38 21 39 22 40 23 41 24 42 25 43
REMARK SMILES IDX 26 44 72 45 27 46 71 47 28 48 29 49 30 50 65 51 31 52 70 53
REMARK SMILES IDX 64 54 66 55 32 56 69 57 63 58 62 59 33 61 55 62 40 63 54 64
REMARK SMILES IDX 41 65 44 66 53 67 67 68 42 69 43 70 52 72 68 73 45 74 34 75
REMARK SMILES IDX 35 76 39 77 36 78 38 79 37 80 56 81 57 82 61 83 58 84 60 85
REMARK SMILES IDX 59 86 46 87 47 88 51 89 48 90 50 91 49 92
REMARK H PARENT 66 60 44 71
REMARK Flexibility Score: inf
ROOT
ATOM      1  C   UNL A   1      40.797  20.308  26.350  1.00  0.00     0.188 C 
ENDROOT
BRANCH   1   2
ATOM      2  O   UNL A   1      40.540  21.005  27.544  1.00  0.00    -0.376 OA
BRANCH   2   3
ATOM      3  C   UNL A   1      40.621  22.420  27.542  1.00  0.00     0.202 C 
BRANCH   3   4
ATOM      4  C   UNL A   1      39.418  23.363  27.314  1.00  0.00     0.261 C 
BRANCH   4   5
ATOM      5  O   UNL A   1      38.623  23.173  26.136  1.00  0.00    -0.460 OA
BRANCH   5   6
ATOM      6  C   UNL A   1      37.371  23.697  26.154  1.00  0.00     0.338 C 
ATOM      7  O   UNL A   1      37.102  24.876  26.331  1.00  0.00    -0.246 OA
BRANCH   6   8
ATOM      8  C   UNL A   1      36.345  22.669  25.769  1.00  0.00     0.067 C 
ATOM      9  C   UNL A   1      36.732  21.545  25.112  1.00  0.00     0.024 C 
BRANCH   9  10
ATOM     10  C   UNL A   1      35.943  20.314  24.830  1.00  0.00    -0.025 A 
ATOM     11  C   UNL A   1      34.583  17.854  24.860  1.00  0.00     0.067 A 
ATOM     12  C   UNL A   1      33.861  19.044  24.866  1.00  0.00     0.021 A 
ATOM     13  C   UNL A   1      35.970  17.873  24.716  1.00  0.00     0.021 A 
ATOM     14  C   UNL A   1      34.543  20.262  24.791  1.00  0.00     0.009 A 
ATOM     15  C   UNL A   1      36.644  19.102  24.704  1.00  0.00     0.009 A 
BRANCH  11  16
ATOM     16  S   UNL A   1      33.732  16.323  25.154  1.00  0.00     0.175 S 
ATOM     17  C   UNL A   1      32.932  15.954  23.618  1.00  0.00     0.163 C 
ATOM     18  O   UNL A   1      32.703  16.605  26.137  1.00  0.00    -0.224 OA
ATOM     19  O   UNL A   1      34.731  15.299  25.385  1.00  0.00    -0.224 OA
ENDBRANCH  11  16
ENDBRANCH   9  10
BRANCH   8  20
ATOM     20  C   UNL A   1      34.955  22.914  26.203  1.00  0.00    -0.010 A 
ATOM     21  C   UNL A   1      34.480  22.435  27.433  1.00  0.00     0.009 A 
ATOM     22  C   UNL A   1      34.129  23.738  25.442  1.00  0.00     0.017 A 
ATOM     23  C   UNL A   1      33.218  22.803  27.898  1.00  0.00     0.001 A 
ATOM     24  C   UNL A   1      32.872  24.148  25.915  1.00  0.00    -0.018 A 
ATOM     25  C   UNL A   1      32.423  23.667  27.151  1.00  0.00     0.009 A 
BRANCH  24  26
ATOM     26  C   UNL A   1      32.101  25.106  25.122  1.00  0.00    -0.018 A 
ATOM     27  C   UNL A   1      30.712  24.975  24.970  1.00  0.00     0.010 A 
ATOM     28  C   UNL A   1      32.743  26.235  24.588  1.00  0.00     0.010 A 
ATOM     29  C   UNL A   1      29.975  25.967  24.320  1.00  0.00     0.021 A 
ATOM     30  C   UNL A   1      32.019  27.227  23.938  1.00  0.00     0.021 A 
ATOM     31  C   UNL A   1      30.638  27.085  23.806  1.00  0.00     0.067 A 
BRANCH  31  32
ATOM     32  S   UNL A   1      29.710  28.351  22.984  1.00  0.00     0.175 S 
ATOM     33  C   UNL A   1      30.066  29.794  23.950  1.00  0.00     0.163 C 
ATOM     34  O   UNL A   1      30.285  28.530  21.665  1.00  0.00    -0.224 OA
ATOM     35  O   UNL A   1      28.301  28.050  23.154  1.00  0.00    -0.224 OA
ENDBRANCH  31  32
ENDBRANCH  24  26
ENDBRANCH   8  20
ENDBRANCH   6   8
ENDBRANCH   5   6
ENDBRANCH   4   5
ENDBRANCH   3   4
ENDBRANCH   2   3
ENDBRANCH   1   2
BRANCH   1  36
ATOM     36  C   UNL A   1      42.299  20.055  26.092  1.00  0.00     0.188 C 
BRANCH  36  37
ATOM     37  O   UNL A   1      43.232  21.119  26.178  1.00  0.00    -0.376 OA
BRANCH  37  38
ATOM     38  C   UNL A   1      44.186  21.289  25.142  1.00  0.00     0.202 C 
BRANCH  38  39
ATOM     39  C   UNL A   1      44.548  22.690  24.607  1.00  0.00     0.261 C 
BRANCH  39  40
ATOM     40  O   UNL A   1      43.743  23.791  25.059  1.00  0.00    -0.460 OA
BRANCH  40  41
ATOM     41  C   UNL A   1      44.416  24.945  25.315  1.00  0.00     0.338 C 
ATOM     42  O   UNL A   1      45.369  25.393  24.713  1.00  0.00    -0.246 OA
BRANCH  41  43
ATOM     43  C   UNL A   1      43.687  25.714  26.351  1.00  0.00     0.060 A 
ATOM     44  C   UNL A   1      44.068  27.045  26.586  1.00  0.00     0.016 A 
ATOM     45  C   UNL A   1      42.679  25.127  27.114  1.00  0.00     0.016 A 
ATOM     46  C   UNL A   1      43.447  27.786  27.592  1.00  0.00     0.010 A 
ATOM     47  C   UNL A   1      42.076  25.865  28.142  1.00  0.00     0.010 A 
ATOM     48  C   UNL A   1      42.468  27.191  28.398  1.00  0.00    -0.014 A 
BRANCH  48  49
ATOM     49  C   UNL A   1      41.983  27.898  29.609  1.00  0.00     0.031 A 
ATOM     50  C   UNL A   1      40.735  28.730  29.507  1.00  0.00     0.074 A 
ATOM     51  C   UNL A   1      42.624  27.798  30.787  1.00  0.00     0.049 A 
ATOM     52  N   UNL A   1      40.146  29.460  30.420  1.00  0.00    -0.248 NA
ATOM     53  C   UNL A   1      40.062  28.739  28.198  1.00  0.00     0.031 C 
ATOM     54  C   UNL A   1      43.819  26.996  31.036  1.00  0.00     0.029 A 
ATOM     55  N   UNL A   1      42.351  28.380  32.001  1.00  0.00    -0.354 N 
ATOM     56  C   UNL A   1      39.043  30.028  29.793  1.00  0.00     0.074 A 
ATOM     57  C   UNL A   1      39.054  29.568  28.421  1.00  0.00     0.031 C 
ATOM     58  C   UNL A   1      44.170  27.127  32.327  1.00  0.00     0.029 A 
ATOM     59  C   UNL A   1      43.260  28.066  32.981  1.00  0.00     0.049 A 
ATOM     60  H   UNL A   1      41.575  28.968  32.154  1.00  0.00     0.167 HD
ATOM     61  C   UNL A   1      38.108  30.860  30.309  1.00  0.00     0.031 A 
ATOM     62  C   UNL A   1      43.366  28.511  34.250  1.00  0.00     0.031 A 
ATOM     63  C   UNL A   1      38.114  31.350  31.662  1.00  0.00     0.049 A 
ATOM     64  C   UNL A   1      42.367  29.514  34.772  1.00  0.00     0.074 A 
ATOM     65  C   UNL A   1      37.209  32.199  32.274  1.00  0.00     0.029 A 
ATOM     66  N   UNL A   1      39.084  31.052  32.607  1.00  0.00    -0.354 N 
ATOM     67  N   UNL A   1      41.313  30.022  34.179  1.00  0.00    -0.248 NA
ATOM     68  C   UNL A   1      42.578  30.007  36.142  1.00  0.00     0.031 C 
ATOM     69  C   UNL A   1      37.666  32.468  33.568  1.00  0.00     0.029 A 
ATOM     70  C   UNL A   1      38.815  31.725  33.787  1.00  0.00     0.049 A 
ATOM     71  H   UNL A   1      39.849  30.450  32.461  1.00  0.00     0.167 HD
ATOM     72  C   UNL A   1      40.722  30.868  35.112  1.00  0.00     0.074 A 
ATOM     73  C   UNL A   1      41.523  30.791  36.315  1.00  0.00     0.031 C 
ATOM     74  C   UNL A   1      39.615  31.641  34.982  1.00  0.00     0.031 A 
BRANCH  61  75
ATOM     75  C   UNL A   1      37.026  31.339  29.381  1.00  0.00    -0.014 A 
ATOM     76  C   UNL A   1      35.948  30.514  29.025  1.00  0.00     0.009 A 
ATOM     77  C   UNL A   1      37.078  32.647  28.873  1.00  0.00     0.009 A 
ATOM     78  C   UNL A   1      34.964  30.978  28.148  1.00  0.00     0.001 A 
ATOM     79  C   UNL A   1      36.077  33.118  28.023  1.00  0.00     0.001 A 
ATOM     80  C   UNL A   1      35.027  32.279  27.652  1.00  0.00     0.000 A 
ENDBRANCH  61  75
BRANCH  62  81
ATOM     81  C   UNL A   1      44.482  28.048  35.120  1.00  0.00    -0.014 A 
ATOM     82  C   UNL A   1      45.732  28.686  35.085  1.00  0.00     0.009 A 
ATOM     83  C   UNL A   1      44.315  26.936  35.960  1.00  0.00     0.009 A 
ATOM     84  C   UNL A   1      46.798  28.200  35.848  1.00  0.00     0.001 A 
ATOM     85  C   UNL A   1      45.373  26.474  36.748  1.00  0.00     0.001 A 
ATOM     86  C   UNL A   1      46.616  27.099  36.683  1.00  0.00     0.000 A 
ENDBRANCH  62  81
BRANCH  74  87
ATOM     87  C   UNL A   1      39.169  32.430  36.186  1.00  0.00    -0.014 A 
ATOM     88  C   UNL A   1      38.294  31.889  37.139  1.00  0.00     0.009 A 
ATOM     89  C   UNL A   1      39.679  33.723  36.391  1.00  0.00     0.009 A 
ATOM     90  C   UNL A   1      37.909  32.641  38.253  1.00  0.00     0.001 A 
ATOM     91  C   UNL A   1      39.320  34.459  37.521  1.00  0.00     0.001 A 
ATOM     92  C   UNL A   1      38.428  33.921  38.447  1.00  0.00     0.000 A 
ENDBRANCH  74  87
ENDBRANCH  48  49
ENDBRANCH  41  43
ENDBRANCH  40  41
ENDBRANCH  39  40
ENDBRANCH  38  39
ENDBRANCH  37  38
ENDBRANCH  36  37
ENDBRANCH   1  36
TORSDOF 22
ENDMDL
MODEL 2
REMARK VINA RESULT:     -10.3      1.004      5.543
REMARK SMILES CS(=O)(=O)c1ccc(/C=C(/C(=O)OCCOCCOCCOC(=O)c2ccc(-c3c4nc(c(-c5ccccc5)c5ccc([nH]5)c(-c5ccccc5)c5nc(c(-c6ccccc6)c6ccc3[nH]6)C=C5)C=C4)cc2)c2cccc(-c3ccc(S(C)(=O)=O)cc3)c2)cc1
REMARK SMILES IDX 17 1 16 2 15 3 14 4 13 5 11 6 12 7 10 8 9 9 8 10 5 11 6 12
REMARK SMILES IDX 90 13 7 14 89 15 2 16 1 17 3 18 4 19 73 20 74 21 88 22 75 23
REMARK SMILES IDX 77 24 76 25 78 26 79 27 87 28 80 29 86 30 81 31 82 32 83 33
REMARK SMILES IDX 84 34 85 35 18 36 19 37 20 38 21 39 22 40 23 41 24 42 25 43
REMARK SMILES IDX 26 44 72 45 27 46 71 47 28 48 29 49 30 50 65 51 31 52 70 53
REMARK SMILES IDX 64 54 66 55 32 56 69 57 63 58 62 59 33 61 55 62 40 63 54 64
REMARK SMILES IDX 41 65 44 66 53 67 67 68 42 69 43 70 52 72 68 73 45 74 34 75
REMARK SMILES IDX 35 76 39 77 36 78 38 79 37 80 56 81 57 82 61 83 58 84 60 85
REMARK SMILES IDX 59 86 46 87 47 88 51 89 48 90 50 91 49 92
REMARK H PARENT 66 60 44 71
REMARK Flexibility Score: inf
ROOT
ATOM      1  C   UNL A   1      39.796  21.035  26.236  1.00  0.00     0.188 C 
ENDROOT
BRANCH   1   2
ATOM      2  O   UNL A   1      40.217  21.882  27.275  1.00  0.00    -0.376 OA
BRANCH   2   3
ATOM      3  C   UNL A   1      40.187  23.284  27.072  1.00  0.00     0.202 C 
BRANCH   3   4
ATOM      4  C   UNL A   1      38.895  24.111  26.879  1.00  0.00     0.261 C 
BRANCH   4   5
ATOM      5  O   UNL A   1      38.028  23.767  25.790  1.00  0.00    -0.460 OA
BRANCH   5   6
ATOM      6  C   UNL A   1      36.730  24.150  25.899  1.00  0.00     0.338 C 
ATOM      7  O   UNL A   1      36.344  25.301  26.043  1.00  0.00    -0.246 OA
BRANCH   6   8
ATOM      8  C   UNL A   1      35.800  22.995  25.662  1.00  0.00     0.067 C 
ATOM      9  C   UNL A   1      36.279  21.844  25.122  1.00  0.00     0.024 C 
BRANCH   9  10
ATOM     10  C   UNL A   1      35.606  20.521  25.003  1.00  0.00    -0.025 A 
ATOM     11  C   UNL A   1      34.295  18.167  24.204  1.00  0.00     0.067 A 
ATOM     12  C   UNL A   1      35.646  18.127  24.537  1.00  0.00     0.021 A 
ATOM     13  C   UNL A   1      33.560  19.339  24.382  1.00  0.00     0.021 A 
ATOM     14  C   UNL A   1      36.276  19.290  24.990  1.00  0.00     0.009 A 
ATOM     15  C   UNL A   1      34.219  20.510  24.777  1.00  0.00     0.009 A 
BRANCH  11  16
ATOM     16  S   UNL A   1      33.549  16.745  23.445  1.00  0.00     0.175 S 
ATOM     17  C   UNL A   1      33.004  15.747  24.802  1.00  0.00     0.163 C 
ATOM     18  O   UNL A   1      34.614  16.032  22.765  1.00  0.00    -0.224 OA
ATOM     19  O   UNL A   1      32.370  17.194  22.730  1.00  0.00    -0.224 OA
ENDBRANCH  11  16
ENDBRANCH   9  10
BRANCH   8  20
ATOM     20  C   UNL A   1      34.402  23.157  26.109  1.00  0.00    -0.010 A 
ATOM     21  C   UNL A   1      33.930  22.533  27.273  1.00  0.00     0.009 A 
ATOM     22  C   UNL A   1      33.561  24.042  25.438  1.00  0.00     0.017 A 
ATOM     23  C   UNL A   1      32.658  22.817  27.765  1.00  0.00     0.001 A 
ATOM     24  C   UNL A   1      32.292  24.368  25.943  1.00  0.00    -0.018 A 
ATOM     25  C   UNL A   1      31.847  23.741  27.113  1.00  0.00     0.009 A 
BRANCH  24  26
ATOM     26  C   UNL A   1      31.504  25.391  25.256  1.00  0.00    -0.018 A 
ATOM     27  C   UNL A   1      31.145  26.588  25.895  1.00  0.00     0.010 A 
ATOM     28  C   UNL A   1      31.186  25.221  23.899  1.00  0.00     0.010 A 
ATOM     29  C   UNL A   1      30.506  27.606  25.185  1.00  0.00     0.021 A 
ATOM     30  C   UNL A   1      30.548  26.227  23.183  1.00  0.00     0.021 A 
ATOM     31  C   UNL A   1      30.210  27.414  23.833  1.00  0.00     0.067 A 
BRANCH  31  32
ATOM     32  S   UNL A   1      29.404  28.702  22.923  1.00  0.00     0.175 S 
ATOM     33  C   UNL A   1      29.800  30.155  23.856  1.00  0.00     0.163 C 
ATOM     34  O   UNL A   1      30.053  28.798  21.630  1.00  0.00    -0.224 OA
ATOM     35  O   UNL A   1      27.972  28.493  23.029  1.00  0.00    -0.224 OA
ENDBRANCH  31  32
ENDBRANCH  24  26
ENDBRANCH   8  20
ENDBRANCH   6   8
ENDBRANCH   5   6
ENDBRANCH   4   5
ENDBRANCH   3   4
ENDBRANCH   2   3
ENDBRANCH   1   2
BRANCH   1  36
ATOM     36  C   UNL A   1      40.731  19.827  26.004  1.00  0.00     0.188 C 
BRANCH  36  37
ATOM     37  O   UNL A   1      41.963  19.729  26.698  1.00  0.00    -0.376 OA
BRANCH  37  38
ATOM     38  C   UNL A   1      43.173  19.694  25.957  1.00  0.00     0.202 C 
BRANCH  38  39
ATOM     39  C   UNL A   1      43.841  20.989  25.451  1.00  0.00     0.261 C 
BRANCH  39  40
ATOM     40  O   UNL A   1      43.314  22.233  25.942  1.00  0.00    -0.460 OA
BRANCH  40  41
ATOM     41  C   UNL A   1      44.106  23.322  25.754  1.00  0.00     0.338 C 
ATOM     42  O   UNL A   1      44.833  23.552  24.810  1.00  0.00    -0.246 OA
BRANCH  41  43
ATOM     43  C   UNL A   1      43.813  24.326  26.804  1.00  0.00     0.060 A 
ATOM     44  C   UNL A   1      43.344  23.874  28.048  1.00  0.00     0.016 A 
ATOM     45  C   UNL A   1      43.948  25.691  26.559  1.00  0.00     0.016 A 
ATOM     46  C   UNL A   1      43.001  24.790  29.044  1.00  0.00     0.010 A 
ATOM     47  C   UNL A   1      43.577  26.609  27.551  1.00  0.00     0.010 A 
ATOM     48  C   UNL A   1      43.086  26.164  28.791  1.00  0.00    -0.014 A 
BRANCH  48  49
ATOM     49  C   UNL A   1      42.501  27.127  29.757  1.00  0.00     0.031 A 
ATOM     50  C   UNL A   1      43.196  27.341  31.073  1.00  0.00     0.074 A 
ATOM     51  C   UNL A   1      41.380  27.816  29.474  1.00  0.00     0.049 A 
ATOM     52  N   UNL A   1      42.852  28.102  32.080  1.00  0.00    -0.248 NA
ATOM     53  C   UNL A   1      44.446  26.593  31.279  1.00  0.00     0.031 C 
ATOM     54  C   UNL A   1      40.630  27.736  28.224  1.00  0.00     0.029 A 
ATOM     55  N   UNL A   1      40.680  28.725  30.230  1.00  0.00    -0.354 N 
ATOM     56  C   UNL A   1      43.834  27.915  33.045  1.00  0.00     0.074 A 
ATOM     57  C   UNL A   1      44.777  26.958  32.508  1.00  0.00     0.031 C 
ATOM     58  C   UNL A   1      39.579  28.572  28.293  1.00  0.00     0.029 A 
ATOM     59  C   UNL A   1      39.550  29.202  29.612  1.00  0.00     0.049 A 
ATOM     60  H   UNL A   1      40.963  29.008  31.129  1.00  0.00     0.167 HD
ATOM     61  C   UNL A   1      43.940  28.482  34.270  1.00  0.00     0.031 A 
ATOM     62  C   UNL A   1      38.585  30.025  30.071  1.00  0.00     0.031 A 
ATOM     63  C   UNL A   1      42.985  29.405  34.824  1.00  0.00     0.049 A 
ATOM     64  C   UNL A   1      38.676  30.568  31.475  1.00  0.00     0.074 A 
ATOM     65  C   UNL A   1      43.008  30.030  36.058  1.00  0.00     0.029 A 
ATOM     66  N   UNL A   1      41.825  29.819  34.188  1.00  0.00    -0.354 N 
ATOM     67  N   UNL A   1      39.623  30.405  32.368  1.00  0.00    -0.248 NA
ATOM     68  C   UNL A   1      37.559  31.407  31.935  1.00  0.00     0.031 C 
ATOM     69  C   UNL A   1      41.830  30.770  36.197  1.00  0.00     0.029 A 
ATOM     70  C   UNL A   1      41.110  30.667  35.018  1.00  0.00     0.049 A 
ATOM     71  H   UNL A   1      41.551  29.551  33.282  1.00  0.00     0.167 HD
ATOM     72  C   UNL A   1      39.230  31.143  33.480  1.00  0.00     0.074 A 
ATOM     73  C   UNL A   1      37.969  31.770  33.143  1.00  0.00     0.031 C 
ATOM     74  C   UNL A   1      39.857  31.289  34.674  1.00  0.00     0.031 A 
BRANCH  61  75
ATOM     75  C   UNL A   1      45.112  28.071  35.119  1.00  0.00    -0.014 A 
ATOM     76  C   UNL A   1      46.375  28.662  34.960  1.00  0.00     0.009 A 
ATOM     77  C   UNL A   1      44.939  27.091  36.110  1.00  0.00     0.009 A 
ATOM     78  C   UNL A   1      47.450  28.250  35.751  1.00  0.00     0.001 A 
ATOM     79  C   UNL A   1      46.008  26.706  36.920  1.00  0.00     0.001 A 
ATOM     80  C   UNL A   1      47.265  27.277  36.732  1.00  0.00     0.000 A 
ENDBRANCH  61  75
BRANCH  62  81
ATOM     81  C   UNL A   1      37.417  30.367  29.214  1.00  0.00    -0.014 A 
ATOM     82  C   UNL A   1      37.223  31.678  28.751  1.00  0.00     0.009 A 
ATOM     83  C   UNL A   1      36.462  29.390  28.889  1.00  0.00     0.009 A 
ATOM     84  C   UNL A   1      36.086  32.009  28.011  1.00  0.00     0.001 A 
ATOM     85  C   UNL A   1      35.343  29.716  28.119  1.00  0.00     0.001 A 
ATOM     86  C   UNL A   1      35.150  31.027  27.691  1.00  0.00     0.000 A 
ENDBRANCH  62  81
BRANCH  74  87
ATOM     87  C   UNL A   1      39.219  32.199  35.691  1.00  0.00    -0.014 A 
ATOM     88  C   UNL A   1      38.323  31.712  36.655  1.00  0.00     0.009 A 
ATOM     89  C   UNL A   1      39.563  33.560  35.713  1.00  0.00     0.009 A 
ATOM     90  C   UNL A   1      37.756  32.578  37.596  1.00  0.00     0.001 A 
ATOM     91  C   UNL A   1      39.023  34.416  36.674  1.00  0.00     0.001 A 
ATOM     92  C   UNL A   1      38.112  33.926  37.609  1.00  0.00     0.000 A 
ENDBRANCH  74  87
ENDBRANCH  48  49
ENDBRANCH  41  43
ENDBRANCH  40  41
ENDBRANCH  39  40
ENDBRANCH  38  39
ENDBRANCH  37  38
ENDBRANCH  36  37
ENDBRANCH   1  36
TORSDOF 22
ENDMDL
MODEL 3
REMARK VINA RESULT:      -9.8      4.786     11.943
REMARK SMILES CS(=O)(=O)c1ccc(/C=C(/C(=O)OCCOCCOCCOC(=O)c2ccc(-c3c4nc(c(-c5ccccc5)c5ccc([nH]5)c(-c5ccccc5)c5nc(c(-c6ccccc6)c6ccc3[nH]6)C=C5)C=C4)cc2)c2cccc(-c3ccc(S(C)(=O)=O)cc3)c2)cc1
REMARK SMILES IDX 17 1 16 2 15 3 14 4 13 5 11 6 12 7 10 8 9 9 8 10 5 11 6 12
REMARK SMILES IDX 90 13 7 14 89 15 2 16 1 17 3 18 4 19 73 20 74 21 88 22 75 23
REMARK SMILES IDX 77 24 76 25 78 26 79 27 87 28 80 29 86 30 81 31 82 32 83 33
REMARK SMILES IDX 84 34 85 35 18 36 19 37 20 38 21 39 22 40 23 41 24 42 25 43
REMARK SMILES IDX 26 44 72 45 27 46 71 47 28 48 29 49 30 50 65 51 31 52 70 53
REMARK SMILES IDX 64 54 66 55 32 56 69 57 63 58 62 59 33 61 55 62 40 63 54 64
REMARK SMILES IDX 41 65 44 66 53 67 67 68 42 69 43 70 52 72 68 73 45 74 34 75
REMARK SMILES IDX 35 76 39 77 36 78 38 79 37 80 56 81 57 82 61 83 58 84 60 85
REMARK SMILES IDX 59 86 46 87 47 88 51 89 48 90 50 91 49 92
REMARK H PARENT 66 60 44 71
REMARK Flexibility Score: inf
ROOT
ATOM      1  C   UNL A   1      42.745  32.139  29.021  1.00  0.00     0.188 C 
ENDROOT
BRANCH   1   2
ATOM      2  O   UNL A   1      43.848  31.892  28.186  1.00  0.00    -0.376 OA
BRANCH   2   3
ATOM      3  C   UNL A   1      44.125  30.559  27.791  1.00  0.00     0.202 C 
BRANCH   3   4
ATOM      4  C   UNL A   1      43.536  29.883  26.533  1.00  0.00     0.261 C 
BRANCH   4   5
ATOM      5  O   UNL A   1      44.270  28.805  25.937  1.00  0.00    -0.460 OA
BRANCH   5   6
ATOM      6  C   UNL A   1      43.543  27.820  25.352  1.00  0.00     0.338 C 
ATOM      7  O   UNL A   1      42.606  27.995  24.587  1.00  0.00    -0.246 OA
BRANCH   6   8
ATOM      8  C   UNL A   1      44.130  26.467  25.636  1.00  0.00     0.067 C 
ATOM      9  C   UNL A   1      43.419  25.349  25.338  1.00  0.00     0.024 C 
BRANCH   9  10
ATOM     10  C   UNL A   1      43.876  23.931  25.328  1.00  0.00    -0.025 A 
ATOM     11  C   UNL A   1      44.257  21.169  24.971  1.00  0.00     0.067 A 
ATOM     12  C   UNL A   1      45.083  22.073  24.308  1.00  0.00     0.021 A 
ATOM     13  C   UNL A   1      43.324  21.622  25.903  1.00  0.00     0.021 A 
ATOM     14  C   UNL A   1      44.925  23.443  24.537  1.00  0.00     0.009 A 
ATOM     15  C   UNL A   1      43.135  22.999  26.075  1.00  0.00     0.009 A 
BRANCH  11  16
ATOM     16  S   UNL A   1      44.328  19.450  24.531  1.00  0.00     0.175 S 
ATOM     17  C   UNL A   1      45.786  18.843  25.330  1.00  0.00     0.163 C 
ATOM     18  O   UNL A   1      44.549  19.399  23.098  1.00  0.00    -0.224 OA
ATOM     19  O   UNL A   1      43.188  18.791  25.139  1.00  0.00    -0.224 OA
ENDBRANCH  11  16
ENDBRANCH   9  10
BRANCH   8  20
ATOM     20  C   UNL A   1      45.507  26.432  26.167  1.00  0.00    -0.010 A 
ATOM     21  C   UNL A   1      45.767  26.084  27.501  1.00  0.00     0.009 A 
ATOM     22  C   UNL A   1      46.584  26.627  25.305  1.00  0.00     0.017 A 
ATOM     23  C   UNL A   1      47.075  25.906  27.947  1.00  0.00     0.001 A 
ATOM     24  C   UNL A   1      47.906  26.413  25.729  1.00  0.00    -0.018 A 
ATOM     25  C   UNL A   1      48.140  26.055  27.063  1.00  0.00     0.009 A 
BRANCH  24  26
ATOM     26  C   UNL A   1      48.985  26.521  24.748  1.00  0.00    -0.018 A 
ATOM     27  C   UNL A   1      48.734  26.935  23.430  1.00  0.00     0.010 A 
ATOM     28  C   UNL A   1      50.312  26.310  25.155  1.00  0.00     0.010 A 
ATOM     29  C   UNL A   1      49.790  27.157  22.545  1.00  0.00     0.021 A 
ATOM     30  C   UNL A   1      51.370  26.527  24.281  1.00  0.00     0.021 A 
ATOM     31  C   UNL A   1      51.102  26.948  22.979  1.00  0.00     0.067 A 
BRANCH  31  32
ATOM     32  S   UNL A   1      52.449  27.233  21.864  1.00  0.00     0.175 S 
ATOM     33  C   UNL A   1      51.781  26.732  20.301  1.00  0.00     0.163 C 
ATOM     34  O   UNL A   1      52.688  28.663  21.822  1.00  0.00    -0.224 OA
ATOM     35  O   UNL A   1      53.511  26.305  22.203  1.00  0.00    -0.224 OA
ENDBRANCH  31  32
ENDBRANCH  24  26
ENDBRANCH   8  20
ENDBRANCH   6   8
ENDBRANCH   5   6
ENDBRANCH   4   5
ENDBRANCH   3   4
ENDBRANCH   2   3
ENDBRANCH   1   2
BRANCH   1  36
ATOM     36  C   UNL A   1      42.932  31.623  30.465  1.00  0.00     0.188 C 
BRANCH  36  37
ATOM     37  O   UNL A   1      43.936  32.174  31.300  1.00  0.00    -0.376 OA
BRANCH  37  38
ATOM     38  C   UNL A   1      44.292  31.496  32.495  1.00  0.00     0.202 C 
BRANCH  38  39
ATOM     39  C   UNL A   1      45.124  30.197  32.462  1.00  0.00     0.261 C 
BRANCH  39  40
ATOM     40  O   UNL A   1      44.405  28.962  32.306  1.00  0.00    -0.460 OA
BRANCH  40  41
ATOM     41  C   UNL A   1      44.636  28.290  31.148  1.00  0.00     0.338 C 
ATOM     42  O   UNL A   1      45.706  27.925  30.706  1.00  0.00    -0.246 OA
BRANCH  41  43
ATOM     43  C   UNL A   1      43.341  27.875  30.558  1.00  0.00     0.060 A 
ATOM     44  C   UNL A   1      43.310  27.508  29.204  1.00  0.00     0.016 A 
ATOM     45  C   UNL A   1      42.165  27.892  31.308  1.00  0.00     0.016 A 
ATOM     46  C   UNL A   1      42.102  27.166  28.596  1.00  0.00     0.010 A 
ATOM     47  C   UNL A   1      40.949  27.575  30.688  1.00  0.00     0.010 A 
ATOM     48  C   UNL A   1      40.909  27.228  29.326  1.00  0.00    -0.014 A 
BRANCH  48  49
ATOM     49  C   UNL A   1      39.608  27.096  28.621  1.00  0.00     0.031 A 
ATOM     50  C   UNL A   1      38.656  28.259  28.642  1.00  0.00     0.074 A 
ATOM     51  C   UNL A   1      39.278  25.973  27.959  1.00  0.00     0.049 A 
ATOM     52  N   UNL A   1      37.456  28.359  28.129  1.00  0.00    -0.248 NA
ATOM     53  C   UNL A   1      39.119  29.469  29.339  1.00  0.00     0.031 C 
ATOM     54  C   UNL A   1      40.122  24.789  27.824  1.00  0.00     0.029 A 
ATOM     55  N   UNL A   1      38.133  25.651  27.270  1.00  0.00    -0.354 N 
ATOM     56  C   UNL A   1      37.015  29.637  28.451  1.00  0.00     0.074 A 
ATOM     57  C   UNL A   1      38.069  30.267  29.217  1.00  0.00     0.031 C 
ATOM     58  C   UNL A   1      39.470  23.872  27.087  1.00  0.00     0.029 A 
ATOM     59  C   UNL A   1      38.143  24.382  26.746  1.00  0.00     0.049 A 
ATOM     60  H   UNL A   1      37.377  26.273  27.163  1.00  0.00     0.167 HD
ATOM     61  C   UNL A   1      35.838  30.232  28.145  1.00  0.00     0.031 A 
ATOM     62  C   UNL A   1      37.179  23.698  26.096  1.00  0.00     0.031 A 
ATOM     63  C   UNL A   1      34.772  29.597  27.417  1.00  0.00     0.049 A 
ATOM     64  C   UNL A   1      35.841  24.349  25.852  1.00  0.00     0.074 A 
ATOM     65  C   UNL A   1      33.542  30.121  27.061  1.00  0.00     0.029 A 
ATOM     66  N   UNL A   1      34.800  28.291  26.952  1.00  0.00    -0.354 N 
ATOM     67  N   UNL A   1      35.446  25.567  26.138  1.00  0.00    -0.248 NA
ATOM     68  C   UNL A   1      34.813  23.525  25.196  1.00  0.00     0.031 C 
ATOM     69  C   UNL A   1      32.800  29.111  26.439  1.00  0.00     0.029 A 
ATOM     70  C   UNL A   1      33.597  27.983  26.339  1.00  0.00     0.049 A 
ATOM     71  H   UNL A   1      35.562  27.675  27.042  1.00  0.00     0.167 HD
ATOM     72  C   UNL A   1      34.138  25.662  25.671  1.00  0.00     0.074 A 
ATOM     73  C   UNL A   1      33.814  24.387  25.066  1.00  0.00     0.031 C 
ATOM     74  C   UNL A   1      33.282  26.713  25.737  1.00  0.00     0.031 A 
BRANCH  61  75
ATOM     75  C   UNL A   1      35.623  31.632  28.650  1.00  0.00    -0.014 A 
ATOM     76  C   UNL A   1      36.047  32.750  27.915  1.00  0.00     0.009 A 
ATOM     77  C   UNL A   1      34.964  31.833  29.874  1.00  0.00     0.009 A 
ATOM     78  C   UNL A   1      35.849  34.039  28.415  1.00  0.00     0.001 A 
ATOM     79  C   UNL A   1      34.739  33.123  30.355  1.00  0.00     0.001 A 
ATOM     80  C   UNL A   1      35.192  34.225  29.631  1.00  0.00     0.000 A 
ENDBRANCH  61  75
BRANCH  62  81
ATOM     81  C   UNL A   1      37.417  22.295  25.656  1.00  0.00    -0.014 A 
ATOM     82  C   UNL A   1      36.349  21.474  25.263  1.00  0.00     0.009 A 
ATOM     83  C   UNL A   1      38.714  21.756  25.670  1.00  0.00     0.009 A 
ATOM     84  C   UNL A   1      36.570  20.137  24.924  1.00  0.00     0.001 A 
ATOM     85  C   UNL A   1      38.936  20.428  25.296  1.00  0.00     0.001 A 
ATOM     86  C   UNL A   1      37.863  19.617  24.935  1.00  0.00     0.000 A 
ENDBRANCH  62  81
BRANCH  74  87
ATOM     87  C   UNL A   1      31.927  26.551  25.099  1.00  0.00    -0.014 A 
ATOM     88  C   UNL A   1      30.909  25.803  25.711  1.00  0.00     0.009 A 
ATOM     89  C   UNL A   1      31.653  27.202  23.886  1.00  0.00     0.009 A 
ATOM     90  C   UNL A   1      29.657  25.682  25.101  1.00  0.00     0.001 A 
ATOM     91  C   UNL A   1      30.391  27.108  23.296  1.00  0.00     0.001 A 
ATOM     92  C   UNL A   1      29.398  26.340  23.899  1.00  0.00     0.000 A 
ENDBRANCH  74  87
ENDBRANCH  48  49
ENDBRANCH  41  43
ENDBRANCH  40  41
ENDBRANCH  39  40
ENDBRANCH  38  39
ENDBRANCH  37  38
ENDBRANCH  36  37
ENDBRANCH   1  36
TORSDOF 22
ENDMDL
