MODEL 1
REMARK VINA RESULT:     -11.6      0.000      0.000
REMARK SMILES O=C(/C=C/c1ccc(NC(=O)[C@H]2COc3ccccc3C2)cc1)OCCOCCOCCOC(=O)c1ccc(-c2c3nc(c(-c4ccccc4)c4ccc([nH]4)c(-c4ccccc4)c4nc(c(-c5ccccc5)c5ccc2[nH]5)C=C4)C=C3)cc1
REMARK SMILES IDX 28 1 27 2 26 3 25 4 24 5 2 6 1 7 3 8 4 9 5 10 6 11 23 12
REMARK SMILES IDX 7 13 22 14 8 15 9 16 10 17 11 19 12 20 13 21 21 22 14 23
REMARK SMILES IDX 20 24 15 25 19 26 16 27 18 28 17 29 29 30 30 31 31 32 32 33
REMARK SMILES IDX 33 34 34 35 35 36 36 37 37 38 83 39 38 40 82 41 39 42 40 43
REMARK SMILES IDX 41 44 76 45 42 46 81 47 75 48 77 49 43 50 80 51 74 52 73 53
REMARK SMILES IDX 44 55 66 56 51 57 65 58 52 59 55 60 64 61 78 62 53 63 54 64
REMARK SMILES IDX 63 66 79 67 56 68 45 69 46 70 50 71 47 72 49 73 48 74 67 75
REMARK SMILES IDX 68 76 72 77 69 78 71 79 70 80 57 81 58 82 62 83 59 84 61 85
REMARK SMILES IDX 60 86
REMARK H PARENT 9 18 77 54 55 65
REMARK Flexibility Score: inf
ROOT
ATOM      1  C   UNL A   1      45.796  18.792  25.378  1.00  0.00     0.188 C 
ENDROOT
BRANCH   1   2
ATOM      2  O   UNL A   1      44.408  18.557  25.595  1.00  0.00    -0.376 OA
BRANCH   2   3
ATOM      3  C   UNL A   1      43.483  19.512  25.101  1.00  0.00     0.202 C 
BRANCH   3   4
ATOM      4  C   UNL A   1      42.886  20.478  26.120  1.00  0.00     0.261 C 
BRANCH   4   5
ATOM      5  O   UNL A   1      41.612  21.022  25.747  1.00  0.00    -0.460 OA
BRANCH   5   6
ATOM      6  C   UNL A   1      40.634  21.144  26.685  1.00  0.00     0.330 C 
ATOM      7  O   UNL A   1      40.786  20.779  27.843  1.00  0.00    -0.247 OA
BRANCH   6   8
ATOM      8  C   UNL A   1      39.286  21.404  26.143  1.00  0.00     0.094 C 
ATOM      9  C   UNL A   1      38.745  22.626  26.138  1.00  0.00     0.015 C 
BRANCH   9  10
ATOM     10  C   UNL A   1      37.502  22.948  25.445  1.00  0.00    -0.025 A 
ATOM     11  C   UNL A   1      36.529  23.671  26.143  1.00  0.00     0.010 A 
ATOM     12  C   UNL A   1      37.221  22.462  24.168  1.00  0.00     0.010 A 
ATOM     13  C   UNL A   1      35.261  23.858  25.600  1.00  0.00     0.027 A 
ATOM     14  C   UNL A   1      35.936  22.610  23.640  1.00  0.00     0.027 A 
ATOM     15  C   UNL A   1      34.952  23.289  24.365  1.00  0.00     0.041 A 
BRANCH  15  16
ATOM     16  N   UNL A   1      33.631  23.268  23.893  1.00  0.00    -0.326 N 
ATOM     17  C   UNL A   1      33.115  22.304  23.069  1.00  0.00     0.231 C 
ATOM     18  H   UNL A   1      33.032  23.998  24.173  1.00  0.00     0.169 HD
ATOM     19  O   UNL A   1      32.673  22.595  21.959  1.00  0.00    -0.274 OA
BRANCH  17  20
ATOM     20  C   UNL A   1      32.870  20.937  23.682  1.00  0.00     0.121 C 
ATOM     21  C   UNL A   1      32.116  20.923  25.008  1.00  0.00     0.243 C 
ATOM     22  C   UNL A   1      32.262  19.857  22.797  1.00  0.00     0.056 C 
ATOM     23  O   UNL A   1      31.998  19.611  25.614  1.00  0.00    -0.492 OA
ATOM     24  C   UNL A   1      32.650  18.595  23.505  1.00  0.00    -0.005 A 
ATOM     25  C   UNL A   1      32.510  18.558  24.899  1.00  0.00     0.122 A 
ATOM     26  C   UNL A   1      33.308  17.562  22.834  1.00  0.00     0.007 A 
ATOM     27  C   UNL A   1      32.992  17.469  25.616  1.00  0.00     0.047 A 
ATOM     28  C   UNL A   1      33.848  16.505  23.562  1.00  0.00     0.001 A 
ATOM     29  C   UNL A   1      33.684  16.455  24.948  1.00  0.00     0.004 A 
ENDBRANCH  17  20
ENDBRANCH  15  16
ENDBRANCH   9  10
ENDBRANCH   6   8
ENDBRANCH   5   6
ENDBRANCH   4   5
ENDBRANCH   3   4
ENDBRANCH   2   3
ENDBRANCH   1   2
BRANCH   1  30
ATOM     30  C   UNL A   1      46.246  20.080  24.675  1.00  0.00     0.188 C 
BRANCH  30  31
ATOM     31  O   UNL A   1      46.396  21.293  25.402  1.00  0.00    -0.376 OA
BRANCH  31  32
ATOM     32  C   UNL A   1      46.328  22.545  24.735  1.00  0.00     0.202 C 
BRANCH  32  33
ATOM     33  C   UNL A   1      46.117  23.777  25.612  1.00  0.00     0.261 C 
BRANCH  33  34
ATOM     34  O   UNL A   1      44.860  23.749  26.305  1.00  0.00    -0.460 OA
BRANCH  34  35
ATOM     35  C   UNL A   1      43.789  24.067  25.544  1.00  0.00     0.338 C 
ATOM     36  O   UNL A   1      43.447  23.547  24.497  1.00  0.00    -0.246 OA
BRANCH  35  37
ATOM     37  C   UNL A   1      42.971  25.104  26.201  1.00  0.00     0.060 A 
ATOM     38  C   UNL A   1      43.585  26.336  26.447  1.00  0.00     0.016 A 
ATOM     39  C   UNL A   1      41.695  24.831  26.706  1.00  0.00     0.016 A 
ATOM     40  C   UNL A   1      42.973  27.262  27.285  1.00  0.00     0.010 A 
ATOM     41  C   UNL A   1      41.081  25.763  27.552  1.00  0.00     0.010 A 
ATOM     42  C   UNL A   1      41.750  26.951  27.896  1.00  0.00    -0.014 A 
BRANCH  42  43
ATOM     43  C   UNL A   1      41.315  27.767  29.056  1.00  0.00     0.031 A 
ATOM     44  C   UNL A   1      42.115  27.695  30.331  1.00  0.00     0.074 A 
ATOM     45  C   UNL A   1      40.286  28.626  28.958  1.00  0.00     0.049 A 
ATOM     46  N   UNL A   1      41.978  28.381  31.438  1.00  0.00    -0.248 NA
ATOM     47  C   UNL A   1      43.224  26.726  30.358  1.00  0.00     0.031 C 
ATOM     48  C   UNL A   1      39.461  28.831  27.769  1.00  0.00     0.029 A 
ATOM     49  N   UNL A   1      39.776  29.504  29.881  1.00  0.00    -0.354 N 
ATOM     50  C   UNL A   1      42.978  27.926  32.289  1.00  0.00     0.074 A 
ATOM     51  C   UNL A   1      43.695  26.885  31.585  1.00  0.00     0.031 C 
ATOM     52  C   UNL A   1      38.551  29.785  28.032  1.00  0.00     0.029 A 
ATOM     53  C   UNL A   1      38.719  30.242  29.411  1.00  0.00     0.049 A 
ATOM     54  H   UNL A   1      40.134  29.596  30.794  1.00  0.00     0.167 HD
ATOM     55  C   UNL A   1      43.284  28.341  33.542  1.00  0.00     0.031 A 
ATOM     56  C   UNL A   1      37.972  31.181  30.025  1.00  0.00     0.031 A 
ATOM     57  C   UNL A   1      42.574  29.367  34.255  1.00  0.00     0.049 A 
ATOM     58  C   UNL A   1      38.290  31.578  31.442  1.00  0.00     0.074 A 
ATOM     59  C   UNL A   1      42.817  29.862  35.524  1.00  0.00     0.029 A 
ATOM     60  N   UNL A   1      41.476  30.051  33.760  1.00  0.00    -0.354 N 
ATOM     61  N   UNL A   1      39.258  31.162  32.222  1.00  0.00    -0.248 NA
ATOM     62  C   UNL A   1      37.417  32.591  32.054  1.00  0.00     0.031 C 
ATOM     63  C   UNL A   1      41.835  30.815  35.816  1.00  0.00     0.029 A 
ATOM     64  C   UNL A   1      41.015  30.949  34.707  1.00  0.00     0.049 A 
ATOM     65  H   UNL A   1      41.082  29.919  32.868  1.00  0.00     0.167 HD
ATOM     66  C   UNL A   1      39.132  31.886  33.401  1.00  0.00     0.074 A 
ATOM     67  C   UNL A   1      37.999  32.773  33.232  1.00  0.00     0.031 C 
ATOM     68  C   UNL A   1      39.890  31.828  34.524  1.00  0.00     0.031 A 
BRANCH  55  69
ATOM     69  C   UNL A   1      44.424  27.649  34.234  1.00  0.00    -0.014 A 
ATOM     70  C   UNL A   1      45.680  28.262  34.362  1.00  0.00     0.009 A 
ATOM     71  C   UNL A   1      44.231  26.373  34.785  1.00  0.00     0.009 A 
ATOM     72  C   UNL A   1      46.730  27.596  34.998  1.00  0.00     0.001 A 
ATOM     73  C   UNL A   1      45.275  25.720  35.442  1.00  0.00     0.001 A 
ATOM     74  C   UNL A   1      46.525  26.328  35.540  1.00  0.00     0.000 A 
ENDBRANCH  55  69
BRANCH  56  75
ATOM     75  C   UNL A   1      36.842  31.822  29.304  1.00  0.00    -0.014 A 
ATOM     76  C   UNL A   1      37.041  32.997  28.563  1.00  0.00     0.009 A 
ATOM     77  C   UNL A   1      35.552  31.276  29.381  1.00  0.00     0.009 A 
ATOM     78  C   UNL A   1      35.964  33.628  27.937  1.00  0.00     0.001 A 
ATOM     79  C   UNL A   1      34.482  31.894  28.732  1.00  0.00     0.001 A 
ATOM     80  C   UNL A   1      34.687  33.075  28.020  1.00  0.00     0.000 A 
ENDBRANCH  56  75
BRANCH  68  81
ATOM     81  C   UNL A   1      39.549  32.778  35.638  1.00  0.00    -0.014 A 
ATOM     82  C   UNL A   1      38.648  32.422  36.653  1.00  0.00     0.009 A 
ATOM     83  C   UNL A   1      40.166  34.037  35.686  1.00  0.00     0.009 A 
ATOM     84  C   UNL A   1      38.345  33.325  37.675  1.00  0.00     0.001 A 
ATOM     85  C   UNL A   1      39.883  34.926  36.723  1.00  0.00     0.001 A 
ATOM     86  C   UNL A   1      38.966  34.574  37.711  1.00  0.00     0.000 A 
ENDBRANCH  68  81
ENDBRANCH  42  43
ENDBRANCH  35  37
ENDBRANCH  34  35
ENDBRANCH  33  34
ENDBRANCH  32  33
ENDBRANCH  31  32
ENDBRANCH  30  31
ENDBRANCH   1  30
TORSDOF 20
ENDMDL
MODEL 2
REMARK VINA RESULT:     -11.4      2.594      4.058
REMARK SMILES O=C(/C=C/c1ccc(NC(=O)[C@H]2COc3ccccc3C2)cc1)OCCOCCOCCOC(=O)c1ccc(-c2c3nc(c(-c4ccccc4)c4ccc([nH]4)c(-c4ccccc4)c4nc(c(-c5ccccc5)c5ccc2[nH]5)C=C4)C=C3)cc1
REMARK SMILES IDX 28 1 27 2 26 3 25 4 24 5 2 6 1 7 3 8 4 9 5 10 6 11 23 12
REMARK SMILES IDX 7 13 22 14 8 15 9 16 10 17 11 19 12 20 13 21 21 22 14 23
REMARK SMILES IDX 20 24 15 25 19 26 16 27 18 28 17 29 29 30 30 31 31 32 32 33
REMARK SMILES IDX 33 34 34 35 35 36 36 37 37 38 83 39 38 40 82 41 39 42 40 43
REMARK SMILES IDX 41 44 76 45 42 46 81 47 75 48 77 49 43 50 80 51 74 52 73 53
REMARK SMILES IDX 44 55 66 56 51 57 65 58 52 59 55 60 64 61 78 62 53 63 54 64
REMARK SMILES IDX 63 66 79 67 56 68 45 69 46 70 50 71 47 72 49 73 48 74 67 75
REMARK SMILES IDX 68 76 72 77 69 78 71 79 70 80 57 81 58 82 62 83 59 84 61 85
REMARK SMILES IDX 60 86
REMARK H PARENT 9 18 77 54 55 65
REMARK Flexibility Score: inf
ROOT
ATOM      1  C   UNL A   1      42.542  19.251  25.845  1.00  0.00     0.188 C 
ENDROOT
BRANCH   1   2
ATOM      2  O   UNL A   1      41.859  20.500  25.863  1.00  0.00    -0.376 OA
BRANCH   2   3
ATOM      3  C   UNL A   1      41.153  20.858  27.040  1.00  0.00     0.202 C 
BRANCH   3   4
ATOM      4  C   UNL A   1      39.982  21.822  26.870  1.00  0.00     0.261 C 
BRANCH   4   5
ATOM      5  O   UNL A   1      39.381  21.803  25.568  1.00  0.00    -0.460 OA
BRANCH   5   6
ATOM      6  C   UNL A   1      38.213  21.130  25.378  1.00  0.00     0.330 C 
ATOM      7  O   UNL A   1      38.179  19.968  25.000  1.00  0.00    -0.247 OA
BRANCH   6   8
ATOM      8  C   UNL A   1      37.011  21.985  25.310  1.00  0.00     0.094 C 
ATOM      9  C   UNL A   1      35.886  21.584  24.710  1.00  0.00     0.015 C 
BRANCH   9  10
ATOM     10  C   UNL A   1      34.630  22.322  24.787  1.00  0.00    -0.025 A 
ATOM     11  C   UNL A   1      34.158  22.687  26.052  1.00  0.00     0.010 A 
ATOM     12  C   UNL A   1      33.847  22.566  23.659  1.00  0.00     0.010 A 
ATOM     13  C   UNL A   1      32.889  23.236  26.203  1.00  0.00     0.027 A 
ATOM     14  C   UNL A   1      32.555  23.077  23.812  1.00  0.00     0.027 A 
ATOM     15  C   UNL A   1      32.070  23.390  25.085  1.00  0.00     0.041 A 
BRANCH  15  16
ATOM     16  N   UNL A   1      30.716  23.729  25.226  1.00  0.00    -0.326 N 
ATOM     17  C   UNL A   1      30.255  24.825  25.905  1.00  0.00     0.231 C 
ATOM     18  H   UNL A   1      30.049  23.137  24.807  1.00  0.00     0.169 HD
ATOM     19  O   UNL A   1      29.511  24.698  26.875  1.00  0.00    -0.274 OA
BRANCH  17  20
ATOM     20  C   UNL A   1      30.481  26.179  25.256  1.00  0.00     0.121 C 
ATOM     21  C   UNL A   1      31.770  26.898  25.638  1.00  0.00     0.243 C 
ATOM     22  C   UNL A   1      30.329  26.280  23.744  1.00  0.00     0.056 C 
ATOM     23  O   UNL A   1      31.897  28.232  25.084  1.00  0.00    -0.492 OA
ATOM     24  C   UNL A   1      30.089  27.744  23.535  1.00  0.00    -0.005 A 
ATOM     25  C   UNL A   1      30.892  28.646  24.247  1.00  0.00     0.122 A 
ATOM     26  C   UNL A   1      28.987  28.200  22.810  1.00  0.00     0.007 A 
ATOM     27  C   UNL A   1      30.614  30.007  24.202  1.00  0.00     0.047 A 
ATOM     28  C   UNL A   1      28.673  29.556  22.820  1.00  0.00     0.001 A 
ATOM     29  C   UNL A   1      29.487  30.459  23.508  1.00  0.00     0.004 A 
ENDBRANCH  17  20
ENDBRANCH  15  16
ENDBRANCH   9  10
ENDBRANCH   6   8
ENDBRANCH   5   6
ENDBRANCH   4   5
ENDBRANCH   3   4
ENDBRANCH   2   3
ENDBRANCH   1   2
BRANCH   1  30
ATOM     30  C   UNL A   1      43.851  19.114  25.054  1.00  0.00     0.188 C 
BRANCH  30  31
ATOM     31  O   UNL A   1      44.233  20.097  24.101  1.00  0.00    -0.376 OA
BRANCH  31  32
ATOM     32  C   UNL A   1      44.964  21.246  24.504  1.00  0.00     0.202 C 
BRANCH  32  33
ATOM     33  C   UNL A   1      44.554  22.575  23.874  1.00  0.00     0.261 C 
BRANCH  33  34
ATOM     34  O   UNL A   1      43.775  23.388  24.765  1.00  0.00    -0.460 OA
BRANCH  34  35
ATOM     35  C   UNL A   1      44.288  24.616  25.001  1.00  0.00     0.338 C 
ATOM     36  O   UNL A   1      45.359  25.055  24.623  1.00  0.00    -0.246 OA
BRANCH  35  37
ATOM     37  C   UNL A   1      43.315  25.458  25.725  1.00  0.00     0.060 A 
ATOM     38  C   UNL A   1      43.679  26.787  25.963  1.00  0.00     0.016 A 
ATOM     39  C   UNL A   1      42.154  24.924  26.293  1.00  0.00     0.016 A 
ATOM     40  C   UNL A   1      42.942  27.560  26.854  1.00  0.00     0.010 A 
ATOM     41  C   UNL A   1      41.414  25.702  27.193  1.00  0.00     0.010 A 
ATOM     42  C   UNL A   1      41.845  26.999  27.524  1.00  0.00    -0.014 A 
BRANCH  42  43
ATOM     43  C   UNL A   1      41.322  27.697  28.724  1.00  0.00     0.031 A 
ATOM     44  C   UNL A   1      42.059  27.541  30.030  1.00  0.00     0.074 A 
ATOM     45  C   UNL A   1      40.269  28.528  28.644  1.00  0.00     0.049 A 
ATOM     46  N   UNL A   1      41.840  28.124  31.182  1.00  0.00    -0.248 NA
ATOM     47  C   UNL A   1      43.199  26.608  30.035  1.00  0.00     0.031 C 
ATOM     48  C   UNL A   1      39.499  28.809  27.434  1.00  0.00     0.029 A 
ATOM     49  N   UNL A   1      39.680  29.306  29.609  1.00  0.00    -0.354 N 
ATOM     50  C   UNL A   1      42.811  27.629  32.044  1.00  0.00     0.074 A 
ATOM     51  C   UNL A   1      43.600  26.676  31.294  1.00  0.00     0.031 C 
ATOM     52  C   UNL A   1      38.542  29.707  27.727  1.00  0.00     0.029 A 
ATOM     53  C   UNL A   1      38.623  30.048  29.147  1.00  0.00     0.049 A 
ATOM     54  H   UNL A   1      39.988  29.330  30.544  1.00  0.00     0.167 HD
ATOM     55  C   UNL A   1      43.037  27.942  33.343  1.00  0.00     0.031 A 
ATOM     56  C   UNL A   1      37.812  30.906  29.797  1.00  0.00     0.031 A 
ATOM     57  C   UNL A   1      42.255  28.880  34.100  1.00  0.00     0.049 A 
ATOM     58  C   UNL A   1      38.043  31.189  31.258  1.00  0.00     0.074 A 
ATOM     59  C   UNL A   1      42.414  29.271  35.418  1.00  0.00     0.029 A 
ATOM     60  N   UNL A   1      41.159  29.569  33.607  1.00  0.00    -0.354 N 
ATOM     61  N   UNL A   1      38.984  30.737  32.051  1.00  0.00    -0.248 NA
ATOM     62  C   UNL A   1      37.103  32.117  31.905  1.00  0.00     0.031 C 
ATOM     63  C   UNL A   1      41.384  30.163  35.736  1.00  0.00     0.029 A 
ATOM     64  C   UNL A   1      40.618  30.366  34.600  1.00  0.00     0.049 A 
ATOM     65  H   UNL A   1      40.816  29.503  32.687  1.00  0.00     0.167 HD
ATOM     66  C   UNL A   1      38.771  31.353  33.279  1.00  0.00     0.074 A 
ATOM     67  C   UNL A   1      37.617  32.214  33.124  1.00  0.00     0.031 C 
ATOM     68  C   UNL A   1      39.473  31.221  34.432  1.00  0.00     0.031 A 
BRANCH  55  69
ATOM     69  C   UNL A   1      44.165  27.231  34.034  1.00  0.00    -0.014 A 
ATOM     70  C   UNL A   1      45.437  27.814  34.147  1.00  0.00     0.009 A 
ATOM     71  C   UNL A   1      43.944  25.965  34.599  1.00  0.00     0.009 A 
ATOM     72  C   UNL A   1      46.474  27.129  34.783  1.00  0.00     0.001 A 
ATOM     73  C   UNL A   1      44.977  25.294  35.256  1.00  0.00     0.001 A 
ATOM     74  C   UNL A   1      46.242  25.872  35.339  1.00  0.00     0.000 A 
ENDBRANCH  55  69
BRANCH  56  75
ATOM     75  C   UNL A   1      36.698  31.570  29.072  1.00  0.00    -0.014 A 
ATOM     76  C   UNL A   1      36.778  32.928  28.728  1.00  0.00     0.009 A 
ATOM     77  C   UNL A   1      35.535  30.854  28.752  1.00  0.00     0.009 A 
ATOM     78  C   UNL A   1      35.703  33.562  28.101  1.00  0.00     0.001 A 
ATOM     79  C   UNL A   1      34.472  31.484  28.101  1.00  0.00     0.001 A 
ATOM     80  C   UNL A   1      34.554  32.839  27.786  1.00  0.00     0.000 A 
ENDBRANCH  56  75
BRANCH  68  81
ATOM     81  C   UNL A   1      39.041  32.060  35.602  1.00  0.00    -0.014 A 
ATOM     82  C   UNL A   1      38.156  31.564  36.571  1.00  0.00     0.009 A 
ATOM     83  C   UNL A   1      39.556  33.357  35.751  1.00  0.00     0.009 A 
ATOM     84  C   UNL A   1      37.767  32.365  37.647  1.00  0.00     0.001 A 
ATOM     85  C   UNL A   1      39.188  34.145  36.842  1.00  0.00     0.001 A 
ATOM     86  C   UNL A   1      38.287  33.653  37.784  1.00  0.00     0.000 A 
ENDBRANCH  68  81
ENDBRANCH  42  43
ENDBRANCH  35  37
ENDBRANCH  34  35
ENDBRANCH  33  34
ENDBRANCH  32  33
ENDBRANCH  31  32
ENDBRANCH  30  31
ENDBRANCH   1  30
TORSDOF 20
ENDMDL
MODEL 3
REMARK VINA RESULT:     -11.2      5.849     11.578
REMARK SMILES O=C(/C=C/c1ccc(NC(=O)[C@H]2COc3ccccc3C2)cc1)OCCOCCOCCOC(=O)c1ccc(-c2c3nc(c(-c4ccccc4)c4ccc([nH]4)c(-c4ccccc4)c4nc(c(-c5ccccc5)c5ccc2[nH]5)C=C4)C=C3)cc1
REMARK SMILES IDX 28 1 27 2 26 3 25 4 24 5 2 6 1 7 3 8 4 9 5 10 6 11 23 12
REMARK SMILES IDX 7 13 22 14 8 15 9 16 10 17 11 19 12 20 13 21 21 22 14 23
REMARK SMILES IDX 20 24 15 25 19 26 16 27 18 28 17 29 29 30 30 31 31 32 32 33
REMARK SMILES IDX 33 34 34 35 35 36 36 37 37 38 83 39 38 40 82 41 39 42 40 43
REMARK SMILES IDX 41 44 76 45 42 46 81 47 75 48 77 49 43 50 80 51 74 52 73 53
REMARK SMILES IDX 44 55 66 56 51 57 65 58 52 59 55 60 64 61 78 62 53 63 54 64
REMARK SMILES IDX 63 66 79 67 56 68 45 69 46 70 50 71 47 72 49 73 48 74 67 75
REMARK SMILES IDX 68 76 72 77 69 78 71 79 70 80 57 81 58 82 62 83 59 84 61 85
REMARK SMILES IDX 60 86
REMARK H PARENT 9 18 77 54 55 65
REMARK Flexibility Score: inf
ROOT
ATOM      1  C   UNL A   1      32.925  36.033  32.028  1.00  0.00     0.188 C 
ENDROOT
BRANCH   1   2
ATOM      2  O   UNL A   1      32.901  36.815  30.839  1.00  0.00    -0.376 OA
BRANCH   2   3
ATOM      3  C   UNL A   1      33.127  36.158  29.602  1.00  0.00     0.202 C 
BRANCH   3   4
ATOM      4  C   UNL A   1      33.458  34.670  29.668  1.00  0.00     0.261 C 
BRANCH   4   5
ATOM      5  O   UNL A   1      33.485  34.011  28.394  1.00  0.00    -0.460 OA
BRANCH   5   6
ATOM      6  C   UNL A   1      34.366  32.996  28.183  1.00  0.00     0.330 C 
ATOM      7  O   UNL A   1      35.576  33.147  28.273  1.00  0.00    -0.247 OA
BRANCH   6   8
ATOM      8  C   UNL A   1      33.798  31.817  27.499  1.00  0.00     0.094 C 
ATOM      9  C   UNL A   1      34.392  30.620  27.533  1.00  0.00     0.015 C 
BRANCH   9  10
ATOM     10  C   UNL A   1      33.766  29.401  27.030  1.00  0.00    -0.025 A 
ATOM     11  C   UNL A   1      34.254  28.856  25.838  1.00  0.00     0.010 A 
ATOM     12  C   UNL A   1      32.641  28.844  27.636  1.00  0.00     0.010 A 
ATOM     13  C   UNL A   1      33.592  27.801  25.219  1.00  0.00     0.027 A 
ATOM     14  C   UNL A   1      31.949  27.814  26.994  1.00  0.00     0.027 A 
ATOM     15  C   UNL A   1      32.412  27.309  25.776  1.00  0.00     0.041 A 
BRANCH  15  16
ATOM     16  N   UNL A   1      31.605  26.404  25.070  1.00  0.00    -0.326 N 
ATOM     17  C   UNL A   1      30.266  26.571  24.841  1.00  0.00     0.231 C 
ATOM     18  H   UNL A   1      32.032  25.591  24.714  1.00  0.00     0.169 HD
ATOM     19  O   UNL A   1      29.448  25.755  25.262  1.00  0.00    -0.274 OA
BRANCH  17  20
ATOM     20  C   UNL A   1      29.870  27.638  23.838  1.00  0.00     0.121 C 
ATOM     21  C   UNL A   1      30.636  27.635  22.519  1.00  0.00     0.243 C 
ATOM     22  C   UNL A   1      28.391  27.795  23.509  1.00  0.00     0.056 C 
ATOM     23  O   UNL A   1      30.305  28.734  21.632  1.00  0.00    -0.492 OA
ATOM     24  C   UNL A   1      28.321  29.188  22.961  1.00  0.00    -0.005 A 
ATOM     25  C   UNL A   1      29.314  29.584  22.055  1.00  0.00     0.122 A 
ATOM     26  C   UNL A   1      27.421  30.123  23.475  1.00  0.00     0.007 A 
ATOM     27  C   UNL A   1      29.380  30.906  21.632  1.00  0.00     0.047 A 
ATOM     28  C   UNL A   1      27.531  31.459  23.100  1.00  0.00     0.001 A 
ATOM     29  C   UNL A   1      28.503  31.849  22.176  1.00  0.00     0.004 A 
ENDBRANCH  17  20
ENDBRANCH  15  16
ENDBRANCH   9  10
ENDBRANCH   6   8
ENDBRANCH   5   6
ENDBRANCH   4   5
ENDBRANCH   3   4
ENDBRANCH   2   3
ENDBRANCH   1   2
BRANCH   1  30
ATOM     30  C   UNL A   1      33.853  36.436  33.183  1.00  0.00     0.188 C 
BRANCH  30  31
ATOM     31  O   UNL A   1      35.219  36.041  33.191  1.00  0.00    -0.376 OA
BRANCH  31  32
ATOM     32  C   UNL A   1      35.633  34.866  32.510  1.00  0.00     0.202 C 
BRANCH  32  33
ATOM     33  C   UNL A   1      36.767  34.068  33.149  1.00  0.00     0.261 C 
BRANCH  33  34
ATOM     34  O   UNL A   1      36.383  32.719  33.457  1.00  0.00    -0.460 OA
BRANCH  34  35
ATOM     35  C   UNL A   1      35.734  32.075  32.461  1.00  0.00     0.338 C 
ATOM     36  O   UNL A   1      34.589  32.257  32.088  1.00  0.00    -0.246 OA
BRANCH  35  37
ATOM     37  C   UNL A   1      36.640  31.142  31.765  1.00  0.00     0.060 A 
ATOM     38  C   UNL A   1      37.705  30.619  32.505  1.00  0.00     0.016 A 
ATOM     39  C   UNL A   1      36.547  30.908  30.389  1.00  0.00     0.016 A 
ATOM     40  C   UNL A   1      38.738  29.950  31.858  1.00  0.00     0.010 A 
ATOM     41  C   UNL A   1      37.589  30.236  29.738  1.00  0.00     0.010 A 
ATOM     42  C   UNL A   1      38.717  29.814  30.463  1.00  0.00    -0.014 A 
BRANCH  42  43
ATOM     43  C   UNL A   1      39.978  29.449  29.772  1.00  0.00     0.031 A 
ATOM     44  C   UNL A   1      40.066  28.110  29.086  1.00  0.00     0.074 A 
ATOM     45  C   UNL A   1      40.996  30.321  29.671  1.00  0.00     0.049 A 
ATOM     46  N   UNL A   1      41.028  27.615  28.348  1.00  0.00    -0.248 NA
ATOM     47  C   UNL A   1      38.910  27.211  29.248  1.00  0.00     0.031 C 
ATOM     48  C   UNL A   1      41.022  31.666  30.243  1.00  0.00     0.029 A 
ATOM     49  N   UNL A   1      42.203  30.202  29.029  1.00  0.00    -0.354 N 
ATOM     50  C   UNL A   1      40.594  26.353  27.961  1.00  0.00     0.074 A 
ATOM     51  C   UNL A   1      39.298  26.143  28.569  1.00  0.00     0.031 C 
ATOM     52  C   UNL A   1      42.186  32.254  29.916  1.00  0.00     0.029 A 
ATOM     53  C   UNL A   1      42.992  31.321  29.129  1.00  0.00     0.049 A 
ATOM     54  H   UNL A   1      42.477  29.392  28.541  1.00  0.00     0.167 HD
ATOM     55  C   UNL A   1      41.210  25.448  27.163  1.00  0.00     0.031 A 
ATOM     56  C   UNL A   1      44.224  31.563  28.641  1.00  0.00     0.031 A 
ATOM     57  C   UNL A   1      42.501  25.642  26.560  1.00  0.00     0.049 A 
ATOM     58  C   UNL A   1      44.916  30.516  27.811  1.00  0.00     0.074 A 
ATOM     59  C   UNL A   1      43.202  24.787  25.728  1.00  0.00     0.029 A 
ATOM     60  N   UNL A   1      43.288  26.768  26.733  1.00  0.00    -0.354 N 
ATOM     61  N   UNL A   1      44.481  29.340  27.427  1.00  0.00    -0.248 NA
ATOM     62  C   UNL A   1      46.268  30.842  27.332  1.00  0.00     0.031 C 
ATOM     63  C   UNL A   1      44.436  25.378  25.434  1.00  0.00     0.029 A 
ATOM     64  C   UNL A   1      44.478  26.622  26.041  1.00  0.00     0.049 A 
ATOM     65  H   UNL A   1      43.038  27.556  27.267  1.00  0.00     0.167 HD
ATOM     66  C   UNL A   1      45.489  28.803  26.635  1.00  0.00     0.074 A 
ATOM     67  C   UNL A   1      46.554  29.783  26.587  1.00  0.00     0.031 C 
ATOM     68  C   UNL A   1      45.527  27.607  25.998  1.00  0.00     0.031 A 
BRANCH  55  69
ATOM     69  C   UNL A   1      40.500  24.146  26.926  1.00  0.00    -0.014 A 
ATOM     70  C   UNL A   1      39.235  24.105  26.320  1.00  0.00     0.009 A 
ATOM     71  C   UNL A   1      41.117  22.942  27.296  1.00  0.00     0.009 A 
ATOM     72  C   UNL A   1      38.587  22.883  26.121  1.00  0.00     0.001 A 
ATOM     73  C   UNL A   1      40.478  21.721  27.073  1.00  0.00     0.001 A 
ATOM     74  C   UNL A   1      39.211  21.694  26.494  1.00  0.00     0.000 A 
ENDBRANCH  55  69
BRANCH  56  75
ATOM     75  C   UNL A   1      44.892  32.860  28.920  1.00  0.00    -0.014 A 
ATOM     76  C   UNL A   1      44.432  34.045  28.324  1.00  0.00     0.009 A 
ATOM     77  C   UNL A   1      46.015  32.912  29.759  1.00  0.00     0.009 A 
ATOM     78  C   UNL A   1      45.101  35.251  28.542  1.00  0.00     0.001 A 
ATOM     79  C   UNL A   1      46.667  34.124  29.996  1.00  0.00     0.001 A 
ATOM     80  C   UNL A   1      46.215  35.290  29.379  1.00  0.00     0.000 A 
ENDBRANCH  56  75
BRANCH  68  81
ATOM     81  C   UNL A   1      46.738  27.310  25.159  1.00  0.00    -0.014 A 
ATOM     82  C   UNL A   1      47.765  26.476  25.626  1.00  0.00     0.009 A 
ATOM     83  C   UNL A   1      46.833  27.849  23.867  1.00  0.00     0.009 A 
ATOM     84  C   UNL A   1      48.882  26.219  24.828  1.00  0.00     0.001 A 
ATOM     85  C   UNL A   1      47.937  27.568  23.061  1.00  0.00     0.001 A 
ATOM     86  C   UNL A   1      48.965  26.761  23.545  1.00  0.00     0.000 A 
ENDBRANCH  68  81
ENDBRANCH  42  43
ENDBRANCH  35  37
ENDBRANCH  34  35
ENDBRANCH  33  34
ENDBRANCH  32  33
ENDBRANCH  31  32
ENDBRANCH  30  31
ENDBRANCH   1  30
TORSDOF 20
ENDMDL
