MODEL 1
REMARK VINA RESULT:      -9.3      0.000      0.000
REMARK SMILES COc1ccc(C)cc1Nc1nc(OCC(=O)OCCOCCOCCOC(=O)c2ccc(-c3c4nc(c(-c5ccccc5)c5ccc([nH]5)c(-c5ccccc5)c5nc(c(-c6ccccc6)c6ccc3[nH]6)C=C5)C=C4)cc2)cc(C(C)(C)C)n1
REMARK SMILES IDX 21 1 20 2 19 3 18 4 16 5 17 6 15 7 14 8 13 9 11 10 12 11
REMARK SMILES IDX 84 12 79 13 78 14 10 15 9 17 3 18 4 19 5 20 8 21 6 22 7 23
REMARK SMILES IDX 2 24 1 25 80 26 81 27 82 28 83 29 22 30 23 31 24 32 25 33
REMARK SMILES IDX 26 34 27 35 28 36 29 37 30 38 31 39 77 40 32 41 76 42 33 43
REMARK SMILES IDX 34 44 35 45 70 46 36 47 75 48 69 49 71 50 37 51 74 52 68 53
REMARK SMILES IDX 67 54 38 56 60 57 45 58 59 59 46 60 49 61 58 62 72 63 47 64
REMARK SMILES IDX 48 65 57 67 73 68 50 69 39 70 40 71 44 72 41 73 43 74 42 75
REMARK SMILES IDX 61 76 62 77 66 78 63 79 65 80 64 81 51 82 52 83 56 84 53 85
REMARK SMILES IDX 55 86 54 87
REMARK H PARENT 10 16 71 55 49 66
REMARK Flexibility Score: inf
ROOT
ATOM      1  O   UNL A   1      45.773  21.289  36.485  1.00  0.00    -0.376 OA
ENDROOT
BRANCH   1   2
ATOM      2  C   UNL A   1      46.040  19.900  36.783  1.00  0.00     0.202 C 
BRANCH   2   3
ATOM      3  C   UNL A   1      47.302  19.696  37.737  1.00  0.00     0.261 C 
BRANCH   3   4
ATOM      4  O   UNL A   1      47.231  19.506  39.313  1.00  0.00    -0.461 OA
BRANCH   4   5
ATOM      5  C   UNL A   1      47.856  18.684  40.277  1.00  0.00     0.344 C 
ATOM      6  O   UNL A   1      48.942  18.114  40.218  1.00  0.00    -0.248 OA
BRANCH   5   7
ATOM      7  C   UNL A   1      47.197  18.593  41.630  1.00  0.00     0.353 C 
BRANCH   7   8
ATOM      8  O   UNL A   1      47.362  17.221  42.138  1.00  0.00    -0.466 OA
BRANCH   8   9
ATOM      9  C   UNL A   1      46.398  16.830  43.037  1.00  0.00     0.218 A 
ATOM     10  C   UNL A   1      44.190  16.463  43.335  1.00  0.00     0.230 A 
ATOM     11  N   UNL A   1      45.217  16.553  42.506  1.00  0.00    -0.177 NA
ATOM     12  N   UNL A   1      44.288  16.547  44.666  1.00  0.00    -0.217 NA
ATOM     13  C   UNL A   1      45.517  16.662  45.227  1.00  0.00     0.055 A 
ATOM     14  C   UNL A   1      46.634  16.818  44.408  1.00  0.00     0.093 A 
BRANCH  10  15
ATOM     15  N   UNL A   1      43.002  16.210  42.690  1.00  0.00    -0.321 N 
ATOM     16  H   UNL A   1      42.442  17.008  42.561  1.00  0.00     0.170 HD
BRANCH  15  17
ATOM     17  C   UNL A   1      42.434  15.035  42.181  1.00  0.00     0.084 A 
ATOM     18  C   UNL A   1      42.149  15.010  40.799  1.00  0.00     0.142 A 
ATOM     19  C   UNL A   1      41.589  13.877  40.218  1.00  0.00     0.049 A 
ATOM     20  C   UNL A   1      41.266  12.779  41.012  1.00  0.00     0.007 A 
ATOM     21  C   UNL A   1      42.139  13.912  42.963  1.00  0.00     0.033 A 
ATOM     22  C   UNL A   1      41.533  12.785  42.385  1.00  0.00    -0.049 A 
ATOM     23  C   UNL A   1      41.113  11.611  43.215  1.00  0.00     0.044 C 
BRANCH  18  24
ATOM     24  O   UNL A   1      42.479  16.160  40.117  1.00  0.00    -0.495 OA
ATOM     25  C   UNL A   1      43.433  16.022  39.075  1.00  0.00     0.278 C 
ENDBRANCH  18  24
ENDBRANCH  15  17
ENDBRANCH  10  15
BRANCH  13  26
ATOM     26  C   UNL A   1      45.530  16.608  46.773  1.00  0.00     0.004 C 
ATOM     27  C   UNL A   1      44.354  17.396  47.380  1.00  0.00     0.017 C 
ATOM     28  C   UNL A   1      45.337  15.146  47.236  1.00  0.00     0.017 C 
ATOM     29  C   UNL A   1      46.805  17.162  47.439  1.00  0.00     0.017 C 
ENDBRANCH  13  26
ENDBRANCH   8   9
ENDBRANCH   7   8
ENDBRANCH   5   7
ENDBRANCH   4   5
ENDBRANCH   3   4
ENDBRANCH   2   3
ENDBRANCH   1   2
BRANCH   1  30
ATOM     30  C   UNL A   1      46.218  21.563  35.172  1.00  0.00     0.188 C 
BRANCH  30  31
ATOM     31  C   UNL A   1      46.982  22.837  34.900  1.00  0.00     0.188 C 
BRANCH  31  32
ATOM     32  O   UNL A   1      48.308  22.726  34.407  1.00  0.00    -0.376 OA
BRANCH  32  33
ATOM     33  C   UNL A   1      49.182  23.855  34.475  1.00  0.00     0.202 C 
BRANCH  33  34
ATOM     34  C   UNL A   1      49.793  24.360  33.154  1.00  0.00     0.261 C 
BRANCH  34  35
ATOM     35  O   UNL A   1      49.050  25.494  32.647  1.00  0.00    -0.460 OA
BRANCH  35  36
ATOM     36  C   UNL A   1      49.728  26.691  32.667  1.00  0.00     0.338 C 
ATOM     37  O   UNL A   1      50.691  26.922  33.325  1.00  0.00    -0.246 OA
BRANCH  36  38
ATOM     38  C   UNL A   1      49.272  27.426  31.442  1.00  0.00     0.060 A 
ATOM     39  C   UNL A   1      48.568  28.618  31.325  1.00  0.00     0.016 A 
ATOM     40  C   UNL A   1      49.319  26.649  30.337  1.00  0.00     0.016 A 
ATOM     41  C   UNL A   1      47.731  28.877  30.179  1.00  0.00     0.010 A 
ATOM     42  C   UNL A   1      48.242  26.782  29.467  1.00  0.00     0.010 A 
ATOM     43  C   UNL A   1      47.359  27.840  29.315  1.00  0.00    -0.014 A 
BRANCH  43  44
ATOM     44  C   UNL A   1      45.901  27.585  28.800  1.00  0.00     0.031 A 
ATOM     45  C   UNL A   1      44.444  27.330  29.449  1.00  0.00     0.074 A 
ATOM     46  C   UNL A   1      45.903  27.774  27.448  1.00  0.00     0.049 A 
ATOM     47  N   UNL A   1      43.454  26.873  28.708  1.00  0.00    -0.248 NA
ATOM     48  C   UNL A   1      43.845  27.517  30.809  1.00  0.00     0.031 C 
ATOM     49  C   UNL A   1      44.810  27.906  26.500  1.00  0.00     0.029 A 
ATOM     50  N   UNL A   1      47.025  27.702  26.605  1.00  0.00    -0.354 N 
ATOM     51  C   UNL A   1      42.241  27.091  29.364  1.00  0.00     0.074 A 
ATOM     52  C   UNL A   1      42.545  27.272  30.719  1.00  0.00     0.031 C 
ATOM     53  C   UNL A   1      45.263  27.582  25.275  1.00  0.00     0.029 A 
ATOM     54  C   UNL A   1      46.638  27.128  25.399  1.00  0.00     0.049 A 
ATOM     55  H   UNL A   1      47.934  28.007  26.831  1.00  0.00     0.167 HD
ATOM     56  C   UNL A   1      41.087  27.336  28.688  1.00  0.00     0.031 A 
ATOM     57  C   UNL A   1      47.125  25.888  25.081  1.00  0.00     0.031 A 
ATOM     58  C   UNL A   1      41.185  26.761  27.368  1.00  0.00     0.049 A 
ATOM     59  C   UNL A   1      46.058  24.806  25.136  1.00  0.00     0.074 A 
ATOM     60  C   UNL A   1      41.261  27.248  26.081  1.00  0.00     0.029 A 
ATOM     61  N   UNL A   1      41.581  25.434  27.313  1.00  0.00    -0.354 N 
ATOM     62  N   UNL A   1      44.787  25.041  25.320  1.00  0.00    -0.248 NA
ATOM     63  C   UNL A   1      46.330  23.373  25.034  1.00  0.00     0.031 C 
ATOM     64  C   UNL A   1      41.907  26.240  25.294  1.00  0.00     0.029 A 
ATOM     65  C   UNL A   1      42.147  25.133  26.093  1.00  0.00     0.049 A 
ATOM     66  H   UNL A   1      41.471  24.789  28.049  1.00  0.00     0.167 HD
ATOM     67  C   UNL A   1      44.114  23.865  25.526  1.00  0.00     0.074 A 
ATOM     68  C   UNL A   1      45.110  22.846  25.251  1.00  0.00     0.031 C 
ATOM     69  C   UNL A   1      42.819  23.838  25.966  1.00  0.00     0.031 A 
BRANCH  56  70
ATOM     70  C   UNL A   1      39.978  28.259  29.190  1.00  0.00    -0.014 A 
ATOM     71  C   UNL A   1      39.149  27.827  30.241  1.00  0.00     0.009 A 
ATOM     72  C   UNL A   1      39.590  29.484  28.594  1.00  0.00     0.009 A 
ATOM     73  C   UNL A   1      38.015  28.553  30.652  1.00  0.00     0.001 A 
ATOM     74  C   UNL A   1      38.480  30.233  29.023  1.00  0.00     0.001 A 
ATOM     75  C   UNL A   1      37.682  29.759  30.048  1.00  0.00     0.000 A 
ENDBRANCH  56  70
BRANCH  57  76
ATOM     76  C   UNL A   1      48.603  25.729  25.312  1.00  0.00    -0.014 A 
ATOM     77  C   UNL A   1      49.467  26.393  24.408  1.00  0.00     0.009 A 
ATOM     78  C   UNL A   1      49.185  25.194  26.472  1.00  0.00     0.009 A 
ATOM     79  C   UNL A   1      50.821  26.611  24.695  1.00  0.00     0.001 A 
ATOM     80  C   UNL A   1      50.551  25.404  26.757  1.00  0.00     0.001 A 
ATOM     81  C   UNL A   1      51.362  26.127  25.879  1.00  0.00     0.000 A 
ENDBRANCH  57  76
BRANCH  69  82
ATOM     82  C   UNL A   1      42.056  22.600  26.411  1.00  0.00    -0.014 A 
ATOM     83  C   UNL A   1      40.786  22.229  25.955  1.00  0.00     0.009 A 
ATOM     84  C   UNL A   1      42.713  21.667  27.252  1.00  0.00     0.009 A 
ATOM     85  C   UNL A   1      40.185  21.026  26.359  1.00  0.00     0.001 A 
ATOM     86  C   UNL A   1      42.153  20.434  27.593  1.00  0.00     0.001 A 
ATOM     87  C   UNL A   1      40.874  20.123  27.165  1.00  0.00     0.000 A 
ENDBRANCH  69  82
ENDBRANCH  43  44
ENDBRANCH  36  38
ENDBRANCH  35  36
ENDBRANCH  34  35
ENDBRANCH  33  34
ENDBRANCH  32  33
ENDBRANCH  31  32
ENDBRANCH  30  31
ENDBRANCH   1  30
TORSDOF 23
ENDMDL
MODEL 2
REMARK VINA RESULT:      -8.9      8.032     15.996
REMARK SMILES COc1ccc(C)cc1Nc1nc(OCC(=O)OCCOCCOCCOC(=O)c2ccc(-c3c4nc(c(-c5ccccc5)c5ccc([nH]5)c(-c5ccccc5)c5nc(c(-c6ccccc6)c6ccc3[nH]6)C=C5)C=C4)cc2)cc(C(C)(C)C)n1
REMARK SMILES IDX 21 1 20 2 19 3 18 4 16 5 17 6 15 7 14 8 13 9 11 10 12 11
REMARK SMILES IDX 84 12 79 13 78 14 10 15 9 17 3 18 4 19 5 20 8 21 6 22 7 23
REMARK SMILES IDX 2 24 1 25 80 26 81 27 82 28 83 29 22 30 23 31 24 32 25 33
REMARK SMILES IDX 26 34 27 35 28 36 29 37 30 38 31 39 77 40 32 41 76 42 33 43
REMARK SMILES IDX 34 44 35 45 70 46 36 47 75 48 69 49 71 50 37 51 74 52 68 53
REMARK SMILES IDX 67 54 38 56 60 57 45 58 59 59 46 60 49 61 58 62 72 63 47 64
REMARK SMILES IDX 48 65 57 67 73 68 50 69 39 70 40 71 44 72 41 73 43 74 42 75
REMARK SMILES IDX 61 76 62 77 66 78 63 79 65 80 64 81 51 82 52 83 56 84 53 85
REMARK SMILES IDX 55 86 54 87
REMARK H PARENT 10 16 71 55 49 66
REMARK Flexibility Score: inf
ROOT
ATOM      1  O   UNL A   1      35.612  33.213  30.210  1.00  0.00    -0.376 OA
ENDROOT
BRANCH   1   2
ATOM      2  C   UNL A   1      36.515  32.348  29.485  1.00  0.00     0.202 C 
BRANCH   2   3
ATOM      3  C   UNL A   1      35.932  31.873  28.078  1.00  0.00     0.261 C 
BRANCH   3   4
ATOM      4  O   UNL A   1      34.442  31.380  27.829  1.00  0.00    -0.461 OA
BRANCH   4   5
ATOM      5  C   UNL A   1      33.816  30.222  27.319  1.00  0.00     0.344 C 
ATOM      6  O   UNL A   1      34.075  29.042  27.541  1.00  0.00    -0.248 OA
BRANCH   5   7
ATOM      7  C   UNL A   1      32.563  30.423  26.506  1.00  0.00     0.353 C 
BRANCH   7   8
ATOM      8  O   UNL A   1      32.782  29.860  25.163  1.00  0.00    -0.466 OA
BRANCH   8   9
ATOM      9  C   UNL A   1      31.687  29.223  24.630  1.00  0.00     0.218 A 
ATOM     10  C   UNL A   1      30.939  27.311  23.689  1.00  0.00     0.230 A 
ATOM     11  N   UNL A   1      31.828  27.917  24.460  1.00  0.00    -0.177 NA
ATOM     12  N   UNL A   1      29.873  27.913  23.153  1.00  0.00    -0.217 NA
ATOM     13  C   UNL A   1      29.629  29.211  23.461  1.00  0.00     0.055 A 
ATOM     14  C   UNL A   1      30.556  29.922  24.222  1.00  0.00     0.093 A 
BRANCH  10  15
ATOM     15  N   UNL A   1      31.188  25.966  23.542  1.00  0.00    -0.321 N 
ATOM     16  H   UNL A   1      31.263  25.677  22.604  1.00  0.00     0.170 HD
BRANCH  15  17
ATOM     17  C   UNL A   1      31.354  24.927  24.467  1.00  0.00     0.084 A 
ATOM     18  C   UNL A   1      32.588  24.244  24.445  1.00  0.00     0.142 A 
ATOM     19  C   UNL A   1      32.832  23.204  25.336  1.00  0.00     0.049 A 
ATOM     20  C   UNL A   1      31.834  22.806  26.224  1.00  0.00     0.007 A 
ATOM     21  C   UNL A   1      30.373  24.543  25.389  1.00  0.00     0.033 A 
ATOM     22  C   UNL A   1      30.602  23.465  26.258  1.00  0.00    -0.049 A 
ATOM     23  C   UNL A   1      29.533  22.966  27.183  1.00  0.00     0.044 C 
BRANCH  18  24
ATOM     24  O   UNL A   1      33.487  24.699  23.506  1.00  0.00    -0.495 OA
ATOM     25  C   UNL A   1      34.718  23.996  23.421  1.00  0.00     0.278 C 
ENDBRANCH  18  24
ENDBRANCH  15  17
ENDBRANCH  10  15
BRANCH  13  26
ATOM     26  C   UNL A   1      28.297  29.769  22.906  1.00  0.00     0.004 C 
ATOM     27  C   UNL A   1      27.141  28.769  23.091  1.00  0.00     0.017 C 
ATOM     28  C   UNL A   1      27.894  31.027  23.709  1.00  0.00     0.017 C 
ATOM     29  C   UNL A   1      28.312  30.135  21.409  1.00  0.00     0.017 C 
ENDBRANCH  13  26
ENDBRANCH   8   9
ENDBRANCH   7   8
ENDBRANCH   5   7
ENDBRANCH   4   5
ENDBRANCH   3   4
ENDBRANCH   2   3
ENDBRANCH   1   2
BRANCH   1  30
ATOM     30  C   UNL A   1      35.051  32.485  31.283  1.00  0.00     0.188 C 
BRANCH  30  31
ATOM     31  C   UNL A   1      35.966  31.829  32.290  1.00  0.00     0.188 C 
BRANCH  31  32
ATOM     32  O   UNL A   1      36.064  32.415  33.579  1.00  0.00    -0.376 OA
BRANCH  32  33
ATOM     33  C   UNL A   1      37.278  32.282  34.323  1.00  0.00     0.202 C 
BRANCH  33  34
ATOM     34  C   UNL A   1      38.408  31.445  33.695  1.00  0.00     0.261 C 
BRANCH  34  35
ATOM     35  O   UNL A   1      38.610  30.218  34.438  1.00  0.00    -0.460 OA
BRANCH  35  36
ATOM     36  C   UNL A   1      39.059  30.385  35.727  1.00  0.00     0.338 C 
ATOM     37  O   UNL A   1      38.382  30.327  36.702  1.00  0.00    -0.246 OA
BRANCH  36  38
ATOM     38  C   UNL A   1      40.549  30.231  35.651  1.00  0.00     0.060 A 
ATOM     39  C   UNL A   1      41.535  31.180  35.411  1.00  0.00     0.016 A 
ATOM     40  C   UNL A   1      40.920  28.938  35.515  1.00  0.00     0.016 A 
ATOM     41  C   UNL A   1      42.792  30.809  34.808  1.00  0.00     0.010 A 
ATOM     42  C   UNL A   1      41.960  28.705  34.622  1.00  0.00     0.010 A 
ATOM     43  C   UNL A   1      42.944  29.572  34.172  1.00  0.00    -0.014 A 
BRANCH  43  44
ATOM     44  C   UNL A   1      43.594  29.365  32.761  1.00  0.00     0.031 A 
ATOM     45  C   UNL A   1      43.294  29.822  31.241  1.00  0.00     0.074 A 
ATOM     46  C   UNL A   1      44.796  28.745  32.948  1.00  0.00     0.049 A 
ATOM     47  N   UNL A   1      43.907  29.234  30.233  1.00  0.00    -0.248 NA
ATOM     48  C   UNL A   1      42.430  30.867  30.602  1.00  0.00     0.031 C 
ATOM     49  C   UNL A   1      45.910  28.528  32.042  1.00  0.00     0.029 A 
ATOM     50  N   UNL A   1      45.167  27.983  34.069  1.00  0.00    -0.354 N 
ATOM     51  C   UNL A   1      43.787  30.024  29.089  1.00  0.00     0.074 A 
ATOM     52  C   UNL A   1      42.700  30.879  29.304  1.00  0.00     0.031 C 
ATOM     53  C   UNL A   1      46.628  27.481  32.487  1.00  0.00     0.029 A 
ATOM     54  C   UNL A   1      45.947  26.915  33.641  1.00  0.00     0.049 A 
ATOM     55  H   UNL A   1      44.915  28.174  35.002  1.00  0.00     0.167 HD
ATOM     56  C   UNL A   1      44.753  30.063  28.133  1.00  0.00     0.031 A 
ATOM     57  C   UNL A   1      45.439  25.649  33.755  1.00  0.00     0.031 A 
ATOM     58  C   UNL A   1      45.506  28.833  28.175  1.00  0.00     0.049 A 
ATOM     59  C   UNL A   1      45.096  25.031  32.409  1.00  0.00     0.074 A 
ATOM     60  C   UNL A   1      46.791  28.472  28.517  1.00  0.00     0.029 A 
ATOM     61  N   UNL A   1      44.760  27.664  28.151  1.00  0.00    -0.354 N 
ATOM     62  N   UNL A   1      45.384  25.576  31.258  1.00  0.00    -0.248 NA
ATOM     63  C   UNL A   1      44.363  23.776  32.240  1.00  0.00     0.031 C 
ATOM     64  C   UNL A   1      46.747  27.091  28.897  1.00  0.00     0.029 A 
ATOM     65  C   UNL A   1      45.458  26.616  28.711  1.00  0.00     0.049 A 
ATOM     66  H   UNL A   1      43.851  27.592  27.782  1.00  0.00     0.167 HD
ATOM     67  C   UNL A   1      44.770  24.890  30.243  1.00  0.00     0.074 A 
ATOM     68  C   UNL A   1      44.215  23.723  30.903  1.00  0.00     0.031 C 
ATOM     69  C   UNL A   1      44.719  25.378  28.966  1.00  0.00     0.031 A 
BRANCH  56  70
ATOM     70  C   UNL A   1      45.101  31.306  27.315  1.00  0.00    -0.014 A 
ATOM     71  C   UNL A   1      46.299  31.990  27.583  1.00  0.00     0.009 A 
ATOM     72  C   UNL A   1      44.247  31.947  26.384  1.00  0.00     0.009 A 
ATOM     73  C   UNL A   1      46.613  33.224  26.981  1.00  0.00     0.001 A 
ATOM     74  C   UNL A   1      44.570  33.161  25.751  1.00  0.00     0.001 A 
ATOM     75  C   UNL A   1      45.752  33.808  26.061  1.00  0.00     0.000 A 
ENDBRANCH  56  70
BRANCH  57  76
ATOM     76  C   UNL A   1      44.800  25.359  35.086  1.00  0.00    -0.014 A 
ATOM     77  C   UNL A   1      45.600  25.557  36.237  1.00  0.00     0.009 A 
ATOM     78  C   UNL A   1      43.427  25.154  35.292  1.00  0.00     0.009 A 
ATOM     79  C   UNL A   1      45.049  25.656  37.520  1.00  0.00     0.001 A 
ATOM     80  C   UNL A   1      42.871  25.242  36.587  1.00  0.00     0.001 A 
ATOM     81  C   UNL A   1      43.679  25.511  37.695  1.00  0.00     0.000 A 
ENDBRANCH  57  76
BRANCH  69  82
ATOM     82  C   UNL A   1      43.900  24.797  27.824  1.00  0.00    -0.014 A 
ATOM     83  C   UNL A   1      44.428  24.150  26.700  1.00  0.00     0.009 A 
ATOM     84  C   UNL A   1      42.487  24.781  27.944  1.00  0.00     0.009 A 
ATOM     85  C   UNL A   1      43.596  23.573  25.729  1.00  0.00     0.001 A 
ATOM     86  C   UNL A   1      41.659  24.139  27.022  1.00  0.00     0.001 A 
ATOM     87  C   UNL A   1      42.214  23.553  25.897  1.00  0.00     0.000 A 
ENDBRANCH  69  82
ENDBRANCH  43  44
ENDBRANCH  36  38
ENDBRANCH  35  36
ENDBRANCH  34  35
ENDBRANCH  33  34
ENDBRANCH  32  33
ENDBRANCH  31  32
ENDBRANCH  30  31
ENDBRANCH   1  30
TORSDOF 23
ENDMDL
MODEL 3
REMARK VINA RESULT:      -8.8     10.144     15.650
REMARK SMILES COc1ccc(C)cc1Nc1nc(OCC(=O)OCCOCCOCCOC(=O)c2ccc(-c3c4nc(c(-c5ccccc5)c5ccc([nH]5)c(-c5ccccc5)c5nc(c(-c6ccccc6)c6ccc3[nH]6)C=C5)C=C4)cc2)cc(C(C)(C)C)n1
REMARK SMILES IDX 21 1 20 2 19 3 18 4 16 5 17 6 15 7 14 8 13 9 11 10 12 11
REMARK SMILES IDX 84 12 79 13 78 14 10 15 9 17 3 18 4 19 5 20 8 21 6 22 7 23
REMARK SMILES IDX 2 24 1 25 80 26 81 27 82 28 83 29 22 30 23 31 24 32 25 33
REMARK SMILES IDX 26 34 27 35 28 36 29 37 30 38 31 39 77 40 32 41 76 42 33 43
REMARK SMILES IDX 34 44 35 45 70 46 36 47 75 48 69 49 71 50 37 51 74 52 68 53
REMARK SMILES IDX 67 54 38 56 60 57 45 58 59 59 46 60 49 61 58 62 72 63 47 64
REMARK SMILES IDX 48 65 57 67 73 68 50 69 39 70 40 71 44 72 41 73 43 74 42 75
REMARK SMILES IDX 61 76 62 77 66 78 63 79 65 80 64 81 51 82 52 83 56 84 53 85
REMARK SMILES IDX 55 86 54 87
REMARK H PARENT 10 16 71 55 49 66
REMARK Flexibility Score: inf
ROOT
ATOM      1  O   UNL A   1      33.552  26.926  26.398  1.00  0.00    -0.376 OA
ENDROOT
BRANCH   1   2
ATOM      2  C   UNL A   1      32.957  25.895  25.577  1.00  0.00     0.202 C 
BRANCH   2   3
ATOM      3  C   UNL A   1      33.273  24.421  26.095  1.00  0.00     0.261 C 
BRANCH   3   4
ATOM      4  O   UNL A   1      34.623  23.629  25.820  1.00  0.00    -0.461 OA
BRANCH   4   5
ATOM      5  C   UNL A   1      35.095  22.709  24.859  1.00  0.00     0.344 C 
ATOM      6  O   UNL A   1      34.454  21.972  24.114  1.00  0.00    -0.248 OA
BRANCH   5   7
ATOM      7  C   UNL A   1      36.576  22.712  24.576  1.00  0.00     0.353 C 
BRANCH   7   8
ATOM      8  O   UNL A   1      37.251  21.904  25.605  1.00  0.00    -0.466 OA
BRANCH   8   9
ATOM      9  C   UNL A   1      38.484  22.379  25.982  1.00  0.00     0.218 A 
ATOM     10  C   UNL A   1      40.600  21.803  26.522  1.00  0.00     0.230 A 
ATOM     11  N   UNL A   1      39.471  21.500  25.902  1.00  0.00    -0.177 NA
ATOM     12  N   UNL A   1      40.829  22.967  27.140  1.00  0.00    -0.217 NA
ATOM     13  C   UNL A   1      39.885  23.939  27.081  1.00  0.00     0.055 A 
ATOM     14  C   UNL A   1      38.652  23.663  26.491  1.00  0.00     0.093 A 
BRANCH  10  15
ATOM     15  N   UNL A   1      41.551  20.816  26.415  1.00  0.00    -0.321 N 
ATOM     16  H   UNL A   1      41.322  19.990  26.899  1.00  0.00     0.170 HD
BRANCH  15  17
ATOM     17  C   UNL A   1      42.783  20.757  25.752  1.00  0.00     0.084 A 
ATOM     18  C   UNL A   1      43.309  19.474  25.495  1.00  0.00     0.142 A 
ATOM     19  C   UNL A   1      44.526  19.332  24.835  1.00  0.00     0.049 A 
ATOM     20  C   UNL A   1      45.250  20.465  24.467  1.00  0.00     0.007 A 
ATOM     21  C   UNL A   1      43.501  21.888  25.344  1.00  0.00     0.033 A 
ATOM     22  C   UNL A   1      44.750  21.746  24.718  1.00  0.00    -0.049 A 
ATOM     23  C   UNL A   1      45.587  22.938  24.365  1.00  0.00     0.044 C 
BRANCH  18  24
ATOM     24  O   UNL A   1      42.528  18.427  25.930  1.00  0.00    -0.495 OA
ATOM     25  C   UNL A   1      43.026  17.686  27.034  1.00  0.00     0.278 C 
ENDBRANCH  18  24
ENDBRANCH  15  17
ENDBRANCH  10  15
BRANCH  13  26
ATOM     26  C   UNL A   1      40.307  25.290  27.703  1.00  0.00     0.004 C 
ATOM     27  C   UNL A   1      41.689  25.198  28.377  1.00  0.00     0.017 C 
ATOM     28  C   UNL A   1      40.458  26.345  26.583  1.00  0.00     0.017 C 
ATOM     29  C   UNL A   1      39.347  25.850  28.770  1.00  0.00     0.017 C 
ENDBRANCH  13  26
ENDBRANCH   8   9
ENDBRANCH   7   8
ENDBRANCH   5   7
ENDBRANCH   4   5
ENDBRANCH   3   4
ENDBRANCH   2   3
ENDBRANCH   1   2
BRANCH   1  30
ATOM     30  C   UNL A   1      33.372  28.173  25.759  1.00  0.00     0.188 C 
BRANCH  30  31
ATOM     31  C   UNL A   1      34.244  29.341  26.157  1.00  0.00     0.188 C 
BRANCH  31  32
ATOM     32  O   UNL A   1      33.642  30.403  26.880  1.00  0.00    -0.376 OA
BRANCH  32  33
ATOM     33  C   UNL A   1      34.467  31.412  27.467  1.00  0.00     0.202 C 
BRANCH  33  34
ATOM     34  C   UNL A   1      33.772  32.490  28.321  1.00  0.00     0.261 C 
BRANCH  34  35
ATOM     35  O   UNL A   1      34.070  32.301  29.726  1.00  0.00    -0.460 OA
BRANCH  35  36
ATOM     36  C   UNL A   1      34.733  33.346  30.326  1.00  0.00     0.338 C 
ATOM     37  O   UNL A   1      34.820  34.446  29.884  1.00  0.00    -0.246 OA
BRANCH  36  38
ATOM     38  C   UNL A   1      34.925  32.927  31.753  1.00  0.00     0.060 A 
ATOM     39  C   UNL A   1      34.851  33.673  32.922  1.00  0.00     0.016 A 
ATOM     40  C   UNL A   1      35.533  31.723  31.851  1.00  0.00     0.016 A 
ATOM     41  C   UNL A   1      35.602  33.294  34.094  1.00  0.00     0.010 A 
ATOM     42  C   UNL A   1      36.495  31.619  32.850  1.00  0.00     0.010 A 
ATOM     43  C   UNL A   1      36.646  32.367  34.007  1.00  0.00    -0.014 A 
BRANCH  43  44
ATOM     44  C   UNL A   1      38.065  32.554  34.647  1.00  0.00     0.031 A 
ATOM     45  C   UNL A   1      38.780  33.590  35.659  1.00  0.00     0.074 A 
ATOM     46  C   UNL A   1      38.804  31.447  34.340  1.00  0.00     0.049 A 
ATOM     47  N   UNL A   1      40.092  33.609  35.779  1.00  0.00    -0.248 NA
ATOM     48  C   UNL A   1      38.296  34.633  36.620  1.00  0.00     0.031 C 
ATOM     49  C   UNL A   1      40.076  30.976  34.858  1.00  0.00     0.029 A 
ATOM     50  N   UNL A   1      38.568  30.567  33.271  1.00  0.00    -0.354 N 
ATOM     51  C   UNL A   1      40.444  34.288  36.947  1.00  0.00     0.074 A 
ATOM     52  C   UNL A   1      39.345  35.080  37.297  1.00  0.00     0.031 C 
ATOM     53  C   UNL A   1      40.634  30.158  33.946  1.00  0.00     0.029 A 
ATOM     54  C   UNL A   1      39.793  30.152  32.760  1.00  0.00     0.049 A 
ATOM     55  H   UNL A   1      37.683  30.290  32.940  1.00  0.00     0.167 HD
ATOM     56  C   UNL A   1      41.550  33.961  37.667  1.00  0.00     0.031 A 
ATOM     57  C   UNL A   1      40.146  30.559  31.501  1.00  0.00     0.031 A 
ATOM     58  C   UNL A   1      42.510  33.329  36.794  1.00  0.00     0.049 A 
ATOM     59  C   UNL A   1      41.282  31.570  31.508  1.00  0.00     0.074 A 
ATOM     60  C   UNL A   1      43.040  32.064  36.659  1.00  0.00     0.029 A 
ATOM     61  N   UNL A   1      42.802  34.008  35.621  1.00  0.00    -0.354 N 
ATOM     62  N   UNL A   1      41.952  31.910  32.575  1.00  0.00    -0.248 NA
ATOM     63  C   UNL A   1      41.729  32.316  30.332  1.00  0.00     0.031 C 
ATOM     64  C   UNL A   1      43.473  31.940  35.299  1.00  0.00     0.029 A 
ATOM     65  C   UNL A   1      43.269  33.148  34.651  1.00  0.00     0.049 A 
ATOM     66  H   UNL A   1      42.691  34.978  35.498  1.00  0.00     0.167 HD
ATOM     67  C   UNL A   1      42.763  32.981  32.302  1.00  0.00     0.074 A 
ATOM     68  C   UNL A   1      42.650  33.141  30.864  1.00  0.00     0.031 C 
ATOM     69  C   UNL A   1      43.401  33.678  33.292  1.00  0.00     0.031 A 
BRANCH  56  70
ATOM     70  C   UNL A   1      41.642  34.059  39.189  1.00  0.00    -0.014 A 
ATOM     71  C   UNL A   1      41.395  32.913  39.966  1.00  0.00     0.009 A 
ATOM     72  C   UNL A   1      41.813  35.253  39.931  1.00  0.00     0.009 A 
ATOM     73  C   UNL A   1      41.310  32.960  41.371  1.00  0.00     0.001 A 
ATOM     74  C   UNL A   1      41.766  35.302  41.336  1.00  0.00     0.001 A 
ATOM     75  C   UNL A   1      41.501  34.152  42.058  1.00  0.00     0.000 A 
ENDBRANCH  56  70
BRANCH  57  76
ATOM     76  C   UNL A   1      39.051  30.417  30.479  1.00  0.00    -0.014 A 
ATOM     77  C   UNL A   1      38.536  31.613  29.923  1.00  0.00     0.009 A 
ATOM     78  C   UNL A   1      38.679  29.214  29.858  1.00  0.00     0.009 A 
ATOM     79  C   UNL A   1      37.779  31.621  28.745  1.00  0.00     0.001 A 
ATOM     80  C   UNL A   1      37.907  29.221  28.677  1.00  0.00     0.001 A 
ATOM     81  C   UNL A   1      37.474  30.424  28.112  1.00  0.00     0.000 A 
ENDBRANCH  57  76
BRANCH  69  82
ATOM     82  C   UNL A   1      44.153  34.988  33.115  1.00  0.00    -0.014 A 
ATOM     83  C   UNL A   1      43.565  36.217  32.794  1.00  0.00     0.009 A 
ATOM     84  C   UNL A   1      45.537  35.020  33.419  1.00  0.00     0.009 A 
ATOM     85  C   UNL A   1      44.324  37.396  32.726  1.00  0.00     0.001 A 
ATOM     86  C   UNL A   1      46.280  36.202  33.430  1.00  0.00     0.001 A 
ATOM     87  C   UNL A   1      45.676  37.391  33.058  1.00  0.00     0.000 A 
ENDBRANCH  69  82
ENDBRANCH  43  44
ENDBRANCH  36  38
ENDBRANCH  35  36
ENDBRANCH  34  35
ENDBRANCH  33  34
ENDBRANCH  32  33
ENDBRANCH  31  32
ENDBRANCH  30  31
ENDBRANCH   1  30
TORSDOF 23
ENDMDL
