MODEL 1
REMARK VINA RESULT:     -10.9      0.000      0.000
REMARK SMILES COc1c[nH]c(C[N@H+]2CCC[C@@H](c3ccc(C(=O)OCCOCCOCCOC(=O)c4ccc(-c5c6nc(c(-c7ccccc7)c7ccc([nH]7)c(-c7ccccc7)c7nc(c(-c8ccccc8)c8ccc5[nH]8)C=C7)C=C6)cc4)cc3)C2)cc1=O
REMARK SMILES IDX 23 1 22 2 21 3 20 4 19 5 17 6 18 7 16 8 13 9 14 10 80 11
REMARK SMILES IDX 15 12 79 13 12 14 8 15 9 16 81 17 10 19 11 20 7 21 6 22 3 23
REMARK SMILES IDX 4 24 83 25 5 26 82 27 84 28 2 30 1 31 24 32 25 33 26 34
REMARK SMILES IDX 27 35 28 36 29 37 30 38 31 39 32 40 78 41 33 42 77 43 34 44
REMARK SMILES IDX 35 45 36 46 71 47 37 48 76 49 70 50 72 51 38 52 75 53 69 54
REMARK SMILES IDX 68 55 39 57 61 58 46 59 60 60 47 61 50 62 59 63 73 64 48 65
REMARK SMILES IDX 49 66 58 68 74 69 51 70 40 71 41 72 45 73 42 74 44 75 43 76
REMARK SMILES IDX 62 77 63 78 67 79 64 80 66 81 65 82 52 83 53 84 57 85 54 86
REMARK SMILES IDX 56 87 55 88
REMARK H PARENT 8 18 5 29 72 56 50 67
REMARK Flexibility Score: inf
ROOT
ATOM      1  C   UNL A   1      42.576  18.811  26.095  1.00  0.00     0.188 C 
ENDROOT
BRANCH   1   2
ATOM      2  O   UNL A   1      42.372  19.499  27.314  1.00  0.00    -0.376 OA
BRANCH   2   3
ATOM      3  C   UNL A   1      42.100  20.892  27.316  1.00  0.00     0.202 C 
BRANCH   3   4
ATOM      4  C   UNL A   1      41.339  21.560  26.167  1.00  0.00     0.261 C 
BRANCH   4   5
ATOM      5  O   UNL A   1      39.913  21.492  26.296  1.00  0.00    -0.460 OA
BRANCH   5   6
ATOM      6  C   UNL A   1      39.324  22.660  26.649  1.00  0.00     0.338 C 
ATOM      7  O   UNL A   1      39.798  23.544  27.344  1.00  0.00    -0.246 OA
BRANCH   6   8
ATOM      8  C   UNL A   1      38.060  22.837  25.909  1.00  0.00     0.060 A 
ATOM      9  C   UNL A   1      35.529  23.203  24.768  1.00  0.00    -0.039 A 
ATOM     10  C   UNL A   1      36.123  24.225  25.528  1.00  0.00     0.005 A 
ATOM     11  C   UNL A   1      36.271  22.040  24.498  1.00  0.00     0.005 A 
ATOM     12  C   UNL A   1      37.366  24.033  26.118  1.00  0.00     0.016 A 
ATOM     13  C   UNL A   1      37.541  21.860  25.058  1.00  0.00     0.016 A 
BRANCH   9  14
ATOM     14  C   UNL A   1      34.040  23.257  24.432  1.00  0.00     0.074 C 
ATOM     15  N   UNL A   1      32.243  21.734  23.480  1.00  0.00    -0.329 N 
ATOM     16  C   UNL A   1      31.393  21.997  24.649  1.00  0.00     0.262 C 
ATOM     17  C   UNL A   1      33.661  21.893  23.807  1.00  0.00     0.270 C 
ATOM     18  H   UNL A   1      32.011  22.437  22.779  1.00  0.00     0.348 HD
ATOM     19  C   UNL A   1      31.665  23.386  25.240  1.00  0.00     0.062 C 
ATOM     20  C   UNL A   1      33.134  23.558  25.632  1.00  0.00     0.020 C 
BRANCH  15  21
ATOM     21  C   UNL A   1      31.958  20.419  22.857  1.00  0.00     0.317 C 
BRANCH  21  22
ATOM     22  C   UNL A   1      32.524  19.181  23.552  1.00  0.00     0.074 A 
ATOM     23  C   UNL A   1      33.246  16.837  25.030  1.00  0.00     0.182 A 
ATOM     24  C   UNL A   1      32.727  17.932  25.604  1.00  0.00     0.133 A 
ATOM     25  C   UNL A   1      33.542  16.947  23.555  1.00  0.00     0.223 A 
ATOM     26  N   UNL A   1      32.446  19.089  24.932  1.00  0.00    -0.357 N 
ATOM     27  C   UNL A   1      33.087  18.182  22.848  1.00  0.00     0.083 A 
ATOM     28  O   UNL A   1      34.110  16.068  22.915  1.00  0.00    -0.286 OA
ATOM     29  H   UNL A   1      32.177  19.885  25.446  1.00  0.00     0.166 HD
BRANCH  23  30
ATOM     30  O   UNL A   1      33.409  15.678  25.765  1.00  0.00    -0.491 OA
ATOM     31  C   UNL A   1      32.442  14.674  25.489  1.00  0.00     0.278 C 
ENDBRANCH  23  30
ENDBRANCH  21  22
ENDBRANCH  15  21
ENDBRANCH   9  14
ENDBRANCH   6   8
ENDBRANCH   5   6
ENDBRANCH   4   5
ENDBRANCH   3   4
ENDBRANCH   2   3
ENDBRANCH   1   2
BRANCH   1  32
ATOM     32  C   UNL A   1      43.895  18.954  25.308  1.00  0.00     0.188 C 
BRANCH  32  33
ATOM     33  O   UNL A   1      44.102  20.036  24.426  1.00  0.00    -0.376 OA
BRANCH  33  34
ATOM     34  C   UNL A   1      44.931  21.126  24.788  1.00  0.00     0.202 C 
BRANCH  34  35
ATOM     35  C   UNL A   1      44.722  22.566  24.300  1.00  0.00     0.261 C 
BRANCH  35  36
ATOM     36  O   UNL A   1      44.033  23.447  25.189  1.00  0.00    -0.460 OA
BRANCH  36  37
ATOM     37  C   UNL A   1      44.586  24.680  25.308  1.00  0.00     0.338 C 
ATOM     38  O   UNL A   1      45.469  25.171  24.629  1.00  0.00    -0.246 OA
BRANCH  37  39
ATOM     39  C   UNL A   1      43.840  25.439  26.323  1.00  0.00     0.060 A 
ATOM     40  C   UNL A   1      44.192  26.776  26.553  1.00  0.00     0.016 A 
ATOM     41  C   UNL A   1      42.842  24.821  27.075  1.00  0.00     0.016 A 
ATOM     42  C   UNL A   1      43.547  27.500  27.554  1.00  0.00     0.010 A 
ATOM     43  C   UNL A   1      42.213  25.541  28.092  1.00  0.00     0.010 A 
ATOM     44  C   UNL A   1      42.577  26.875  28.350  1.00  0.00    -0.014 A 
BRANCH  44  45
ATOM     45  C   UNL A   1      42.045  27.559  29.550  1.00  0.00     0.031 A 
ATOM     46  C   UNL A   1      40.760  28.327  29.432  1.00  0.00     0.074 A 
ATOM     47  C   UNL A   1      42.702  27.511  30.721  1.00  0.00     0.049 A 
ATOM     48  N   UNL A   1      40.157  29.075  30.319  1.00  0.00    -0.248 NA
ATOM     49  C   UNL A   1      40.062  28.242  28.138  1.00  0.00     0.031 C 
ATOM     50  C   UNL A   1      43.930  26.762  30.976  1.00  0.00     0.029 A 
ATOM     51  N   UNL A   1      42.426  28.127  31.916  1.00  0.00    -0.354 N 
ATOM     52  C   UNL A   1      39.017  29.557  29.691  1.00  0.00     0.074 A 
ATOM     53  C   UNL A   1      39.021  29.036  28.341  1.00  0.00     0.031 C 
ATOM     54  C   UNL A   1      44.312  26.975  32.247  1.00  0.00     0.029 A 
ATOM     55  C   UNL A   1      43.378  27.907  32.879  1.00  0.00     0.049 A 
ATOM     56  H   UNL A   1      41.622  28.675  32.068  1.00  0.00     0.167 HD
ATOM     57  C   UNL A   1      38.052  30.363  30.192  1.00  0.00     0.031 A 
ATOM     58  C   UNL A   1      43.500  28.424  34.116  1.00  0.00     0.031 A 
ATOM     59  C   UNL A   1      38.058  30.901  31.526  1.00  0.00     0.049 A 
ATOM     60  C   UNL A   1      42.466  29.399  34.617  1.00  0.00     0.074 A 
ATOM     61  C   UNL A   1      37.118  31.717  32.131  1.00  0.00     0.029 A 
ATOM     62  N   UNL A   1      39.063  30.688  32.456  1.00  0.00    -0.354 N 
ATOM     63  N   UNL A   1      41.379  29.831  34.024  1.00  0.00    -0.248 NA
ATOM     64  C   UNL A   1      42.681  29.963  35.958  1.00  0.00     0.031 C 
ATOM     65  C   UNL A   1      37.583  32.046  33.407  1.00  0.00     0.029 A 
ATOM     66  C   UNL A   1      38.783  31.385  33.618  1.00  0.00     0.049 A 
ATOM     67  H   UNL A   1      39.857  30.125  32.312  1.00  0.00     0.167 HD
ATOM     68  C   UNL A   1      40.768  30.691  34.928  1.00  0.00     0.074 A 
ATOM     69  C   UNL A   1      41.599  30.713  36.114  1.00  0.00     0.031 C 
ATOM     70  C   UNL A   1      39.620  31.397  34.791  1.00  0.00     0.031 A 
BRANCH  57  71
ATOM     71  C   UNL A   1      36.927  30.746  29.274  1.00  0.00    -0.014 A 
ATOM     72  C   UNL A   1      36.826  32.043  28.745  1.00  0.00     0.009 A 
ATOM     73  C   UNL A   1      35.972  29.786  28.909  1.00  0.00     0.009 A 
ATOM     74  C   UNL A   1      35.769  32.377  27.895  1.00  0.00     0.001 A 
ATOM     75  C   UNL A   1      34.932  30.115  28.038  1.00  0.00     0.001 A 
ATOM     76  C   UNL A   1      34.827  31.413  27.538  1.00  0.00     0.000 A 
ENDBRANCH  57  71
BRANCH  58  77
ATOM     77  C   UNL A   1      44.665  28.062  34.966  1.00  0.00    -0.014 A 
ATOM     78  C   UNL A   1      44.626  26.927  35.789  1.00  0.00     0.009 A 
ATOM     79  C   UNL A   1      45.814  28.870  34.978  1.00  0.00     0.009 A 
ATOM     80  C   UNL A   1      45.702  26.622  36.626  1.00  0.00     0.001 A 
ATOM     81  C   UNL A   1      46.900  28.547  35.794  1.00  0.00     0.001 A 
ATOM     82  C   UNL A   1      46.839  27.429  36.624  1.00  0.00     0.000 A 
ENDBRANCH  58  77
BRANCH  70  83
ATOM     83  C   UNL A   1      39.172  32.229  35.960  1.00  0.00    -0.014 A 
ATOM     84  C   UNL A   1      39.628  33.544  36.136  1.00  0.00     0.009 A 
ATOM     85  C   UNL A   1      38.230  31.709  36.862  1.00  0.00     0.009 A 
ATOM     86  C   UNL A   1      39.169  34.312  37.210  1.00  0.00     0.001 A 
ATOM     87  C   UNL A   1      37.752  32.488  37.917  1.00  0.00     0.001 A 
ATOM     88  C   UNL A   1      38.227  33.786  38.094  1.00  0.00     0.000 A 
ENDBRANCH  70  83
ENDBRANCH  44  45
ENDBRANCH  37  39
ENDBRANCH  36  37
ENDBRANCH  35  36
ENDBRANCH  34  35
ENDBRANCH  33  34
ENDBRANCH  32  33
ENDBRANCH   1  32
TORSDOF 21
ENDMDL
MODEL 2
REMARK VINA RESULT:     -10.3      2.759      4.706
REMARK SMILES COc1c[nH]c(C[N@H+]2CCC[C@@H](c3ccc(C(=O)OCCOCCOCCOC(=O)c4ccc(-c5c6nc(c(-c7ccccc7)c7ccc([nH]7)c(-c7ccccc7)c7nc(c(-c8ccccc8)c8ccc5[nH]8)C=C7)C=C6)cc4)cc3)C2)cc1=O
REMARK SMILES IDX 23 1 22 2 21 3 20 4 19 5 17 6 18 7 16 8 13 9 14 10 80 11
REMARK SMILES IDX 15 12 79 13 12 14 8 15 9 16 81 17 10 19 11 20 7 21 6 22 3 23
REMARK SMILES IDX 4 24 83 25 5 26 82 27 84 28 2 30 1 31 24 32 25 33 26 34
REMARK SMILES IDX 27 35 28 36 29 37 30 38 31 39 32 40 78 41 33 42 77 43 34 44
REMARK SMILES IDX 35 45 36 46 71 47 37 48 76 49 70 50 72 51 38 52 75 53 69 54
REMARK SMILES IDX 68 55 39 57 61 58 46 59 60 60 47 61 50 62 59 63 73 64 48 65
REMARK SMILES IDX 49 66 58 68 74 69 51 70 40 71 41 72 45 73 42 74 44 75 43 76
REMARK SMILES IDX 62 77 63 78 67 79 64 80 66 81 65 82 52 83 53 84 57 85 54 86
REMARK SMILES IDX 56 87 55 88
REMARK H PARENT 8 18 5 29 72 56 50 67
REMARK Flexibility Score: inf
ROOT
ATOM      1  C   UNL A   1      41.885  19.723  26.015  1.00  0.00     0.188 C 
ENDROOT
BRANCH   1   2
ATOM      2  O   UNL A   1      41.080  20.016  27.140  1.00  0.00    -0.376 OA
BRANCH   2   3
ATOM      3  C   UNL A   1      40.463  21.288  27.270  1.00  0.00     0.202 C 
BRANCH   3   4
ATOM      4  C   UNL A   1      39.832  21.997  26.070  1.00  0.00     0.261 C 
BRANCH   4   5
ATOM      5  O   UNL A   1      38.400  22.049  26.110  1.00  0.00    -0.460 OA
BRANCH   5   6
ATOM      6  C   UNL A   1      37.882  23.300  26.124  1.00  0.00     0.338 C 
ATOM      7  O   UNL A   1      38.422  24.316  26.531  1.00  0.00    -0.246 OA
BRANCH   6   8
ATOM      8  C   UNL A   1      36.607  23.332  25.384  1.00  0.00     0.060 A 
ATOM      9  C   UNL A   1      34.316  23.585  23.793  1.00  0.00    -0.039 A 
ATOM     10  C   UNL A   1      35.503  23.058  23.255  1.00  0.00     0.005 A 
ATOM     11  C   UNL A   1      34.266  23.878  25.167  1.00  0.00     0.005 A 
ATOM     12  C   UNL A   1      36.648  22.960  24.036  1.00  0.00     0.016 A 
ATOM     13  C   UNL A   1      35.406  23.742  25.966  1.00  0.00     0.016 A 
BRANCH   9  14
ATOM     14  C   UNL A   1      33.185  24.035  22.872  1.00  0.00     0.074 C 
ATOM     15  N   UNL A   1      31.102  25.487  22.977  1.00  0.00    -0.329 N 
ATOM     16  C   UNL A   1      31.571  26.253  21.814  1.00  0.00     0.262 C 
ATOM     17  C   UNL A   1      32.223  24.905  23.717  1.00  0.00     0.270 C 
ATOM     18  H   UNL A   1      30.540  24.716  22.618  1.00  0.00     0.348 HD
ATOM     19  C   UNL A   1      32.447  25.395  20.893  1.00  0.00     0.062 C 
ATOM     20  C   UNL A   1      33.652  24.814  21.635  1.00  0.00     0.020 C 
BRANCH  15  21
ATOM     21  C   UNL A   1      30.206  26.279  23.853  1.00  0.00     0.317 C 
BRANCH  21  22
ATOM     22  C   UNL A   1      30.869  27.243  24.837  1.00  0.00     0.074 A 
ATOM     23  C   UNL A   1      31.910  29.324  26.506  1.00  0.00     0.182 A 
ATOM     24  C   UNL A   1      31.922  29.387  25.167  1.00  0.00     0.133 A 
ATOM     25  C   UNL A   1      31.414  28.028  27.099  1.00  0.00     0.223 A 
ATOM     26  N   UNL A   1      31.501  28.375  24.350  1.00  0.00    -0.357 N 
ATOM     27  C   UNL A   1      30.840  27.015  26.163  1.00  0.00     0.083 A 
ATOM     28  O   UNL A   1      31.440  27.784  28.301  1.00  0.00    -0.286 OA
ATOM     29  H   UNL A   1      31.652  28.453  23.380  1.00  0.00     0.166 HD
BRANCH  23  30
ATOM     30  O   UNL A   1      32.263  30.429  27.257  1.00  0.00    -0.491 OA
ATOM     31  C   UNL A   1      33.507  31.010  26.888  1.00  0.00     0.278 C 
ENDBRANCH  23  30
ENDBRANCH  21  22
ENDBRANCH  15  21
ENDBRANCH   9  14
ENDBRANCH   6   8
ENDBRANCH   5   6
ENDBRANCH   4   5
ENDBRANCH   3   4
ENDBRANCH   2   3
ENDBRANCH   1   2
BRANCH   1  32
ATOM     32  C   UNL A   1      43.195  20.492  25.747  1.00  0.00     0.188 C 
BRANCH  32  33
ATOM     33  O   UNL A   1      43.194  21.692  25.005  1.00  0.00    -0.376 OA
BRANCH  33  34
ATOM     34  C   UNL A   1      43.354  22.947  25.643  1.00  0.00     0.202 C 
BRANCH  34  35
ATOM     35  C   UNL A   1      43.415  24.288  24.901  1.00  0.00     0.261 C 
BRANCH  35  36
ATOM     36  O   UNL A   1      43.360  25.467  25.707  1.00  0.00    -0.460 OA
BRANCH  36  37
ATOM     37  C   UNL A   1      42.134  26.040  25.792  1.00  0.00     0.338 C 
ATOM     38  O   UNL A   1      41.216  25.962  24.996  1.00  0.00    -0.246 OA
BRANCH  37  39
ATOM     39  C   UNL A   1      41.999  26.682  27.109  1.00  0.00     0.060 A 
ATOM     40  C   UNL A   1      41.050  26.176  28.007  1.00  0.00     0.016 A 
ATOM     41  C   UNL A   1      42.765  27.803  27.429  1.00  0.00     0.016 A 
ATOM     42  C   UNL A   1      40.855  26.804  29.235  1.00  0.00     0.010 A 
ATOM     43  C   UNL A   1      42.551  28.444  28.651  1.00  0.00     0.010 A 
ATOM     44  C   UNL A   1      41.582  27.961  29.548  1.00  0.00    -0.014 A 
BRANCH  44  45
ATOM     45  C   UNL A   1      41.233  28.759  30.745  1.00  0.00     0.031 A 
ATOM     46  C   UNL A   1      40.095  29.736  30.654  1.00  0.00     0.074 A 
ATOM     47  C   UNL A   1      41.927  28.630  31.888  1.00  0.00     0.049 A 
ATOM     48  N   UNL A   1      39.673  30.601  31.539  1.00  0.00    -0.248 NA
ATOM     49  C   UNL A   1      39.333  29.738  29.394  1.00  0.00     0.031 C 
ATOM     50  C   UNL A   1      43.018  27.686  32.118  1.00  0.00     0.029 A 
ATOM     51  N   UNL A   1      41.818  29.317  33.071  1.00  0.00    -0.354 N 
ATOM     52  C   UNL A   1      38.605  31.257  30.942  1.00  0.00     0.074 A 
ATOM     53  C   UNL A   1      38.455  30.706  29.614  1.00  0.00     0.031 C 
ATOM     54  C   UNL A   1      43.491  27.864  33.364  1.00  0.00     0.029 A 
ATOM     55  C   UNL A   1      42.763  28.961  34.001  1.00  0.00     0.049 A 
ATOM     56  H   UNL A   1      41.129  30.001  33.237  1.00  0.00     0.167 HD
ATOM     57  C   UNL A   1      37.818  32.232  31.455  1.00  0.00     0.031 A 
ATOM     58  C   UNL A   1      43.030  29.483  35.213  1.00  0.00     0.031 A 
ATOM     59  C   UNL A   1      37.981  32.797  32.768  1.00  0.00     0.049 A 
ATOM     60  C   UNL A   1      42.205  30.636  35.722  1.00  0.00     0.074 A 
ATOM     61  C   UNL A   1      37.225  33.779  33.383  1.00  0.00     0.029 A 
ATOM     62  N   UNL A   1      38.977  32.437  33.662  1.00  0.00    -0.354 N 
ATOM     63  N   UNL A   1      41.182  31.235  35.160  1.00  0.00    -0.248 NA
ATOM     64  C   UNL A   1      42.577  31.190  37.032  1.00  0.00     0.031 C 
ATOM     65  C   UNL A   1      37.799  34.058  34.626  1.00  0.00     0.029 A 
ATOM     66  C   UNL A   1      38.876  33.204  34.810  1.00  0.00     0.049 A 
ATOM     67  H   UNL A   1      39.654  31.742  33.504  1.00  0.00     0.167 HD
ATOM     68  C   UNL A   1      40.772  32.212  36.059  1.00  0.00     0.074 A 
ATOM     69  C   UNL A   1      41.650  32.121  37.207  1.00  0.00     0.031 C 
ATOM     70  C   UNL A   1      39.758  33.103  35.945  1.00  0.00     0.031 A 
BRANCH  57  71
ATOM     71  C   UNL A   1      36.734  32.779  30.572  1.00  0.00    -0.014 A 
ATOM     72  C   UNL A   1      37.014  33.726  29.574  1.00  0.00     0.009 A 
ATOM     73  C   UNL A   1      35.418  32.317  30.722  1.00  0.00     0.009 A 
ATOM     74  C   UNL A   1      35.989  34.223  28.766  1.00  0.00     0.001 A 
ATOM     75  C   UNL A   1      34.401  32.796  29.895  1.00  0.00     0.001 A 
ATOM     76  C   UNL A   1      34.685  33.754  28.924  1.00  0.00     0.000 A 
ENDBRANCH  57  71
BRANCH  58  77
ATOM     77  C   UNL A   1      44.154  28.948  36.025  1.00  0.00    -0.014 A 
ATOM     78  C   UNL A   1      45.444  29.484  35.904  1.00  0.00     0.009 A 
ATOM     79  C   UNL A   1      43.945  27.876  36.909  1.00  0.00     0.009 A 
ATOM     80  C   UNL A   1      46.507  28.942  36.630  1.00  0.00     0.001 A 
ATOM     81  C   UNL A   1      45.004  27.355  37.656  1.00  0.00     0.001 A 
ATOM     82  C   UNL A   1      46.286  27.882  37.508  1.00  0.00     0.000 A 
ENDBRANCH  58  77
BRANCH  70  83
ATOM     83  C   UNL A   1      39.515  34.032  37.102  1.00  0.00    -0.014 A 
ATOM     84  C   UNL A   1      38.812  33.610  38.240  1.00  0.00     0.009 A 
ATOM     85  C   UNL A   1      40.053  35.329  37.076  1.00  0.00     0.009 A 
ATOM     86  C   UNL A   1      38.631  34.479  39.320  1.00  0.00     0.001 A 
ATOM     87  C   UNL A   1      39.895  36.185  38.166  1.00  0.00     0.001 A 
ATOM     88  C   UNL A   1      39.178  35.762  39.284  1.00  0.00     0.000 A 
ENDBRANCH  70  83
ENDBRANCH  44  45
ENDBRANCH  37  39
ENDBRANCH  36  37
ENDBRANCH  35  36
ENDBRANCH  34  35
ENDBRANCH  33  34
ENDBRANCH  32  33
ENDBRANCH   1  32
TORSDOF 21
ENDMDL
MODEL 3
REMARK VINA RESULT:     -10.3      2.147      4.040
REMARK SMILES COc1c[nH]c(C[N@H+]2CCC[C@@H](c3ccc(C(=O)OCCOCCOCCOC(=O)c4ccc(-c5c6nc(c(-c7ccccc7)c7ccc([nH]7)c(-c7ccccc7)c7nc(c(-c8ccccc8)c8ccc5[nH]8)C=C7)C=C6)cc4)cc3)C2)cc1=O
REMARK SMILES IDX 23 1 22 2 21 3 20 4 19 5 17 6 18 7 16 8 13 9 14 10 80 11
REMARK SMILES IDX 15 12 79 13 12 14 8 15 9 16 81 17 10 19 11 20 7 21 6 22 3 23
REMARK SMILES IDX 4 24 83 25 5 26 82 27 84 28 2 30 1 31 24 32 25 33 26 34
REMARK SMILES IDX 27 35 28 36 29 37 30 38 31 39 32 40 78 41 33 42 77 43 34 44
REMARK SMILES IDX 35 45 36 46 71 47 37 48 76 49 70 50 72 51 38 52 75 53 69 54
REMARK SMILES IDX 68 55 39 57 61 58 46 59 60 60 47 61 50 62 59 63 73 64 48 65
REMARK SMILES IDX 49 66 58 68 74 69 51 70 40 71 41 72 45 73 42 74 44 75 43 76
REMARK SMILES IDX 62 77 63 78 67 79 64 80 66 81 65 82 52 83 53 84 57 85 54 86
REMARK SMILES IDX 56 87 55 88
REMARK H PARENT 8 18 5 29 72 56 50 67
REMARK Flexibility Score: inf
ROOT
ATOM      1  C   UNL A   1      42.529  18.874  26.142  1.00  0.00     0.188 C 
ENDROOT
BRANCH   1   2
ATOM      2  O   UNL A   1      42.282  19.678  27.279  1.00  0.00    -0.376 OA
BRANCH   2   3
ATOM      3  C   UNL A   1      41.929  21.045  27.129  1.00  0.00     0.202 C 
BRANCH   3   4
ATOM      4  C   UNL A   1      41.085  21.528  25.947  1.00  0.00     0.261 C 
BRANCH   4   5
ATOM      5  O   UNL A   1      39.671  21.421  26.158  1.00  0.00    -0.460 OA
BRANCH   5   6
ATOM      6  C   UNL A   1      39.044  22.602  26.376  1.00  0.00     0.338 C 
ATOM      7  O   UNL A   1      39.547  23.642  26.769  1.00  0.00    -0.246 OA
BRANCH   6   8
ATOM      8  C   UNL A   1      37.657  22.541  25.878  1.00  0.00     0.060 A 
ATOM      9  C   UNL A   1      35.132  22.497  24.667  1.00  0.00    -0.039 A 
ATOM     10  C   UNL A   1      36.133  21.598  24.261  1.00  0.00     0.005 A 
ATOM     11  C   UNL A   1      35.382  23.341  25.763  1.00  0.00     0.005 A 
ATOM     12  C   UNL A   1      37.395  21.639  24.842  1.00  0.00     0.016 A 
ATOM     13  C   UNL A   1      36.640  23.357  26.377  1.00  0.00     0.016 A 
BRANCH   9  14
ATOM     14  C   UNL A   1      33.890  22.709  23.804  1.00  0.00     0.074 C 
ATOM     15  N   UNL A   1      31.716  24.021  23.880  1.00  0.00    -0.329 N 
ATOM     16  C   UNL A   1      32.015  24.603  22.564  1.00  0.00     0.262 C 
ATOM     17  C   UNL A   1      32.942  23.648  24.587  1.00  0.00     0.270 C 
ATOM     18  H   UNL A   1      31.187  23.165  23.713  1.00  0.00     0.348 HD
ATOM     19  C   UNL A   1      32.870  23.657  21.713  1.00  0.00     0.062 C 
ATOM     20  C   UNL A   1      34.180  23.290  22.415  1.00  0.00     0.020 C 
BRANCH  15  21
ATOM     21  C   UNL A   1      30.842  24.893  24.700  1.00  0.00     0.317 C 
BRANCH  21  22
ATOM     22  C   UNL A   1      31.399  26.260  25.099  1.00  0.00     0.074 A 
ATOM     23  C   UNL A   1      32.226  28.962  25.564  1.00  0.00     0.182 A 
ATOM     24  C   UNL A   1      32.269  28.382  24.356  1.00  0.00     0.133 A 
ATOM     25  C   UNL A   1      31.819  28.066  26.708  1.00  0.00     0.223 A 
ATOM     26  N   UNL A   1      31.952  27.073  24.123  1.00  0.00    -0.357 N 
ATOM     27  C   UNL A   1      31.353  26.687  26.374  1.00  0.00     0.083 A 
ATOM     28  O   UNL A   1      31.833  28.425  27.881  1.00  0.00    -0.286 OA
ATOM     29  H   UNL A   1      32.122  26.693  23.230  1.00  0.00     0.166 HD
BRANCH  23  30
ATOM     30  O   UNL A   1      32.470  30.316  25.694  1.00  0.00    -0.491 OA
ATOM     31  C   UNL A   1      31.331  31.078  26.071  1.00  0.00     0.278 C 
ENDBRANCH  23  30
ENDBRANCH  21  22
ENDBRANCH  15  21
ENDBRANCH   9  14
ENDBRANCH   6   8
ENDBRANCH   5   6
ENDBRANCH   4   5
ENDBRANCH   3   4
ENDBRANCH   2   3
ENDBRANCH   1   2
BRANCH   1  32
ATOM     32  C   UNL A   1      43.855  18.983  25.359  1.00  0.00     0.188 C 
BRANCH  32  33
ATOM     33  O   UNL A   1      44.068  20.024  24.432  1.00  0.00    -0.376 OA
BRANCH  33  34
ATOM     34  C   UNL A   1      44.861  21.149  24.765  1.00  0.00     0.202 C 
BRANCH  34  35
ATOM     35  C   UNL A   1      44.590  22.573  24.262  1.00  0.00     0.261 C 
BRANCH  35  36
ATOM     36  O   UNL A   1      43.927  23.455  25.171  1.00  0.00    -0.460 OA
BRANCH  36  37
ATOM     37  C   UNL A   1      44.501  24.679  25.294  1.00  0.00     0.338 C 
ATOM     38  O   UNL A   1      45.386  25.160  24.612  1.00  0.00    -0.246 OA
BRANCH  37  39
ATOM     39  C   UNL A   1      43.774  25.443  26.319  1.00  0.00     0.060 A 
ATOM     40  C   UNL A   1      44.193  26.750  26.603  1.00  0.00     0.016 A 
ATOM     41  C   UNL A   1      42.727  24.855  27.028  1.00  0.00     0.016 A 
ATOM     42  C   UNL A   1      43.565  27.474  27.615  1.00  0.00     0.010 A 
ATOM     43  C   UNL A   1      42.114  25.574  28.056  1.00  0.00     0.010 A 
ATOM     44  C   UNL A   1      42.545  26.876  28.368  1.00  0.00    -0.014 A 
BRANCH  44  45
ATOM     45  C   UNL A   1      42.023  27.547  29.580  1.00  0.00     0.031 A 
ATOM     46  C   UNL A   1      40.767  28.363  29.468  1.00  0.00     0.074 A 
ATOM     47  C   UNL A   1      42.665  27.446  30.756  1.00  0.00     0.049 A 
ATOM     48  N   UNL A   1      40.180  29.108  30.369  1.00  0.00    -0.248 NA
ATOM     49  C   UNL A   1      40.081  28.336  28.165  1.00  0.00     0.031 C 
ATOM     50  C   UNL A   1      43.863  26.648  31.004  1.00  0.00     0.029 A 
ATOM     51  N   UNL A   1      42.397  28.041  31.963  1.00  0.00    -0.354 N 
ATOM     52  C   UNL A   1      39.065  29.646  29.741  1.00  0.00     0.074 A 
ATOM     53  C   UNL A   1      39.066  29.160  28.379  1.00  0.00     0.031 C 
ATOM     54  C   UNL A   1      44.238  26.815  32.284  1.00  0.00     0.029 A 
ATOM     55  C   UNL A   1      43.330  27.762  32.930  1.00  0.00     0.049 A 
ATOM     56  H   UNL A   1      41.611  28.613  32.121  1.00  0.00     0.167 HD
ATOM     57  C   UNL A   1      38.123  30.473  30.253  1.00  0.00     0.031 A 
ATOM     58  C   UNL A   1      43.455  28.243  34.182  1.00  0.00     0.031 A 
ATOM     59  C   UNL A   1      38.133  30.976  31.601  1.00  0.00     0.049 A 
ATOM     60  C   UNL A   1      42.451  29.241  34.697  1.00  0.00     0.074 A 
ATOM     61  C   UNL A   1      37.215  31.808  32.216  1.00  0.00     0.029 A 
ATOM     62  N   UNL A   1      39.119  30.703  32.535  1.00  0.00    -0.354 N 
ATOM     63  N   UNL A   1      41.386  29.726  34.104  1.00  0.00    -0.248 NA
ATOM     64  C   UNL A   1      42.670  29.762  36.055  1.00  0.00     0.031 C 
ATOM     65  C   UNL A   1      37.676  32.087  33.506  1.00  0.00     0.029 A 
ATOM     66  C   UNL A   1      38.850  31.380  33.712  1.00  0.00     0.049 A 
ATOM     67  H   UNL A   1      39.895  30.117  32.385  1.00  0.00     0.167 HD
ATOM     68  C   UNL A   1      40.795  30.583  35.025  1.00  0.00     0.074 A 
ATOM     69  C   UNL A   1      41.613  30.545  36.219  1.00  0.00     0.031 C 
ATOM     70  C   UNL A   1      39.674  31.332  34.893  1.00  0.00     0.031 A 
BRANCH  57  71
ATOM     71  C   UNL A   1      37.023  30.918  29.333  1.00  0.00    -0.014 A 
ATOM     72  C   UNL A   1      36.986  32.223  28.818  1.00  0.00     0.009 A 
ATOM     73  C   UNL A   1      36.024  30.008  28.954  1.00  0.00     0.009 A 
ATOM     74  C   UNL A   1      35.951  32.617  27.966  1.00  0.00     0.001 A 
ATOM     75  C   UNL A   1      35.007  30.396  28.081  1.00  0.00     0.001 A 
ATOM     76  C   UNL A   1      34.966  31.702  27.595  1.00  0.00     0.000 A 
ENDBRANCH  57  71
BRANCH  58  77
ATOM     77  C   UNL A   1      44.597  27.819  35.034  1.00  0.00    -0.014 A 
ATOM     78  C   UNL A   1      44.535  26.629  35.774  1.00  0.00     0.009 A 
ATOM     79  C   UNL A   1      45.746  28.620  35.133  1.00  0.00     0.009 A 
ATOM     80  C   UNL A   1      45.589  26.263  36.615  1.00  0.00     0.001 A 
ATOM     81  C   UNL A   1      46.810  28.237  35.952  1.00  0.00     0.001 A 
ATOM     82  C   UNL A   1      46.726  27.064  36.700  1.00  0.00     0.000 A 
ENDBRANCH  58  77
BRANCH  70  83
ATOM     83  C   UNL A   1      39.241  32.149  36.079  1.00  0.00    -0.014 A 
ATOM     84  C   UNL A   1      39.781  33.421  36.324  1.00  0.00     0.009 A 
ATOM     85  C   UNL A   1      38.233  31.663  36.927  1.00  0.00     0.009 A 
ATOM     86  C   UNL A   1      39.337  34.178  37.411  1.00  0.00     0.001 A 
ATOM     87  C   UNL A   1      37.771  32.433  37.995  1.00  0.00     0.001 A 
ATOM     88  C   UNL A   1      38.329  33.687  38.241  1.00  0.00     0.000 A 
ENDBRANCH  70  83
ENDBRANCH  44  45
ENDBRANCH  37  39
ENDBRANCH  36  37
ENDBRANCH  35  36
ENDBRANCH  34  35
ENDBRANCH  33  34
ENDBRANCH  32  33
ENDBRANCH   1  32
TORSDOF 21
ENDMDL
