MODEL 1
REMARK VINA RESULT:     -10.8      0.000      0.000
REMARK SMILES O=C(Nc1cccc(C(=O)OCCOCCOCCOC(=O)c2ccc(-c3c4nc(c(-c5ccccc5)c5ccc([nH]5)c(-c5ccccc5)c5nc(c(-c6ccccc6)c6ccc3[nH]6)C=C5)C=C4)cc2)c1)Nc1cc(Cl)c(Cl)cc1Cl
REMARK SMILES IDX 15 1 14 2 13 3 12 4 11 5 9 6 10 7 8 8 4 9 5 10 71 11 6 12
REMARK SMILES IDX 7 13 3 14 1 15 2 16 72 17 73 20 74 21 80 22 75 23 79 24
REMARK SMILES IDX 81 25 76 26 77 27 78 28 16 29 17 30 18 31 19 32 20 33 21 34
REMARK SMILES IDX 22 35 23 36 24 37 70 38 25 39 69 40 26 41 27 42 28 43 63 44
REMARK SMILES IDX 29 45 68 46 62 47 64 48 30 49 67 50 61 51 60 52 31 54 53 55
REMARK SMILES IDX 38 56 52 57 39 58 42 59 51 60 65 61 40 62 41 63 50 65 66 66
REMARK SMILES IDX 43 67 32 68 33 69 37 70 34 71 36 72 35 73 54 74 55 75 59 76
REMARK SMILES IDX 56 77 58 78 57 79 44 80 45 81 49 82 46 83 48 84 47 85
REMARK H PARENT 3 18 72 19 64 53 42 64
REMARK Flexibility Score: inf
ROOT
ATOM      1  C   UNL A   1      42.817  19.375  25.908  1.00  0.00     0.188 C 
ENDROOT
BRANCH   1   2
ATOM      2  O   UNL A   1      41.471  19.793  25.737  1.00  0.00    -0.376 OA
BRANCH   2   3
ATOM      3  C   UNL A   1      40.886  20.720  26.641  1.00  0.00     0.202 C 
BRANCH   3   4
ATOM      4  C   UNL A   1      39.878  21.781  26.167  1.00  0.00     0.261 C 
BRANCH   4   5
ATOM      5  O   UNL A   1      38.532  21.318  25.984  1.00  0.00    -0.460 OA
BRANCH   5   6
ATOM      6  C   UNL A   1      37.589  22.277  25.830  1.00  0.00     0.338 C 
ATOM      7  O   UNL A   1      37.770  23.471  25.649  1.00  0.00    -0.246 OA
BRANCH   6   8
ATOM      8  C   UNL A   1      36.257  21.642  25.724  1.00  0.00     0.062 A 
ATOM      9  C   UNL A   1      33.949  21.426  26.431  1.00  0.00     0.043 A 
ATOM     10  C   UNL A   1      33.788  20.361  25.539  1.00  0.00     0.026 A 
ATOM     11  C   UNL A   1      35.212  22.010  26.574  1.00  0.00     0.041 A 
ATOM     12  C   UNL A   1      34.843  19.964  24.713  1.00  0.00     0.003 A 
ATOM     13  C   UNL A   1      36.067  20.628  24.779  1.00  0.00     0.016 A 
BRANCH   9  14
ATOM     14  N   UNL A   1      32.813  21.870  27.134  1.00  0.00    -0.308 N 
ATOM     15  O   UNL A   1      31.141  23.240  27.741  1.00  0.00    -0.248 OA
ATOM     16  C   UNL A   1      32.017  22.972  26.926  1.00  0.00     0.323 C 
ATOM     17  N   UNL A   1      32.186  23.595  25.719  1.00  0.00    -0.306 N 
ATOM     18  H   UNL A   1      32.547  21.303  27.893  1.00  0.00     0.171 HD
ATOM     19  H   UNL A   1      32.639  23.057  25.031  1.00  0.00     0.171 HD
BRANCH  17  20
ATOM     20  C   UNL A   1      31.808  24.891  25.319  1.00  0.00     0.063 A 
ATOM     21  C   UNL A   1      32.047  25.893  26.275  1.00  0.00     0.049 A 
ATOM     22  C   UNL A   1      31.171  25.248  24.118  1.00  0.00     0.066 A 
ATOM     23  C   UNL A   1      31.736  27.231  26.018  1.00  0.00     0.061 A 
ATOM     24  C   UNL A   1      30.882  26.594  23.852  1.00  0.00     0.044 A 
ATOM     25  Cl  UNL A   1      30.528  24.114  22.985  1.00  0.00    -0.082 Cl
ATOM     26  Cl  UNL A   1      32.065  28.385  27.260  1.00  0.00    -0.083 Cl
ATOM     27  C   UNL A   1      31.173  27.586  24.792  1.00  0.00     0.061 A 
ATOM     28  Cl  UNL A   1      30.779  29.218  24.392  1.00  0.00    -0.083 Cl
ENDBRANCH  17  20
ENDBRANCH   9  14
ENDBRANCH   6   8
ENDBRANCH   5   6
ENDBRANCH   4   5
ENDBRANCH   3   4
ENDBRANCH   2   3
ENDBRANCH   1   2
BRANCH   1  29
ATOM     29  C   UNL A   1      43.794  19.377  24.713  1.00  0.00     0.188 C 
BRANCH  29  30
ATOM     30  O   UNL A   1      45.127  19.671  25.042  1.00  0.00    -0.376 OA
BRANCH  30  31
ATOM     31  C   UNL A   1      45.476  20.982  25.453  1.00  0.00     0.202 C 
BRANCH  31  32
ATOM     32  C   UNL A   1      45.588  22.213  24.526  1.00  0.00     0.261 C 
BRANCH  32  33
ATOM     33  O   UNL A   1      45.082  23.473  24.982  1.00  0.00    -0.460 OA
BRANCH  33  34
ATOM     34  C   UNL A   1      43.739  23.569  25.133  1.00  0.00     0.338 C 
ATOM     35  O   UNL A   1      42.881  22.943  24.536  1.00  0.00    -0.246 OA
BRANCH  34  36
ATOM     36  C   UNL A   1      43.459  24.445  26.289  1.00  0.00     0.060 A 
ATOM     37  C   UNL A   1      42.642  23.965  27.322  1.00  0.00     0.016 A 
ATOM     38  C   UNL A   1      43.979  25.739  26.341  1.00  0.00     0.016 A 
ATOM     39  C   UNL A   1      42.326  24.789  28.404  1.00  0.00     0.010 A 
ATOM     40  C   UNL A   1      43.643  26.569  27.415  1.00  0.00     0.010 A 
ATOM     41  C   UNL A   1      42.794  26.108  28.438  1.00  0.00    -0.014 A 
BRANCH  41  42
ATOM     42  C   UNL A   1      42.268  27.061  29.449  1.00  0.00     0.031 A 
ATOM     43  C   UNL A   1      42.977  27.171  30.773  1.00  0.00     0.074 A 
ATOM     44  C   UNL A   1      41.187  27.821  29.201  1.00  0.00     0.049 A 
ATOM     45  N   UNL A   1      42.662  27.880  31.827  1.00  0.00    -0.248 NA
ATOM     46  C   UNL A   1      44.205  26.374  30.926  1.00  0.00     0.031 C 
ATOM     47  C   UNL A   1      40.438  27.850  27.946  1.00  0.00     0.029 A 
ATOM     48  N   UNL A   1      40.526  28.715  30.008  1.00  0.00    -0.354 N 
ATOM     49  C   UNL A   1      43.644  27.605  32.771  1.00  0.00     0.074 A 
ATOM     50  C   UNL A   1      44.549  26.646  32.176  1.00  0.00     0.031 C 
ATOM     51  C   UNL A   1      39.411  28.709  28.072  1.00  0.00     0.029 A 
ATOM     52  C   UNL A   1      39.406  29.258  29.427  1.00  0.00     0.049 A 
ATOM     53  H   UNL A   1      40.826  28.944  30.917  1.00  0.00     0.167 HD
ATOM     54  C   UNL A   1      43.784  28.108  34.021  1.00  0.00     0.031 A 
ATOM     55  C   UNL A   1      38.470  30.082  29.939  1.00  0.00     0.031 A 
ATOM     56  C   UNL A   1      42.875  29.047  34.623  1.00  0.00     0.049 A 
ATOM     57  C   UNL A   1      38.597  30.552  31.367  1.00  0.00     0.074 A 
ATOM     58  C   UNL A   1      42.939  29.621  35.881  1.00  0.00     0.029 A 
ATOM     59  N   UNL A   1      41.733  29.542  34.014  1.00  0.00    -0.354 N 
ATOM     60  N   UNL A   1      39.543  30.307  32.241  1.00  0.00    -0.248 NA
ATOM     61  C   UNL A   1      37.523  31.421  31.876  1.00  0.00     0.031 C 
ATOM     62  C   UNL A   1      41.801  30.413  36.058  1.00  0.00     0.029 A 
ATOM     63  C   UNL A   1      41.068  30.392  34.882  1.00  0.00     0.049 A 
ATOM     64  H   UNL A   1      41.439  29.322  33.101  1.00  0.00     0.167 HD
ATOM     65  C   UNL A   1      39.198  31.018  33.385  1.00  0.00     0.074 A 
ATOM     66  C   UNL A   1      37.966  31.717  33.088  1.00  0.00     0.031 C 
ATOM     67  C   UNL A   1      39.845  31.088  34.574  1.00  0.00     0.031 A 
BRANCH  54  68
ATOM     68  C   UNL A   1      44.949  27.623  34.839  1.00  0.00    -0.014 A 
ATOM     69  C   UNL A   1      46.222  28.199  34.712  1.00  0.00     0.009 A 
ATOM     70  C   UNL A   1      44.757  26.603  35.784  1.00  0.00     0.009 A 
ATOM     71  C   UNL A   1      47.286  27.744  35.495  1.00  0.00     0.001 A 
ATOM     72  C   UNL A   1      45.814  26.172  36.587  1.00  0.00     0.001 A 
ATOM     73  C   UNL A   1      47.079  26.736  36.436  1.00  0.00     0.000 A 
ENDBRANCH  54  68
BRANCH  55  74
ATOM     74  C   UNL A   1      37.302  30.500  29.116  1.00  0.00    -0.014 A 
ATOM     75  C   UNL A   1      37.171  31.827  28.677  1.00  0.00     0.009 A 
ATOM     76  C   UNL A   1      36.283  29.583  28.809  1.00  0.00     0.009 A 
ATOM     77  C   UNL A   1      36.030  32.233  27.979  1.00  0.00     0.001 A 
ATOM     78  C   UNL A   1      35.161  29.984  28.081  1.00  0.00     0.001 A 
ATOM     79  C   UNL A   1      35.029  31.311  27.678  1.00  0.00     0.000 A 
ENDBRANCH  55  74
BRANCH  67  80
ATOM     80  C   UNL A   1      39.266  31.991  35.630  1.00  0.00    -0.014 A 
ATOM     81  C   UNL A   1      39.638  33.340  35.730  1.00  0.00     0.009 A 
ATOM     82  C   UNL A   1      38.294  31.489  36.512  1.00  0.00     0.009 A 
ATOM     83  C   UNL A   1      39.078  34.157  36.717  1.00  0.00     0.001 A 
ATOM     84  C   UNL A   1      37.711  32.315  37.473  1.00  0.00     0.001 A 
ATOM     85  C   UNL A   1      38.111  33.646  37.583  1.00  0.00     0.000 A 
ENDBRANCH  67  80
ENDBRANCH  41  42
ENDBRANCH  34  36
ENDBRANCH  33  34
ENDBRANCH  32  33
ENDBRANCH  31  32
ENDBRANCH  30  31
ENDBRANCH  29  30
ENDBRANCH   1  29
TORSDOF 19
ENDMDL
MODEL 2
REMARK VINA RESULT:     -10.8      1.608      2.066
REMARK SMILES O=C(Nc1cccc(C(=O)OCCOCCOCCOC(=O)c2ccc(-c3c4nc(c(-c5ccccc5)c5ccc([nH]5)c(-c5ccccc5)c5nc(c(-c6ccccc6)c6ccc3[nH]6)C=C5)C=C4)cc2)c1)Nc1cc(Cl)c(Cl)cc1Cl
REMARK SMILES IDX 15 1 14 2 13 3 12 4 11 5 9 6 10 7 8 8 4 9 5 10 71 11 6 12
REMARK SMILES IDX 7 13 3 14 1 15 2 16 72 17 73 20 74 21 80 22 75 23 79 24
REMARK SMILES IDX 81 25 76 26 77 27 78 28 16 29 17 30 18 31 19 32 20 33 21 34
REMARK SMILES IDX 22 35 23 36 24 37 70 38 25 39 69 40 26 41 27 42 28 43 63 44
REMARK SMILES IDX 29 45 68 46 62 47 64 48 30 49 67 50 61 51 60 52 31 54 53 55
REMARK SMILES IDX 38 56 52 57 39 58 42 59 51 60 65 61 40 62 41 63 50 65 66 66
REMARK SMILES IDX 43 67 32 68 33 69 37 70 34 71 36 72 35 73 54 74 55 75 59 76
REMARK SMILES IDX 56 77 58 78 57 79 44 80 45 81 49 82 46 83 48 84 47 85
REMARK H PARENT 3 18 72 19 64 53 42 64
REMARK Flexibility Score: inf
ROOT
ATOM      1  C   UNL A   1      42.937  19.218  25.708  1.00  0.00     0.188 C 
ENDROOT
BRANCH   1   2
ATOM      2  O   UNL A   1      41.763  19.930  25.345  1.00  0.00    -0.376 OA
BRANCH   2   3
ATOM      3  C   UNL A   1      40.670  20.020  26.249  1.00  0.00     0.202 C 
BRANCH   3   4
ATOM      4  C   UNL A   1      39.914  21.342  26.470  1.00  0.00     0.261 C 
BRANCH   4   5
ATOM      5  O   UNL A   1      38.726  21.515  25.685  1.00  0.00    -0.460 OA
BRANCH   5   6
ATOM      6  C   UNL A   1      38.078  22.694  25.839  1.00  0.00     0.338 C 
ATOM      7  O   UNL A   1      38.565  23.773  26.138  1.00  0.00    -0.246 OA
BRANCH   6   8
ATOM      8  C   UNL A   1      36.672  22.541  25.402  1.00  0.00     0.062 A 
ATOM      9  C   UNL A   1      34.903  22.911  23.788  1.00  0.00     0.043 A 
ATOM     10  C   UNL A   1      33.997  22.297  24.659  1.00  0.00     0.026 A 
ATOM     11  C   UNL A   1      36.226  23.100  24.202  1.00  0.00     0.041 A 
ATOM     12  C   UNL A   1      34.434  21.769  25.877  1.00  0.00     0.003 A 
ATOM     13  C   UNL A   1      35.778  21.860  26.234  1.00  0.00     0.016 A 
BRANCH   9  14
ATOM     14  N   UNL A   1      34.433  23.295  22.519  1.00  0.00    -0.308 N 
ATOM     15  O   UNL A   1      33.278  24.467  20.989  1.00  0.00    -0.248 OA
ATOM     16  C   UNL A   1      33.687  24.389  22.142  1.00  0.00     0.323 C 
ATOM     17  N   UNL A   1      33.597  25.383  23.078  1.00  0.00    -0.306 N 
ATOM     18  H   UNL A   1      34.677  22.687  21.785  1.00  0.00     0.171 HD
ATOM     19  H   UNL A   1      34.274  25.349  23.792  1.00  0.00     0.171 HD
BRANCH  17  20
ATOM     20  C   UNL A   1      32.678  26.446  23.171  1.00  0.00     0.063 A 
ATOM     21  C   UNL A   1      31.352  26.055  23.429  1.00  0.00     0.049 A 
ATOM     22  C   UNL A   1      32.946  27.810  22.965  1.00  0.00     0.066 A 
ATOM     23  C   UNL A   1      30.330  26.998  23.560  1.00  0.00     0.061 A 
ATOM     24  C   UNL A   1      31.924  28.756  23.121  1.00  0.00     0.044 A 
ATOM     25  Cl  UNL A   1      34.435  28.424  22.339  1.00  0.00    -0.082 Cl
ATOM     26  Cl  UNL A   1      28.735  26.414  23.873  1.00  0.00    -0.083 Cl
ATOM     27  C   UNL A   1      30.621  28.356  23.429  1.00  0.00     0.061 A 
ATOM     28  Cl  UNL A   1      29.418  29.582  23.596  1.00  0.00    -0.083 Cl
ENDBRANCH  17  20
ENDBRANCH   9  14
ENDBRANCH   6   8
ENDBRANCH   5   6
ENDBRANCH   4   5
ENDBRANCH   3   4
ENDBRANCH   2   3
ENDBRANCH   1   2
BRANCH   1  29
ATOM     29  C   UNL A   1      44.165  19.209  24.772  1.00  0.00     0.188 C 
BRANCH  29  30
ATOM     30  O   UNL A   1      45.333  19.757  25.327  1.00  0.00    -0.376 OA
BRANCH  30  31
ATOM     31  C   UNL A   1      45.350  21.116  25.724  1.00  0.00     0.202 C 
BRANCH  31  32
ATOM     32  C   UNL A   1      45.977  22.278  24.920  1.00  0.00     0.261 C 
BRANCH  32  33
ATOM     33  O   UNL A   1      45.350  23.566  24.959  1.00  0.00    -0.460 OA
BRANCH  33  34
ATOM     34  C   UNL A   1      44.025  23.604  24.681  1.00  0.00     0.338 C 
ATOM     35  O   UNL A   1      43.414  22.907  23.890  1.00  0.00    -0.246 OA
BRANCH  34  36
ATOM     36  C   UNL A   1      43.373  24.527  25.633  1.00  0.00     0.060 A 
ATOM     37  C   UNL A   1      43.832  25.848  25.722  1.00  0.00     0.016 A 
ATOM     38  C   UNL A   1      42.330  24.084  26.448  1.00  0.00     0.016 A 
ATOM     39  C   UNL A   1      43.262  26.726  26.644  1.00  0.00     0.010 A 
ATOM     40  C   UNL A   1      41.775  24.960  27.387  1.00  0.00     0.010 A 
ATOM     41  C   UNL A   1      42.256  26.277  27.508  1.00  0.00    -0.014 A 
BRANCH  41  42
ATOM     42  C   UNL A   1      41.818  27.123  28.647  1.00  0.00     0.031 A 
ATOM     43  C   UNL A   1      42.569  27.025  29.948  1.00  0.00     0.074 A 
ATOM     44  C   UNL A   1      40.779  27.970  28.533  1.00  0.00     0.049 A 
ATOM     45  N   UNL A   1      42.328  27.612  31.093  1.00  0.00    -0.248 NA
ATOM     46  C   UNL A   1      43.750  26.145  29.958  1.00  0.00     0.031 C 
ATOM     47  C   UNL A   1      39.998  28.199  27.320  1.00  0.00     0.029 A 
ATOM     48  N   UNL A   1      40.197  28.791  29.469  1.00  0.00    -0.354 N 
ATOM     49  C   UNL A   1      43.317  27.165  31.960  1.00  0.00     0.074 A 
ATOM     50  C   UNL A   1      44.144  26.238  31.219  1.00  0.00     0.031 C 
ATOM     51  C   UNL A   1      39.030  29.092  27.587  1.00  0.00     0.029 A 
ATOM     52  C   UNL A   1      39.096  29.467  28.999  1.00  0.00     0.049 A 
ATOM     53  H   UNL A   1      40.536  28.886  30.388  1.00  0.00     0.167 HD
ATOM     54  C   UNL A   1      43.522  27.497  33.257  1.00  0.00     0.031 A 
ATOM     55  C   UNL A   1      38.227  30.271  29.642  1.00  0.00     0.031 A 
ATOM     56  C   UNL A   1      42.690  28.403  34.003  1.00  0.00     0.049 A 
ATOM     57  C   UNL A   1      38.423  30.550  31.112  1.00  0.00     0.074 A 
ATOM     58  C   UNL A   1      42.824  28.810  35.319  1.00  0.00     0.029 A 
ATOM     59  N   UNL A   1      41.564  29.036  33.501  1.00  0.00    -0.354 N 
ATOM     60  N   UNL A   1      39.377  30.142  31.914  1.00  0.00    -0.248 NA
ATOM     61  C   UNL A   1      37.419  31.408  31.762  1.00  0.00     0.031 C 
ATOM     62  C   UNL A   1      41.743  29.638  35.633  1.00  0.00     0.029 A 
ATOM     63  C   UNL A   1      40.977  29.807  34.491  1.00  0.00     0.049 A 
ATOM     64  H   UNL A   1      41.232  28.951  32.578  1.00  0.00     0.167 HD
ATOM     65  C   UNL A   1      39.108  30.723  33.149  1.00  0.00     0.074 A 
ATOM     66  C   UNL A   1      37.914  31.523  32.986  1.00  0.00     0.031 C 
ATOM     67  C   UNL A   1      39.791  30.605  34.315  1.00  0.00     0.031 A 
BRANCH  54  68
ATOM     68  C   UNL A   1      44.678  26.847  33.967  1.00  0.00    -0.014 A 
ATOM     69  C   UNL A   1      44.482  25.778  34.856  1.00  0.00     0.009 A 
ATOM     70  C   UNL A   1      45.986  27.282  33.707  1.00  0.00     0.009 A 
ATOM     71  C   UNL A   1      45.571  25.178  35.491  1.00  0.00     0.001 A 
ATOM     72  C   UNL A   1      47.076  26.660  34.320  1.00  0.00     0.001 A 
ATOM     73  C   UNL A   1      46.867  25.615  35.218  1.00  0.00     0.000 A 
ENDBRANCH  54  68
BRANCH  55  74
ATOM     74  C   UNL A   1      37.065  30.856  28.920  1.00  0.00    -0.014 A 
ATOM     75  C   UNL A   1      37.030  32.223  28.602  1.00  0.00     0.009 A 
ATOM     76  C   UNL A   1      35.958  30.057  28.588  1.00  0.00     0.009 A 
ATOM     77  C   UNL A   1      35.898  32.783  28.002  1.00  0.00     0.001 A 
ATOM     78  C   UNL A   1      34.844  30.613  27.956  1.00  0.00     0.001 A 
ATOM     79  C   UNL A   1      34.809  31.977  27.676  1.00  0.00     0.000 A 
ENDBRANCH  55  74
BRANCH  67  80
ATOM     80  C   UNL A   1      39.298  31.399  35.494  1.00  0.00    -0.014 A 
ATOM     81  C   UNL A   1      39.785  32.687  35.770  1.00  0.00     0.009 A 
ATOM     82  C   UNL A   1      38.293  30.864  36.317  1.00  0.00     0.009 A 
ATOM     83  C   UNL A   1      39.303  33.404  36.869  1.00  0.00     0.001 A 
ATOM     84  C   UNL A   1      37.789  31.597  37.393  1.00  0.00     0.001 A 
ATOM     85  C   UNL A   1      38.302  32.861  37.675  1.00  0.00     0.000 A 
ENDBRANCH  67  80
ENDBRANCH  41  42
ENDBRANCH  34  36
ENDBRANCH  33  34
ENDBRANCH  32  33
ENDBRANCH  31  32
ENDBRANCH  30  31
ENDBRANCH  29  30
ENDBRANCH   1  29
TORSDOF 19
ENDMDL
MODEL 3
REMARK VINA RESULT:     -10.3      1.768      6.205
REMARK SMILES O=C(Nc1cccc(C(=O)OCCOCCOCCOC(=O)c2ccc(-c3c4nc(c(-c5ccccc5)c5ccc([nH]5)c(-c5ccccc5)c5nc(c(-c6ccccc6)c6ccc3[nH]6)C=C5)C=C4)cc2)c1)Nc1cc(Cl)c(Cl)cc1Cl
REMARK SMILES IDX 15 1 14 2 13 3 12 4 11 5 9 6 10 7 8 8 4 9 5 10 71 11 6 12
REMARK SMILES IDX 7 13 3 14 1 15 2 16 72 17 73 20 74 21 80 22 75 23 79 24
REMARK SMILES IDX 81 25 76 26 77 27 78 28 16 29 17 30 18 31 19 32 20 33 21 34
REMARK SMILES IDX 22 35 23 36 24 37 70 38 25 39 69 40 26 41 27 42 28 43 63 44
REMARK SMILES IDX 29 45 68 46 62 47 64 48 30 49 67 50 61 51 60 52 31 54 53 55
REMARK SMILES IDX 38 56 52 57 39 58 42 59 51 60 65 61 40 62 41 63 50 65 66 66
REMARK SMILES IDX 43 67 32 68 33 69 37 70 34 71 36 72 35 73 54 74 55 75 59 76
REMARK SMILES IDX 56 77 58 78 57 79 44 80 45 81 49 82 46 83 48 84 47 85
REMARK H PARENT 3 18 72 19 64 53 42 64
REMARK Flexibility Score: inf
ROOT
ATOM      1  C   UNL A   1      40.096  20.374  26.571  1.00  0.00     0.188 C 
ENDROOT
BRANCH   1   2
ATOM      2  O   UNL A   1      39.182  20.823  25.581  1.00  0.00    -0.376 OA
BRANCH   2   3
ATOM      3  C   UNL A   1      38.264  19.916  24.986  1.00  0.00     0.202 C 
BRANCH   3   4
ATOM      4  C   UNL A   1      36.754  20.205  24.952  1.00  0.00     0.261 C 
BRANCH   4   5
ATOM      5  O   UNL A   1      36.372  21.546  25.291  1.00  0.00    -0.460 OA
BRANCH   5   6
ATOM      6  C   UNL A   1      35.127  21.698  25.802  1.00  0.00     0.338 C 
ATOM      7  O   UNL A   1      34.827  21.945  26.960  1.00  0.00    -0.246 OA
BRANCH   6   8
ATOM      8  C   UNL A   1      34.142  21.709  24.697  1.00  0.00     0.062 A 
ATOM      9  C   UNL A   1      33.259  22.669  22.655  1.00  0.00     0.043 A 
ATOM     10  C   UNL A   1      32.218  21.735  22.680  1.00  0.00     0.026 A 
ATOM     11  C   UNL A   1      34.174  22.699  23.712  1.00  0.00     0.041 A 
ATOM     12  C   UNL A   1      32.161  20.766  23.686  1.00  0.00     0.003 A 
ATOM     13  C   UNL A   1      33.143  20.730  24.675  1.00  0.00     0.016 A 
BRANCH   9  14
ATOM     14  N   UNL A   1      33.341  23.527  21.543  1.00  0.00    -0.308 N 
ATOM     15  O   UNL A   1      33.023  25.376  20.308  1.00  0.00    -0.248 OA
ATOM     16  C   UNL A   1      32.979  24.849  21.414  1.00  0.00     0.323 C 
ATOM     17  N   UNL A   1      32.740  25.505  22.590  1.00  0.00    -0.306 N 
ATOM     18  H   UNL A   1      33.717  23.120  20.731  1.00  0.00     0.171 HD
ATOM     19  H   UNL A   1      33.105  25.070  23.394  1.00  0.00     0.171 HD
BRANCH  17  20
ATOM     20  C   UNL A   1      32.049  26.711  22.820  1.00  0.00     0.063 A 
ATOM     21  C   UNL A   1      30.666  26.562  23.032  1.00  0.00     0.049 A 
ATOM     22  C   UNL A   1      32.586  28.009  22.786  1.00  0.00     0.066 A 
ATOM     23  C   UNL A   1      29.849  27.666  23.286  1.00  0.00     0.061 A 
ATOM     24  C   UNL A   1      31.768  29.112  23.065  1.00  0.00     0.044 A 
ATOM     25  Cl  UNL A   1      34.180  28.386  22.236  1.00  0.00    -0.082 Cl
ATOM     26  Cl  UNL A   1      28.163  27.378  23.530  1.00  0.00    -0.083 Cl
ATOM     27  C   UNL A   1      30.406  28.944  23.325  1.00  0.00     0.061 A 
ATOM     28  Cl  UNL A   1      29.466  30.355  23.651  1.00  0.00    -0.083 Cl
ENDBRANCH  17  20
ENDBRANCH   9  14
ENDBRANCH   6   8
ENDBRANCH   5   6
ENDBRANCH   4   5
ENDBRANCH   3   4
ENDBRANCH   2   3
ENDBRANCH   1   2
BRANCH   1  29
ATOM     29  C   UNL A   1      41.546  20.011  26.188  1.00  0.00     0.188 C 
BRANCH  29  30
ATOM     30  O   UNL A   1      42.451  21.084  26.222  1.00  0.00    -0.376 OA
BRANCH  30  31
ATOM     31  C   UNL A   1      43.719  20.953  25.603  1.00  0.00     0.202 C 
BRANCH  31  32
ATOM     32  C   UNL A   1      44.620  22.123  25.148  1.00  0.00     0.261 C 
BRANCH  32  33
ATOM     33  O   UNL A   1      44.977  23.134  26.097  1.00  0.00    -0.460 OA
BRANCH  33  34
ATOM     34  C   UNL A   1      44.919  24.417  25.667  1.00  0.00     0.338 C 
ATOM     35  O   UNL A   1      45.299  24.857  24.596  1.00  0.00    -0.246 OA
BRANCH  34  36
ATOM     36  C   UNL A   1      44.142  25.205  26.646  1.00  0.00     0.060 A 
ATOM     37  C   UNL A   1      44.438  26.565  26.811  1.00  0.00     0.016 A 
ATOM     38  C   UNL A   1      43.146  24.600  27.413  1.00  0.00     0.016 A 
ATOM     39  C   UNL A   1      43.748  27.321  27.760  1.00  0.00     0.010 A 
ATOM     40  C   UNL A   1      42.472  25.353  28.379  1.00  0.00     0.010 A 
ATOM     41  C   UNL A   1      42.788  26.711  28.576  1.00  0.00    -0.014 A 
BRANCH  41  42
ATOM     42  C   UNL A   1      42.230  27.439  29.744  1.00  0.00     0.031 A 
ATOM     43  C   UNL A   1      40.931  28.182  29.577  1.00  0.00     0.074 A 
ATOM     44  C   UNL A   1      42.854  27.437  30.935  1.00  0.00     0.049 A 
ATOM     45  N   UNL A   1      40.292  28.939  30.432  1.00  0.00    -0.248 NA
ATOM     46  C   UNL A   1      40.266  28.053  28.270  1.00  0.00     0.031 C 
ATOM     47  C   UNL A   1      44.089  26.720  31.247  1.00  0.00     0.029 A 
ATOM     48  N   UNL A   1      42.532  28.078  32.108  1.00  0.00    -0.354 N 
ATOM     49  C   UNL A   1      39.158  29.386  29.763  1.00  0.00     0.074 A 
ATOM     50  C   UNL A   1      39.211  28.838  28.425  1.00  0.00     0.031 C 
ATOM     51  C   UNL A   1      44.426  26.969  32.524  1.00  0.00     0.029 A 
ATOM     52  C   UNL A   1      43.457  27.896  33.107  1.00  0.00     0.049 A 
ATOM     53  H   UNL A   1      41.715  28.616  32.221  1.00  0.00     0.167 HD
ATOM     54  C   UNL A   1      38.160  30.179  30.221  1.00  0.00     0.031 A 
ATOM     55  C   UNL A   1      43.527  28.437  34.339  1.00  0.00     0.031 A 
ATOM     56  C   UNL A   1      38.115  30.742  31.544  1.00  0.00     0.049 A 
ATOM     57  C   UNL A   1      42.452  29.394  34.792  1.00  0.00     0.074 A 
ATOM     58  C   UNL A   1      37.139  31.549  32.103  1.00  0.00     0.029 A 
ATOM     59  N   UNL A   1      39.090  30.564  32.512  1.00  0.00    -0.354 N 
ATOM     60  N   UNL A   1      41.372  29.788  34.160  1.00  0.00    -0.248 NA
ATOM     61  C   UNL A   1      42.607  29.977  36.134  1.00  0.00     0.031 C 
ATOM     62  C   UNL A   1      37.556  31.913  33.387  1.00  0.00     0.029 A 
ATOM     63  C   UNL A   1      38.754  31.271  33.654  1.00  0.00     0.049 A 
ATOM     64  H   UNL A   1      39.901  30.016  32.404  1.00  0.00     0.167 HD
ATOM     65  C   UNL A   1      40.704  30.632  35.040  1.00  0.00     0.074 A 
ATOM     66  C   UNL A   1      41.490  30.679  36.255  1.00  0.00     0.031 C 
ATOM     67  C   UNL A   1      39.541  31.306  34.860  1.00  0.00     0.031 A 
BRANCH  54  68
ATOM     68  C   UNL A   1      37.047  30.516  29.267  1.00  0.00    -0.014 A 
ATOM     69  C   UNL A   1      36.103  29.554  28.876  1.00  0.00     0.009 A 
ATOM     70  C   UNL A   1      36.916  31.829  28.789  1.00  0.00     0.009 A 
ATOM     71  C   UNL A   1      35.067  29.895  28.003  1.00  0.00     0.001 A 
ATOM     72  C   UNL A   1      35.862  32.173  27.941  1.00  0.00     0.001 A 
ATOM     73  C   UNL A   1      34.945  31.204  27.542  1.00  0.00     0.000 A 
ENDBRANCH  54  68
BRANCH  55  74
ATOM     74  C   UNL A   1      44.671  28.121  35.237  1.00  0.00    -0.014 A 
ATOM     75  C   UNL A   1      44.598  27.054  36.147  1.00  0.00     0.009 A 
ATOM     76  C   UNL A   1      45.827  28.920  35.225  1.00  0.00     0.009 A 
ATOM     77  C   UNL A   1      45.640  26.817  37.047  1.00  0.00     0.001 A 
ATOM     78  C   UNL A   1      46.882  28.657  36.102  1.00  0.00     0.001 A 
ATOM     79  C   UNL A   1      46.782  27.616  37.021  1.00  0.00     0.000 A 
ENDBRANCH  55  74
BRANCH  67  80
ATOM     80  C   UNL A   1      39.017  32.111  36.018  1.00  0.00    -0.014 A 
ATOM     81  C   UNL A   1      38.078  31.584  36.917  1.00  0.00     0.009 A 
ATOM     82  C   UNL A   1      39.509  33.409  36.237  1.00  0.00     0.009 A 
ATOM     83  C   UNL A   1      37.614  32.353  37.988  1.00  0.00     0.001 A 
ATOM     84  C   UNL A   1      39.071  34.162  37.327  1.00  0.00     0.001 A 
ATOM     85  C   UNL A   1      38.115  33.638  38.196  1.00  0.00     0.000 A 
ENDBRANCH  67  80
ENDBRANCH  41  42
ENDBRANCH  34  36
ENDBRANCH  33  34
ENDBRANCH  32  33
ENDBRANCH  31  32
ENDBRANCH  30  31
ENDBRANCH  29  30
ENDBRANCH   1  29
TORSDOF 19
ENDMDL
