MODEL 1
REMARK VINA RESULT:      -9.3      0.000      0.000
REMARK SMILES C/C=C/C[C@@H](C(=O)OCCOCCOCCOC(=O)c1ccc(-c2c3nc(c(-c4ccccc4)c4ccc([nH]4)c(-c4ccccc4)c4nc(c(-c5ccccc5)c5ccc2[nH]5)C=C4)C=C3)cc1)c1cccc(Cl)c1
REMARK SMILES IDX 12 1 11 2 10 3 9 4 8 5 6 6 7 7 5 8 4 9 3 10 1 11 2 12 68 13
REMARK SMILES IDX 69 14 74 15 70 16 72 17 71 18 73 19 13 20 14 21 15 22 16 23
REMARK SMILES IDX 17 24 18 25 19 26 20 27 21 28 67 29 22 30 66 31 23 32 24 33
REMARK SMILES IDX 25 34 60 35 26 36 65 37 59 38 61 39 27 40 64 41 58 42 57 43
REMARK SMILES IDX 28 45 50 46 35 47 49 48 36 49 39 50 48 51 62 52 37 53 38 54
REMARK SMILES IDX 47 56 63 57 40 58 29 59 30 60 34 61 31 62 33 63 32 64 51 65
REMARK SMILES IDX 52 66 56 67 53 68 55 69 54 70 41 71 42 72 46 73 43 74 45 75
REMARK SMILES IDX 44 76
REMARK H PARENT 61 44 39 55
REMARK Flexibility Score: inf
ROOT
ATOM      1  C   UNL A   1      40.365  21.209  27.129  1.00  0.00     0.188 C 
ENDROOT
BRANCH   1   2
ATOM      2  O   UNL A   1      39.951  21.500  25.802  1.00  0.00    -0.376 OA
BRANCH   2   3
ATOM      3  C   UNL A   1      38.577  21.342  25.465  1.00  0.00     0.202 C 
BRANCH   3   4
ATOM      4  C   UNL A   1      37.640  22.563  25.519  1.00  0.00     0.261 C 
BRANCH   4   5
ATOM      5  O   UNL A   1      36.735  22.690  24.399  1.00  0.00    -0.463 OA
BRANCH   5   6
ATOM      6  C   UNL A   1      35.405  22.678  24.672  1.00  0.00     0.313 C 
ATOM      7  O   UNL A   1      34.631  21.861  24.178  1.00  0.00    -0.252 OA
BRANCH   6   8
ATOM      8  C   UNL A   1      34.928  23.716  25.713  1.00  0.00     0.133 C 
BRANCH   8   9
ATOM      9  C   UNL A   1      34.062  23.287  26.933  1.00  0.00     0.047 C 
BRANCH   9  10
ATOM     10  C   UNL A   1      32.674  22.746  26.712  1.00  0.00    -0.030 C 
ATOM     11  C   UNL A   1      30.178  22.927  26.661  1.00  0.00     0.035 C 
ATOM     12  C   UNL A   1      31.550  23.431  26.976  1.00  0.00    -0.035 C 
ENDBRANCH   9  10
ENDBRANCH   8   9
BRANCH   8  13
ATOM     13  C   UNL A   1      34.297  24.971  25.060  1.00  0.00    -0.032 A 
ATOM     14  C   UNL A   1      34.057  26.167  25.759  1.00  0.00     0.005 A 
ATOM     15  C   UNL A   1      33.938  24.937  23.698  1.00  0.00     0.025 A 
ATOM     16  C   UNL A   1      33.509  27.287  25.124  1.00  0.00     0.002 A 
ATOM     17  C   UNL A   1      33.385  26.058  23.069  1.00  0.00     0.041 A 
ATOM     18  C   UNL A   1      33.177  27.236  23.774  1.00  0.00     0.020 A 
ATOM     19  Cl  UNL A   1      32.947  25.970  21.407  1.00  0.00    -0.084 Cl
ENDBRANCH   8  13
ENDBRANCH   6   8
ENDBRANCH   5   6
ENDBRANCH   4   5
ENDBRANCH   3   4
ENDBRANCH   2   3
ENDBRANCH   1   2
BRANCH   1  20
ATOM     20  C   UNL A   1      41.853  21.318  27.492  1.00  0.00     0.188 C 
BRANCH  20  21
ATOM     21  O   UNL A   1      42.659  20.249  27.074  1.00  0.00    -0.376 OA
BRANCH  21  22
ATOM     22  C   UNL A   1      43.223  20.253  25.778  1.00  0.00     0.202 C 
BRANCH  22  23
ATOM     23  C   UNL A   1      43.839  21.490  25.092  1.00  0.00     0.261 C 
BRANCH  23  24
ATOM     24  O   UNL A   1      43.125  22.730  25.137  1.00  0.00    -0.460 OA
BRANCH  24  25
ATOM     25  C   UNL A   1      43.860  23.865  25.118  1.00  0.00     0.338 C 
ATOM     26  O   UNL A   1      44.827  24.106  24.408  1.00  0.00    -0.246 OA
BRANCH  25  27
ATOM     27  C   UNL A   1      43.178  24.868  25.963  1.00  0.00     0.060 A 
ATOM     28  C   UNL A   1      43.730  26.151  26.087  1.00  0.00     0.016 A 
ATOM     29  C   UNL A   1      42.005  24.536  26.644  1.00  0.00     0.016 A 
ATOM     30  C   UNL A   1      43.133  27.093  26.928  1.00  0.00     0.010 A 
ATOM     31  C   UNL A   1      41.422  25.473  27.503  1.00  0.00     0.010 A 
ATOM     32  C   UNL A   1      42.006  26.741  27.680  1.00  0.00    -0.014 A 
BRANCH  32  33
ATOM     33  C   UNL A   1      41.560  27.601  28.805  1.00  0.00     0.031 A 
ATOM     34  C   UNL A   1      42.308  27.511  30.109  1.00  0.00     0.074 A 
ATOM     35  C   UNL A   1      40.521  28.445  28.686  1.00  0.00     0.049 A 
ATOM     36  N   UNL A   1      42.057  28.094  31.253  1.00  0.00    -0.248 NA
ATOM     37  C   UNL A   1      43.490  26.634  30.123  1.00  0.00     0.031 C 
ATOM     38  C   UNL A   1      39.739  28.659  27.473  1.00  0.00     0.029 A 
ATOM     39  N   UNL A   1      39.942  29.278  29.613  1.00  0.00    -0.354 N 
ATOM     40  C   UNL A   1      43.038  27.640  32.126  1.00  0.00     0.074 A 
ATOM     41  C   UNL A   1      43.869  26.713  31.390  1.00  0.00     0.031 C 
ATOM     42  C   UNL A   1      38.781  29.569  27.727  1.00  0.00     0.029 A 
ATOM     43  C   UNL A   1      38.852  29.963  29.134  1.00  0.00     0.049 A 
ATOM     44  H   UNL A   1      40.277  29.375  30.534  1.00  0.00     0.167 HD
ATOM     45  C   UNL A   1      43.230  27.961  33.427  1.00  0.00     0.031 A 
ATOM     46  C   UNL A   1      37.993  30.787  29.768  1.00  0.00     0.031 A 
ATOM     47  C   UNL A   1      42.397  28.869  34.168  1.00  0.00     0.049 A 
ATOM     48  C   UNL A   1      38.181  31.066  31.238  1.00  0.00     0.074 A 
ATOM     49  C   UNL A   1      42.518  29.266  35.488  1.00  0.00     0.029 A 
ATOM     50  N   UNL A   1      41.283  29.514  33.656  1.00  0.00    -0.354 N 
ATOM     51  N   UNL A   1      39.119  30.644  32.051  1.00  0.00    -0.248 NA
ATOM     52  C   UNL A   1      37.185  31.941  31.878  1.00  0.00     0.031 C 
ATOM     53  C   UNL A   1      41.439  30.102  35.793  1.00  0.00     0.029 A 
ATOM     54  C   UNL A   1      40.691  30.286  34.642  1.00  0.00     0.049 A 
ATOM     55  H   UNL A   1      40.961  29.437  32.729  1.00  0.00     0.167 HD
ATOM     56  C   UNL A   1      38.848  31.227  33.284  1.00  0.00     0.074 A 
ATOM     57  C   UNL A   1      37.666  32.045  33.109  1.00  0.00     0.031 C 
ATOM     58  C   UNL A   1      39.518  31.100  34.456  1.00  0.00     0.031 A 
BRANCH  45  59
ATOM     59  C   UNL A   1      44.368  27.288  34.144  1.00  0.00    -0.014 A 
ATOM     60  C   UNL A   1      45.645  27.867  34.201  1.00  0.00     0.009 A 
ATOM     61  C   UNL A   1      44.149  26.063  34.793  1.00  0.00     0.009 A 
ATOM     62  C   UNL A   1      46.688  27.215  34.862  1.00  0.00     0.001 A 
ATOM     63  C   UNL A   1      45.184  25.430  35.483  1.00  0.00     0.001 A 
ATOM     64  C   UNL A   1      46.455  26.002  35.508  1.00  0.00     0.000 A 
ENDBRANCH  45  59
BRANCH  46  65
ATOM     65  C   UNL A   1      36.849  31.391  29.032  1.00  0.00    -0.014 A 
ATOM     66  C   UNL A   1      36.879  32.739  28.643  1.00  0.00     0.009 A 
ATOM     67  C   UNL A   1      35.700  30.634  28.753  1.00  0.00     0.009 A 
ATOM     68  C   UNL A   1      35.773  33.323  28.019  1.00  0.00     0.001 A 
ATOM     69  C   UNL A   1      34.610  31.210  28.098  1.00  0.00     0.001 A 
ATOM     70  C   UNL A   1      34.642  32.557  27.743  1.00  0.00     0.000 A 
ENDBRANCH  46  65
BRANCH  58  71
ATOM     71  C   UNL A   1      39.026  31.901  35.631  1.00  0.00    -0.014 A 
ATOM     72  C   UNL A   1      38.158  31.352  36.588  1.00  0.00     0.009 A 
ATOM     73  C   UNL A   1      39.482  33.218  35.808  1.00  0.00     0.009 A 
ATOM     74  C   UNL A   1      37.729  32.119  37.675  1.00  0.00     0.001 A 
ATOM     75  C   UNL A   1      39.080  33.969  36.913  1.00  0.00     0.001 A 
ATOM     76  C   UNL A   1      38.195  33.422  37.841  1.00  0.00     0.000 A 
ENDBRANCH  58  71
ENDBRANCH  32  33
ENDBRANCH  25  27
ENDBRANCH  24  25
ENDBRANCH  23  24
ENDBRANCH  22  23
ENDBRANCH  21  22
ENDBRANCH  20  21
ENDBRANCH   1  20
TORSDOF 20
ENDMDL
MODEL 2
REMARK VINA RESULT:      -9.2      3.732      7.671
REMARK SMILES C/C=C/C[C@@H](C(=O)OCCOCCOCCOC(=O)c1ccc(-c2c3nc(c(-c4ccccc4)c4ccc([nH]4)c(-c4ccccc4)c4nc(c(-c5ccccc5)c5ccc2[nH]5)C=C4)C=C3)cc1)c1cccc(Cl)c1
REMARK SMILES IDX 12 1 11 2 10 3 9 4 8 5 6 6 7 7 5 8 4 9 3 10 1 11 2 12 68 13
REMARK SMILES IDX 69 14 74 15 70 16 72 17 71 18 73 19 13 20 14 21 15 22 16 23
REMARK SMILES IDX 17 24 18 25 19 26 20 27 21 28 67 29 22 30 66 31 23 32 24 33
REMARK SMILES IDX 25 34 60 35 26 36 65 37 59 38 61 39 27 40 64 41 58 42 57 43
REMARK SMILES IDX 28 45 50 46 35 47 49 48 36 49 39 50 48 51 62 52 37 53 38 54
REMARK SMILES IDX 47 56 63 57 40 58 29 59 30 60 34 61 31 62 33 63 32 64 51 65
REMARK SMILES IDX 52 66 56 67 53 68 55 69 54 70 41 71 42 72 46 73 43 74 45 75
REMARK SMILES IDX 44 76
REMARK H PARENT 61 44 39 55
REMARK Flexibility Score: inf
ROOT
ATOM      1  C   UNL A   1      36.562  22.270  24.199  1.00  0.00     0.188 C 
ENDROOT
BRANCH   1   2
ATOM      2  O   UNL A   1      35.148  22.388  24.170  1.00  0.00    -0.376 OA
BRANCH   2   3
ATOM      3  C   UNL A   1      34.540  23.054  23.068  1.00  0.00     0.202 C 
BRANCH   3   4
ATOM      4  C   UNL A   1      33.490  24.150  23.332  1.00  0.00     0.261 C 
BRANCH   4   5
ATOM      5  O   UNL A   1      33.996  25.339  23.979  1.00  0.00    -0.463 OA
BRANCH   5   6
ATOM      6  C   UNL A   1      33.617  25.554  25.264  1.00  0.00     0.313 C 
ATOM      7  O   UNL A   1      33.777  24.723  26.154  1.00  0.00    -0.252 OA
BRANCH   6   8
ATOM      8  C   UNL A   1      33.033  26.954  25.562  1.00  0.00     0.133 C 
BRANCH   8   9
ATOM      9  C   UNL A   1      32.550  27.333  26.992  1.00  0.00     0.047 C 
BRANCH   9  10
ATOM     10  C   UNL A   1      32.847  28.702  27.544  1.00  0.00    -0.030 C 
ATOM     11  C   UNL A   1      33.385  31.138  27.332  1.00  0.00     0.035 C 
ATOM     12  C   UNL A   1      33.190  29.759  26.789  1.00  0.00    -0.035 C 
ENDBRANCH   9  10
ENDBRANCH   8   9
BRANCH   8  13
ATOM     13  C   UNL A   1      31.959  27.386  24.534  1.00  0.00    -0.032 A 
ATOM     14  C   UNL A   1      32.203  28.309  23.503  1.00  0.00     0.005 A 
ATOM     15  C   UNL A   1      30.662  26.839  24.615  1.00  0.00     0.025 A 
ATOM     16  C   UNL A   1      31.210  28.652  22.578  1.00  0.00     0.002 A 
ATOM     17  C   UNL A   1      29.671  27.189  23.692  1.00  0.00     0.041 A 
ATOM     18  C   UNL A   1      29.942  28.087  22.668  1.00  0.00     0.020 A 
ATOM     19  Cl  UNL A   1      28.097  26.509  23.836  1.00  0.00    -0.084 Cl
ENDBRANCH   8  13
ENDBRANCH   6   8
ENDBRANCH   5   6
ENDBRANCH   4   5
ENDBRANCH   3   4
ENDBRANCH   2   3
ENDBRANCH   1   2
BRANCH   1  20
ATOM     20  C   UNL A   1      37.325  22.691  25.464  1.00  0.00     0.188 C 
BRANCH  20  21
ATOM     21  O   UNL A   1      38.280  21.776  25.929  1.00  0.00    -0.376 OA
BRANCH  21  22
ATOM     22  C   UNL A   1      38.435  20.527  25.286  1.00  0.00     0.202 C 
BRANCH  22  23
ATOM     23  C   UNL A   1      39.402  19.416  25.745  1.00  0.00     0.261 C 
BRANCH  23  24
ATOM     24  O   UNL A   1      40.732  19.398  25.214  1.00  0.00    -0.460 OA
BRANCH  24  25
ATOM     25  C   UNL A   1      41.750  19.454  26.101  1.00  0.00     0.338 C 
ATOM     26  O   UNL A   1      42.554  18.569  26.359  1.00  0.00    -0.246 OA
BRANCH  25  27
ATOM     27  C   UNL A   1      41.869  20.849  26.576  1.00  0.00     0.060 A 
ATOM     28  C   UNL A   1      42.278  21.847  25.679  1.00  0.00     0.016 A 
ATOM     29  C   UNL A   1      41.595  21.167  27.907  1.00  0.00     0.016 A 
ATOM     30  C   UNL A   1      42.456  23.159  26.123  1.00  0.00     0.010 A 
ATOM     31  C   UNL A   1      41.795  22.476  28.355  1.00  0.00     0.010 A 
ATOM     32  C   UNL A   1      42.265  23.469  27.475  1.00  0.00    -0.014 A 
BRANCH  32  33
ATOM     33  C   UNL A   1      42.757  24.759  28.023  1.00  0.00     0.031 A 
ATOM     34  C   UNL A   1      41.748  25.833  28.328  1.00  0.00     0.074 A 
ATOM     35  C   UNL A   1      44.063  24.983  28.248  1.00  0.00     0.049 A 
ATOM     36  N   UNL A   1      41.939  27.064  28.729  1.00  0.00    -0.248 NA
ATOM     37  C   UNL A   1      40.333  25.471  28.142  1.00  0.00     0.031 C 
ATOM     38  C   UNL A   1      45.136  24.018  28.035  1.00  0.00     0.029 A 
ATOM     39  N   UNL A   1      44.705  26.109  28.703  1.00  0.00    -0.354 N 
ATOM     40  C   UNL A   1      40.673  27.627  28.824  1.00  0.00     0.074 A 
ATOM     41  C   UNL A   1      39.725  26.616  28.414  1.00  0.00     0.031 C 
ATOM     42  C   UNL A   1      46.309  24.591  28.363  1.00  0.00     0.029 A 
ATOM     43  C   UNL A   1      46.072  25.979  28.760  1.00  0.00     0.049 A 
ATOM     44  H   UNL A   1      44.231  26.931  28.965  1.00  0.00     0.167 HD
ATOM     45  C   UNL A   1      40.327  28.876  29.217  1.00  0.00     0.031 A 
ATOM     46  C   UNL A   1      47.021  26.885  29.067  1.00  0.00     0.031 A 
ATOM     47  C   UNL A   1      41.267  29.890  29.610  1.00  0.00     0.049 A 
ATOM     48  C   UNL A   1      46.616  28.294  29.422  1.00  0.00     0.074 A 
ATOM     49  C   UNL A   1      41.012  31.183  30.034  1.00  0.00     0.029 A 
ATOM     50  N   UNL A   1      42.643  29.729  29.620  1.00  0.00    -0.354 N 
ATOM     51  N   UNL A   1      45.415  28.812  29.525  1.00  0.00    -0.248 NA
ATOM     52  C   UNL A   1      47.703  29.245  29.706  1.00  0.00     0.031 C 
ATOM     53  C   UNL A   1      42.237  31.824  30.239  1.00  0.00     0.029 A 
ATOM     54  C   UNL A   1      43.252  30.908  30.017  1.00  0.00     0.049 A 
ATOM     55  H   UNL A   1      43.117  28.900  29.383  1.00  0.00     0.167 HD
ATOM     56  C   UNL A   1      45.602  30.134  29.917  1.00  0.00     0.074 A 
ATOM     57  C   UNL A   1      47.029  30.334  30.049  1.00  0.00     0.031 C 
ATOM     58  C   UNL A   1      44.674  31.095  30.150  1.00  0.00     0.031 A 
BRANCH  45  59
ATOM     59  C   UNL A   1      38.864  29.225  29.196  1.00  0.00    -0.014 A 
ATOM     60  C   UNL A   1      38.244  29.721  28.039  1.00  0.00     0.009 A 
ATOM     61  C   UNL A   1      38.090  29.029  30.351  1.00  0.00     0.009 A 
ATOM     62  C   UNL A   1      36.887  30.048  28.050  1.00  0.00     0.001 A 
ATOM     63  C   UNL A   1      36.725  29.324  30.348  1.00  0.00     0.001 A 
ATOM     64  C   UNL A   1      36.128  29.844  29.201  1.00  0.00     0.000 A 
ENDBRANCH  45  59
BRANCH  46  65
ATOM     65  C   UNL A   1      48.461  26.510  29.023  1.00  0.00    -0.014 A 
ATOM     66  C   UNL A   1      49.187  26.593  27.825  1.00  0.00     0.009 A 
ATOM     67  C   UNL A   1      49.107  26.023  30.171  1.00  0.00     0.009 A 
ATOM     68  C   UNL A   1      50.518  26.169  27.770  1.00  0.00     0.001 A 
ATOM     69  C   UNL A   1      50.447  25.633  30.122  1.00  0.00     0.001 A 
ATOM     70  C   UNL A   1      51.147  25.695  28.919  1.00  0.00     0.000 A 
ENDBRANCH  46  65
BRANCH  58  71
ATOM     71  C   UNL A   1      45.164  32.437  30.624  1.00  0.00    -0.014 A 
ATOM     72  C   UNL A   1      45.447  33.478  29.727  1.00  0.00     0.009 A 
ATOM     73  C   UNL A   1      45.297  32.676  32.002  1.00  0.00     0.009 A 
ATOM     74  C   UNL A   1      45.889  34.717  30.199  1.00  0.00     0.001 A 
ATOM     75  C   UNL A   1      45.705  33.924  32.472  1.00  0.00     0.001 A 
ATOM     76  C   UNL A   1      46.011  34.942  31.570  1.00  0.00     0.000 A 
ENDBRANCH  58  71
ENDBRANCH  32  33
ENDBRANCH  25  27
ENDBRANCH  24  25
ENDBRANCH  23  24
ENDBRANCH  22  23
ENDBRANCH  21  22
ENDBRANCH  20  21
ENDBRANCH   1  20
TORSDOF 20
ENDMDL
MODEL 3
REMARK VINA RESULT:      -9.1      2.617      7.187
REMARK SMILES C/C=C/C[C@@H](C(=O)OCCOCCOCCOC(=O)c1ccc(-c2c3nc(c(-c4ccccc4)c4ccc([nH]4)c(-c4ccccc4)c4nc(c(-c5ccccc5)c5ccc2[nH]5)C=C4)C=C3)cc1)c1cccc(Cl)c1
REMARK SMILES IDX 12 1 11 2 10 3 9 4 8 5 6 6 7 7 5 8 4 9 3 10 1 11 2 12 68 13
REMARK SMILES IDX 69 14 74 15 70 16 72 17 71 18 73 19 13 20 14 21 15 22 16 23
REMARK SMILES IDX 17 24 18 25 19 26 20 27 21 28 67 29 22 30 66 31 23 32 24 33
REMARK SMILES IDX 25 34 60 35 26 36 65 37 59 38 61 39 27 40 64 41 58 42 57 43
REMARK SMILES IDX 28 45 50 46 35 47 49 48 36 49 39 50 48 51 62 52 37 53 38 54
REMARK SMILES IDX 47 56 63 57 40 58 29 59 30 60 34 61 31 62 33 63 32 64 51 65
REMARK SMILES IDX 52 66 56 67 53 68 55 69 54 70 41 71 42 72 46 73 43 74 45 75
REMARK SMILES IDX 44 76
REMARK H PARENT 61 44 39 55
REMARK Flexibility Score: inf
ROOT
ATOM      1  C   UNL A   1      45.323  19.029  25.188  1.00  0.00     0.188 C 
ENDROOT
BRANCH   1   2
ATOM      2  O   UNL A   1      43.936  19.043  24.883  1.00  0.00    -0.376 OA
BRANCH   2   3
ATOM      3  C   UNL A   1      43.012  18.623  25.882  1.00  0.00     0.202 C 
BRANCH   3   4
ATOM      4  C   UNL A   1      41.686  19.388  26.056  1.00  0.00     0.261 C 
BRANCH   4   5
ATOM      5  O   UNL A   1      41.777  20.818  25.870  1.00  0.00    -0.463 OA
BRANCH   5   6
ATOM      6  C   UNL A   1      41.511  21.601  26.947  1.00  0.00     0.313 C 
ATOM      7  O   UNL A   1      42.332  21.810  27.837  1.00  0.00    -0.252 OA
BRANCH   6   8
ATOM      8  C   UNL A   1      40.125  22.284  26.950  1.00  0.00     0.133 C 
BRANCH   8   9
ATOM      9  C   UNL A   1      39.036  21.892  25.909  1.00  0.00     0.047 C 
BRANCH   9  10
ATOM     10  C   UNL A   1      37.693  22.571  25.939  1.00  0.00    -0.030 C 
ATOM     11  C   UNL A   1      35.860  23.961  24.951  1.00  0.00     0.035 C 
ATOM     12  C   UNL A   1      37.234  23.371  24.962  1.00  0.00    -0.035 C 
ENDBRANCH   9  10
ENDBRANCH   8   9
BRANCH   8  13
ATOM     13  C   UNL A   1      40.219  23.828  27.026  1.00  0.00    -0.032 A 
ATOM     14  C   UNL A   1      40.872  24.612  26.059  1.00  0.00     0.005 A 
ATOM     15  C   UNL A   1      39.628  24.506  28.111  1.00  0.00     0.025 A 
ATOM     16  C   UNL A   1      40.911  26.007  26.153  1.00  0.00     0.002 A 
ATOM     17  C   UNL A   1      39.674  25.901  28.205  1.00  0.00     0.041 A 
ATOM     18  C   UNL A   1      40.306  26.656  27.224  1.00  0.00     0.020 A 
ATOM     19  Cl  UNL A   1      38.951  26.687  29.553  1.00  0.00    -0.084 Cl
ENDBRANCH   8  13
ENDBRANCH   6   8
ENDBRANCH   5   6
ENDBRANCH   4   5
ENDBRANCH   3   4
ENDBRANCH   2   3
ENDBRANCH   1   2
BRANCH   1  20
ATOM     20  C   UNL A   1      46.239  20.092  24.566  1.00  0.00     0.188 C 
BRANCH  20  21
ATOM     21  O   UNL A   1      46.364  21.285  25.292  1.00  0.00    -0.376 OA
BRANCH  21  22
ATOM     22  C   UNL A   1      45.211  21.935  25.788  1.00  0.00     0.202 C 
BRANCH  22  23
ATOM     23  C   UNL A   1      44.879  23.426  25.566  1.00  0.00     0.261 C 
BRANCH  23  24
ATOM     24  O   UNL A   1      44.471  24.215  26.689  1.00  0.00    -0.460 OA
BRANCH  24  25
ATOM     25  C   UNL A   1      45.179  25.339  26.941  1.00  0.00     0.338 C 
ATOM     26  O   UNL A   1      46.206  25.704  26.386  1.00  0.00    -0.246 OA
BRANCH  25  27
ATOM     27  C   UNL A   1      44.394  26.177  27.873  1.00  0.00     0.060 A 
ATOM     28  C   UNL A   1      44.565  27.568  27.855  1.00  0.00     0.016 A 
ATOM     29  C   UNL A   1      43.505  25.587  28.772  1.00  0.00     0.016 A 
ATOM     30  C   UNL A   1      43.878  28.371  28.769  1.00  0.00     0.010 A 
ATOM     31  C   UNL A   1      42.835  26.390  29.701  1.00  0.00     0.010 A 
ATOM     32  C   UNL A   1      43.049  27.781  29.730  1.00  0.00    -0.014 A 
BRANCH  32  33
ATOM     33  C   UNL A   1      42.578  28.570  30.896  1.00  0.00     0.031 A 
ATOM     34  C   UNL A   1      41.362  29.441  30.720  1.00  0.00     0.074 A 
ATOM     35  C   UNL A   1      43.202  28.523  32.085  1.00  0.00     0.049 A 
ATOM     36  N   UNL A   1      40.814  30.281  31.559  1.00  0.00    -0.248 NA
ATOM     37  C   UNL A   1      40.684  29.359  29.415  1.00  0.00     0.031 C 
ATOM     38  C   UNL A   1      44.360  27.695  32.401  1.00  0.00     0.029 A 
ATOM     39  N   UNL A   1      42.944  29.203  33.251  1.00  0.00    -0.354 N 
ATOM     40  C   UNL A   1      39.740  30.842  30.878  1.00  0.00     0.074 A 
ATOM     41  C   UNL A   1      39.730  30.268  29.551  1.00  0.00     0.031 C 
ATOM     42  C   UNL A   1      44.714  27.911  33.681  1.00  0.00     0.029 A 
ATOM     43  C   UNL A   1      43.838  28.930  34.257  1.00  0.00     0.049 A 
ATOM     44  H   UNL A   1      42.189  29.827  33.355  1.00  0.00     0.167 HD
ATOM     45  C   UNL A   1      38.840  31.755  31.316  1.00  0.00     0.031 A 
ATOM     46  C   UNL A   1      43.954  29.466  35.489  1.00  0.00     0.031 A 
ATOM     47  C   UNL A   1      38.856  32.340  32.629  1.00  0.00     0.049 A 
ATOM     48  C   UNL A   1      42.989  30.540  35.925  1.00  0.00     0.074 A 
ATOM     49  C   UNL A   1      37.980  33.266  33.169  1.00  0.00     0.029 A 
ATOM     50  N   UNL A   1      39.798  32.063  33.605  1.00  0.00    -0.354 N 
ATOM     51  N   UNL A   1      41.968  31.052  35.280  1.00  0.00    -0.248 NA
ATOM     52  C   UNL A   1      43.196  31.112  37.265  1.00  0.00     0.031 C 
ATOM     53  C   UNL A   1      38.431  33.597  34.450  1.00  0.00     0.029 A 
ATOM     54  C   UNL A   1      39.542  32.821  34.736  1.00  0.00     0.049 A 
ATOM     55  H   UNL A   1      40.538  31.421  33.511  1.00  0.00     0.167 HD
ATOM     56  C   UNL A   1      41.393  31.976  36.146  1.00  0.00     0.074 A 
ATOM     57  C   UNL A   1      42.169  31.944  37.368  1.00  0.00     0.031 C 
ATOM     58  C   UNL A   1      40.317  32.777  35.948  1.00  0.00     0.031 A 
BRANCH  45  59
ATOM     59  C   UNL A   1      37.787  32.207  30.342  1.00  0.00    -0.014 A 
ATOM     60  C   UNL A   1      36.567  31.527  30.212  1.00  0.00     0.009 A 
ATOM     61  C   UNL A   1      38.014  33.351  29.560  1.00  0.00     0.009 A 
ATOM     62  C   UNL A   1      35.610  31.962  29.292  1.00  0.00     0.001 A 
ATOM     63  C   UNL A   1      37.043  33.803  28.665  1.00  0.00     0.001 A 
ATOM     64  C   UNL A   1      35.846  33.102  28.525  1.00  0.00     0.000 A 
ENDBRANCH  45  59
BRANCH  46  65
ATOM     65  C   UNL A   1      45.044  29.025  36.401  1.00  0.00    -0.014 A 
ATOM     66  C   UNL A   1      46.302  29.648  36.369  1.00  0.00     0.009 A 
ATOM     67  C   UNL A   1      44.848  27.947  37.280  1.00  0.00     0.009 A 
ATOM     68  C   UNL A   1      47.346  29.182  37.173  1.00  0.00     0.001 A 
ATOM     69  C   UNL A   1      45.882  27.506  38.108  1.00  0.00     0.001 A 
ATOM     70  C   UNL A   1      47.133  28.116  38.044  1.00  0.00     0.000 A 
ENDBRANCH  46  65
BRANCH  58  71
ATOM     71  C   UNL A   1      39.877  33.648  37.095  1.00  0.00    -0.014 A 
ATOM     72  C   UNL A   1      40.319  34.974  37.226  1.00  0.00     0.009 A 
ATOM     73  C   UNL A   1      38.962  33.144  38.033  1.00  0.00     0.009 A 
ATOM     74  C   UNL A   1      39.882  35.762  38.295  1.00  0.00     0.001 A 
ATOM     75  C   UNL A   1      38.502  33.944  39.080  1.00  0.00     0.001 A 
ATOM     76  C   UNL A   1      38.970  35.249  39.216  1.00  0.00     0.000 A 
ENDBRANCH  58  71
ENDBRANCH  32  33
ENDBRANCH  25  27
ENDBRANCH  24  25
ENDBRANCH  23  24
ENDBRANCH  22  23
ENDBRANCH  21  22
ENDBRANCH  20  21
ENDBRANCH   1  20
TORSDOF 20
ENDMDL
