MODEL 1
REMARK VINA RESULT:      -8.2      0.000      0.000
REMARK SMILES CC(C)Cc1noc(CCCCC(=O)OCCOCCOCCOC(=O)c2ccc(-c3c4nc(c(-c5ccccc5)c5ccc([nH]5)c(-c5ccccc5)c5nc(c(-c6ccccc6)c6ccc3[nH]6)C=C5)C=C4)cc2)n1
REMARK SMILES IDX 17 1 16 2 15 3 13 4 14 5 12 6 11 7 10 8 9 9 8 10 5 11 6 12
REMARK SMILES IDX 75 13 7 14 4 15 2 16 1 17 3 18 18 19 19 20 20 21 21 22 22 23
REMARK SMILES IDX 23 24 24 25 25 26 26 27 27 28 28 29 74 30 29 31 73 32 30 33
REMARK SMILES IDX 31 34 32 35 67 36 33 37 72 38 66 39 68 40 34 41 71 42 65 43
REMARK SMILES IDX 64 44 35 46 57 47 42 48 56 49 43 50 46 51 55 52 69 53 44 54
REMARK SMILES IDX 45 55 54 57 70 58 47 59 36 60 37 61 41 62 38 63 40 64 39 65
REMARK SMILES IDX 58 66 59 67 63 68 60 69 62 70 61 71 48 72 49 73 53 74 50 75
REMARK SMILES IDX 52 76 51 77
REMARK H PARENT 68 45 46 56
REMARK Flexibility Score: inf
ROOT
ATOM      1  C   UNL A   1      36.644  23.427  23.692  1.00  0.00     0.202 C 
ENDROOT
BRANCH   1   2
ATOM      2  C   UNL A   1      35.158  23.290  23.326  1.00  0.00     0.261 C 
BRANCH   2   3
ATOM      3  O   UNL A   1      34.435  24.533  23.405  1.00  0.00    -0.463 OA
BRANCH   3   4
ATOM      4  C   UNL A   1      33.530  24.768  22.421  1.00  0.00     0.305 C 
ATOM      5  O   UNL A   1      33.530  25.748  21.685  1.00  0.00    -0.252 OA
BRANCH   4   6
ATOM      6  C   UNL A   1      32.538  23.636  22.235  1.00  0.00     0.123 C 
BRANCH   6   7
ATOM      7  C   UNL A   1      31.317  23.571  23.154  1.00  0.00     0.012 C 
BRANCH   7   8
ATOM      8  C   UNL A   1      30.630  24.901  23.492  1.00  0.00     0.010 C 
BRANCH   8   9
ATOM      9  C   UNL A   1      30.166  25.072  24.939  1.00  0.00     0.100 C 
BRANCH   9  10
ATOM     10  C   UNL A   1      30.985  26.048  25.693  1.00  0.00     0.226 A 
ATOM     11  C   UNL A   1      32.370  27.396  26.471  1.00  0.00     0.172 A 
ATOM     12  N   UNL A   1      31.447  27.321  27.436  1.00  0.00    -0.063 NA
ATOM     13  N   UNL A   1      32.132  26.604  25.377  1.00  0.00    -0.196 NA
ATOM     14  O   UNL A   1      30.500  26.464  26.899  1.00  0.00    -0.339 OA
BRANCH  11  15
ATOM     15  C   UNL A   1      33.523  28.323  26.552  1.00  0.00     0.084 C 
BRANCH  15  16
ATOM     16  C   UNL A   1      33.364  29.537  25.618  1.00  0.00    -0.010 C 
ATOM     17  C   UNL A   1      33.520  29.160  24.139  1.00  0.00     0.008 C 
ATOM     18  C   UNL A   1      32.002  30.191  25.840  1.00  0.00     0.008 C 
ENDBRANCH  15  16
ENDBRANCH  11  15
ENDBRANCH   9  10
ENDBRANCH   8   9
ENDBRANCH   7   8
ENDBRANCH   6   7
ENDBRANCH   4   6
ENDBRANCH   3   4
ENDBRANCH   2   3
ENDBRANCH   1   2
BRANCH   1  19
ATOM     19  O   UNL A   1      36.931  23.832  25.031  1.00  0.00    -0.376 OA
BRANCH  19  20
ATOM     20  C   UNL A   1      37.174  22.794  25.973  1.00  0.00     0.188 C 
BRANCH  20  21
ATOM     21  C   UNL A   1      36.342  21.523  25.808  1.00  0.00     0.188 C 
BRANCH  21  22
ATOM     22  O   UNL A   1      37.023  20.387  25.293  1.00  0.00    -0.376 OA
BRANCH  22  23
ATOM     23  C   UNL A   1      38.449  20.487  25.213  1.00  0.00     0.202 C 
BRANCH  23  24
ATOM     24  C   UNL A   1      39.269  19.190  25.394  1.00  0.00     0.261 C 
BRANCH  24  25
ATOM     25  O   UNL A   1      40.314  19.230  26.394  1.00  0.00    -0.460 OA
BRANCH  25  26
ATOM     26  C   UNL A   1      41.530  19.697  26.029  1.00  0.00     0.338 C 
ATOM     27  O   UNL A   1      42.268  19.210  25.188  1.00  0.00    -0.246 OA
BRANCH  26  28
ATOM     28  C   UNL A   1      41.712  21.060  26.610  1.00  0.00     0.060 A 
ATOM     29  C   UNL A   1      42.158  22.086  25.762  1.00  0.00     0.016 A 
ATOM     30  C   UNL A   1      41.380  21.360  27.935  1.00  0.00     0.016 A 
ATOM     31  C   UNL A   1      42.318  23.390  26.243  1.00  0.00     0.010 A 
ATOM     32  C   UNL A   1      41.556  22.664  28.421  1.00  0.00     0.010 A 
ATOM     33  C   UNL A   1      42.062  23.680  27.588  1.00  0.00    -0.014 A 
BRANCH  33  34
ATOM     34  C   UNL A   1      42.537  24.962  28.177  1.00  0.00     0.031 A 
ATOM     35  C   UNL A   1      41.522  26.055  28.400  1.00  0.00     0.074 A 
ATOM     36  C   UNL A   1      43.817  25.168  28.540  1.00  0.00     0.049 A 
ATOM     37  N   UNL A   1      41.693  27.274  28.846  1.00  0.00    -0.248 NA
ATOM     38  C   UNL A   1      40.127  25.723  28.071  1.00  0.00     0.031 C 
ATOM     39  C   UNL A   1      44.898  24.189  28.447  1.00  0.00     0.029 A 
ATOM     40  N   UNL A   1      44.421  26.288  29.060  1.00  0.00    -0.354 N 
ATOM     41  C   UNL A   1      40.430  27.856  28.841  1.00  0.00     0.074 A 
ATOM     42  C   UNL A   1      39.510  26.868  28.320  1.00  0.00     0.031 C 
ATOM     43  C   UNL A   1      46.036  24.756  28.889  1.00  0.00     0.029 A 
ATOM     44  C   UNL A   1      45.774  26.147  29.259  1.00  0.00     0.049 A 
ATOM     45  H   UNL A   1      43.930  27.115  29.271  1.00  0.00     0.167 HD
ATOM     46  C   UNL A   1      40.061  29.097  29.236  1.00  0.00     0.031 A 
ATOM     47  C   UNL A   1      46.697  27.042  29.667  1.00  0.00     0.031 A 
ATOM     48  C   UNL A   1      40.965  30.094  29.739  1.00  0.00     0.049 A 
ATOM     49  C   UNL A   1      46.280  28.453  30.005  1.00  0.00     0.074 A 
ATOM     50  C   UNL A   1      40.677  31.378  30.170  1.00  0.00     0.029 A 
ATOM     51  N   UNL A   1      42.333  29.925  29.872  1.00  0.00    -0.354 N 
ATOM     52  N   UNL A   1      45.081  28.985  30.010  1.00  0.00    -0.248 NA
ATOM     53  C   UNL A   1      47.348  29.386  30.397  1.00  0.00     0.031 C 
ATOM     54  C   UNL A   1      41.880  32.008  30.500  1.00  0.00     0.029 A 
ATOM     55  C   UNL A   1      42.908  31.092  30.345  1.00  0.00     0.049 A 
ATOM     56  H   UNL A   1      42.824  29.098  29.661  1.00  0.00     0.167 HD
ATOM     57  C   UNL A   1      45.249  30.299  30.436  1.00  0.00     0.074 A 
ATOM     58  C   UNL A   1      46.661  30.480  30.693  1.00  0.00     0.031 C 
ATOM     59  C   UNL A   1      44.314  31.268  30.602  1.00  0.00     0.031 A 
BRANCH  46  60
ATOM     60  C   UNL A   1      38.608  29.459  29.091  1.00  0.00    -0.014 A 
ATOM     61  C   UNL A   1      38.077  29.886  27.863  1.00  0.00     0.009 A 
ATOM     62  C   UNL A   1      37.753  29.349  30.199  1.00  0.00     0.009 A 
ATOM     63  C   UNL A   1      36.728  30.232  27.759  1.00  0.00     0.001 A 
ATOM     64  C   UNL A   1      36.400  29.664  30.084  1.00  0.00     0.001 A 
ATOM     65  C   UNL A   1      35.890  30.115  28.867  1.00  0.00     0.000 A 
ENDBRANCH  46  60
BRANCH  47  66
ATOM     66  C   UNL A   1      48.133  26.654  29.755  1.00  0.00    -0.014 A 
ATOM     67  C   UNL A   1      48.661  26.108  30.936  1.00  0.00     0.009 A 
ATOM     68  C   UNL A   1      48.996  26.873  28.668  1.00  0.00     0.009 A 
ATOM     69  C   UNL A   1      50.025  25.817  31.035  1.00  0.00     0.001 A 
ATOM     70  C   UNL A   1      50.351  26.551  28.760  1.00  0.00     0.001 A 
ATOM     71  C   UNL A   1      50.867  26.034  29.947  1.00  0.00     0.000 A 
ENDBRANCH  47  66
BRANCH  59  72
ATOM     72  C   UNL A   1      44.774  32.602  31.128  1.00  0.00    -0.014 A 
ATOM     73  C   UNL A   1      44.849  32.863  32.505  1.00  0.00     0.009 A 
ATOM     74  C   UNL A   1      45.189  33.596  30.226  1.00  0.00     0.009 A 
ATOM     75  C   UNL A   1      45.296  34.105  32.966  1.00  0.00     0.001 A 
ATOM     76  C   UNL A   1      45.667  34.823  30.690  1.00  0.00     0.001 A 
ATOM     77  C   UNL A   1      45.710  35.080  32.059  1.00  0.00     0.000 A 
ENDBRANCH  59  72
ENDBRANCH  33  34
ENDBRANCH  26  28
ENDBRANCH  25  26
ENDBRANCH  24  25
ENDBRANCH  23  24
ENDBRANCH  22  23
ENDBRANCH  21  22
ENDBRANCH  20  21
ENDBRANCH  19  20
ENDBRANCH   1  19
TORSDOF 23
ENDMDL
MODEL 2
REMARK VINA RESULT:      -8.0      3.803      8.072
REMARK SMILES CC(C)Cc1noc(CCCCC(=O)OCCOCCOCCOC(=O)c2ccc(-c3c4nc(c(-c5ccccc5)c5ccc([nH]5)c(-c5ccccc5)c5nc(c(-c6ccccc6)c6ccc3[nH]6)C=C5)C=C4)cc2)n1
REMARK SMILES IDX 17 1 16 2 15 3 13 4 14 5 12 6 11 7 10 8 9 9 8 10 5 11 6 12
REMARK SMILES IDX 75 13 7 14 4 15 2 16 1 17 3 18 18 19 19 20 20 21 21 22 22 23
REMARK SMILES IDX 23 24 24 25 25 26 26 27 27 28 28 29 74 30 29 31 73 32 30 33
REMARK SMILES IDX 31 34 32 35 67 36 33 37 72 38 66 39 68 40 34 41 71 42 65 43
REMARK SMILES IDX 64 44 35 46 57 47 42 48 56 49 43 50 46 51 55 52 69 53 44 54
REMARK SMILES IDX 45 55 54 57 70 58 47 59 36 60 37 61 41 62 38 63 40 64 39 65
REMARK SMILES IDX 58 66 59 67 63 68 60 69 62 70 61 71 48 72 49 73 53 74 50 75
REMARK SMILES IDX 52 76 51 77
REMARK H PARENT 68 45 46 56
REMARK Flexibility Score: inf
ROOT
ATOM      1  C   UNL A   1      29.989  26.641  23.167  1.00  0.00     0.202 C 
ENDROOT
BRANCH   1   2
ATOM      2  C   UNL A   1      31.124  26.342  22.175  1.00  0.00     0.261 C 
BRANCH   2   3
ATOM      3  O   UNL A   1      32.087  25.399  22.679  1.00  0.00    -0.463 OA
BRANCH   3   4
ATOM      4  C   UNL A   1      33.350  25.862  22.858  1.00  0.00     0.305 C 
ATOM      5  O   UNL A   1      34.100  26.225  21.959  1.00  0.00    -0.252 OA
BRANCH   4   6
ATOM      6  C   UNL A   1      33.741  25.990  24.317  1.00  0.00     0.123 C 
BRANCH   6   7
ATOM      7  C   UNL A   1      34.543  24.859  24.964  1.00  0.00     0.012 C 
BRANCH   7   8
ATOM      8  C   UNL A   1      33.894  24.141  26.156  1.00  0.00     0.010 C 
BRANCH   8   9
ATOM      9  C   UNL A   1      34.621  22.898  26.671  1.00  0.00     0.100 C 
BRANCH   9  10
ATOM     10  C   UNL A   1      34.415  21.713  25.808  1.00  0.00     0.226 A 
ATOM     11  C   UNL A   1      33.771  20.151  24.590  1.00  0.00     0.172 A 
ATOM     12  N   UNL A   1      35.072  19.886  24.759  1.00  0.00    -0.063 NA
ATOM     13  N   UNL A   1      33.317  21.268  25.242  1.00  0.00    -0.196 NA
ATOM     14  O   UNL A   1      35.512  20.953  25.528  1.00  0.00    -0.339 OA
BRANCH  11  15
ATOM     15  C   UNL A   1      32.910  19.336  23.703  1.00  0.00     0.084 C 
BRANCH  15  16
ATOM     16  C   UNL A   1      32.615  17.942  24.291  1.00  0.00    -0.010 C 
ATOM     17  C   UNL A   1      33.653  16.898  23.862  1.00  0.00     0.008 C 
ATOM     18  C   UNL A   1      32.565  18.020  25.815  1.00  0.00     0.008 C 
ENDBRANCH  15  16
ENDBRANCH  11  15
ENDBRANCH   9  10
ENDBRANCH   8   9
ENDBRANCH   7   8
ENDBRANCH   6   7
ENDBRANCH   4   6
ENDBRANCH   3   4
ENDBRANCH   2   3
ENDBRANCH   1   2
BRANCH   1  19
ATOM     19  O   UNL A   1      30.272  27.608  24.179  1.00  0.00    -0.376 OA
BRANCH  19  20
ATOM     20  C   UNL A   1      30.831  28.842  23.744  1.00  0.00     0.188 C 
BRANCH  20  21
ATOM     21  C   UNL A   1      32.282  29.104  24.142  1.00  0.00     0.188 C 
BRANCH  21  22
ATOM     22  O   UNL A   1      32.485  29.942  25.270  1.00  0.00    -0.376 OA
BRANCH  22  23
ATOM     23  C   UNL A   1      31.454  30.899  25.541  1.00  0.00     0.202 C 
BRANCH  23  24
ATOM     24  C   UNL A   1      31.618  31.796  26.789  1.00  0.00     0.261 C 
BRANCH  24  25
ATOM     25  O   UNL A   1      32.793  31.556  27.598  1.00  0.00    -0.460 OA
BRANCH  25  26
ATOM     26  C   UNL A   1      33.725  32.534  27.677  1.00  0.00     0.338 C 
ATOM     27  O   UNL A   1      33.519  33.734  27.619  1.00  0.00    -0.246 OA
BRANCH  26  28
ATOM     28  C   UNL A   1      35.014  31.928  28.127  1.00  0.00     0.060 A 
ATOM     29  C   UNL A   1      35.086  30.529  28.230  1.00  0.00     0.016 A 
ATOM     30  C   UNL A   1      36.159  32.695  28.368  1.00  0.00     0.016 A 
ATOM     31  C   UNL A   1      36.276  29.904  28.617  1.00  0.00     0.010 A 
ATOM     32  C   UNL A   1      37.346  32.068  28.772  1.00  0.00     0.010 A 
ATOM     33  C   UNL A   1      37.403  30.670  28.937  1.00  0.00    -0.014 A 
BRANCH  33  34
ATOM     34  C   UNL A   1      38.548  30.048  29.655  1.00  0.00     0.031 A 
ATOM     35  C   UNL A   1      38.723  30.373  31.118  1.00  0.00     0.074 A 
ATOM     36  C   UNL A   1      39.405  29.197  29.063  1.00  0.00     0.049 A 
ATOM     37  N   UNL A   1      39.666  30.004  31.948  1.00  0.00    -0.248 NA
ATOM     38  C   UNL A   1      37.692  31.234  31.720  1.00  0.00     0.031 C 
ATOM     39  C   UNL A   1      39.330  28.737  27.678  1.00  0.00     0.029 A 
ATOM     40  N   UNL A   1      40.520  28.568  29.566  1.00  0.00    -0.354 N 
ATOM     41  C   UNL A   1      39.347  30.595  33.165  1.00  0.00     0.074 A 
ATOM     42  C   UNL A   1      38.143  31.369  32.958  1.00  0.00     0.031 C 
ATOM     43  C   UNL A   1      40.361  27.904  27.440  1.00  0.00     0.029 A 
ATOM     44  C   UNL A   1      41.190  27.802  28.642  1.00  0.00     0.049 A 
ATOM     45  H   UNL A   1      40.811  28.658  30.503  1.00  0.00     0.167 HD
ATOM     46  C   UNL A   1      39.990  30.503  34.353  1.00  0.00     0.031 A 
ATOM     47  C   UNL A   1      42.349  27.119  28.745  1.00  0.00     0.031 A 
ATOM     48  C   UNL A   1      41.196  29.752  34.570  1.00  0.00     0.049 A 
ATOM     49  C   UNL A   1      43.105  27.115  30.052  1.00  0.00     0.074 A 
ATOM     50  C   UNL A   1      41.914  29.597  35.743  1.00  0.00     0.029 A 
ATOM     51  N   UNL A   1      41.868  29.037  33.592  1.00  0.00    -0.354 N 
ATOM     52  N   UNL A   1      42.786  27.665  31.198  1.00  0.00    -0.248 NA
ATOM     53  C   UNL A   1      44.386  26.388  30.075  1.00  0.00     0.031 C 
ATOM     54  C   UNL A   1      43.057  28.843  35.460  1.00  0.00     0.029 A 
ATOM     55  C   UNL A   1      43.011  28.467  34.127  1.00  0.00     0.049 A 
ATOM     56  H   UNL A   1      41.577  28.947  32.656  1.00  0.00     0.167 HD
ATOM     57  C   UNL A   1      43.803  27.322  32.083  1.00  0.00     0.074 A 
ATOM     58  C   UNL A   1      44.744  26.507  31.346  1.00  0.00     0.031 C 
ATOM     59  C   UNL A   1      43.944  27.654  33.391  1.00  0.00     0.031 A 
BRANCH  46  60
ATOM     60  C   UNL A   1      39.418  31.282  35.505  1.00  0.00    -0.014 A 
ATOM     61  C   UNL A   1      39.879  32.569  35.822  1.00  0.00     0.009 A 
ATOM     62  C   UNL A   1      38.383  30.723  36.272  1.00  0.00     0.009 A 
ATOM     63  C   UNL A   1      39.342  33.264  36.908  1.00  0.00     0.001 A 
ATOM     64  C   UNL A   1      37.826  31.433  37.335  1.00  0.00     0.001 A 
ATOM     65  C   UNL A   1      38.312  32.699  37.659  1.00  0.00     0.000 A 
ENDBRANCH  46  60
BRANCH  47  66
ATOM     66  C   UNL A   1      42.904  26.398  27.566  1.00  0.00    -0.014 A 
ATOM     67  C   UNL A   1      43.853  27.007  26.730  1.00  0.00     0.009 A 
ATOM     68  C   UNL A   1      42.447  25.110  27.241  1.00  0.00     0.009 A 
ATOM     69  C   UNL A   1      44.312  26.353  25.583  1.00  0.00     0.001 A 
ATOM     70  C   UNL A   1      42.931  24.447  26.113  1.00  0.00     0.001 A 
ATOM     71  C   UNL A   1      43.855  25.073  25.278  1.00  0.00     0.000 A 
ENDBRANCH  47  66
BRANCH  59  72
ATOM     72  C   UNL A   1      45.133  27.100  34.129  1.00  0.00    -0.014 A 
ATOM     73  C   UNL A   1      45.159  25.776  34.593  1.00  0.00     0.009 A 
ATOM     74  C   UNL A   1      46.268  27.906  34.317  1.00  0.00     0.009 A 
ATOM     75  C   UNL A   1      46.284  25.282  35.261  1.00  0.00     0.001 A 
ATOM     76  C   UNL A   1      47.403  27.400  34.955  1.00  0.00     0.001 A 
ATOM     77  C   UNL A   1      47.406  26.092  35.436  1.00  0.00     0.000 A 
ENDBRANCH  59  72
ENDBRANCH  33  34
ENDBRANCH  26  28
ENDBRANCH  25  26
ENDBRANCH  24  25
ENDBRANCH  23  24
ENDBRANCH  22  23
ENDBRANCH  21  22
ENDBRANCH  20  21
ENDBRANCH  19  20
ENDBRANCH   1  19
TORSDOF 23
ENDMDL
MODEL 3
REMARK VINA RESULT:      -8.0      2.200      6.659
REMARK SMILES CC(C)Cc1noc(CCCCC(=O)OCCOCCOCCOC(=O)c2ccc(-c3c4nc(c(-c5ccccc5)c5ccc([nH]5)c(-c5ccccc5)c5nc(c(-c6ccccc6)c6ccc3[nH]6)C=C5)C=C4)cc2)n1
REMARK SMILES IDX 17 1 16 2 15 3 13 4 14 5 12 6 11 7 10 8 9 9 8 10 5 11 6 12
REMARK SMILES IDX 75 13 7 14 4 15 2 16 1 17 3 18 18 19 19 20 20 21 21 22 22 23
REMARK SMILES IDX 23 24 24 25 25 26 26 27 27 28 28 29 74 30 29 31 73 32 30 33
REMARK SMILES IDX 31 34 32 35 67 36 33 37 72 38 66 39 68 40 34 41 71 42 65 43
REMARK SMILES IDX 64 44 35 46 57 47 42 48 56 49 43 50 46 51 55 52 69 53 44 54
REMARK SMILES IDX 45 55 54 57 70 58 47 59 36 60 37 61 41 62 38 63 40 64 39 65
REMARK SMILES IDX 58 66 59 67 63 68 60 69 62 70 61 71 48 72 49 73 53 74 50 75
REMARK SMILES IDX 52 76 51 77
REMARK H PARENT 68 45 46 56
REMARK Flexibility Score: inf
ROOT
ATOM      1  C   UNL A   1      33.950  25.376  22.969  1.00  0.00     0.202 C 
ENDROOT
BRANCH   1   2
ATOM      2  C   UNL A   1      32.482  25.668  22.622  1.00  0.00     0.261 C 
BRANCH   2   3
ATOM      3  O   UNL A   1      31.669  25.947  23.776  1.00  0.00    -0.463 OA
BRANCH   3   4
ATOM      4  C   UNL A   1      30.414  25.428  23.770  1.00  0.00     0.305 C 
ATOM      5  O   UNL A   1      30.133  24.273  23.477  1.00  0.00    -0.252 OA
BRANCH   4   6
ATOM      6  C   UNL A   1      29.361  26.401  24.267  1.00  0.00     0.123 C 
BRANCH   6   7
ATOM      7  C   UNL A   1      28.712  27.355  23.263  1.00  0.00     0.012 C 
BRANCH   7   8
ATOM      8  C   UNL A   1      29.567  28.530  22.769  1.00  0.00     0.010 C 
BRANCH   8   9
ATOM      9  C   UNL A   1      29.967  29.563  23.823  1.00  0.00     0.100 C 
BRANCH   9  10
ATOM     10  C   UNL A   1      31.294  29.290  24.421  1.00  0.00     0.226 A 
ATOM     11  C   UNL A   1      32.989  28.955  25.583  1.00  0.00     0.172 A 
ATOM     12  N   UNL A   1      33.458  28.866  24.333  1.00  0.00    -0.063 NA
ATOM     13  N   UNL A   1      31.651  29.237  25.683  1.00  0.00    -0.196 NA
ATOM     14  O   UNL A   1      32.321  29.039  23.559  1.00  0.00    -0.339 OA
BRANCH  11  15
ATOM     15  C   UNL A   1      33.843  28.693  26.765  1.00  0.00     0.084 C 
BRANCH  15  16
ATOM     16  C   UNL A   1      34.645  29.935  27.196  1.00  0.00    -0.010 C 
ATOM     17  C   UNL A   1      33.740  31.126  27.532  1.00  0.00     0.008 C 
ATOM     18  C   UNL A   1      35.518  29.598  28.402  1.00  0.00     0.008 C 
ENDBRANCH  15  16
ENDBRANCH  11  15
ENDBRANCH   9  10
ENDBRANCH   8   9
ENDBRANCH   7   8
ENDBRANCH   6   7
ENDBRANCH   4   6
ENDBRANCH   3   4
ENDBRANCH   2   3
ENDBRANCH   1   2
BRANCH   1  19
ATOM     19  O   UNL A   1      34.261  25.265  24.359  1.00  0.00    -0.376 OA
BRANCH  19  20
ATOM     20  C   UNL A   1      35.076  24.163  24.743  1.00  0.00     0.188 C 
BRANCH  20  21
ATOM     21  C   UNL A   1      34.721  22.812  24.127  1.00  0.00     0.188 C 
BRANCH  21  22
ATOM     22  O   UNL A   1      35.630  21.748  24.375  1.00  0.00    -0.376 OA
BRANCH  22  23
ATOM     23  C   UNL A   1      37.017  22.043  24.180  1.00  0.00     0.202 C 
BRANCH  23  24
ATOM     24  C   UNL A   1      38.006  21.598  25.282  1.00  0.00     0.261 C 
BRANCH  24  25
ATOM     25  O   UNL A   1      38.512  22.642  26.145  1.00  0.00    -0.460 OA
BRANCH  25  26
ATOM     26  C   UNL A   1      39.760  22.504  26.650  1.00  0.00     0.338 C 
ATOM     27  O   UNL A   1      40.440  21.492  26.630  1.00  0.00    -0.246 OA
BRANCH  26  28
ATOM     28  C   UNL A   1      40.291  23.859  26.984  1.00  0.00     0.060 A 
ATOM     29  C   UNL A   1      40.921  24.034  28.227  1.00  0.00     0.016 A 
ATOM     30  C   UNL A   1      40.254  24.924  26.078  1.00  0.00     0.016 A 
ATOM     31  C   UNL A   1      41.465  25.273  28.583  1.00  0.00     0.010 A 
ATOM     32  C   UNL A   1      40.785  26.170  26.442  1.00  0.00     0.010 A 
ATOM     33  C   UNL A   1      41.361  26.364  27.712  1.00  0.00    -0.014 A 
BRANCH  33  34
ATOM     34  C   UNL A   1      41.634  27.741  28.207  1.00  0.00     0.031 A 
ATOM     35  C   UNL A   1      43.068  28.204  28.247  1.00  0.00     0.074 A 
ATOM     36  C   UNL A   1      40.658  28.586  28.588  1.00  0.00     0.049 A 
ATOM     37  N   UNL A   1      43.569  29.333  28.684  1.00  0.00    -0.248 NA
ATOM     38  C   UNL A   1      44.071  27.262  27.724  1.00  0.00     0.031 C 
ATOM     39  C   UNL A   1      39.224  28.308  28.545  1.00  0.00     0.029 A 
ATOM     40  N   UNL A   1      40.738  29.862  29.094  1.00  0.00    -0.354 N 
ATOM     41  C   UNL A   1      44.943  29.230  28.498  1.00  0.00     0.074 A 
ATOM     42  C   UNL A   1      45.199  27.921  27.938  1.00  0.00     0.031 C 
ATOM     43  C   UNL A   1      38.559  29.380  29.014  1.00  0.00     0.029 A 
ATOM     44  C   UNL A   1      39.519  30.405  29.426  1.00  0.00     0.049 A 
ATOM     45  H   UNL A   1      41.590  30.343  29.207  1.00  0.00     0.167 HD
ATOM     46  C   UNL A   1      45.910  30.140  28.763  1.00  0.00     0.031 A 
ATOM     47  C   UNL A   1      39.216  31.579  30.016  1.00  0.00     0.031 A 
ATOM     48  C   UNL A   1      45.673  31.437  29.335  1.00  0.00     0.049 A 
ATOM     49  C   UNL A   1      40.319  32.537  30.398  1.00  0.00     0.074 A 
ATOM     50  C   UNL A   1      46.594  32.427  29.632  1.00  0.00     0.029 A 
ATOM     51  N   UNL A   1      44.430  31.922  29.706  1.00  0.00    -0.354 N 
ATOM     52  N   UNL A   1      41.611  32.435  30.203  1.00  0.00    -0.248 NA
ATOM     53  C   UNL A   1      39.915  33.777  31.081  1.00  0.00     0.031 C 
ATOM     54  C   UNL A   1      45.915  33.486  30.243  1.00  0.00     0.029 A 
ATOM     55  C   UNL A   1      44.562  33.184  30.260  1.00  0.00     0.049 A 
ATOM     56  H   UNL A   1      43.578  31.441  29.592  1.00  0.00     0.167 HD
ATOM     57  C   UNL A   1      42.167  33.607  30.707  1.00  0.00     0.074 A 
ATOM     58  C   UNL A   1      41.072  34.411  31.203  1.00  0.00     0.031 C 
ATOM     59  C   UNL A   1      43.470  33.982  30.751  1.00  0.00     0.031 A 
BRANCH  46  60
ATOM     60  C   UNL A   1      47.330  29.735  28.476  1.00  0.00    -0.014 A 
ATOM     61  C   UNL A   1      47.992  28.776  29.258  1.00  0.00     0.009 A 
ATOM     62  C   UNL A   1      48.007  30.310  27.389  1.00  0.00     0.009 A 
ATOM     63  C   UNL A   1      49.316  28.430  28.981  1.00  0.00     0.001 A 
ATOM     64  C   UNL A   1      49.318  29.939  27.094  1.00  0.00     0.001 A 
ATOM     65  C   UNL A   1      49.976  29.007  27.896  1.00  0.00     0.000 A 
ENDBRANCH  46  60
BRANCH  47  66
ATOM     66  C   UNL A   1      37.798  31.921  30.323  1.00  0.00    -0.014 A 
ATOM     67  C   UNL A   1      37.140  31.345  31.421  1.00  0.00     0.009 A 
ATOM     68  C   UNL A   1      37.080  32.791  29.487  1.00  0.00     0.009 A 
ATOM     69  C   UNL A   1      35.789  31.612  31.659  1.00  0.00     0.001 A 
ATOM     70  C   UNL A   1      35.739  33.081  29.745  1.00  0.00     0.001 A 
ATOM     71  C   UNL A   1      35.091  32.483  30.824  1.00  0.00     0.000 A 
ENDBRANCH  47  66
BRANCH  59  72
ATOM     72  C   UNL A   1      43.787  35.342  31.314  1.00  0.00    -0.014 A 
ATOM     73  C   UNL A   1      43.847  36.481  30.496  1.00  0.00     0.009 A 
ATOM     74  C   UNL A   1      43.977  35.491  32.698  1.00  0.00     0.009 A 
ATOM     75  C   UNL A   1      44.127  37.735  31.049  1.00  0.00     0.001 A 
ATOM     76  C   UNL A   1      44.223  36.750  33.251  1.00  0.00     0.001 A 
ATOM     77  C   UNL A   1      44.309  37.868  32.425  1.00  0.00     0.000 A 
ENDBRANCH  59  72
ENDBRANCH  33  34
ENDBRANCH  26  28
ENDBRANCH  25  26
ENDBRANCH  24  25
ENDBRANCH  23  24
ENDBRANCH  22  23
ENDBRANCH  21  22
ENDBRANCH  20  21
ENDBRANCH  19  20
ENDBRANCH   1  19
TORSDOF 23
ENDMDL
