MODEL 1
REMARK VINA RESULT:     -11.2      0.000      0.000
REMARK SMILES CC1=C(C)C[C@@H](C(=O)OCCOCCOCCOC(=O)c2ccc(-c3c4nc(c(-c5ccccc5)c5ccc([nH]5)c(-c5ccccc5)c5nc(c(-c6ccccc6)c6ccc3[nH]6)C=C5)C=C4)cc2)[C@@H](C(=O)N2CCN(c3cccc(C(F)(F)F)c3)CC2)C1
REMARK SMILES IDX 13 1 12 2 11 3 10 4 9 5 7 6 8 7 6 8 1 9 2 10 3 11 88 12 4 13
REMARK SMILES IDX 5 14 69 15 70 16 71 17 72 18 73 19 87 20 74 21 86 22 75 23
REMARK SMILES IDX 76 24 77 25 85 26 78 27 80 28 79 29 81 30 82 31 83 32 84 33
REMARK SMILES IDX 14 34 15 35 16 36 17 37 18 38 19 39 20 40 21 41 22 42 68 43
REMARK SMILES IDX 23 44 67 45 24 46 25 47 26 48 61 49 27 50 66 51 60 52 62 53
REMARK SMILES IDX 28 54 65 55 59 56 58 57 29 59 51 60 36 61 50 62 37 63 40 64
REMARK SMILES IDX 49 65 63 66 38 67 39 68 48 70 64 71 41 72 30 73 31 74 35 75
REMARK SMILES IDX 32 76 34 77 33 78 52 79 53 80 57 81 54 82 56 83 55 84 42 85
REMARK SMILES IDX 43 86 47 87 44 88 46 89 45 90
REMARK H PARENT 62 58 40 69
REMARK Flexibility Score: inf
ROOT
ATOM      1  C   UNL A   1      39.801  22.461  26.879  1.00  0.00     0.188 C 
ENDROOT
BRANCH   1   2
ATOM      2  O   UNL A   1      39.145  23.506  26.162  1.00  0.00    -0.376 OA
BRANCH   2   3
ATOM      3  C   UNL A   1      37.738  23.651  26.296  1.00  0.00     0.202 C 
BRANCH   3   4
ATOM      4  C   UNL A   1      36.900  22.629  25.511  1.00  0.00     0.261 C 
BRANCH   4   5
ATOM      5  O   UNL A   1      35.837  21.960  26.231  1.00  0.00    -0.463 OA
BRANCH   5   6
ATOM      6  C   UNL A   1      35.280  20.909  25.592  1.00  0.00     0.310 C 
ATOM      7  O   UNL A   1      35.914  20.113  24.901  1.00  0.00    -0.252 OA
BRANCH   6   8
ATOM      8  C   UNL A   1      33.761  20.850  25.581  1.00  0.00     0.116 C 
ATOM      9  C   UNL A   1      32.357  18.755  21.987  1.00  0.00     0.039 C 
ATOM     10  C   UNL A   1      32.652  19.329  23.348  1.00  0.00    -0.074 C 
ATOM     11  C   UNL A   1      33.224  18.673  24.376  1.00  0.00    -0.073 C 
ATOM     12  C   UNL A   1      32.194  20.760  23.495  1.00  0.00     0.045 C 
ATOM     13  C   UNL A   1      33.701  17.246  24.353  1.00  0.00     0.039 C 
ATOM     14  C   UNL A   1      33.391  19.365  25.707  1.00  0.00     0.046 C 
ATOM     15  C   UNL A   1      32.830  21.610  24.620  1.00  0.00     0.097 C 
BRANCH  15  16
ATOM     16  C   UNL A   1      33.354  22.888  23.962  1.00  0.00     0.227 C 
ATOM     17  O   UNL A   1      33.983  22.818  22.904  1.00  0.00    -0.275 OA
ATOM     18  N   UNL A   1      32.975  24.130  24.486  1.00  0.00    -0.339 N 
ATOM     19  C   UNL A   1      33.308  25.303  23.653  1.00  0.00     0.141 C 
ATOM     20  C   UNL A   1      32.743  24.379  25.923  1.00  0.00     0.141 C 
ATOM     21  C   UNL A   1      32.602  26.606  24.049  1.00  0.00     0.138 C 
ATOM     22  C   UNL A   1      32.204  25.780  26.319  1.00  0.00     0.138 C 
ATOM     23  N   UNL A   1      32.791  26.829  25.486  1.00  0.00    -0.368 N 
BRANCH  23  24
ATOM     24  C   UNL A   1      32.732  28.147  25.916  1.00  0.00     0.037 A 
ATOM     25  C   UNL A   1      31.735  29.044  25.534  1.00  0.00     0.026 A 
ATOM     26  C   UNL A   1      33.763  28.631  26.727  1.00  0.00     0.039 A 
ATOM     27  C   UNL A   1      31.776  30.381  25.954  1.00  0.00     0.003 A 
ATOM     28  C   UNL A   1      33.842  29.968  27.143  1.00  0.00     0.058 A 
ATOM     29  C   UNL A   1      32.824  30.841  26.755  1.00  0.00     0.013 A 
BRANCH  28  30
ATOM     30  C   UNL A   1      34.985  30.436  28.009  1.00  0.00     0.416 C 
ATOM     31  F   UNL A   1      36.038  30.919  27.292  1.00  0.00    -0.166 F 
ATOM     32  F   UNL A   1      34.613  31.445  28.847  1.00  0.00    -0.166 F 
ATOM     33  F   UNL A   1      35.504  29.467  28.815  1.00  0.00    -0.166 F 
ENDBRANCH  28  30
ENDBRANCH  23  24
ENDBRANCH  15  16
ENDBRANCH   6   8
ENDBRANCH   5   6
ENDBRANCH   4   5
ENDBRANCH   3   4
ENDBRANCH   2   3
ENDBRANCH   1   2
BRANCH   1  34
ATOM     34  C   UNL A   1      40.205  21.189  26.130  1.00  0.00     0.188 C 
BRANCH  34  35
ATOM     35  O   UNL A   1      41.599  20.919  26.275  1.00  0.00    -0.376 OA
BRANCH  35  36
ATOM     36  C   UNL A   1      41.879  19.698  26.953  1.00  0.00     0.202 C 
BRANCH  36  37
ATOM     37  C   UNL A   1      42.735  18.785  26.073  1.00  0.00     0.261 C 
BRANCH  37  38
ATOM     38  O   UNL A   1      43.053  19.387  24.800  1.00  0.00    -0.460 OA
BRANCH  38  39
ATOM     39  C   UNL A   1      44.378  19.495  24.567  1.00  0.00     0.338 C 
ATOM     40  O   UNL A   1      45.121  18.605  24.199  1.00  0.00    -0.246 OA
BRANCH  39  41
ATOM     41  C   UNL A   1      44.821  20.888  24.770  1.00  0.00     0.060 A 
ATOM     42  C   UNL A   1      45.303  21.285  26.019  1.00  0.00     0.016 A 
ATOM     43  C   UNL A   1      44.553  21.841  23.789  1.00  0.00     0.016 A 
ATOM     44  C   UNL A   1      45.466  22.644  26.311  1.00  0.00     0.010 A 
ATOM     45  C   UNL A   1      44.746  23.197  24.071  1.00  0.00     0.010 A 
ATOM     46  C   UNL A   1      45.180  23.616  25.343  1.00  0.00    -0.014 A 
BRANCH  46  47
ATOM     47  C   UNL A   1      45.311  25.069  25.630  1.00  0.00     0.031 A 
ATOM     48  C   UNL A   1      46.652  25.745  25.528  1.00  0.00     0.074 A 
ATOM     49  C   UNL A   1      44.245  25.786  26.030  1.00  0.00     0.049 A 
ATOM     50  N   UNL A   1      47.039  26.896  26.018  1.00  0.00    -0.248 NA
ATOM     51  C   UNL A   1      47.691  25.034  24.771  1.00  0.00     0.031 C 
ATOM     52  C   UNL A   1      42.868  25.300  26.095  1.00  0.00     0.029 A 
ATOM     53  N   UNL A   1      44.168  27.079  26.491  1.00  0.00    -0.354 N 
ATOM     54  C   UNL A   1      48.380  27.023  25.675  1.00  0.00     0.074 A 
ATOM     55  C   UNL A   1      48.733  25.842  24.916  1.00  0.00     0.031 C 
ATOM     56  C   UNL A   1      42.085  26.272  26.587  1.00  0.00     0.029 A 
ATOM     57  C   UNL A   1      42.918  27.414  26.951  1.00  0.00     0.049 A 
ATOM     58  H   UNL A   1      44.931  27.702  26.490  1.00  0.00     0.167 HD
ATOM     59  C   UNL A   1      49.237  28.025  25.980  1.00  0.00     0.031 A 
ATOM     60  C   UNL A   1      42.498  28.481  27.658  1.00  0.00     0.031 A 
ATOM     61  C   UNL A   1      48.881  29.209  26.719  1.00  0.00     0.049 A 
ATOM     62  C   UNL A   1      43.483  29.535  28.074  1.00  0.00     0.074 A 
ATOM     63  C   UNL A   1      49.686  30.275  27.084  1.00  0.00     0.029 A 
ATOM     64  N   UNL A   1      47.611  29.485  27.198  1.00  0.00    -0.354 N 
ATOM     65  N   UNL A   1      44.767  29.610  27.818  1.00  0.00    -0.248 NA
ATOM     66  C   UNL A   1      42.964  30.638  28.894  1.00  0.00     0.031 C 
ATOM     67  C   UNL A   1      48.909  31.181  27.816  1.00  0.00     0.029 A 
ATOM     68  C   UNL A   1      47.613  30.695  27.871  1.00  0.00     0.049 A 
ATOM     69  H   UNL A   1      46.824  28.906  27.080  1.00  0.00     0.167 HD
ATOM     70  C   UNL A   1      45.207  30.769  28.444  1.00  0.00     0.074 A 
ATOM     71  C   UNL A   1      44.053  31.374  29.073  1.00  0.00     0.031 C 
ATOM     72  C   UNL A   1      46.460  31.282  28.497  1.00  0.00     0.031 A 
BRANCH  59  73
ATOM     73  C   UNL A   1      50.671  27.873  25.561  1.00  0.00    -0.014 A 
ATOM     74  C   UNL A   1      51.127  28.349  24.325  1.00  0.00     0.009 A 
ATOM     75  C   UNL A   1      51.593  27.309  26.459  1.00  0.00     0.009 A 
ATOM     76  C   UNL A   1      52.480  28.253  23.988  1.00  0.00     0.001 A 
ATOM     77  C   UNL A   1      52.946  27.231  26.128  1.00  0.00     0.001 A 
ATOM     78  C   UNL A   1      53.388  27.699  24.892  1.00  0.00     0.000 A 
ENDBRANCH  59  73
BRANCH  60  79
ATOM     79  C   UNL A   1      41.085  28.549  28.110  1.00  0.00    -0.014 A 
ATOM     80  C   UNL A   1      40.101  29.133  27.302  1.00  0.00     0.009 A 
ATOM     81  C   UNL A   1      40.718  28.017  29.357  1.00  0.00     0.009 A 
ATOM     82  C   UNL A   1      38.775  29.191  27.738  1.00  0.00     0.001 A 
ATOM     83  C   UNL A   1      39.389  28.053  29.779  1.00  0.00     0.001 A 
ATOM     84  C   UNL A   1      38.419  28.645  28.971  1.00  0.00     0.000 A 
ENDBRANCH  60  79
BRANCH  72  85
ATOM     85  C   UNL A   1      46.635  32.573  29.241  1.00  0.00    -0.014 A 
ATOM     86  C   UNL A   1      46.966  32.583  30.604  1.00  0.00     0.009 A 
ATOM     87  C   UNL A   1      46.484  33.793  28.564  1.00  0.00     0.009 A 
ATOM     88  C   UNL A   1      47.113  33.793  31.284  1.00  0.00     0.001 A 
ATOM     89  C   UNL A   1      46.651  35.001  29.243  1.00  0.00     0.001 A 
ATOM     90  C   UNL A   1      46.957  35.000  30.604  1.00  0.00     0.000 A 
ENDBRANCH  72  85
ENDBRANCH  46  47
ENDBRANCH  39  41
ENDBRANCH  38  39
ENDBRANCH  37  38
ENDBRANCH  36  37
ENDBRANCH  35  36
ENDBRANCH  34  35
ENDBRANCH   1  34
TORSDOF 20
ENDMDL
MODEL 2
REMARK VINA RESULT:     -11.0      4.807      8.428
REMARK SMILES CC1=C(C)C[C@@H](C(=O)OCCOCCOCCOC(=O)c2ccc(-c3c4nc(c(-c5ccccc5)c5ccc([nH]5)c(-c5ccccc5)c5nc(c(-c6ccccc6)c6ccc3[nH]6)C=C5)C=C4)cc2)[C@@H](C(=O)N2CCN(c3cccc(C(F)(F)F)c3)CC2)C1
REMARK SMILES IDX 13 1 12 2 11 3 10 4 9 5 7 6 8 7 6 8 1 9 2 10 3 11 88 12 4 13
REMARK SMILES IDX 5 14 69 15 70 16 71 17 72 18 73 19 87 20 74 21 86 22 75 23
REMARK SMILES IDX 76 24 77 25 85 26 78 27 80 28 79 29 81 30 82 31 83 32 84 33
REMARK SMILES IDX 14 34 15 35 16 36 17 37 18 38 19 39 20 40 21 41 22 42 68 43
REMARK SMILES IDX 23 44 67 45 24 46 25 47 26 48 61 49 27 50 66 51 60 52 62 53
REMARK SMILES IDX 28 54 65 55 59 56 58 57 29 59 51 60 36 61 50 62 37 63 40 64
REMARK SMILES IDX 49 65 63 66 38 67 39 68 48 70 64 71 41 72 30 73 31 74 35 75
REMARK SMILES IDX 32 76 34 77 33 78 52 79 53 80 57 81 54 82 56 83 55 84 42 85
REMARK SMILES IDX 43 86 47 87 44 88 46 89 45 90
REMARK H PARENT 62 58 40 69
REMARK Flexibility Score: inf
ROOT
ATOM      1  C   UNL A   1      39.022  23.242  26.873  1.00  0.00     0.188 C 
ENDROOT
BRANCH   1   2
ATOM      2  O   UNL A   1      38.285  24.057  25.963  1.00  0.00    -0.376 OA
BRANCH   2   3
ATOM      3  C   UNL A   1      37.078  23.551  25.410  1.00  0.00     0.202 C 
BRANCH   3   4
ATOM      4  C   UNL A   1      36.961  22.018  25.397  1.00  0.00     0.261 C 
BRANCH   4   5
ATOM      5  O   UNL A   1      35.791  21.444  26.030  1.00  0.00    -0.463 OA
BRANCH   5   6
ATOM      6  C   UNL A   1      35.195  20.447  25.342  1.00  0.00     0.310 C 
ATOM      7  O   UNL A   1      35.801  19.647  24.630  1.00  0.00    -0.252 OA
BRANCH   6   8
ATOM      8  C   UNL A   1      33.675  20.464  25.306  1.00  0.00     0.116 C 
ATOM      9  C   UNL A   1      32.232  18.590  21.606  1.00  0.00     0.039 C 
ATOM     10  C   UNL A   1      32.531  19.093  22.994  1.00  0.00    -0.074 C 
ATOM     11  C   UNL A   1      33.053  18.368  24.003  1.00  0.00    -0.073 C 
ATOM     12  C   UNL A   1      32.141  20.537  23.194  1.00  0.00     0.045 C 
ATOM     13  C   UNL A   1      33.460  16.921  23.927  1.00  0.00     0.039 C 
ATOM     14  C   UNL A   1      33.231  18.996  25.364  1.00  0.00     0.046 C 
ATOM     15  C   UNL A   1      32.799  21.308  24.364  1.00  0.00     0.097 C 
BRANCH  15  16
ATOM     16  C   UNL A   1      33.396  22.584  23.767  1.00  0.00     0.227 C 
ATOM     17  O   UNL A   1      34.087  22.519  22.749  1.00  0.00    -0.275 OA
ATOM     18  N   UNL A   1      33.018  23.825  24.295  1.00  0.00    -0.339 N 
ATOM     19  C   UNL A   1      33.432  25.006  23.510  1.00  0.00     0.141 C 
ATOM     20  C   UNL A   1      32.704  24.051  25.720  1.00  0.00     0.141 C 
ATOM     21  C   UNL A   1      32.738  26.319  23.891  1.00  0.00     0.138 C 
ATOM     22  C   UNL A   1      32.178  25.458  26.113  1.00  0.00     0.138 C 
ATOM     23  N   UNL A   1      32.842  26.507  25.342  1.00  0.00    -0.368 N 
BRANCH  23  24
ATOM     24  C   UNL A   1      32.792  27.818  25.795  1.00  0.00     0.037 A 
ATOM     25  C   UNL A   1      31.715  28.675  25.574  1.00  0.00     0.026 A 
ATOM     26  C   UNL A   1      33.907  28.337  26.460  1.00  0.00     0.039 A 
ATOM     27  C   UNL A   1      31.761  30.008  26.004  1.00  0.00     0.003 A 
ATOM     28  C   UNL A   1      33.991  29.672  26.882  1.00  0.00     0.058 A 
ATOM     29  C   UNL A   1      32.892  30.504  26.656  1.00  0.00     0.013 A 
BRANCH  28  30
ATOM     30  C   UNL A   1      35.225  30.179  27.584  1.00  0.00     0.416 C 
ATOM     31  F   UNL A   1      36.347  29.471  27.274  1.00  0.00    -0.166 F 
ATOM     32  F   UNL A   1      35.502  31.474  27.260  1.00  0.00    -0.166 F 
ATOM     33  F   UNL A   1      35.141  30.154  28.944  1.00  0.00    -0.166 F 
ENDBRANCH  28  30
ENDBRANCH  23  24
ENDBRANCH  15  16
ENDBRANCH   6   8
ENDBRANCH   5   6
ENDBRANCH   4   5
ENDBRANCH   3   4
ENDBRANCH   2   3
ENDBRANCH   1   2
BRANCH   1  34
ATOM     34  C   UNL A   1      40.407  22.738  26.462  1.00  0.00     0.188 C 
BRANCH  34  35
ATOM     35  O   UNL A   1      41.103  22.166  27.569  1.00  0.00    -0.376 OA
BRANCH  35  36
ATOM     36  C   UNL A   1      42.468  22.565  27.656  1.00  0.00     0.202 C 
BRANCH  36  37
ATOM     37  C   UNL A   1      42.859  23.396  26.433  1.00  0.00     0.261 C 
BRANCH  37  38
ATOM     38  O   UNL A   1      43.299  24.725  26.787  1.00  0.00    -0.460 OA
BRANCH  38  39
ATOM     39  C   UNL A   1      42.591  25.708  26.194  1.00  0.00     0.338 C 
ATOM     40  O   UNL A   1      42.396  25.839  25.001  1.00  0.00    -0.246 OA
BRANCH  39  41
ATOM     41  C   UNL A   1      42.016  26.609  27.212  1.00  0.00     0.060 A 
ATOM     42  C   UNL A   1      42.731  27.737  27.620  1.00  0.00     0.016 A 
ATOM     43  C   UNL A   1      40.878  26.213  27.911  1.00  0.00     0.016 A 
ATOM     44  C   UNL A   1      42.341  28.443  28.763  1.00  0.00     0.010 A 
ATOM     45  C   UNL A   1      40.470  26.938  29.036  1.00  0.00     0.010 A 
ATOM     46  C   UNL A   1      41.211  28.045  29.489  1.00  0.00    -0.014 A 
BRANCH  46  47
ATOM     47  C   UNL A   1      40.787  28.753  30.727  1.00  0.00     0.031 A 
ATOM     48  C   UNL A   1      39.667  29.757  30.682  1.00  0.00     0.074 A 
ATOM     49  C   UNL A   1      41.429  28.540  31.890  1.00  0.00     0.049 A 
ATOM     50  N   UNL A   1      39.351  30.685  31.549  1.00  0.00    -0.248 NA
ATOM     51  C   UNL A   1      38.783  29.703  29.509  1.00  0.00     0.031 C 
ATOM     52  C   UNL A   1      42.473  27.542  32.117  1.00  0.00     0.029 A 
ATOM     53  N   UNL A   1      41.313  29.187  33.099  1.00  0.00    -0.354 N 
ATOM     54  C   UNL A   1      38.267  31.361  31.002  1.00  0.00     0.074 A 
ATOM     55  C   UNL A   1      37.965  30.722  29.739  1.00  0.00     0.031 C 
ATOM     56  C   UNL A   1      42.917  27.654  33.378  1.00  0.00     0.029 A 
ATOM     57  C   UNL A   1      42.252  28.785  34.017  1.00  0.00     0.049 A 
ATOM     58  H   UNL A   1      40.627  29.866  33.286  1.00  0.00     0.167 HD
ATOM     59  C   UNL A   1      37.598  32.427  31.503  1.00  0.00     0.031 A 
ATOM     60  C   UNL A   1      42.599  29.312  35.207  1.00  0.00     0.031 A 
ATOM     61  C   UNL A   1      37.886  33.051  32.768  1.00  0.00     0.049 A 
ATOM     62  C   UNL A   1      41.914  30.553  35.702  1.00  0.00     0.074 A 
ATOM     63  C   UNL A   1      37.266  34.143  33.355  1.00  0.00     0.029 A 
ATOM     64  N   UNL A   1      38.873  32.634  33.646  1.00  0.00    -0.354 N 
ATOM     65  N   UNL A   1      40.946  31.238  35.144  1.00  0.00    -0.248 NA
ATOM     66  C   UNL A   1      42.387  31.104  36.978  1.00  0.00     0.031 C 
ATOM     67  C   UNL A   1      37.903  34.407  34.573  1.00  0.00     0.029 A 
ATOM     68  C   UNL A   1      38.891  33.455  34.760  1.00  0.00     0.049 A 
ATOM     69  H   UNL A   1      39.472  31.867  33.498  1.00  0.00     0.167 HD
ATOM     70  C   UNL A   1      40.693  32.299  36.003  1.00  0.00     0.074 A 
ATOM     71  C   UNL A   1      41.593  32.157  37.127  1.00  0.00     0.031 C 
ATOM     72  C   UNL A   1      39.796  33.306  35.867  1.00  0.00     0.031 A 
BRANCH  59  73
ATOM     73  C   UNL A   1      36.511  33.031  30.661  1.00  0.00    -0.014 A 
ATOM     74  C   UNL A   1      36.806  33.841  29.556  1.00  0.00     0.009 A 
ATOM     75  C   UNL A   1      35.171  32.715  30.939  1.00  0.00     0.009 A 
ATOM     76  C   UNL A   1      35.775  34.335  28.751  1.00  0.00     0.001 A 
ATOM     77  C   UNL A   1      34.146  33.195  30.123  1.00  0.00     0.001 A 
ATOM     78  C   UNL A   1      34.449  34.008  29.032  1.00  0.00     0.000 A 
ENDBRANCH  59  73
BRANCH  60  79
ATOM     79  C   UNL A   1      43.729  28.721  35.968  1.00  0.00    -0.014 A 
ATOM     80  C   UNL A   1      45.037  29.194  35.794  1.00  0.00     0.009 A 
ATOM     81  C   UNL A   1      43.495  27.679  36.881  1.00  0.00     0.009 A 
ATOM     82  C   UNL A   1      46.091  28.628  36.516  1.00  0.00     0.001 A 
ATOM     83  C   UNL A   1      44.546  27.136  37.620  1.00  0.00     0.001 A 
ATOM     84  C   UNL A   1      45.844  27.607  37.433  1.00  0.00     0.000 A 
ENDBRANCH  60  79
BRANCH  72  85
ATOM     85  C   UNL A   1      39.733  34.314  36.977  1.00  0.00    -0.014 A 
ATOM     86  C   UNL A   1      40.404  35.541  36.877  1.00  0.00     0.009 A 
ATOM     87  C   UNL A   1      38.979  34.037  38.128  1.00  0.00     0.009 A 
ATOM     88  C   UNL A   1      40.345  36.463  37.924  1.00  0.00     0.001 A 
ATOM     89  C   UNL A   1      38.907  34.969  39.165  1.00  0.00     0.001 A 
ATOM     90  C   UNL A   1      39.596  36.177  39.065  1.00  0.00     0.000 A 
ENDBRANCH  72  85
ENDBRANCH  46  47
ENDBRANCH  39  41
ENDBRANCH  38  39
ENDBRANCH  37  38
ENDBRANCH  36  37
ENDBRANCH  35  36
ENDBRANCH  34  35
ENDBRANCH   1  34
TORSDOF 20
ENDMDL
MODEL 3
REMARK VINA RESULT:     -10.9      3.746      8.851
REMARK SMILES CC1=C(C)C[C@@H](C(=O)OCCOCCOCCOC(=O)c2ccc(-c3c4nc(c(-c5ccccc5)c5ccc([nH]5)c(-c5ccccc5)c5nc(c(-c6ccccc6)c6ccc3[nH]6)C=C5)C=C4)cc2)[C@@H](C(=O)N2CCN(c3cccc(C(F)(F)F)c3)CC2)C1
REMARK SMILES IDX 13 1 12 2 11 3 10 4 9 5 7 6 8 7 6 8 1 9 2 10 3 11 88 12 4 13
REMARK SMILES IDX 5 14 69 15 70 16 71 17 72 18 73 19 87 20 74 21 86 22 75 23
REMARK SMILES IDX 76 24 77 25 85 26 78 27 80 28 79 29 81 30 82 31 83 32 84 33
REMARK SMILES IDX 14 34 15 35 16 36 17 37 18 38 19 39 20 40 21 41 22 42 68 43
REMARK SMILES IDX 23 44 67 45 24 46 25 47 26 48 61 49 27 50 66 51 60 52 62 53
REMARK SMILES IDX 28 54 65 55 59 56 58 57 29 59 51 60 36 61 50 62 37 63 40 64
REMARK SMILES IDX 49 65 63 66 38 67 39 68 48 70 64 71 41 72 30 73 31 74 35 75
REMARK SMILES IDX 32 76 34 77 33 78 52 79 53 80 57 81 54 82 56 83 55 84 42 85
REMARK SMILES IDX 43 86 47 87 44 88 46 89 45 90
REMARK H PARENT 62 58 40 69
REMARK Flexibility Score: inf
ROOT
ATOM      1  C   UNL A   1      33.180  32.979  27.488  1.00  0.00     0.188 C 
ENDROOT
BRANCH   1   2
ATOM      2  O   UNL A   1      31.775  33.102  27.270  1.00  0.00    -0.376 OA
BRANCH   2   3
ATOM      3  C   UNL A   1      31.160  32.295  26.277  1.00  0.00     0.202 C 
BRANCH   3   4
ATOM      4  C   UNL A   1      31.666  30.844  26.212  1.00  0.00     0.261 C 
BRANCH   4   5
ATOM      5  O   UNL A   1      31.046  29.976  25.233  1.00  0.00    -0.463 OA
BRANCH   5   6
ATOM      6  C   UNL A   1      31.900  29.334  24.407  1.00  0.00     0.310 C 
ATOM      7  O   UNL A   1      33.125  29.430  24.479  1.00  0.00    -0.252 OA
BRANCH   6   8
ATOM      8  C   UNL A   1      31.283  28.628  23.211  1.00  0.00     0.116 C 
ATOM      9  C   UNL A   1      26.904  28.659  23.531  1.00  0.00     0.039 C 
ATOM     10  C   UNL A   1      28.364  28.710  23.163  1.00  0.00    -0.074 C 
ATOM     11  C   UNL A   1      29.063  29.819  22.852  1.00  0.00    -0.073 C 
ATOM     12  C   UNL A   1      29.010  27.347  23.126  1.00  0.00     0.045 C 
ATOM     13  C   UNL A   1      28.522  31.224  22.836  1.00  0.00     0.039 C 
ATOM     14  C   UNL A   1      30.509  29.702  22.435  1.00  0.00     0.046 C 
ATOM     15  C   UNL A   1      30.552  27.274  23.234  1.00  0.00     0.097 C 
BRANCH  15  16
ATOM     16  C   UNL A   1      30.866  26.299  24.369  1.00  0.00     0.227 C 
ATOM     17  O   UNL A   1      30.064  26.155  25.293  1.00  0.00    -0.275 OA
ATOM     18  N   UNL A   1      31.988  25.466  24.262  1.00  0.00    -0.339 N 
ATOM     19  C   UNL A   1      32.079  24.386  25.265  1.00  0.00     0.141 C 
ATOM     20  C   UNL A   1      33.244  25.862  23.594  1.00  0.00     0.141 C 
ATOM     21  C   UNL A   1      33.099  23.285  24.948  1.00  0.00     0.138 C 
ATOM     22  C   UNL A   1      34.342  24.772  23.452  1.00  0.00     0.138 C 
ATOM     23  N   UNL A   1      34.388  23.909  24.631  1.00  0.00    -0.368 N 
BRANCH  23  24
ATOM     24  C   UNL A   1      35.517  23.136  24.861  1.00  0.00     0.037 A 
ATOM     25  C   UNL A   1      35.630  21.798  24.488  1.00  0.00     0.026 A 
ATOM     26  C   UNL A   1      36.583  23.706  25.564  1.00  0.00     0.039 A 
ATOM     27  C   UNL A   1      36.777  21.059  24.813  1.00  0.00     0.003 A 
ATOM     28  C   UNL A   1      37.732  22.985  25.922  1.00  0.00     0.058 A 
ATOM     29  C   UNL A   1      37.823  21.650  25.525  1.00  0.00     0.013 A 
BRANCH  28  30
ATOM     30  C   UNL A   1      38.846  23.650  26.691  1.00  0.00     0.416 C 
ATOM     31  F   UNL A   1      39.728  22.763  27.232  1.00  0.00    -0.166 F 
ATOM     32  F   UNL A   1      39.590  24.476  25.902  1.00  0.00    -0.166 F 
ATOM     33  F   UNL A   1      38.421  24.423  27.729  1.00  0.00    -0.166 F 
ENDBRANCH  28  30
ENDBRANCH  23  24
ENDBRANCH  15  16
ENDBRANCH   6   8
ENDBRANCH   5   6
ENDBRANCH   4   5
ENDBRANCH   3   4
ENDBRANCH   2   3
ENDBRANCH   1   2
BRANCH   1  34
ATOM     34  C   UNL A   1      33.898  34.044  28.319  1.00  0.00     0.188 C 
BRANCH  34  35
ATOM     35  O   UNL A   1      33.772  33.786  29.717  1.00  0.00    -0.376 OA
BRANCH  35  36
ATOM     36  C   UNL A   1      35.015  33.776  30.413  1.00  0.00     0.202 C 
BRANCH  36  37
ATOM     37  C   UNL A   1      36.000  32.828  29.727  1.00  0.00     0.261 C 
BRANCH  37  38
ATOM     38  O   UNL A   1      35.772  31.446  30.078  1.00  0.00    -0.460 OA
BRANCH  38  39
ATOM     39  C   UNL A   1      36.053  30.579  29.083  1.00  0.00     0.338 C 
ATOM     40  O   UNL A   1      35.251  30.064  28.327  1.00  0.00    -0.246 OA
BRANCH  39  41
ATOM     41  C   UNL A   1      37.510  30.366  28.987  1.00  0.00     0.060 A 
ATOM     42  C   UNL A   1      38.080  30.027  27.759  1.00  0.00     0.016 A 
ATOM     43  C   UNL A   1      38.268  30.288  30.154  1.00  0.00     0.016 A 
ATOM     44  C   UNL A   1      39.396  29.556  27.698  1.00  0.00     0.010 A 
ATOM     45  C   UNL A   1      39.594  29.847  30.090  1.00  0.00     0.010 A 
ATOM     46  C   UNL A   1      40.165  29.452  28.866  1.00  0.00    -0.014 A 
BRANCH  46  47
ATOM     47  C   UNL A   1      41.555  28.925  28.843  1.00  0.00     0.031 A 
ATOM     48  C   UNL A   1      42.725  29.862  28.979  1.00  0.00     0.074 A 
ATOM     49  C   UNL A   1      41.786  27.613  28.652  1.00  0.00     0.049 A 
ATOM     50  N   UNL A   1      43.985  29.662  28.685  1.00  0.00    -0.248 NA
ATOM     51  C   UNL A   1      42.438  31.196  29.524  1.00  0.00     0.031 C 
ATOM     52  C   UNL A   1      40.765  26.569  28.588  1.00  0.00     0.029 A 
ATOM     53  N   UNL A   1      42.968  26.941  28.442  1.00  0.00    -0.354 N 
ATOM     54  C   UNL A   1      44.632  30.861  28.958  1.00  0.00     0.074 A 
ATOM     55  C   UNL A   1      43.630  31.776  29.463  1.00  0.00     0.031 C 
ATOM     56  C   UNL A   1      41.359  25.392  28.335  1.00  0.00     0.029 A 
ATOM     57  C   UNL A   1      42.787  25.615  28.134  1.00  0.00     0.049 A 
ATOM     58  H   UNL A   1      43.853  27.367  28.508  1.00  0.00     0.167 HD
ATOM     59  C   UNL A   1      45.939  31.172  28.787  1.00  0.00     0.031 A 
ATOM     60  C   UNL A   1      43.652  24.695  27.664  1.00  0.00     0.031 A 
ATOM     61  C   UNL A   1      46.940  30.257  28.304  1.00  0.00     0.049 A 
ATOM     62  C   UNL A   1      45.075  25.084  27.387  1.00  0.00     0.074 A 
ATOM     63  C   UNL A   1      48.290  30.486  28.090  1.00  0.00     0.029 A 
ATOM     64  N   UNL A   1      46.701  28.935  27.967  1.00  0.00    -0.354 N 
ATOM     65  N   UNL A   1      45.664  26.241  27.567  1.00  0.00    -0.248 NA
ATOM     66  C   UNL A   1      45.945  24.045  26.819  1.00  0.00     0.031 C 
ATOM     67  C   UNL A   1      48.860  29.310  27.589  1.00  0.00     0.029 A 
ATOM     68  C   UNL A   1      47.873  28.340  27.530  1.00  0.00     0.049 A 
ATOM     69  H   UNL A   1      45.828  28.486  28.028  1.00  0.00     0.167 HD
ATOM     70  C   UNL A   1      46.973  26.068  27.138  1.00  0.00     0.074 A 
ATOM     71  C   UNL A   1      47.098  24.692  26.707  1.00  0.00     0.031 C 
ATOM     72  C   UNL A   1      47.981  26.973  27.099  1.00  0.00     0.031 A 
BRANCH  59  73
ATOM     73  C   UNL A   1      46.368  32.582  29.077  1.00  0.00    -0.014 A 
ATOM     74  C   UNL A   1      46.858  32.954  30.336  1.00  0.00     0.009 A 
ATOM     75  C   UNL A   1      46.351  33.532  28.042  1.00  0.00     0.009 A 
ATOM     76  C   UNL A   1      47.311  34.258  30.558  1.00  0.00     0.001 A 
ATOM     77  C   UNL A   1      46.821  34.827  28.261  1.00  0.00     0.001 A 
ATOM     78  C   UNL A   1      47.298  35.190  29.520  1.00  0.00     0.000 A 
ENDBRANCH  59  73
BRANCH  60  79
ATOM     79  C   UNL A   1      43.162  23.335  27.326  1.00  0.00    -0.014 A 
ATOM     80  C   UNL A   1      42.895  22.397  28.333  1.00  0.00     0.009 A 
ATOM     81  C   UNL A   1      42.952  22.976  25.984  1.00  0.00     0.009 A 
ATOM     82  C   UNL A   1      42.435  21.121  28.001  1.00  0.00     0.001 A 
ATOM     83  C   UNL A   1      42.466  21.710  25.658  1.00  0.00     0.001 A 
ATOM     84  C   UNL A   1      42.213  20.781  26.666  1.00  0.00     0.000 A 
ENDBRANCH  60  79
BRANCH  72  85
ATOM     85  C   UNL A   1      49.309  26.490  26.596  1.00  0.00    -0.014 A 
ATOM     86  C   UNL A   1      49.708  26.722  25.271  1.00  0.00     0.009 A 
ATOM     87  C   UNL A   1      50.178  25.810  27.463  1.00  0.00     0.009 A 
ATOM     88  C   UNL A   1      50.941  26.255  24.815  1.00  0.00     0.001 A 
ATOM     89  C   UNL A   1      51.419  25.361  27.009  1.00  0.00     0.001 A 
ATOM     90  C   UNL A   1      51.797  25.577  25.684  1.00  0.00     0.000 A 
ENDBRANCH  72  85
ENDBRANCH  46  47
ENDBRANCH  39  41
ENDBRANCH  38  39
ENDBRANCH  37  38
ENDBRANCH  36  37
ENDBRANCH  35  36
ENDBRANCH  34  35
ENDBRANCH   1  34
TORSDOF 20
ENDMDL
