MODEL 1
REMARK VINA RESULT:     -12.0      0.000      0.000
REMARK SMILES O=C(OCCOCCOCCOC(=O)c1ccc(N2C(=O)[C@@H]3N=NC(c4ccccc4)=C3[C@H]2c2cccc(Br)c2)cc1)c1ccc(-c2c3nc(c(-c4ccccc4)c4ccc([nH]4)c(-c4ccccc4)c4nc(c(-c5ccccc5)c5ccc2[nH]5)C=C4)C=C3)cc1
REMARK SMILES IDX 7 1 6 2 5 3 4 4 3 5 2 6 1 7 43 8 44 9 90 10 45 11 89 12
REMARK SMILES IDX 46 13 47 14 48 15 83 16 49 17 88 18 82 19 84 20 50 21 87 22
REMARK SMILES IDX 81 23 80 24 51 26 73 27 58 28 72 29 59 30 62 31 71 32 85 33
REMARK SMILES IDX 60 34 61 35 70 37 86 38 63 39 52 40 53 41 57 42 54 43 56 44
REMARK SMILES IDX 55 45 74 46 75 47 79 48 76 49 78 50 77 51 64 52 65 53 69 54
REMARK SMILES IDX 66 55 68 56 67 57 8 58 9 59 10 60 11 61 12 62 13 63 14 64
REMARK SMILES IDX 15 65 16 66 42 67 17 68 41 69 18 70 19 71 20 72 33 73 22 74
REMARK SMILES IDX 21 75 32 76 23 77 25 78 24 79 34 80 35 81 40 82 36 83 38 84
REMARK SMILES IDX 37 85 39 86 26 87 27 88 31 89 28 90 30 91 29 92
REMARK H PARENT 84 25 62 36
REMARK Flexibility Score: inf
ROOT
ATOM      1  C   UNL A   1      45.700  21.478  24.279  1.00  0.00     0.188 C 
ENDROOT
BRANCH   1   2
ATOM      2  O   UNL A   1      46.415  21.943  25.398  1.00  0.00    -0.376 OA
BRANCH   2   3
ATOM      3  C   UNL A   1      46.230  23.226  25.963  1.00  0.00     0.202 C 
BRANCH   3   4
ATOM      4  C   UNL A   1      46.078  23.535  27.458  1.00  0.00     0.261 C 
BRANCH   4   5
ATOM      5  O   UNL A   1      44.752  23.733  27.937  1.00  0.00    -0.460 OA
BRANCH   5   6
ATOM      6  C   UNL A   1      44.292  24.193  29.115  1.00  0.00     0.338 C 
ATOM      7  O   UNL A   1      44.649  23.606  30.136  1.00  0.00    -0.246 OA
BRANCH   6   8
ATOM      8  C   UNL A   1      43.304  25.302  29.287  1.00  0.00     0.060 A 
ATOM      9  C   UNL A   1      42.122  25.500  28.576  1.00  0.00     0.016 A 
ATOM     10  C   UNL A   1      43.667  26.262  30.258  1.00  0.00     0.016 A 
ATOM     11  C   UNL A   1      41.458  26.717  28.664  1.00  0.00     0.010 A 
ATOM     12  C   UNL A   1      42.990  27.464  30.376  1.00  0.00     0.010 A 
ATOM     13  C   UNL A   1      41.941  27.720  29.510  1.00  0.00    -0.014 A 
BRANCH  13  14
ATOM     14  C   UNL A   1      41.261  29.004  29.509  1.00  0.00     0.031 A 
ATOM     15  C   UNL A   1      42.133  30.151  29.168  1.00  0.00     0.074 A 
ATOM     16  C   UNL A   1      39.949  29.153  29.773  1.00  0.00     0.049 A 
ATOM     17  N   UNL A   1      42.561  31.062  29.976  1.00  0.00    -0.248 NA
ATOM     18  C   UNL A   1      42.709  30.217  27.819  1.00  0.00     0.031 C 
ATOM     19  C   UNL A   1      38.916  28.120  29.885  1.00  0.00     0.029 A 
ATOM     20  N   UNL A   1      39.239  30.307  29.920  1.00  0.00    -0.354 N 
ATOM     21  C   UNL A   1      43.313  31.936  29.202  1.00  0.00     0.074 A 
ATOM     22  C   UNL A   1      43.495  31.291  27.925  1.00  0.00     0.031 C 
ATOM     23  C   UNL A   1      37.694  28.703  29.852  1.00  0.00     0.029 A 
ATOM     24  C   UNL A   1      37.860  30.147  29.871  1.00  0.00     0.049 A 
ATOM     25  H   UNL A   1      39.669  31.183  30.050  1.00  0.00     0.167 HD
ATOM     26  C   UNL A   1      43.522  33.221  29.599  1.00  0.00     0.031 A 
ATOM     27  C   UNL A   1      36.932  31.135  29.808  1.00  0.00     0.031 A 
ATOM     28  C   UNL A   1      43.225  33.402  30.998  1.00  0.00     0.049 A 
ATOM     29  C   UNL A   1      37.564  32.377  30.306  1.00  0.00     0.074 A 
ATOM     30  C   UNL A   1      43.710  32.866  32.174  1.00  0.00     0.029 A 
ATOM     31  N   UNL A   1      42.013  33.970  31.309  1.00  0.00    -0.354 N 
ATOM     32  N   UNL A   1      37.888  32.563  31.552  1.00  0.00    -0.248 NA
ATOM     33  C   UNL A   1      38.241  33.237  29.349  1.00  0.00     0.031 C 
ATOM     34  C   UNL A   1      42.564  32.718  33.009  1.00  0.00     0.029 A 
ATOM     35  C   UNL A   1      41.461  33.238  32.328  1.00  0.00     0.049 A 
ATOM     36  H   UNL A   1      41.613  34.758  30.878  1.00  0.00     0.167 HD
ATOM     37  C   UNL A   1      39.117  33.204  31.500  1.00  0.00     0.074 A 
ATOM     38  C   UNL A   1      39.232  33.688  30.124  1.00  0.00     0.031 C 
ATOM     39  C   UNL A   1      40.041  33.032  32.490  1.00  0.00     0.031 A 
BRANCH  26  40
ATOM     40  C   UNL A   1      43.553  34.386  28.641  1.00  0.00    -0.014 A 
ATOM     41  C   UNL A   1      42.388  35.158  28.484  1.00  0.00     0.009 A 
ATOM     42  C   UNL A   1      44.563  34.558  27.676  1.00  0.00     0.009 A 
ATOM     43  C   UNL A   1      42.207  35.984  27.369  1.00  0.00     0.001 A 
ATOM     44  C   UNL A   1      44.403  35.413  26.583  1.00  0.00     0.001 A 
ATOM     45  C   UNL A   1      43.211  36.101  26.412  1.00  0.00     0.000 A 
ENDBRANCH  26  40
BRANCH  27  46
ATOM     46  C   UNL A   1      35.626  31.157  29.112  1.00  0.00    -0.014 A 
ATOM     47  C   UNL A   1      34.812  32.302  29.145  1.00  0.00     0.009 A 
ATOM     48  C   UNL A   1      35.318  30.163  28.166  1.00  0.00     0.009 A 
ATOM     49  C   UNL A   1      33.760  32.467  28.233  1.00  0.00     0.001 A 
ATOM     50  C   UNL A   1      34.266  30.328  27.257  1.00  0.00     0.001 A 
ATOM     51  C   UNL A   1      33.499  31.487  27.279  1.00  0.00     0.000 A 
ENDBRANCH  27  46
BRANCH  39  52
ATOM     52  C   UNL A   1      39.598  32.353  33.764  1.00  0.00    -0.014 A 
ATOM     53  C   UNL A   1      39.277  33.046  34.944  1.00  0.00     0.009 A 
ATOM     54  C   UNL A   1      39.367  30.969  33.723  1.00  0.00     0.009 A 
ATOM     55  C   UNL A   1      38.777  32.366  36.059  1.00  0.00     0.001 A 
ATOM     56  C   UNL A   1      38.844  30.295  34.827  1.00  0.00     0.001 A 
ATOM     57  C   UNL A   1      38.557  30.991  35.998  1.00  0.00     0.000 A 
ENDBRANCH  39  52
ENDBRANCH  13  14
ENDBRANCH   6   8
ENDBRANCH   5   6
ENDBRANCH   4   5
ENDBRANCH   3   4
ENDBRANCH   2   3
ENDBRANCH   1   2
BRANCH   1  58
ATOM     58  C   UNL A   1      44.944  20.132  24.400  1.00  0.00     0.188 C 
BRANCH  58  59
ATOM     59  O   UNL A   1      43.645  20.044  24.962  1.00  0.00    -0.376 OA
BRANCH  59  60
ATOM     60  C   UNL A   1      43.321  20.798  26.113  1.00  0.00     0.202 C 
BRANCH  60  61
ATOM     61  C   UNL A   1      42.583  22.135  25.960  1.00  0.00     0.261 C 
BRANCH  61  62
ATOM     62  O   UNL A   1      41.171  22.053  25.691  1.00  0.00    -0.460 OA
BRANCH  62  63
ATOM     63  C   UNL A   1      40.353  22.319  26.740  1.00  0.00     0.338 C 
ATOM     64  O   UNL A   1      40.650  22.371  27.917  1.00  0.00    -0.246 OA
BRANCH  63  65
ATOM     65  C   UNL A   1      38.979  22.588  26.262  1.00  0.00     0.060 A 
ATOM     66  C   UNL A   1      38.402  23.845  26.462  1.00  0.00     0.018 A 
ATOM     67  C   UNL A   1      38.219  21.557  25.711  1.00  0.00     0.018 A 
ATOM     68  C   UNL A   1      37.070  24.073  26.098  1.00  0.00     0.027 A 
ATOM     69  C   UNL A   1      36.870  21.781  25.387  1.00  0.00     0.027 A 
ATOM     70  C   UNL A   1      36.279  23.033  25.595  1.00  0.00     0.045 A 
BRANCH  70  71
ATOM     71  N   UNL A   1      34.907  23.262  25.302  1.00  0.00    -0.299 N 
ATOM     72  C   UNL A   1      33.921  23.099  26.321  1.00  0.00     0.259 C 
ATOM     73  C   UNL A   1      34.345  22.964  23.961  1.00  0.00     0.152 C 
ATOM     74  C   UNL A   1      32.610  22.822  25.635  1.00  0.00     0.248 C 
ATOM     75  O   UNL A   1      34.097  23.149  27.532  1.00  0.00    -0.271 OA
ATOM     76  C   UNL A   1      33.183  22.159  24.434  1.00  0.00     0.021 C 
ATOM     77  N   UNL A   1      31.796  21.766  26.242  1.00  0.00    -0.170 NA
ATOM     78  C   UNL A   1      32.641  20.939  24.406  1.00  0.00     0.097 C 
ATOM     79  N   UNL A   1      31.740  20.785  25.448  1.00  0.00    -0.154 NA
BRANCH  73  80
ATOM     80  C   UNL A   1      33.887  24.237  23.211  1.00  0.00    -0.020 A 
ATOM     81  C   UNL A   1      33.212  24.179  21.970  1.00  0.00     0.006 A 
ATOM     82  C   UNL A   1      34.099  25.519  23.746  1.00  0.00     0.022 A 
ATOM     83  C   UNL A   1      32.666  25.316  21.365  1.00  0.00     0.002 A 
ATOM     84  C   UNL A   1      33.559  26.659  23.135  1.00  0.00     0.018 A 
ATOM     85  C   UNL A   1      32.823  26.560  21.960  1.00  0.00     0.016 A 
ATOM     86  Br  UNL A   1      33.819  28.359  23.922  1.00  0.00    -0.051 Br
ENDBRANCH  73  80
BRANCH  78  87
ATOM     87  C   UNL A   1      33.038  19.695  23.737  1.00  0.00     0.002 A 
ATOM     88  C   UNL A   1      32.200  19.083  22.796  1.00  0.00     0.010 A 
ATOM     89  C   UNL A   1      34.061  18.937  24.333  1.00  0.00     0.010 A 
ATOM     90  C   UNL A   1      32.335  17.717  22.519  1.00  0.00     0.001 A 
ATOM     91  C   UNL A   1      34.184  17.572  24.063  1.00  0.00     0.001 A 
ATOM     92  C   UNL A   1      33.306  16.958  23.174  1.00  0.00     0.000 A 
ENDBRANCH  78  87
ENDBRANCH  70  71
ENDBRANCH  63  65
ENDBRANCH  62  63
ENDBRANCH  61  62
ENDBRANCH  60  61
ENDBRANCH  59  60
ENDBRANCH  58  59
ENDBRANCH   1  58
TORSDOF 20
ENDMDL
MODEL 2
REMARK VINA RESULT:     -10.6      2.821      4.535
REMARK SMILES O=C(OCCOCCOCCOC(=O)c1ccc(N2C(=O)[C@@H]3N=NC(c4ccccc4)=C3[C@H]2c2cccc(Br)c2)cc1)c1ccc(-c2c3nc(c(-c4ccccc4)c4ccc([nH]4)c(-c4ccccc4)c4nc(c(-c5ccccc5)c5ccc2[nH]5)C=C4)C=C3)cc1
REMARK SMILES IDX 7 1 6 2 5 3 4 4 3 5 2 6 1 7 43 8 44 9 90 10 45 11 89 12
REMARK SMILES IDX 46 13 47 14 48 15 83 16 49 17 88 18 82 19 84 20 50 21 87 22
REMARK SMILES IDX 81 23 80 24 51 26 73 27 58 28 72 29 59 30 62 31 71 32 85 33
REMARK SMILES IDX 60 34 61 35 70 37 86 38 63 39 52 40 53 41 57 42 54 43 56 44
REMARK SMILES IDX 55 45 74 46 75 47 79 48 76 49 78 50 77 51 64 52 65 53 69 54
REMARK SMILES IDX 66 55 68 56 67 57 8 58 9 59 10 60 11 61 12 62 13 63 14 64
REMARK SMILES IDX 15 65 16 66 42 67 17 68 41 69 18 70 19 71 20 72 33 73 22 74
REMARK SMILES IDX 21 75 32 76 23 77 25 78 24 79 34 80 35 81 40 82 36 83 38 84
REMARK SMILES IDX 37 85 39 86 26 87 27 88 31 89 28 90 30 91 29 92
REMARK H PARENT 84 25 62 36
REMARK Flexibility Score: inf
ROOT
ATOM      1  C   UNL A   1      46.199  25.778  24.993  1.00  0.00     0.188 C 
ENDROOT
BRANCH   1   2
ATOM      2  O   UNL A   1      47.327  25.401  24.242  1.00  0.00    -0.376 OA
BRANCH   2   3
ATOM      3  C   UNL A   1      48.425  26.259  24.001  1.00  0.00     0.202 C 
BRANCH   3   4
ATOM      4  C   UNL A   1      49.542  26.589  24.999  1.00  0.00     0.261 C 
BRANCH   4   5
ATOM      5  O   UNL A   1      49.157  27.275  26.185  1.00  0.00    -0.460 OA
BRANCH   5   6
ATOM      6  C   UNL A   1      48.728  28.535  26.383  1.00  0.00     0.338 C 
ATOM      7  O   UNL A   1      49.533  29.448  26.204  1.00  0.00    -0.246 OA
BRANCH   6   8
ATOM      8  C   UNL A   1      47.378  28.920  26.898  1.00  0.00     0.060 A 
ATOM      9  C   UNL A   1      46.192  29.020  26.172  1.00  0.00     0.016 A 
ATOM     10  C   UNL A   1      47.350  29.258  28.269  1.00  0.00     0.016 A 
ATOM     11  C   UNL A   1      45.089  29.651  26.733  1.00  0.00     0.010 A 
ATOM     12  C   UNL A   1      46.242  29.857  28.846  1.00  0.00     0.010 A 
ATOM     13  C   UNL A   1      45.148  30.132  28.044  1.00  0.00    -0.014 A 
BRANCH  13  14
ATOM     14  C   UNL A   1      44.000  30.857  28.561  1.00  0.00     0.031 A 
ATOM     15  C   UNL A   1      44.177  32.327  28.598  1.00  0.00     0.074 A 
ATOM     16  C   UNL A   1      42.859  30.261  28.956  1.00  0.00     0.049 A 
ATOM     17  N   UNL A   1      44.346  33.057  29.648  1.00  0.00    -0.248 NA
ATOM     18  C   UNL A   1      44.326  33.048  27.327  1.00  0.00     0.031 C 
ATOM     19  C   UNL A   1      42.438  28.872  28.760  1.00  0.00     0.029 A 
ATOM     20  N   UNL A   1      41.776  30.822  29.566  1.00  0.00    -0.354 N 
ATOM     21  C   UNL A   1      44.435  34.366  29.193  1.00  0.00     0.074 A 
ATOM     22  C   UNL A   1      44.567  34.288  27.759  1.00  0.00     0.031 C 
ATOM     23  C   UNL A   1      41.116  28.762  29.032  1.00  0.00     0.029 A 
ATOM     24  C   UNL A   1      40.636  30.028  29.563  1.00  0.00     0.049 A 
ATOM     25  H   UNL A   1      41.800  31.717  29.974  1.00  0.00     0.167 HD
ATOM     26  C   UNL A   1      44.152  35.414  30.014  1.00  0.00     0.031 A 
ATOM     27  C   UNL A   1      39.387  30.404  29.933  1.00  0.00     0.031 A 
ATOM     28  C   UNL A   1      44.150  35.020  31.400  1.00  0.00     0.049 A 
ATOM     29  C   UNL A   1      39.515  31.595  30.802  1.00  0.00     0.074 A 
ATOM     30  C   UNL A   1      45.086  34.482  32.261  1.00  0.00     0.029 A 
ATOM     31  N   UNL A   1      42.926  34.804  31.985  1.00  0.00    -0.354 N 
ATOM     32  N   UNL A   1      40.014  31.553  32.002  1.00  0.00    -0.248 NA
ATOM     33  C   UNL A   1      39.500  32.909  30.176  1.00  0.00     0.031 C 
ATOM     34  C   UNL A   1      44.355  33.560  33.067  1.00  0.00     0.029 A 
ATOM     35  C   UNL A   1      43.009  33.642  32.705  1.00  0.00     0.049 A 
ATOM     36  H   UNL A   1      42.133  35.381  31.902  1.00  0.00     0.167 HD
ATOM     37  C   UNL A   1      40.789  32.699  32.096  1.00  0.00     0.074 A 
ATOM     38  C   UNL A   1      40.350  33.545  30.987  1.00  0.00     0.031 C 
ATOM     39  C   UNL A   1      41.904  32.729  32.885  1.00  0.00     0.031 A 
BRANCH  26  40
ATOM     40  C   UNL A   1      43.444  36.661  29.547  1.00  0.00    -0.014 A 
ATOM     41  C   UNL A   1      42.430  36.536  28.581  1.00  0.00     0.009 A 
ATOM     42  C   UNL A   1      43.939  37.958  29.782  1.00  0.00     0.009 A 
ATOM     43  C   UNL A   1      42.003  37.635  27.825  1.00  0.00     0.001 A 
ATOM     44  C   UNL A   1      43.487  39.064  29.058  1.00  0.00     0.001 A 
ATOM     45  C   UNL A   1      42.542  38.896  28.057  1.00  0.00     0.000 A 
ENDBRANCH  26  40
BRANCH  27  46
ATOM     46  C   UNL A   1      38.077  29.980  29.390  1.00  0.00    -0.014 A 
ATOM     47  C   UNL A   1      36.925  29.997  30.196  1.00  0.00     0.009 A 
ATOM     48  C   UNL A   1      37.901  29.846  28.002  1.00  0.00     0.009 A 
ATOM     49  C   UNL A   1      35.645  29.933  29.626  1.00  0.00     0.001 A 
ATOM     50  C   UNL A   1      36.623  29.780  27.434  1.00  0.00     0.001 A 
ATOM     51  C   UNL A   1      35.495  29.841  28.245  1.00  0.00     0.000 A 
ENDBRANCH  27  46
BRANCH  39  52
ATOM     52  C   UNL A   1      42.119  31.590  33.853  1.00  0.00    -0.014 A 
ATOM     53  C   UNL A   1      42.744  30.380  33.503  1.00  0.00     0.009 A 
ATOM     54  C   UNL A   1      41.798  31.807  35.201  1.00  0.00     0.009 A 
ATOM     55  C   UNL A   1      43.004  29.404  34.472  1.00  0.00     0.001 A 
ATOM     56  C   UNL A   1      42.079  30.843  36.170  1.00  0.00     0.001 A 
ATOM     57  C   UNL A   1      42.674  29.639  35.805  1.00  0.00     0.000 A 
ENDBRANCH  39  52
ENDBRANCH  13  14
ENDBRANCH   6   8
ENDBRANCH   5   6
ENDBRANCH   4   5
ENDBRANCH   3   4
ENDBRANCH   2   3
ENDBRANCH   1   2
BRANCH   1  58
ATOM     58  C   UNL A   1      45.119  24.704  25.280  1.00  0.00     0.188 C 
BRANCH  58  59
ATOM     59  O   UNL A   1      44.467  24.607  26.536  1.00  0.00    -0.376 OA
BRANCH  59  60
ATOM     60  C   UNL A   1      43.241  25.277  26.748  1.00  0.00     0.202 C 
BRANCH  60  61
ATOM     61  C   UNL A   1      41.932  24.628  26.277  1.00  0.00     0.261 C 
BRANCH  61  62
ATOM     62  O   UNL A   1      40.962  24.341  27.301  1.00  0.00    -0.460 OA
BRANCH  62  63
ATOM     63  C   UNL A   1      40.580  23.043  27.406  1.00  0.00     0.338 C 
ATOM     64  O   UNL A   1      41.150  22.148  27.998  1.00  0.00    -0.246 OA
BRANCH  63  65
ATOM     65  C   UNL A   1      39.294  22.830  26.707  1.00  0.00     0.060 A 
ATOM     66  C   UNL A   1      39.051  21.626  26.039  1.00  0.00     0.018 A 
ATOM     67  C   UNL A   1      38.367  23.868  26.620  1.00  0.00     0.018 A 
ATOM     68  C   UNL A   1      37.877  21.459  25.296  1.00  0.00     0.027 A 
ATOM     69  C   UNL A   1      37.211  23.708  25.838  1.00  0.00     0.027 A 
ATOM     70  C   UNL A   1      36.965  22.512  25.155  1.00  0.00     0.045 A 
BRANCH  70  71
ATOM     71  N   UNL A   1      35.815  22.350  24.335  1.00  0.00    -0.299 N 
ATOM     72  C   UNL A   1      35.756  22.977  23.054  1.00  0.00     0.259 C 
ATOM     73  C   UNL A   1      34.461  22.211  24.926  1.00  0.00     0.152 C 
ATOM     74  C   UNL A   1      34.301  23.137  22.701  1.00  0.00     0.248 C 
ATOM     75  O   UNL A   1      36.702  23.342  22.368  1.00  0.00    -0.271 OA
ATOM     76  C   UNL A   1      33.800  23.258  24.095  1.00  0.00     0.021 C 
ATOM     77  N   UNL A   1      33.940  24.425  22.103  1.00  0.00    -0.170 NA
ATOM     78  C   UNL A   1      33.182  24.441  24.152  1.00  0.00     0.097 C 
ATOM     79  N   UNL A   1      33.202  25.057  22.910  1.00  0.00    -0.154 NA
BRANCH  73  80
ATOM     80  C   UNL A   1      33.843  20.815  24.677  1.00  0.00    -0.020 A 
ATOM     81  C   UNL A   1      32.540  20.650  24.153  1.00  0.00     0.006 A 
ATOM     82  C   UNL A   1      34.564  19.638  24.938  1.00  0.00     0.022 A 
ATOM     83  C   UNL A   1      32.037  19.396  23.789  1.00  0.00     0.002 A 
ATOM     84  C   UNL A   1      34.056  18.381  24.580  1.00  0.00     0.018 A 
ATOM     85  C   UNL A   1      32.806  18.257  23.985  1.00  0.00     0.016 A 
ATOM     86  Br  UNL A   1      35.087  16.827  24.897  1.00  0.00    -0.051 Br
ENDBRANCH  73  80
BRANCH  78  87
ATOM     87  C   UNL A   1      32.812  25.311  25.273  1.00  0.00     0.002 A 
ATOM     88  C   UNL A   1      31.471  25.630  25.526  1.00  0.00     0.010 A 
ATOM     89  C   UNL A   1      33.820  26.117  25.829  1.00  0.00     0.010 A 
ATOM     90  C   UNL A   1      31.149  26.782  26.253  1.00  0.00     0.001 A 
ATOM     91  C   UNL A   1      33.494  27.271  26.544  1.00  0.00     0.001 A 
ATOM     92  C   UNL A   1      32.159  27.616  26.736  1.00  0.00     0.000 A 
ENDBRANCH  78  87
ENDBRANCH  70  71
ENDBRANCH  63  65
ENDBRANCH  62  63
ENDBRANCH  61  62
ENDBRANCH  60  61
ENDBRANCH  59  60
ENDBRANCH  58  59
ENDBRANCH   1  58
TORSDOF 20
ENDMDL
MODEL 3
REMARK VINA RESULT:     -10.4      3.867     11.188
REMARK SMILES O=C(OCCOCCOCCOC(=O)c1ccc(N2C(=O)[C@@H]3N=NC(c4ccccc4)=C3[C@H]2c2cccc(Br)c2)cc1)c1ccc(-c2c3nc(c(-c4ccccc4)c4ccc([nH]4)c(-c4ccccc4)c4nc(c(-c5ccccc5)c5ccc2[nH]5)C=C4)C=C3)cc1
REMARK SMILES IDX 7 1 6 2 5 3 4 4 3 5 2 6 1 7 43 8 44 9 90 10 45 11 89 12
REMARK SMILES IDX 46 13 47 14 48 15 83 16 49 17 88 18 82 19 84 20 50 21 87 22
REMARK SMILES IDX 81 23 80 24 51 26 73 27 58 28 72 29 59 30 62 31 71 32 85 33
REMARK SMILES IDX 60 34 61 35 70 37 86 38 63 39 52 40 53 41 57 42 54 43 56 44
REMARK SMILES IDX 55 45 74 46 75 47 79 48 76 49 78 50 77 51 64 52 65 53 69 54
REMARK SMILES IDX 66 55 68 56 67 57 8 58 9 59 10 60 11 61 12 62 13 63 14 64
REMARK SMILES IDX 15 65 16 66 42 67 17 68 41 69 18 70 19 71 20 72 33 73 22 74
REMARK SMILES IDX 21 75 32 76 23 77 25 78 24 79 34 80 35 81 40 82 36 83 38 84
REMARK SMILES IDX 37 85 39 86 26 87 27 88 31 89 28 90 30 91 29 92
REMARK H PARENT 84 25 62 36
REMARK Flexibility Score: inf
ROOT
ATOM      1  C   UNL A   1      35.304  23.456  25.690  1.00  0.00     0.188 C 
ENDROOT
BRANCH   1   2
ATOM      2  O   UNL A   1      35.516  22.765  24.483  1.00  0.00    -0.376 OA
BRANCH   2   3
ATOM      3  C   UNL A   1      36.770  22.237  24.097  1.00  0.00     0.202 C 
BRANCH   3   4
ATOM      4  C   UNL A   1      37.558  21.156  24.847  1.00  0.00     0.261 C 
BRANCH   4   5
ATOM      5  O   UNL A   1      38.452  21.605  25.860  1.00  0.00    -0.460 OA
BRANCH   5   6
ATOM      6  C   UNL A   1      39.718  21.249  26.149  1.00  0.00     0.338 C 
ATOM      7  O   UNL A   1      39.954  20.050  26.299  1.00  0.00    -0.246 OA
BRANCH   6   8
ATOM      8  C   UNL A   1      40.849  22.193  26.401  1.00  0.00     0.060 A 
ATOM      9  C   UNL A   1      42.042  22.294  25.686  1.00  0.00     0.016 A 
ATOM     10  C   UNL A   1      40.672  23.031  27.524  1.00  0.00     0.016 A 
ATOM     11  C   UNL A   1      43.100  23.027  26.209  1.00  0.00     0.010 A 
ATOM     12  C   UNL A   1      41.711  23.792  28.032  1.00  0.00     0.010 A 
ATOM     13  C   UNL A   1      42.949  23.711  27.418  1.00  0.00    -0.014 A 
BRANCH  13  14
ATOM     14  C   UNL A   1      44.107  24.397  27.967  1.00  0.00     0.031 A 
ATOM     15  C   UNL A   1      44.167  24.397  29.446  1.00  0.00     0.074 A 
ATOM     16  C   UNL A   1      45.062  24.970  27.209  1.00  0.00     0.049 A 
ATOM     17  N   UNL A   1      43.959  25.403  30.227  1.00  0.00    -0.248 NA
ATOM     18  C   UNL A   1      44.335  23.114  30.141  1.00  0.00     0.031 C 
ATOM     19  C   UNL A   1      45.277  24.851  25.765  1.00  0.00     0.029 A 
ATOM     20  N   UNL A   1      46.114  25.739  27.610  1.00  0.00    -0.354 N 
ATOM     21  C   UNL A   1      44.156  24.931  31.519  1.00  0.00     0.074 A 
ATOM     22  C   UNL A   1      44.235  23.495  31.417  1.00  0.00     0.031 C 
ATOM     23  C   UNL A   1      46.506  25.328  25.455  1.00  0.00     0.029 A 
ATOM     24  C   UNL A   1      47.097  25.919  26.644  1.00  0.00     0.049 A 
ATOM     25  H   UNL A   1      46.174  26.132  28.510  1.00  0.00     0.167 HD
ATOM     26  C   UNL A   1      44.475  25.780  32.534  1.00  0.00     0.031 A 
ATOM     27  C   UNL A   1      48.319  26.478  26.828  1.00  0.00     0.031 A 
ATOM     28  C   UNL A   1      44.200  27.152  32.188  1.00  0.00     0.049 A 
ATOM     29  C   UNL A   1      48.254  27.308  28.051  1.00  0.00     0.074 A 
ATOM     30  C   UNL A   1      43.069  27.859  31.833  1.00  0.00     0.029 A 
ATOM     31  N   UNL A   1      45.269  27.923  31.799  1.00  0.00    -0.354 N 
ATOM     32  N   UNL A   1      47.577  28.416  28.127  1.00  0.00    -0.248 NA
ATOM     33  C   UNL A   1      48.578  26.685  29.325  1.00  0.00     0.031 C 
ATOM     34  C   UNL A   1      43.508  28.775  30.833  1.00  0.00     0.029 A 
ATOM     35  C   UNL A   1      44.889  28.628  30.687  1.00  0.00     0.049 A 
ATOM     36  H   UNL A   1      46.148  27.961  32.238  1.00  0.00     0.167 HD
ATOM     37  C   UNL A   1      46.992  28.381  29.384  1.00  0.00     0.074 A 
ATOM     38  C   UNL A   1      47.728  27.349  30.114  1.00  0.00     0.031 C 
ATOM     39  C   UNL A   1      45.790  28.984  29.616  1.00  0.00     0.031 A 
BRANCH  26  40
ATOM     40  C   UNL A   1      45.440  25.422  33.637  1.00  0.00    -0.014 A 
ATOM     41  C   UNL A   1      46.735  25.000  33.286  1.00  0.00     0.009 A 
ATOM     42  C   UNL A   1      45.034  25.187  34.964  1.00  0.00     0.009 A 
ATOM     43  C   UNL A   1      47.541  24.296  34.188  1.00  0.00     0.001 A 
ATOM     44  C   UNL A   1      45.852  24.521  35.880  1.00  0.00     0.001 A 
ATOM     45  C   UNL A   1      47.093  24.047  35.482  1.00  0.00     0.000 A 
ENDBRANCH  26  40
BRANCH  27  46
ATOM     46  C   UNL A   1      49.611  26.150  26.183  1.00  0.00    -0.014 A 
ATOM     47  C   UNL A   1      50.051  26.860  25.053  1.00  0.00     0.009 A 
ATOM     48  C   UNL A   1      50.547  25.346  26.856  1.00  0.00     0.009 A 
ATOM     49  C   UNL A   1      51.391  26.805  24.642  1.00  0.00     0.001 A 
ATOM     50  C   UNL A   1      51.884  25.289  26.444  1.00  0.00     0.001 A 
ATOM     51  C   UNL A   1      52.309  26.032  25.348  1.00  0.00     0.000 A 
ENDBRANCH  27  46
BRANCH  39  52
ATOM     52  C   UNL A   1      45.247  29.914  28.557  1.00  0.00    -0.014 A 
ATOM     53  C   UNL A   1      44.354  29.508  27.549  1.00  0.00     0.009 A 
ATOM     54  C   UNL A   1      45.545  31.280  28.669  1.00  0.00     0.009 A 
ATOM     55  C   UNL A   1      43.809  30.439  26.659  1.00  0.00     0.001 A 
ATOM     56  C   UNL A   1      44.982  32.212  27.797  1.00  0.00     0.001 A 
ATOM     57  C   UNL A   1      44.121  31.791  26.787  1.00  0.00     0.000 A 
ENDBRANCH  39  52
ENDBRANCH  13  14
ENDBRANCH   6   8
ENDBRANCH   5   6
ENDBRANCH   4   5
ENDBRANCH   3   4
ENDBRANCH   2   3
ENDBRANCH   1   2
BRANCH   1  58
ATOM     58  C   UNL A   1      33.942  23.276  26.406  1.00  0.00     0.188 C 
BRANCH  58  59
ATOM     59  O   UNL A   1      32.893  24.222  26.280  1.00  0.00    -0.376 OA
BRANCH  59  60
ATOM     60  C   UNL A   1      33.142  25.475  25.674  1.00  0.00     0.202 C 
BRANCH  60  61
ATOM     61  C   UNL A   1      32.698  26.761  26.385  1.00  0.00     0.261 C 
BRANCH  61  62
ATOM     62  O   UNL A   1      33.473  27.941  26.105  1.00  0.00    -0.460 OA
BRANCH  62  63
ATOM     63  C   UNL A   1      32.853  29.125  26.337  1.00  0.00     0.338 C 
ATOM     64  O   UNL A   1      31.729  29.450  26.009  1.00  0.00    -0.246 OA
BRANCH  63  65
ATOM     65  C   UNL A   1      33.737  30.022  27.113  1.00  0.00     0.060 A 
ATOM     66  C   UNL A   1      34.968  29.557  27.585  1.00  0.00     0.018 A 
ATOM     67  C   UNL A   1      33.297  31.297  27.468  1.00  0.00     0.018 A 
ATOM     68  C   UNL A   1      35.762  30.372  28.399  1.00  0.00     0.027 A 
ATOM     69  C   UNL A   1      34.080  32.093  28.320  1.00  0.00     0.027 A 
ATOM     70  C   UNL A   1      35.307  31.632  28.809  1.00  0.00     0.045 A 
BRANCH  70  71
ATOM     71  N   UNL A   1      36.093  32.415  29.698  1.00  0.00    -0.299 N 
ATOM     72  C   UNL A   1      37.179  33.194  29.196  1.00  0.00     0.259 C 
ATOM     73  C   UNL A   1      36.350  31.974  31.091  1.00  0.00     0.152 C 
ATOM     74  C   UNL A   1      38.139  33.409  30.336  1.00  0.00     0.248 C 
ATOM     75  O   UNL A   1      37.327  33.600  28.051  1.00  0.00    -0.271 OA
ATOM     76  C   UNL A   1      37.830  32.148  31.059  1.00  0.00     0.021 C 
ATOM     77  N   UNL A   1      39.556  33.261  29.997  1.00  0.00    -0.170 NA
ATOM     78  C   UNL A   1      38.990  31.491  31.143  1.00  0.00     0.097 C 
ATOM     79  N   UNL A   1      40.013  32.242  30.586  1.00  0.00    -0.154 NA
BRANCH  73  80
ATOM     80  C   UNL A   1      35.691  32.900  32.141  1.00  0.00    -0.020 A 
ATOM     81  C   UNL A   1      36.104  32.920  33.493  1.00  0.00     0.006 A 
ATOM     82  C   UNL A   1      34.662  33.789  31.789  1.00  0.00     0.022 A 
ATOM     83  C   UNL A   1      35.614  33.860  34.407  1.00  0.00     0.002 A 
ATOM     84  C   UNL A   1      34.166  34.724  32.708  1.00  0.00     0.018 A 
ATOM     85  C   UNL A   1      34.655  34.779  34.008  1.00  0.00     0.016 A 
ATOM     86  Br  UNL A   1      32.820  35.942  32.175  1.00  0.00    -0.051 Br
ENDBRANCH  73  80
BRANCH  78  87
ATOM     87  C   UNL A   1      39.313  30.081  31.386  1.00  0.00     0.002 A 
ATOM     88  C   UNL A   1      38.731  29.065  30.616  1.00  0.00     0.010 A 
ATOM     89  C   UNL A   1      39.887  29.751  32.626  1.00  0.00     0.010 A 
ATOM     90  C   UNL A   1      38.654  27.760  31.118  1.00  0.00     0.001 A 
ATOM     91  C   UNL A   1      39.798  28.451  33.127  1.00  0.00     0.001 A 
ATOM     92  C   UNL A   1      39.161  27.462  32.384  1.00  0.00     0.000 A 
ENDBRANCH  78  87
ENDBRANCH  70  71
ENDBRANCH  63  65
ENDBRANCH  62  63
ENDBRANCH  61  62
ENDBRANCH  60  61
ENDBRANCH  59  60
ENDBRANCH  58  59
ENDBRANCH   1  58
TORSDOF 20
ENDMDL
