MODEL 1
REMARK VINA RESULT:      -8.7      0.000      0.000
REMARK SMILES O=C(OCCOCCOCCOC(=O)[C@@H]1CS[C@H](c2ncc(-c3ccccc3)s2)[NH2+]1)c1ccc(-c2c3nc(c(-c4ccccc4)c4ccc([nH]4)c(-c4ccccc4)c4nc(c(-c5ccccc5)c5ccc2[nH]5)C=C4)C=C3)cc1
REMARK SMILES IDX 7 1 6 2 5 3 4 4 3 5 2 6 1 7 31 8 32 9 78 10 33 11 77 12
REMARK SMILES IDX 34 13 35 14 36 15 71 16 37 17 76 18 70 19 72 20 38 21 75 22
REMARK SMILES IDX 69 23 68 24 39 26 61 27 46 28 60 29 47 30 50 31 59 32 73 33
REMARK SMILES IDX 48 34 49 35 58 37 74 38 51 39 40 40 41 41 45 42 42 43 44 44
REMARK SMILES IDX 43 45 62 46 63 47 67 48 64 49 66 50 65 51 52 52 53 53 57 54
REMARK SMILES IDX 54 55 56 56 55 57 8 58 9 59 10 60 11 61 12 62 13 63 14 64
REMARK SMILES IDX 15 65 16 66 30 67 17 68 18 69 19 72 20 73 29 74 21 75 22 76
REMARK SMILES IDX 23 77 24 78 28 79 25 80 27 81 26 82
REMARK H PARENT 72 25 50 36 30 70 30 71
REMARK Flexibility Score: inf
ROOT
ATOM      1  C   UNL A   1      33.372  34.973  29.262  1.00  0.00     0.188 C 
ENDROOT
BRANCH   1   2
ATOM      2  O   UNL A   1      34.334  34.945  28.202  1.00  0.00    -0.376 OA
BRANCH   2   3
ATOM      3  C   UNL A   1      35.036  33.699  28.113  1.00  0.00     0.202 C 
BRANCH   3   4
ATOM      4  C   UNL A   1      34.591  32.624  29.120  1.00  0.00     0.261 C 
BRANCH   4   5
ATOM      5  O   UNL A   1      35.419  31.449  29.088  1.00  0.00    -0.460 OA
BRANCH   5   6
ATOM      6  C   UNL A   1      36.240  30.976  30.062  1.00  0.00     0.338 C 
ATOM      7  O   UNL A   1      35.889  31.089  31.234  1.00  0.00    -0.246 OA
BRANCH   6   8
ATOM      8  C   UNL A   1      37.550  30.307  29.778  1.00  0.00     0.060 A 
ATOM      9  C   UNL A   1      38.369  29.741  30.751  1.00  0.00     0.016 A 
ATOM     10  C   UNL A   1      37.961  30.198  28.436  1.00  0.00     0.016 A 
ATOM     11  C   UNL A   1      39.615  29.220  30.437  1.00  0.00     0.010 A 
ATOM     12  C   UNL A   1      39.187  29.603  28.100  1.00  0.00     0.010 A 
ATOM     13  C   UNL A   1      40.040  29.151  29.112  1.00  0.00    -0.014 A 
BRANCH  13  14
ATOM     14  C   UNL A   1      41.424  28.690  28.875  1.00  0.00     0.031 A 
ATOM     15  C   UNL A   1      41.653  27.263  28.481  1.00  0.00     0.074 A 
ATOM     16  C   UNL A   1      42.416  29.596  28.797  1.00  0.00     0.049 A 
ATOM     17  N   UNL A   1      42.755  26.688  28.080  1.00  0.00    -0.248 NA
ATOM     18  C   UNL A   1      40.479  26.373  28.504  1.00  0.00     0.031 C 
ATOM     19  C   UNL A   1      42.257  31.029  29.053  1.00  0.00     0.029 A 
ATOM     20  N   UNL A   1      43.727  29.474  28.423  1.00  0.00    -0.354 N 
ATOM     21  C   UNL A   1      42.409  25.374  27.800  1.00  0.00     0.074 A 
ATOM     22  C   UNL A   1      41.001  25.227  28.094  1.00  0.00     0.031 C 
ATOM     23  C   UNL A   1      43.408  31.661  28.781  1.00  0.00     0.029 A 
ATOM     24  C   UNL A   1      44.404  30.671  28.394  1.00  0.00     0.049 A 
ATOM     25  H   UNL A   1      44.146  28.612  28.196  1.00  0.00     0.167 HD
ATOM     26  C   UNL A   1      43.197  24.380  27.332  1.00  0.00     0.031 A 
ATOM     27  C   UNL A   1      45.691  30.933  28.103  1.00  0.00     0.031 A 
ATOM     28  C   UNL A   1      44.603  24.530  27.080  1.00  0.00     0.049 A 
ATOM     29  C   UNL A   1      46.572  29.783  27.710  1.00  0.00     0.074 A 
ATOM     30  C   UNL A   1      45.526  23.570  26.709  1.00  0.00     0.029 A 
ATOM     31  N   UNL A   1      45.288  25.733  27.180  1.00  0.00    -0.354 N 
ATOM     32  N   UNL A   1      46.246  28.528  27.510  1.00  0.00    -0.248 NA
ATOM     33  C   UNL A   1      47.996  30.079  27.511  1.00  0.00     0.031 C 
ATOM     34  C   UNL A   1      46.780  24.187  26.623  1.00  0.00     0.029 A 
ATOM     35  C   UNL A   1      46.627  25.539  26.892  1.00  0.00     0.049 A 
ATOM     36  H   UNL A   1      44.882  26.597  27.419  1.00  0.00     0.167 HD
ATOM     37  C   UNL A   1      47.422  27.883  27.158  1.00  0.00     0.074 A 
ATOM     38  C   UNL A   1      48.461  28.894  27.137  1.00  0.00     0.031 C 
ATOM     39  C   UNL A   1      47.631  26.571  26.890  1.00  0.00     0.031 A 
BRANCH  26  40
ATOM     40  C   UNL A   1      42.549  23.040  27.134  1.00  0.00    -0.014 A 
ATOM     41  C   UNL A   1      41.999  22.674  25.895  1.00  0.00     0.009 A 
ATOM     42  C   UNL A   1      42.456  22.148  28.212  1.00  0.00     0.009 A 
ATOM     43  C   UNL A   1      41.339  21.452  25.750  1.00  0.00     0.001 A 
ATOM     44  C   UNL A   1      41.814  20.918  28.058  1.00  0.00     0.001 A 
ATOM     45  C   UNL A   1      41.248  20.575  26.830  1.00  0.00     0.000 A 
ENDBRANCH  26  40
BRANCH  27  46
ATOM     46  C   UNL A   1      46.232  32.313  28.240  1.00  0.00    -0.014 A 
ATOM     47  C   UNL A   1      46.410  33.143  27.123  1.00  0.00     0.009 A 
ATOM     48  C   UNL A   1      46.605  32.799  29.505  1.00  0.00     0.009 A 
ATOM     49  C   UNL A   1      46.972  34.416  27.268  1.00  0.00     0.001 A 
ATOM     50  C   UNL A   1      47.136  34.082  29.652  1.00  0.00     0.001 A 
ATOM     51  C   UNL A   1      47.331  34.886  28.531  1.00  0.00     0.000 A 
ENDBRANCH  27  46
BRANCH  39  52
ATOM     52  C   UNL A   1      49.035  26.178  26.540  1.00  0.00    -0.014 A 
ATOM     53  C   UNL A   1      49.524  26.337  25.234  1.00  0.00     0.009 A 
ATOM     54  C   UNL A   1      49.882  25.664  27.532  1.00  0.00     0.009 A 
ATOM     55  C   UNL A   1      50.828  25.953  24.921  1.00  0.00     0.001 A 
ATOM     56  C   UNL A   1      51.193  25.306  27.222  1.00  0.00     0.001 A 
ATOM     57  C   UNL A   1      51.661  25.441  25.915  1.00  0.00     0.000 A 
ENDBRANCH  39  52
ENDBRANCH  13  14
ENDBRANCH   6   8
ENDBRANCH   5   6
ENDBRANCH   4   5
ENDBRANCH   3   4
ENDBRANCH   2   3
ENDBRANCH   1   2
BRANCH   1  58
ATOM     58  C   UNL A   1      33.130  36.390  29.781  1.00  0.00     0.188 C 
BRANCH  58  59
ATOM     59  O   UNL A   1      33.063  36.559  31.193  1.00  0.00    -0.376 OA
BRANCH  59  60
ATOM     60  C   UNL A   1      33.489  35.463  31.988  1.00  0.00     0.202 C 
BRANCH  60  61
ATOM     61  C   UNL A   1      34.876  35.565  32.644  1.00  0.00     0.261 C 
BRANCH  61  62
ATOM     62  O   UNL A   1      35.667  34.363  32.600  1.00  0.00    -0.459 OA
BRANCH  62  63
ATOM     63  C   UNL A   1      35.701  33.646  33.763  1.00  0.00     0.365 C 
ATOM     64  O   UNL A   1      34.727  33.450  34.482  1.00  0.00    -0.245 OA
BRANCH  63  65
ATOM     65  C   UNL A   1      37.115  33.167  34.137  1.00  0.00     0.304 C 
ATOM     66  C   UNL A   1      38.096  34.246  34.568  1.00  0.00     0.153 C 
ATOM     67  N   UNL A   1      37.679  32.370  33.006  1.00  0.00    -0.317 N 
ATOM     68  S   UNL A   1      39.671  33.396  34.395  1.00  0.00    -0.085 SA
ATOM     69  C   UNL A   1      39.120  32.617  32.840  1.00  0.00     0.303 C 
ATOM     70  H   UNL A   1      37.197  32.629  32.146  1.00  0.00     0.348 HD
ATOM     71  H   UNL A   1      37.545  31.381  33.214  1.00  0.00     0.348 HD
BRANCH  69  72
ATOM     72  C   UNL A   1      39.449  33.507  31.636  1.00  0.00     0.162 A 
ATOM     73  N   UNL A   1      38.628  33.732  30.623  1.00  0.00    -0.242 NA
ATOM     74  S   UNL A   1      40.964  34.336  31.500  1.00  0.00    -0.112 S 
ATOM     75  C   UNL A   1      39.289  34.399  29.611  1.00  0.00     0.132 A 
ATOM     76  C   UNL A   1      40.605  34.728  29.866  1.00  0.00     0.055 A 
BRANCH  76  77
ATOM     77  C   UNL A   1      41.641  35.210  28.953  1.00  0.00    -0.007 A 
ATOM     78  C   UNL A   1      42.975  35.234  29.395  1.00  0.00     0.009 A 
ATOM     79  C   UNL A   1      41.350  35.702  27.676  1.00  0.00     0.009 A 
ATOM     80  C   UNL A   1      43.984  35.795  28.611  1.00  0.00     0.001 A 
ATOM     81  C   UNL A   1      42.368  36.230  26.875  1.00  0.00     0.001 A 
ATOM     82  C   UNL A   1      43.679  36.293  27.349  1.00  0.00     0.000 A 
ENDBRANCH  76  77
ENDBRANCH  69  72
ENDBRANCH  63  65
ENDBRANCH  62  63
ENDBRANCH  61  62
ENDBRANCH  60  61
ENDBRANCH  59  60
ENDBRANCH  58  59
ENDBRANCH   1  58
TORSDOF 19
ENDMDL
MODEL 2
REMARK VINA RESULT:      -8.4      3.022      7.306
REMARK SMILES O=C(OCCOCCOCCOC(=O)[C@@H]1CS[C@H](c2ncc(-c3ccccc3)s2)[NH2+]1)c1ccc(-c2c3nc(c(-c4ccccc4)c4ccc([nH]4)c(-c4ccccc4)c4nc(c(-c5ccccc5)c5ccc2[nH]5)C=C4)C=C3)cc1
REMARK SMILES IDX 7 1 6 2 5 3 4 4 3 5 2 6 1 7 31 8 32 9 78 10 33 11 77 12
REMARK SMILES IDX 34 13 35 14 36 15 71 16 37 17 76 18 70 19 72 20 38 21 75 22
REMARK SMILES IDX 69 23 68 24 39 26 61 27 46 28 60 29 47 30 50 31 59 32 73 33
REMARK SMILES IDX 48 34 49 35 58 37 74 38 51 39 40 40 41 41 45 42 42 43 44 44
REMARK SMILES IDX 43 45 62 46 63 47 67 48 64 49 66 50 65 51 52 52 53 53 57 54
REMARK SMILES IDX 54 55 56 56 55 57 8 58 9 59 10 60 11 61 12 62 13 63 14 64
REMARK SMILES IDX 15 65 16 66 30 67 17 68 18 69 19 72 20 73 29 74 21 75 22 76
REMARK SMILES IDX 23 77 24 78 28 79 25 80 27 81 26 82
REMARK H PARENT 72 25 50 36 30 70 30 71
REMARK Flexibility Score: inf
ROOT
ATOM      1  C   UNL A   1      33.415  35.179  30.494  1.00  0.00     0.188 C 
ENDROOT
BRANCH   1   2
ATOM      2  O   UNL A   1      32.738  35.276  29.236  1.00  0.00    -0.376 OA
BRANCH   2   3
ATOM      3  C   UNL A   1      33.309  34.436  28.225  1.00  0.00     0.202 C 
BRANCH   3   4
ATOM      4  C   UNL A   1      34.124  33.241  28.750  1.00  0.00     0.261 C 
BRANCH   4   5
ATOM      5  O   UNL A   1      34.331  32.223  27.756  1.00  0.00    -0.460 OA
BRANCH   5   6
ATOM      6  C   UNL A   1      34.529  30.893  27.948  1.00  0.00     0.338 C 
ATOM      7  O   UNL A   1      33.555  30.145  27.937  1.00  0.00    -0.246 OA
BRANCH   6   8
ATOM      8  C   UNL A   1      35.883  30.287  28.159  1.00  0.00     0.060 A 
ATOM      9  C   UNL A   1      36.295  29.680  29.341  1.00  0.00     0.016 A 
ATOM     10  C   UNL A   1      36.784  30.285  27.076  1.00  0.00     0.016 A 
ATOM     11  C   UNL A   1      37.593  29.222  29.508  1.00  0.00     0.010 A 
ATOM     12  C   UNL A   1      38.076  29.754  27.211  1.00  0.00     0.010 A 
ATOM     13  C   UNL A   1      38.498  29.259  28.449  1.00  0.00    -0.014 A 
BRANCH  13  14
ATOM     14  C   UNL A   1      39.891  28.860  28.743  1.00  0.00     0.031 A 
ATOM     15  C   UNL A   1      40.728  29.745  29.614  1.00  0.00     0.074 A 
ATOM     16  C   UNL A   1      40.302  27.620  28.419  1.00  0.00     0.049 A 
ATOM     17  N   UNL A   1      41.911  29.519  30.120  1.00  0.00    -0.248 NA
ATOM     18  C   UNL A   1      40.145  31.042  29.996  1.00  0.00     0.031 C 
ATOM     19  C   UNL A   1      39.504  26.647  27.670  1.00  0.00     0.029 A 
ATOM     20  N   UNL A   1      41.450  26.938  28.722  1.00  0.00    -0.354 N 
ATOM     21  C   UNL A   1      42.210  30.639  30.883  1.00  0.00     0.074 A 
ATOM     22  C   UNL A   1      41.099  31.554  30.759  1.00  0.00     0.031 C 
ATOM     23  C   UNL A   1      40.162  25.480  27.614  1.00  0.00     0.029 A 
ATOM     24  C   UNL A   1      41.455  25.640  28.267  1.00  0.00     0.049 A 
ATOM     25  H   UNL A   1      42.201  27.339  29.217  1.00  0.00     0.167 HD
ATOM     26  C   UNL A   1      43.315  30.878  31.626  1.00  0.00     0.031 A 
ATOM     27  C   UNL A   1      42.407  24.694  28.354  1.00  0.00     0.031 A 
ATOM     28  C   UNL A   1      44.429  29.974  31.709  1.00  0.00     0.049 A 
ATOM     29  C   UNL A   1      43.676  25.037  29.078  1.00  0.00     0.074 A 
ATOM     30  C   UNL A   1      45.645  30.154  32.340  1.00  0.00     0.029 A 
ATOM     31  N   UNL A   1      44.454  28.713  31.132  1.00  0.00    -0.354 N 
ATOM     32  N   UNL A   1      43.975  26.129  29.743  1.00  0.00    -0.248 NA
ATOM     33  C   UNL A   1      44.742  24.028  29.058  1.00  0.00     0.031 C 
ATOM     34  C   UNL A   1      46.423  29.012  32.110  1.00  0.00     0.029 A 
ATOM     35  C   UNL A   1      45.671  28.105  31.378  1.00  0.00     0.049 A 
ATOM     36  H   UNL A   1      43.714  28.309  30.623  1.00  0.00     0.167 HD
ATOM     37  C   UNL A   1      45.261  25.938  30.224  1.00  0.00     0.074 A 
ATOM     38  C   UNL A   1      45.670  24.612  29.806  1.00  0.00     0.031 C 
ATOM     39  C   UNL A   1      46.043  26.786  30.937  1.00  0.00     0.031 A 
BRANCH  26  40
ATOM     40  C   UNL A   1      43.375  32.195  32.341  1.00  0.00    -0.014 A 
ATOM     41  C   UNL A   1      43.922  33.333  31.726  1.00  0.00     0.009 A 
ATOM     42  C   UNL A   1      42.914  32.290  33.662  1.00  0.00     0.009 A 
ATOM     43  C   UNL A   1      44.034  34.532  32.433  1.00  0.00     0.001 A 
ATOM     44  C   UNL A   1      43.007  33.496  34.359  1.00  0.00     0.001 A 
ATOM     45  C   UNL A   1      43.576  34.613  33.748  1.00  0.00     0.000 A 
ENDBRANCH  26  40
BRANCH  27  46
ATOM     46  C   UNL A   1      42.226  23.375  27.688  1.00  0.00    -0.014 A 
ATOM     47  C   UNL A   1      41.726  22.266  28.385  1.00  0.00     0.009 A 
ATOM     48  C   UNL A   1      42.587  23.214  26.339  1.00  0.00     0.009 A 
ATOM     49  C   UNL A   1      41.617  21.022  27.754  1.00  0.00     0.001 A 
ATOM     50  C   UNL A   1      42.447  21.980  25.702  1.00  0.00     0.001 A 
ATOM     51  C   UNL A   1      41.974  20.881  26.414  1.00  0.00     0.000 A 
ENDBRANCH  27  46
BRANCH  39  52
ATOM     52  C   UNL A   1      47.405  26.282  31.310  1.00  0.00    -0.014 A 
ATOM     53  C   UNL A   1      47.631  25.667  32.550  1.00  0.00     0.009 A 
ATOM     54  C   UNL A   1      48.465  26.406  30.401  1.00  0.00     0.009 A 
ATOM     55  C   UNL A   1      48.908  25.217  32.888  1.00  0.00     0.001 A 
ATOM     56  C   UNL A   1      49.734  25.932  30.731  1.00  0.00     0.001 A 
ATOM     57  C   UNL A   1      49.956  25.348  31.978  1.00  0.00     0.000 A 
ENDBRANCH  39  52
ENDBRANCH  13  14
ENDBRANCH   6   8
ENDBRANCH   5   6
ENDBRANCH   4   5
ENDBRANCH   3   4
ENDBRANCH   2   3
ENDBRANCH   1   2
BRANCH   1  58
ATOM     58  C   UNL A   1      33.449  36.517  31.232  1.00  0.00     0.188 C 
BRANCH  58  59
ATOM     59  O   UNL A   1      34.248  36.587  32.409  1.00  0.00    -0.376 OA
BRANCH  59  60
ATOM     60  C   UNL A   1      34.349  35.401  33.183  1.00  0.00     0.202 C 
BRANCH  60  61
ATOM     61  C   UNL A   1      35.756  34.822  33.403  1.00  0.00     0.261 C 
BRANCH  61  62
ATOM     62  O   UNL A   1      36.366  34.228  32.242  1.00  0.00    -0.459 OA
BRANCH  62  63
ATOM     63  C   UNL A   1      37.147  33.135  32.490  1.00  0.00     0.365 C 
ATOM     64  O   UNL A   1      37.343  32.230  31.686  1.00  0.00    -0.245 OA
BRANCH  63  65
ATOM     65  C   UNL A   1      37.703  33.101  33.925  1.00  0.00     0.304 C 
ATOM     66  C   UNL A   1      39.155  33.526  34.091  1.00  0.00     0.153 C 
ATOM     67  N   UNL A   1      37.487  31.741  34.504  1.00  0.00    -0.317 N 
ATOM     68  S   UNL A   1      39.544  32.860  35.715  1.00  0.00    -0.085 SA
ATOM     69  C   UNL A   1      38.619  31.330  35.350  1.00  0.00     0.303 C 
ATOM     70  H   UNL A   1      37.381  31.071  33.743  1.00  0.00     0.348 HD
ATOM     71  H   UNL A   1      36.649  31.770  35.082  1.00  0.00     0.348 HD
BRANCH  69  72
ATOM     72  C   UNL A   1      39.527  30.289  34.686  1.00  0.00     0.162 A 
ATOM     73  N   UNL A   1      39.368  29.831  33.454  1.00  0.00    -0.242 NA
ATOM     74  S   UNL A   1      40.892  29.610  35.509  1.00  0.00    -0.112 S 
ATOM     75  C   UNL A   1      40.212  28.762  33.229  1.00  0.00     0.132 A 
ATOM     76  C   UNL A   1      41.052  28.428  34.271  1.00  0.00     0.055 A 
BRANCH  76  77
ATOM     77  C   UNL A   1      41.881  27.237  34.458  1.00  0.00    -0.007 A 
ATOM     78  C   UNL A   1      43.078  27.124  33.729  1.00  0.00     0.009 A 
ATOM     79  C   UNL A   1      41.502  26.179  35.290  1.00  0.00     0.009 A 
ATOM     80  C   UNL A   1      43.844  25.958  33.777  1.00  0.00     0.001 A 
ATOM     81  C   UNL A   1      42.290  25.025  35.367  1.00  0.00     0.001 A 
ATOM     82  C   UNL A   1      43.448  24.908  34.599  1.00  0.00     0.000 A 
ENDBRANCH  76  77
ENDBRANCH  69  72
ENDBRANCH  63  65
ENDBRANCH  62  63
ENDBRANCH  61  62
ENDBRANCH  60  61
ENDBRANCH  59  60
ENDBRANCH  58  59
ENDBRANCH   1  58
TORSDOF 19
ENDMDL
MODEL 3
REMARK VINA RESULT:      -8.2      6.143     11.916
REMARK SMILES O=C(OCCOCCOCCOC(=O)[C@@H]1CS[C@H](c2ncc(-c3ccccc3)s2)[NH2+]1)c1ccc(-c2c3nc(c(-c4ccccc4)c4ccc([nH]4)c(-c4ccccc4)c4nc(c(-c5ccccc5)c5ccc2[nH]5)C=C4)C=C3)cc1
REMARK SMILES IDX 7 1 6 2 5 3 4 4 3 5 2 6 1 7 31 8 32 9 78 10 33 11 77 12
REMARK SMILES IDX 34 13 35 14 36 15 71 16 37 17 76 18 70 19 72 20 38 21 75 22
REMARK SMILES IDX 69 23 68 24 39 26 61 27 46 28 60 29 47 30 50 31 59 32 73 33
REMARK SMILES IDX 48 34 49 35 58 37 74 38 51 39 40 40 41 41 45 42 42 43 44 44
REMARK SMILES IDX 43 45 62 46 63 47 67 48 64 49 66 50 65 51 52 52 53 53 57 54
REMARK SMILES IDX 54 55 56 56 55 57 8 58 9 59 10 60 11 61 12 62 13 63 14 64
REMARK SMILES IDX 15 65 16 66 30 67 17 68 18 69 19 72 20 73 29 74 21 75 22 76
REMARK SMILES IDX 23 77 24 78 28 79 25 80 27 81 26 82
REMARK H PARENT 72 25 50 36 30 70 30 71
REMARK Flexibility Score: inf
ROOT
ATOM      1  C   UNL A   1      38.950  21.984  26.111  1.00  0.00     0.188 C 
ENDROOT
BRANCH   1   2
ATOM      2  O   UNL A   1      40.121  21.161  26.082  1.00  0.00    -0.376 OA
BRANCH   2   3
ATOM      3  C   UNL A   1      41.330  21.896  26.304  1.00  0.00     0.202 C 
BRANCH   3   4
ATOM      4  C   UNL A   1      41.859  21.863  27.749  1.00  0.00     0.261 C 
BRANCH   4   5
ATOM      5  O   UNL A   1      41.635  23.095  28.456  1.00  0.00    -0.460 OA
BRANCH   5   6
ATOM      6  C   UNL A   1      41.492  24.344  27.939  1.00  0.00     0.338 C 
ATOM      7  O   UNL A   1      40.358  24.778  27.753  1.00  0.00    -0.246 OA
BRANCH   6   8
ATOM      8  C   UNL A   1      42.652  25.227  27.597  1.00  0.00     0.060 A 
ATOM      9  C   UNL A   1      43.577  25.701  28.523  1.00  0.00     0.016 A 
ATOM     10  C   UNL A   1      42.853  25.564  26.244  1.00  0.00     0.016 A 
ATOM     11  C   UNL A   1      44.576  26.593  28.161  1.00  0.00     0.010 A 
ATOM     12  C   UNL A   1      43.907  26.405  25.856  1.00  0.00     0.010 A 
ATOM     13  C   UNL A   1      44.747  26.959  26.828  1.00  0.00    -0.014 A 
BRANCH  13  14
ATOM     14  C   UNL A   1      45.757  28.000  26.543  1.00  0.00     0.031 A 
ATOM     15  C   UNL A   1      45.356  29.440  26.637  1.00  0.00     0.074 A 
ATOM     16  C   UNL A   1      47.052  27.649  26.431  1.00  0.00     0.049 A 
ATOM     17  N   UNL A   1      46.107  30.508  26.579  1.00  0.00    -0.248 NA
ATOM     18  C   UNL A   1      43.927  29.717  26.861  1.00  0.00     0.031 C 
ATOM     19  C   UNL A   1      47.544  26.270  26.446  1.00  0.00     0.029 A 
ATOM     20  N   UNL A   1      48.191  28.403  26.347  1.00  0.00    -0.354 N 
ATOM     21  C   UNL A   1      45.245  31.580  26.764  1.00  0.00     0.074 A 
ATOM     22  C   UNL A   1      43.913  31.041  26.915  1.00  0.00     0.031 C 
ATOM     23  C   UNL A   1      48.885  26.276  26.425  1.00  0.00     0.029 A 
ATOM     24  C   UNL A   1      49.345  27.655  26.330  1.00  0.00     0.049 A 
ATOM     25  H   UNL A   1      48.185  29.386  26.303  1.00  0.00     0.167 HD
ATOM     26  C   UNL A   1      45.543  32.898  26.810  1.00  0.00     0.031 A 
ATOM     27  C   UNL A   1      50.629  28.043  26.230  1.00  0.00     0.031 A 
ATOM     28  C   UNL A   1      46.868  33.422  26.620  1.00  0.00     0.049 A 
ATOM     29  C   UNL A   1      50.915  29.515  26.154  1.00  0.00     0.074 A 
ATOM     30  C   UNL A   1      47.275  34.740  26.537  1.00  0.00     0.029 A 
ATOM     31  N   UNL A   1      48.003  32.637  26.480  1.00  0.00    -0.354 N 
ATOM     32  N   UNL A   1      50.081  30.522  26.266  1.00  0.00    -0.248 NA
ATOM     33  C   UNL A   1      52.312  29.906  25.929  1.00  0.00     0.031 C 
ATOM     34  C   UNL A   1      48.657  34.751  26.306  1.00  0.00     0.029 A 
ATOM     35  C   UNL A   1      49.113  33.441  26.296  1.00  0.00     0.049 A 
ATOM     36  H   UNL A   1      48.018  31.653  26.509  1.00  0.00     0.167 HD
ATOM     37  C   UNL A   1      50.851  31.667  26.129  1.00  0.00     0.074 A 
ATOM     38  C   UNL A   1      52.224  31.229  25.963  1.00  0.00     0.031 C 
ATOM     39  C   UNL A   1      50.462  32.965  26.126  1.00  0.00     0.031 A 
BRANCH  26  40
ATOM     40  C   UNL A   1      44.396  33.844  27.010  1.00  0.00    -0.014 A 
ATOM     41  C   UNL A   1      43.725  34.417  25.918  1.00  0.00     0.009 A 
ATOM     42  C   UNL A   1      44.004  34.195  28.311  1.00  0.00     0.009 A 
ATOM     43  C   UNL A   1      42.706  35.348  26.125  1.00  0.00     0.001 A 
ATOM     44  C   UNL A   1      42.970  35.111  28.515  1.00  0.00     0.001 A 
ATOM     45  C   UNL A   1      42.328  35.693  27.422  1.00  0.00     0.000 A 
ENDBRANCH  26  40
BRANCH  27  46
ATOM     46  C   UNL A   1      51.719  27.035  26.127  1.00  0.00    -0.014 A 
ATOM     47  C   UNL A   1      52.458  26.639  27.251  1.00  0.00     0.009 A 
ATOM     48  C   UNL A   1      52.046  26.480  24.878  1.00  0.00     0.009 A 
ATOM     49  C   UNL A   1      53.515  25.731  27.122  1.00  0.00     0.001 A 
ATOM     50  C   UNL A   1      53.080  25.550  24.756  1.00  0.00     0.001 A 
ATOM     51  C   UNL A   1      53.822  25.185  25.877  1.00  0.00     0.000 A 
ENDBRANCH  27  46
BRANCH  39  52
ATOM     52  C   UNL A   1      51.546  33.987  25.952  1.00  0.00    -0.014 A 
ATOM     53  C   UNL A   1      52.241  34.496  27.059  1.00  0.00     0.009 A 
ATOM     54  C   UNL A   1      51.887  34.426  24.665  1.00  0.00     0.009 A 
ATOM     55  C   UNL A   1      53.237  35.457  26.881  1.00  0.00     0.001 A 
ATOM     56  C   UNL A   1      52.901  35.366  24.488  1.00  0.00     0.001 A 
ATOM     57  C   UNL A   1      53.567  35.888  25.597  1.00  0.00     0.000 A 
ENDBRANCH  39  52
ENDBRANCH  13  14
ENDBRANCH   6   8
ENDBRANCH   5   6
ENDBRANCH   4   5
ENDBRANCH   3   4
ENDBRANCH   2   3
ENDBRANCH   1   2
BRANCH   1  58
ATOM     58  C   UNL A   1      37.828  21.419  25.240  1.00  0.00     0.188 C 
BRANCH  58  59
ATOM     59  O   UNL A   1      36.960  22.357  24.614  1.00  0.00    -0.376 OA
BRANCH  59  60
ATOM     60  C   UNL A   1      35.806  22.745  25.343  1.00  0.00     0.202 C 
BRANCH  60  61
ATOM     61  C   UNL A   1      35.588  24.250  25.568  1.00  0.00     0.261 C 
BRANCH  61  62
ATOM     62  O   UNL A   1      34.516  24.838  24.807  1.00  0.00    -0.459 OA
BRANCH  62  63
ATOM     63  C   UNL A   1      33.709  25.693  25.502  1.00  0.00     0.365 C 
ATOM     64  O   UNL A   1      34.065  26.789  25.924  1.00  0.00    -0.245 OA
BRANCH  63  65
ATOM     65  C   UNL A   1      32.311  25.112  25.783  1.00  0.00     0.304 C 
ATOM     66  C   UNL A   1      32.238  24.025  26.844  1.00  0.00     0.153 C 
ATOM     67  N   UNL A   1      31.712  24.633  24.501  1.00  0.00    -0.317 N 
ATOM     68  S   UNL A   1      30.638  23.285  26.495  1.00  0.00    -0.085 SA
ATOM     69  C   UNL A   1      30.935  23.399  24.699  1.00  0.00     0.303 C 
ATOM     70  H   UNL A   1      32.461  24.451  23.833  1.00  0.00     0.348 HD
ATOM     71  H   UNL A   1      31.083  25.356  24.153  1.00  0.00     0.348 HD
BRANCH  69  72
ATOM     72  C   UNL A   1      31.648  22.144  24.182  1.00  0.00     0.162 A 
ATOM     73  N   UNL A   1      31.779  21.829  22.904  1.00  0.00    -0.242 NA
ATOM     74  S   UNL A   1      32.381  21.002  25.258  1.00  0.00    -0.112 S 
ATOM     75  C   UNL A   1      32.280  20.548  22.776  1.00  0.00     0.132 A 
ATOM     76  C   UNL A   1      32.577  19.897  23.956  1.00  0.00     0.055 A 
BRANCH  76  77
ATOM     77  C   UNL A   1      32.889  18.488  24.192  1.00  0.00    -0.007 A 
ATOM     78  C   UNL A   1      32.528  17.913  25.423  1.00  0.00     0.009 A 
ATOM     79  C   UNL A   1      33.584  17.705  23.265  1.00  0.00     0.009 A 
ATOM     80  C   UNL A   1      32.909  16.609  25.748  1.00  0.00     0.001 A 
ATOM     81  C   UNL A   1      33.932  16.386  23.576  1.00  0.00     0.001 A 
ATOM     82  C   UNL A   1      33.611  15.846  24.822  1.00  0.00     0.000 A 
ENDBRANCH  76  77
ENDBRANCH  69  72
ENDBRANCH  63  65
ENDBRANCH  62  63
ENDBRANCH  61  62
ENDBRANCH  60  61
ENDBRANCH  59  60
ENDBRANCH  58  59
ENDBRANCH   1  58
TORSDOF 19
ENDMDL
