MODEL 1
REMARK VINA RESULT:     -10.7      0.000      0.000
REMARK SMILES Cc1ccc(-c2nc(NC(=O)[C@H]3[C@@H](C(=O)OCCOCCOCCOC(=O)c4ccc(-c5c6nc(c(-c7ccccc7)c7ccc([nH]7)c(-c7ccccc7)c7nc(c(-c8ccccc8)c8ccc5[nH]8)C=C7)C=C6)cc4)[C@@H]4CC[C@H]3O4)sc2C)cc1
REMARK SMILES IDX 20 1 19 2 18 3 17 4 16 5 14 6 15 7 13 8 12 9 79 10 76 11
REMARK SMILES IDX 78 12 80 13 77 14 10 15 9 16 11 18 8 19 6 20 7 21 82 22
REMARK SMILES IDX 81 23 83 24 5 25 1 26 2 27 3 28 85 29 4 30 84 31 21 32 22 33
REMARK SMILES IDX 23 34 24 35 25 36 26 37 27 38 28 39 29 40 75 41 30 42 74 43
REMARK SMILES IDX 31 44 32 45 33 46 68 47 34 48 73 49 67 50 69 51 35 52 72 53
REMARK SMILES IDX 66 54 65 55 36 57 58 58 43 59 57 60 44 61 47 62 56 63 70 64
REMARK SMILES IDX 45 65 46 66 55 68 71 69 48 70 37 71 38 72 42 73 39 74 41 75
REMARK SMILES IDX 40 76 59 77 60 78 64 79 61 80 63 81 62 82 49 83 50 84 54 85
REMARK SMILES IDX 51 86 53 87 52 88
REMARK H PARENT 9 17 69 56 47 67
REMARK Flexibility Score: inf
ROOT
ATOM      1  C   UNL A   1      33.300  28.929  25.428  1.00  0.00     0.188 C 
ENDROOT
BRANCH   1   2
ATOM      2  O   UNL A   1      33.493  27.714  26.161  1.00  0.00    -0.376 OA
BRANCH   2   3
ATOM      3  C   UNL A   1      33.165  26.454  25.572  1.00  0.00     0.202 C 
BRANCH   3   4
ATOM      4  C   UNL A   1      34.047  25.975  24.402  1.00  0.00     0.261 C 
BRANCH   4   5
ATOM      5  O   UNL A   1      34.200  24.522  24.115  1.00  0.00    -0.463 OA
BRANCH   5   6
ATOM      6  C   UNL A   1      34.536  23.547  25.003  1.00  0.00     0.312 C 
ATOM      7  O   UNL A   1      35.249  23.547  25.999  1.00  0.00    -0.252 OA
BRANCH   6   8
ATOM      8  C   UNL A   1      34.048  22.216  24.736  1.00  0.00     0.143 C 
ATOM      9  C   UNL A   1      32.671  21.850  25.255  1.00  0.00     0.124 C 
ATOM     10  C   UNL A   1      33.271  20.694  26.176  1.00  0.00     0.132 C 
ATOM     11  C   UNL A   1      35.162  21.454  25.460  1.00  0.00     0.133 C 
ATOM     12  C   UNL A   1      33.948  19.513  25.367  1.00  0.00     0.035 C 
ATOM     13  O   UNL A   1      34.505  21.250  26.717  1.00  0.00    -0.373 OA
ATOM     14  C   UNL A   1      35.283  20.077  24.874  1.00  0.00     0.036 C 
BRANCH   9  15
ATOM     15  C   UNL A   1      31.675  23.039  25.936  1.00  0.00     0.232 C 
ATOM     16  N   UNL A   1      30.462  23.590  25.379  1.00  0.00    -0.302 N 
ATOM     17  H   UNL A   1      29.675  23.005  25.473  1.00  0.00     0.172 HD
ATOM     18  O   UNL A   1      31.866  23.310  27.132  1.00  0.00    -0.274 OA
BRANCH  16  19
ATOM     19  C   UNL A   1      30.181  24.870  24.696  1.00  0.00     0.190 A 
ATOM     20  C   UNL A   1      29.595  27.011  23.902  1.00  0.00     0.086 A 
ATOM     21  N   UNL A   1      29.444  25.991  24.966  1.00  0.00    -0.220 NA
ATOM     22  C   UNL A   1      30.595  26.578  23.067  1.00  0.00     0.031 A 
ATOM     23  S   UNL A   1      30.620  24.873  23.063  1.00  0.00    -0.101 S 
ATOM     24  C   UNL A   1      31.515  27.384  22.262  1.00  0.00     0.059 C 
BRANCH  20  25
ATOM     25  C   UNL A   1      29.125  28.458  23.601  1.00  0.00     0.001 A 
ATOM     26  C   UNL A   1      28.333  31.917  20.925  1.00  0.00     0.044 C 
ATOM     27  C   UNL A   1      28.514  30.814  21.948  1.00  0.00    -0.051 A 
ATOM     28  C   UNL A   1      29.593  30.780  22.853  1.00  0.00     0.004 A 
ATOM     29  C   UNL A   1      27.661  29.720  21.968  1.00  0.00     0.004 A 
ATOM     30  C   UNL A   1      29.914  29.614  23.643  1.00  0.00     0.010 A 
ATOM     31  C   UNL A   1      27.922  28.615  22.825  1.00  0.00     0.010 A 
ENDBRANCH  20  25
ENDBRANCH  16  19
ENDBRANCH   9  15
ENDBRANCH   6   8
ENDBRANCH   5   6
ENDBRANCH   4   5
ENDBRANCH   3   4
ENDBRANCH   2   3
ENDBRANCH   1   2
BRANCH   1  32
ATOM     32  C   UNL A   1      32.651  30.087  26.189  1.00  0.00     0.188 C 
BRANCH  32  33
ATOM     33  O   UNL A   1      33.225  30.133  27.485  1.00  0.00    -0.376 OA
BRANCH  33  34
ATOM     34  C   UNL A   1      34.408  30.894  27.637  1.00  0.00     0.202 C 
BRANCH  34  35
ATOM     35  C   UNL A   1      35.644  29.995  27.491  1.00  0.00     0.261 C 
BRANCH  35  36
ATOM     36  O   UNL A   1      36.640  30.370  28.487  1.00  0.00    -0.460 OA
BRANCH  36  37
ATOM     37  C   UNL A   1      37.020  29.426  29.417  1.00  0.00     0.338 C 
ATOM     38  O   UNL A   1      36.628  29.391  30.567  1.00  0.00    -0.246 OA
BRANCH  37  39
ATOM     39  C   UNL A   1      38.178  28.587  28.903  1.00  0.00     0.060 A 
ATOM     40  C   UNL A   1      38.896  27.590  29.606  1.00  0.00     0.016 A 
ATOM     41  C   UNL A   1      38.840  29.107  27.846  1.00  0.00     0.016 A 
ATOM     42  C   UNL A   1      40.282  27.198  29.254  1.00  0.00     0.010 A 
ATOM     43  C   UNL A   1      40.227  28.952  27.894  1.00  0.00     0.010 A 
ATOM     44  C   UNL A   1      41.059  27.923  28.351  1.00  0.00    -0.014 A 
BRANCH  44  45
ATOM     45  C   UNL A   1      42.707  28.044  28.128  1.00  0.00     0.031 A 
ATOM     46  C   UNL A   1      43.783  29.360  27.624  1.00  0.00     0.074 A 
ATOM     47  C   UNL A   1      43.213  27.040  28.891  1.00  0.00     0.049 A 
ATOM     48  N   UNL A   1      44.862  29.455  26.811  1.00  0.00    -0.248 NA
ATOM     49  C   UNL A   1      43.695  30.693  28.206  1.00  0.00     0.031 C 
ATOM     50  C   UNL A   1      44.449  26.905  29.610  1.00  0.00     0.029 A 
ATOM     51  N   UNL A   1      42.883  25.708  28.704  1.00  0.00    -0.354 N 
ATOM     52  C   UNL A   1      45.450  30.828  26.923  1.00  0.00     0.074 A 
ATOM     53  C   UNL A   1      44.390  31.577  27.500  1.00  0.00     0.031 C 
ATOM     54  C   UNL A   1      45.043  25.757  29.274  1.00  0.00     0.029 A 
ATOM     55  C   UNL A   1      44.107  25.071  28.441  1.00  0.00     0.049 A 
ATOM     56  H   UNL A   1      41.989  25.298  28.747  1.00  0.00     0.167 HD
ATOM     57  C   UNL A   1      46.792  31.289  26.949  1.00  0.00     0.031 A 
ATOM     58  C   UNL A   1      44.353  24.356  27.325  1.00  0.00     0.031 A 
ATOM     59  C   UNL A   1      47.782  30.223  26.758  1.00  0.00     0.049 A 
ATOM     60  C   UNL A   1      45.544  24.821  26.494  1.00  0.00     0.074 A 
ATOM     61  C   UNL A   1      48.928  29.793  27.446  1.00  0.00     0.029 A 
ATOM     62  N   UNL A   1      47.441  29.181  25.931  1.00  0.00    -0.354 N 
ATOM     63  N   UNL A   1      46.337  25.856  26.685  1.00  0.00    -0.248 NA
ATOM     64  C   UNL A   1      45.879  24.081  25.279  1.00  0.00     0.031 C 
ATOM     65  C   UNL A   1      49.120  28.409  27.173  1.00  0.00     0.029 A 
ATOM     66  C   UNL A   1      48.182  28.063  26.225  1.00  0.00     0.049 A 
ATOM     67  H   UNL A   1      46.759  29.230  25.224  1.00  0.00     0.167 HD
ATOM     68  C   UNL A   1      47.199  25.955  25.587  1.00  0.00     0.074 A 
ATOM     69  C   UNL A   1      46.912  24.779  24.797  1.00  0.00     0.031 C 
ATOM     70  C   UNL A   1      48.059  26.983  25.294  1.00  0.00     0.031 A 
BRANCH  57  71
ATOM     71  C   UNL A   1      47.329  32.706  27.583  1.00  0.00    -0.014 A 
ATOM     72  C   UNL A   1      47.053  33.945  26.938  1.00  0.00     0.009 A 
ATOM     73  C   UNL A   1      48.197  32.880  28.683  1.00  0.00     0.009 A 
ATOM     74  C   UNL A   1      47.752  35.155  27.175  1.00  0.00     0.001 A 
ATOM     75  C   UNL A   1      48.914  34.086  28.935  1.00  0.00     0.001 A 
ATOM     76  C   UNL A   1      48.728  35.213  28.149  1.00  0.00     0.000 A 
ENDBRANCH  57  71
BRANCH  58  77
ATOM     77  C   UNL A   1      43.103  23.630  26.919  1.00  0.00    -0.014 A 
ATOM     78  C   UNL A   1      42.748  22.548  27.772  1.00  0.00     0.009 A 
ATOM     79  C   UNL A   1      42.074  24.286  26.226  1.00  0.00     0.009 A 
ATOM     80  C   UNL A   1      41.412  22.286  28.090  1.00  0.00     0.001 A 
ATOM     81  C   UNL A   1      40.732  23.968  26.505  1.00  0.00     0.001 A 
ATOM     82  C   UNL A   1      40.404  23.022  27.480  1.00  0.00     0.000 A 
ENDBRANCH  58  77
BRANCH  70  83
ATOM     83  C   UNL A   1      48.821  27.273  23.992  1.00  0.00    -0.014 A 
ATOM     84  C   UNL A   1      50.192  27.086  23.830  1.00  0.00     0.009 A 
ATOM     85  C   UNL A   1      48.077  27.470  22.788  1.00  0.00     0.009 A 
ATOM     86  C   UNL A   1      50.781  27.100  22.555  1.00  0.00     0.001 A 
ATOM     87  C   UNL A   1      48.646  27.413  21.515  1.00  0.00     0.001 A 
ATOM     88  C   UNL A   1      50.010  27.236  21.401  1.00  0.00     0.000 A 
ENDBRANCH  70  83
ENDBRANCH  44  45
ENDBRANCH  37  39
ENDBRANCH  36  37
ENDBRANCH  35  36
ENDBRANCH  34  35
ENDBRANCH  33  34
ENDBRANCH  32  33
ENDBRANCH   1  32
TORSDOF 20
ENDMDL
MODEL 2
REMARK VINA RESULT:     -10.7      5.723      9.262
REMARK SMILES Cc1ccc(-c2nc(NC(=O)[C@H]3[C@@H](C(=O)OCCOCCOCCOC(=O)c4ccc(-c5c6nc(c(-c7ccccc7)c7ccc([nH]7)c(-c7ccccc7)c7nc(c(-c8ccccc8)c8ccc5[nH]8)C=C7)C=C6)cc4)[C@@H]4CC[C@H]3O4)sc2C)cc1
REMARK SMILES IDX 20 1 19 2 18 3 17 4 16 5 14 6 15 7 13 8 12 9 79 10 76 11
REMARK SMILES IDX 78 12 80 13 77 14 10 15 9 16 11 18 8 19 6 20 7 21 82 22
REMARK SMILES IDX 81 23 83 24 5 25 1 26 2 27 3 28 85 29 4 30 84 31 21 32 22 33
REMARK SMILES IDX 23 34 24 35 25 36 26 37 27 38 28 39 29 40 75 41 30 42 74 43
REMARK SMILES IDX 31 44 32 45 33 46 68 47 34 48 73 49 67 50 69 51 35 52 72 53
REMARK SMILES IDX 66 54 65 55 36 57 58 58 43 59 57 60 44 61 47 62 56 63 70 64
REMARK SMILES IDX 45 65 46 66 55 68 71 69 48 70 37 71 38 72 42 73 39 74 41 75
REMARK SMILES IDX 40 76 59 77 60 78 64 79 61 80 63 81 62 82 49 83 50 84 54 85
REMARK SMILES IDX 51 86 53 87 52 88
REMARK H PARENT 9 17 69 56 47 67
REMARK Flexibility Score: inf
ROOT
ATOM      1  C   UNL A   1      34.555  31.528  28.161  1.00  0.00     0.188 C 
ENDROOT
BRANCH   1   2
ATOM      2  O   UNL A   1      34.076  30.938  26.947  1.00  0.00    -0.376 OA
BRANCH   2   3
ATOM      3  C   UNL A   1      33.218  29.795  26.988  1.00  0.00     0.202 C 
BRANCH   3   4
ATOM      4  C   UNL A   1      33.610  28.591  26.111  1.00  0.00     0.261 C 
BRANCH   4   5
ATOM      5  O   UNL A   1      32.721  28.141  25.004  1.00  0.00    -0.463 OA
BRANCH   5   6
ATOM      6  C   UNL A   1      31.532  27.491  25.127  1.00  0.00     0.312 C 
ATOM      7  O   UNL A   1      31.131  26.644  25.915  1.00  0.00    -0.252 OA
BRANCH   6   8
ATOM      8  C   UNL A   1      30.530  27.755  24.123  1.00  0.00     0.143 C 
ATOM      9  C   UNL A   1      30.725  27.140  22.750  1.00  0.00     0.124 C 
ATOM     10  C   UNL A   1      30.795  28.577  22.062  1.00  0.00     0.132 C 
ATOM     11  C   UNL A   1      30.676  29.279  24.100  1.00  0.00     0.133 C 
ATOM     12  C   UNL A   1      29.451  29.408  22.168  1.00  0.00     0.035 C 
ATOM     13  O   UNL A   1      31.568  29.397  22.986  1.00  0.00    -0.373 OA
ATOM     14  C   UNL A   1      29.393  29.893  23.619  1.00  0.00     0.036 C 
BRANCH   9  15
ATOM     15  C   UNL A   1      31.967  26.018  22.489  1.00  0.00     0.232 C 
ATOM     16  N   UNL A   1      31.834  24.597  22.269  1.00  0.00    -0.302 N 
ATOM     17  H   UNL A   1      31.549  24.358  21.358  1.00  0.00     0.172 HD
ATOM     18  O   UNL A   1      33.091  26.479  22.232  1.00  0.00    -0.274 OA
BRANCH  16  19
ATOM     19  C   UNL A   1      32.047  23.436  23.158  1.00  0.00     0.190 A 
ATOM     20  C   UNL A   1      32.589  21.461  24.326  1.00  0.00     0.086 A 
ATOM     21  N   UNL A   1      32.611  22.194  23.038  1.00  0.00    -0.220 NA
ATOM     22  C   UNL A   1      32.181  22.351  25.290  1.00  0.00     0.031 A 
ATOM     23  S   UNL A   1      31.140  23.501  24.583  1.00  0.00    -0.101 S 
ATOM     24  C   UNL A   1      32.522  22.363  26.713  1.00  0.00     0.059 C 
BRANCH  20  25
ATOM     25  C   UNL A   1      33.082  20.110  24.905  1.00  0.00     0.001 A 
ATOM     26  C   UNL A   1      34.462  15.898  24.577  1.00  0.00     0.044 C 
ATOM     27  C   UNL A   1      34.045  17.331  24.841  1.00  0.00    -0.051 A 
ATOM     28  C   UNL A   1      32.767  17.681  25.315  1.00  0.00     0.004 A 
ATOM     29  C   UNL A   1      34.892  18.383  24.524  1.00  0.00     0.004 A 
ATOM     30  C   UNL A   1      32.279  19.041  25.320  1.00  0.00     0.010 A 
ATOM     31  C   UNL A   1      34.443  19.729  24.629  1.00  0.00     0.010 A 
ENDBRANCH  20  25
ENDBRANCH  16  19
ENDBRANCH   9  15
ENDBRANCH   6   8
ENDBRANCH   5   6
ENDBRANCH   4   5
ENDBRANCH   3   4
ENDBRANCH   2   3
ENDBRANCH   1   2
BRANCH   1  32
ATOM     32  C   UNL A   1      35.584  32.652  28.011  1.00  0.00     0.188 C 
BRANCH  32  33
ATOM     33  O   UNL A   1      34.879  33.879  27.929  1.00  0.00    -0.376 OA
BRANCH  33  34
ATOM     34  C   UNL A   1      33.482  33.835  28.157  1.00  0.00     0.202 C 
BRANCH  34  35
ATOM     35  C   UNL A   1      33.017  35.114  28.866  1.00  0.00     0.261 C 
BRANCH  35  36
ATOM     36  O   UNL A   1      33.974  35.471  29.905  1.00  0.00    -0.460 OA
BRANCH  36  37
ATOM     37  C   UNL A   1      33.514  35.600  31.198  1.00  0.00     0.338 C 
ATOM     38  O   UNL A   1      32.762  36.475  31.581  1.00  0.00    -0.246 OA
BRANCH  37  39
ATOM     39  C   UNL A   1      34.260  34.669  32.140  1.00  0.00     0.060 A 
ATOM     40  C   UNL A   1      34.366  34.773  33.547  1.00  0.00     0.016 A 
ATOM     41  C   UNL A   1      35.229  33.924  31.563  1.00  0.00     0.016 A 
ATOM     42  C   UNL A   1      35.484  34.174  34.317  1.00  0.00     0.010 A 
ATOM     43  C   UNL A   1      36.390  33.788  32.327  1.00  0.00     0.010 A 
ATOM     44  C   UNL A   1      36.621  33.651  33.701  1.00  0.00    -0.014 A 
BRANCH  44  45
ATOM     45  C   UNL A   1      38.173  33.383  34.247  1.00  0.00     0.031 A 
ATOM     46  C   UNL A   1      39.491  34.448  34.767  1.00  0.00     0.074 A 
ATOM     47  C   UNL A   1      38.138  32.108  34.715  1.00  0.00     0.049 A 
ATOM     48  N   UNL A   1      40.832  34.474  34.577  1.00  0.00    -0.248 NA
ATOM     49  C   UNL A   1      39.276  35.537  35.711  1.00  0.00     0.031 C 
ATOM     50  C   UNL A   1      38.850  31.450  35.775  1.00  0.00     0.029 A 
ATOM     51  N   UNL A   1      37.800  31.021  33.926  1.00  0.00    -0.354 N 
ATOM     52  C   UNL A   1      41.434  35.550  35.427  1.00  0.00     0.074 A 
ATOM     53  C   UNL A   1      40.314  36.363  35.745  1.00  0.00     0.031 C 
ATOM     54  C   UNL A   1      39.406  30.327  35.314  1.00  0.00     0.029 A 
ATOM     55  C   UNL A   1      38.923  30.179  33.979  1.00  0.00     0.049 A 
ATOM     56  H   UNL A   1      36.958  30.871  33.436  1.00  0.00     0.167 HD
ATOM     57  C   UNL A   1      42.637  35.607  36.178  1.00  0.00     0.031 A 
ATOM     58  C   UNL A   1      39.600  29.767  32.888  1.00  0.00     0.031 A 
ATOM     59  C   UNL A   1      43.477  34.413  36.034  1.00  0.00     0.049 A 
ATOM     60  C   UNL A   1      41.086  30.109  32.868  1.00  0.00     0.074 A 
ATOM     61  C   UNL A   1      44.094  33.516  36.921  1.00  0.00     0.029 A 
ATOM     62  N   UNL A   1      43.470  33.776  34.818  1.00  0.00    -0.354 N 
ATOM     63  N   UNL A   1      41.793  30.797  33.742  1.00  0.00    -0.248 NA
ATOM     64  C   UNL A   1      41.886  29.677  31.723  1.00  0.00     0.031 C 
ATOM     65  C   UNL A   1      44.246  32.266  36.258  1.00  0.00     0.029 A 
ATOM     66  C   UNL A   1      43.853  32.464  34.952  1.00  0.00     0.049 A 
ATOM     67  H   UNL A   1      43.223  34.202  33.966  1.00  0.00     0.167 HD
ATOM     68  C   UNL A   1      43.083  30.965  33.227  1.00  0.00     0.074 A 
ATOM     69  C   UNL A   1      43.091  30.179  32.014  1.00  0.00     0.031 C 
ATOM     70  C   UNL A   1      44.081  31.763  33.725  1.00  0.00     0.031 A 
BRANCH  57  71
ATOM     71  C   UNL A   1      42.948  36.592  37.457  1.00  0.00    -0.014 A 
ATOM     72  C   UNL A   1      43.838  37.695  37.328  1.00  0.00     0.009 A 
ATOM     73  C   UNL A   1      42.533  36.417  38.795  1.00  0.00     0.009 A 
ATOM     74  C   UNL A   1      44.453  38.370  38.412  1.00  0.00     0.001 A 
ATOM     75  C   UNL A   1      43.144  37.080  39.899  1.00  0.00     0.001 A 
ATOM     76  C   UNL A   1      44.141  38.025  39.712  1.00  0.00     0.000 A 
ENDBRANCH  57  71
BRANCH  58  77
ATOM     77  C   UNL A   1      38.633  29.548  31.761  1.00  0.00    -0.014 A 
ATOM     78  C   UNL A   1      38.437  30.682  30.926  1.00  0.00     0.009 A 
ATOM     79  C   UNL A   1      38.451  28.276  31.197  1.00  0.00     0.009 A 
ATOM     80  C   UNL A   1      38.292  30.545  29.541  1.00  0.00     0.001 A 
ATOM     81  C   UNL A   1      38.239  28.151  29.812  1.00  0.00     0.001 A 
ATOM     82  C   UNL A   1      38.227  29.276  28.981  1.00  0.00     0.000 A 
ENDBRANCH  58  77
BRANCH  70  83
ATOM     83  C   UNL A   1      45.403  32.190  33.071  1.00  0.00    -0.014 A 
ATOM     84  C   UNL A   1      46.562  31.417  33.070  1.00  0.00     0.009 A 
ATOM     85  C   UNL A   1      45.398  33.296  32.166  1.00  0.00     0.009 A 
ATOM     86  C   UNL A   1      47.643  31.728  32.228  1.00  0.00     0.001 A 
ATOM     87  C   UNL A   1      46.439  33.568  31.278  1.00  0.00     0.001 A 
ATOM     88  C   UNL A   1      47.573  32.782  31.317  1.00  0.00     0.000 A 
ENDBRANCH  70  83
ENDBRANCH  44  45
ENDBRANCH  37  39
ENDBRANCH  36  37
ENDBRANCH  35  36
ENDBRANCH  34  35
ENDBRANCH  33  34
ENDBRANCH  32  33
ENDBRANCH   1  32
TORSDOF 20
ENDMDL
MODEL 3
REMARK VINA RESULT:     -10.6      4.118      7.640
REMARK SMILES Cc1ccc(-c2nc(NC(=O)[C@H]3[C@@H](C(=O)OCCOCCOCCOC(=O)c4ccc(-c5c6nc(c(-c7ccccc7)c7ccc([nH]7)c(-c7ccccc7)c7nc(c(-c8ccccc8)c8ccc5[nH]8)C=C7)C=C6)cc4)[C@@H]4CC[C@H]3O4)sc2C)cc1
REMARK SMILES IDX 20 1 19 2 18 3 17 4 16 5 14 6 15 7 13 8 12 9 79 10 76 11
REMARK SMILES IDX 78 12 80 13 77 14 10 15 9 16 11 18 8 19 6 20 7 21 82 22
REMARK SMILES IDX 81 23 83 24 5 25 1 26 2 27 3 28 85 29 4 30 84 31 21 32 22 33
REMARK SMILES IDX 23 34 24 35 25 36 26 37 27 38 28 39 29 40 75 41 30 42 74 43
REMARK SMILES IDX 31 44 32 45 33 46 68 47 34 48 73 49 67 50 69 51 35 52 72 53
REMARK SMILES IDX 66 54 65 55 36 57 58 58 43 59 57 60 44 61 47 62 56 63 70 64
REMARK SMILES IDX 45 65 46 66 55 68 71 69 48 70 37 71 38 72 42 73 39 74 41 75
REMARK SMILES IDX 40 76 59 77 60 78 64 79 61 80 63 81 62 82 49 83 50 84 54 85
REMARK SMILES IDX 51 86 53 87 52 88
REMARK H PARENT 9 17 69 56 47 67
REMARK Flexibility Score: inf
ROOT
ATOM      1  C   UNL A   1      33.122  29.642  26.082  1.00  0.00     0.188 C 
ENDROOT
BRANCH   1   2
ATOM      2  O   UNL A   1      33.482  28.459  26.805  1.00  0.00    -0.376 OA
BRANCH   2   3
ATOM      3  C   UNL A   1      33.066  27.173  26.340  1.00  0.00     0.202 C 
BRANCH   3   4
ATOM      4  C   UNL A   1      33.874  26.548  25.187  1.00  0.00     0.261 C 
BRANCH   4   5
ATOM      5  O   UNL A   1      34.774  25.388  25.435  1.00  0.00    -0.463 OA
BRANCH   5   6
ATOM      6  C   UNL A   1      34.398  24.106  25.691  1.00  0.00     0.312 C 
ATOM      7  O   UNL A   1      33.613  23.620  26.495  1.00  0.00    -0.252 OA
BRANCH   6   8
ATOM      8  C   UNL A   1      35.070  23.062  24.955  1.00  0.00     0.143 C 
ATOM      9  C   UNL A   1      34.229  22.180  24.051  1.00  0.00     0.124 C 
ATOM     10  C   UNL A   1      34.609  20.877  24.888  1.00  0.00     0.132 C 
ATOM     11  C   UNL A   1      35.619  22.298  26.162  1.00  0.00     0.133 C 
ATOM     12  C   UNL A   1      36.148  20.505  24.836  1.00  0.00     0.035 C 
ATOM     13  O   UNL A   1      34.591  21.308  26.280  1.00  0.00    -0.373 OA
ATOM     14  C   UNL A   1      36.837  21.525  25.747  1.00  0.00     0.036 C 
BRANCH   9  15
ATOM     15  C   UNL A   1      32.601  22.557  23.770  1.00  0.00     0.232 C 
ATOM     16  N   UNL A   1      32.066  23.426  22.749  1.00  0.00    -0.302 N 
ATOM     17  H   UNL A   1      32.033  23.018  21.852  1.00  0.00     0.172 HD
ATOM     18  O   UNL A   1      31.757  21.849  24.342  1.00  0.00    -0.274 OA
BRANCH  16  19
ATOM     19  C   UNL A   1      31.558  24.813  22.798  1.00  0.00     0.190 A 
ATOM     20  C   UNL A   1      30.549  26.917  23.133  1.00  0.00     0.086 A 
ATOM     21  N   UNL A   1      30.527  25.463  23.421  1.00  0.00    -0.220 NA
ATOM     22  C   UNL A   1      31.729  27.181  22.482  1.00  0.00     0.031 A 
ATOM     23  S   UNL A   1      32.193  25.807  21.587  1.00  0.00    -0.101 S 
ATOM     24  C   UNL A   1      32.507  28.421  22.489  1.00  0.00     0.059 C 
BRANCH  20  25
ATOM     25  C   UNL A   1      29.766  28.194  23.533  1.00  0.00     0.001 A 
ATOM     26  C   UNL A   1      27.760  32.069  22.686  1.00  0.00     0.044 C 
ATOM     27  C   UNL A   1      28.371  30.751  23.118  1.00  0.00    -0.051 A 
ATOM     28  C   UNL A   1      29.615  30.662  23.770  1.00  0.00     0.004 A 
ATOM     29  C   UNL A   1      27.760  29.548  22.793  1.00  0.00     0.004 A 
ATOM     30  C   UNL A   1      30.318  29.412  23.948  1.00  0.00     0.010 A 
ATOM     31  C   UNL A   1      28.409  28.312  23.065  1.00  0.00     0.010 A 
ENDBRANCH  20  25
ENDBRANCH  16  19
ENDBRANCH   9  15
ENDBRANCH   6   8
ENDBRANCH   5   6
ENDBRANCH   4   5
ENDBRANCH   3   4
ENDBRANCH   2   3
ENDBRANCH   1   2
BRANCH   1  32
ATOM     32  C   UNL A   1      32.497  30.775  26.899  1.00  0.00     0.188 C 
BRANCH  32  33
ATOM     33  O   UNL A   1      33.543  31.455  27.572  1.00  0.00    -0.376 OA
BRANCH  33  34
ATOM     34  C   UNL A   1      33.329  32.821  27.877  1.00  0.00     0.202 C 
BRANCH  34  35
ATOM     35  C   UNL A   1      34.669  33.534  28.100  1.00  0.00     0.261 C 
BRANCH  35  36
ATOM     36  O   UNL A   1      34.476  34.667  28.996  1.00  0.00    -0.460 OA
BRANCH  36  37
ATOM     37  C   UNL A   1      33.963  34.424  30.252  1.00  0.00     0.338 C 
ATOM     38  O   UNL A   1      32.899  34.849  30.659  1.00  0.00    -0.246 OA
BRANCH  37  39
ATOM     39  C   UNL A   1      35.001  33.774  31.151  1.00  0.00     0.060 A 
ATOM     40  C   UNL A   1      36.093  34.402  31.797  1.00  0.00     0.016 A 
ATOM     41  C   UNL A   1      35.138  32.439  30.999  1.00  0.00     0.016 A 
ATOM     42  C   UNL A   1      37.315  33.667  32.209  1.00  0.00     0.010 A 
ATOM     43  C   UNL A   1      36.456  31.979  31.049  1.00  0.00     0.010 A 
ATOM     44  C   UNL A   1      37.573  32.357  31.805  1.00  0.00    -0.014 A 
BRANCH  44  45
ATOM     45  C   UNL A   1      38.982  31.477  31.677  1.00  0.00     0.031 A 
ATOM     46  C   UNL A   1      39.460  30.057  30.729  1.00  0.00     0.074 A 
ATOM     47  C   UNL A   1      39.945  32.341  32.092  1.00  0.00     0.049 A 
ATOM     48  N   UNL A   1      40.182  28.938  30.979  1.00  0.00    -0.248 NA
ATOM     49  C   UNL A   1      39.189  29.957  29.301  1.00  0.00     0.031 C 
ATOM     50  C   UNL A   1      41.326  32.493  31.727  1.00  0.00     0.029 A 
ATOM     51  N   UNL A   1      39.950  32.922  33.349  1.00  0.00    -0.354 N 
ATOM     52  C   UNL A   1      40.379  28.178  29.704  1.00  0.00     0.074 A 
ATOM     53  C   UNL A   1      39.376  28.720  28.857  1.00  0.00     0.031 C 
ATOM     54  C   UNL A   1      42.083  32.508  32.828  1.00  0.00     0.029 A 
ATOM     55  C   UNL A   1      41.167  32.517  33.924  1.00  0.00     0.049 A 
ATOM     56  H   UNL A   1      39.256  33.492  33.752  1.00  0.00     0.167 HD
ATOM     57  C   UNL A   1      41.491  27.464  29.184  1.00  0.00     0.031 A 
ATOM     58  C   UNL A   1      41.256  31.848  35.090  1.00  0.00     0.031 A 
ATOM     59  C   UNL A   1      42.631  27.402  30.105  1.00  0.00     0.049 A 
ATOM     60  C   UNL A   1      41.975  30.505  35.025  1.00  0.00     0.074 A 
ATOM     61  C   UNL A   1      44.001  27.698  30.016  1.00  0.00     0.029 A 
ATOM     62  N   UNL A   1      42.358  27.343  31.449  1.00  0.00    -0.354 N 
ATOM     63  N   UNL A   1      42.475  29.879  33.979  1.00  0.00    -0.248 NA
ATOM     64  C   UNL A   1      42.123  29.733  36.257  1.00  0.00     0.031 C 
ATOM     65  C   UNL A   1      44.473  28.027  31.318  1.00  0.00     0.029 A 
ATOM     66  C   UNL A   1      43.428  27.791  32.184  1.00  0.00     0.049 A 
ATOM     67  H   UNL A   1      41.511  27.023  31.833  1.00  0.00     0.167 HD
ATOM     68  C   UNL A   1      42.913  28.616  34.391  1.00  0.00     0.074 A 
ATOM     69  C   UNL A   1      42.737  28.625  35.826  1.00  0.00     0.031 C 
ATOM     70  C   UNL A   1      43.333  27.580  33.597  1.00  0.00     0.031 A 
BRANCH  57  71
ATOM     71  C   UNL A   1      41.784  27.123  27.604  1.00  0.00    -0.014 A 
ATOM     72  C   UNL A   1      41.565  25.814  27.088  1.00  0.00     0.009 A 
ATOM     73  C   UNL A   1      42.388  27.962  26.643  1.00  0.00     0.009 A 
ATOM     74  C   UNL A   1      42.113  25.319  25.878  1.00  0.00     0.001 A 
ATOM     75  C   UNL A   1      42.952  27.482  25.424  1.00  0.00     0.001 A 
ATOM     76  C   UNL A   1      42.857  26.147  25.062  1.00  0.00     0.000 A 
ENDBRANCH  57  71
BRANCH  58  77
ATOM     77  C   UNL A   1      40.190  32.341  36.024  1.00  0.00    -0.014 A 
ATOM     78  C   UNL A   1      40.307  33.713  36.380  1.00  0.00     0.009 A 
ATOM     79  C   UNL A   1      38.909  31.766  36.034  1.00  0.00     0.009 A 
ATOM     80  C   UNL A   1      39.177  34.526  36.513  1.00  0.00     0.001 A 
ATOM     81  C   UNL A   1      37.781  32.582  36.235  1.00  0.00     0.001 A 
ATOM     82  C   UNL A   1      37.911  33.963  36.407  1.00  0.00     0.000 A 
ENDBRANCH  58  77
BRANCH  70  83
ATOM     83  C   UNL A   1      43.568  26.106  33.962  1.00  0.00    -0.014 A 
ATOM     84  C   UNL A   1      44.789  25.451  33.826  1.00  0.00     0.009 A 
ATOM     85  C   UNL A   1      42.587  25.428  34.749  1.00  0.00     0.009 A 
ATOM     86  C   UNL A   1      45.015  24.201  34.428  1.00  0.00     0.001 A 
ATOM     87  C   UNL A   1      42.829  24.222  35.408  1.00  0.00     0.001 A 
ATOM     88  C   UNL A   1      44.050  23.602  35.237  1.00  0.00     0.000 A 
ENDBRANCH  70  83
ENDBRANCH  44  45
ENDBRANCH  37  39
ENDBRANCH  36  37
ENDBRANCH  35  36
ENDBRANCH  34  35
ENDBRANCH  33  34
ENDBRANCH  32  33
ENDBRANCH   1  32
TORSDOF 20
ENDMDL
