MODEL 1
REMARK VINA RESULT:      -8.2      0.000      0.000
REMARK SMILES C[C@H](C[N@@H+](C)[C@@H](C)[C@@H](C)O)C(=O)OCCOCCOCCOC(=O)c1ccc(-c2c3nc(c(-c4ccccc4)c4ccc([nH]4)c(-c4ccccc4)c4nc(c(-c5ccccc5)c5ccc2[nH]5)C=C4)C=C3)cc1
REMARK SMILES IDX 16 1 15 2 14 3 13 4 11 5 12 6 2 7 1 8 3 9 4 10 5 11 6 13
REMARK SMILES IDX 7 14 8 15 9 16 10 17 17 19 18 20 19 21 20 22 21 23 22 24
REMARK SMILES IDX 23 25 24 26 25 27 26 28 72 29 27 30 71 31 28 32 29 33 30 34
REMARK SMILES IDX 65 35 31 36 70 37 64 38 66 39 32 40 69 41 63 42 62 43 33 45
REMARK SMILES IDX 55 46 40 47 54 48 41 49 44 50 53 51 67 52 42 53 43 54 52 56
REMARK SMILES IDX 68 57 45 58 34 59 35 60 39 61 36 62 38 63 37 64 56 65 57 66
REMARK SMILES IDX 61 67 58 68 60 69 59 70 46 71 47 72 51 73 48 74 50 75 49 76
REMARK H PARENT 4 12 10 18 66 44 44 55
REMARK Flexibility Score: inf
ROOT
ATOM      1  O   UNL A   1      40.508  21.406  25.797  1.00  0.00    -0.376 OA
ENDROOT
BRANCH   1   2
ATOM      2  C   UNL A   1      39.267  21.924  26.268  1.00  0.00     0.202 C 
BRANCH   2   3
ATOM      3  C   UNL A   1      38.014  21.812  25.388  1.00  0.00     0.261 C 
BRANCH   3   4
ATOM      4  O   UNL A   1      36.839  22.363  26.016  1.00  0.00    -0.463 OA
BRANCH   4   5
ATOM      5  C   UNL A   1      36.072  23.193  25.264  1.00  0.00     0.314 C 
ATOM      6  O   UNL A   1      35.824  24.355  25.570  1.00  0.00    -0.252 OA
BRANCH   5   7
ATOM      7  C   UNL A   1      35.655  22.587  23.924  1.00  0.00     0.151 C 
ATOM      8  C   UNL A   1      36.628  22.975  22.806  1.00  0.00     0.026 C 
BRANCH   7   9
ATOM      9  C   UNL A   1      34.163  22.638  23.498  1.00  0.00     0.277 C 
BRANCH   9  10
ATOM     10  N   UNL A   1      33.288  23.778  23.860  1.00  0.00    -0.332 N 
ATOM     11  C   UNL A   1      32.976  24.527  22.625  1.00  0.00     0.333 C 
ATOM     12  H   UNL A   1      33.808  24.337  24.535  1.00  0.00     0.348 HD
BRANCH  10  13
ATOM     13  C   UNL A   1      32.023  23.419  24.565  1.00  0.00     0.209 C 
ATOM     14  C   UNL A   1      31.776  21.907  24.737  1.00  0.00     0.078 C 
BRANCH  13  15
ATOM     15  C   UNL A   1      31.827  24.197  25.900  1.00  0.00     0.169 C 
ATOM     16  C   UNL A   1      31.338  23.309  27.042  1.00  0.00     0.045 C 
BRANCH  15  17
ATOM     17  O   UNL A   1      33.033  24.842  26.319  1.00  0.00    -0.387 OA
ATOM     18  H   UNL A   1      33.745  24.187  26.380  1.00  0.00     0.211 HD
ENDBRANCH  15  17
ENDBRANCH  13  15
ENDBRANCH  10  13
ENDBRANCH   9  10
ENDBRANCH   7   9
ENDBRANCH   5   7
ENDBRANCH   4   5
ENDBRANCH   3   4
ENDBRANCH   2   3
ENDBRANCH   1   2
BRANCH   1  19
ATOM     19  C   UNL A   1      41.112  20.352  26.519  1.00  0.00     0.188 C 
BRANCH  19  20
ATOM     20  C   UNL A   1      42.638  20.270  26.578  1.00  0.00     0.188 C 
BRANCH  20  21
ATOM     21  O   UNL A   1      43.404  19.865  25.473  1.00  0.00    -0.376 OA
BRANCH  21  22
ATOM     22  C   UNL A   1      44.480  20.644  24.977  1.00  0.00     0.202 C 
BRANCH  22  23
ATOM     23  C   UNL A   1      44.351  21.926  24.130  1.00  0.00     0.261 C 
BRANCH  23  24
ATOM     24  O   UNL A   1      43.709  23.057  24.716  1.00  0.00    -0.460 OA
BRANCH  24  25
ATOM     25  C   UNL A   1      44.511  24.115  24.993  1.00  0.00     0.338 C 
ATOM     26  O   UNL A   1      45.526  24.451  24.407  1.00  0.00    -0.246 OA
BRANCH  25  27
ATOM     27  C   UNL A   1      43.784  24.963  25.965  1.00  0.00     0.060 A 
ATOM     28  C   UNL A   1      44.009  26.349  25.938  1.00  0.00     0.016 A 
ATOM     29  C   UNL A   1      42.822  24.418  26.818  1.00  0.00     0.016 A 
ATOM     30  C   UNL A   1      43.284  27.193  26.777  1.00  0.00     0.010 A 
ATOM     31  C   UNL A   1      42.122  25.260  27.683  1.00  0.00     0.010 A 
ATOM     32  C   UNL A   1      42.371  26.646  27.686  1.00  0.00    -0.014 A 
BRANCH  32  33
ATOM     33  C   UNL A   1      41.865  27.472  28.806  1.00  0.00     0.031 A 
ATOM     34  C   UNL A   1      42.609  27.403  30.110  1.00  0.00     0.074 A 
ATOM     35  C   UNL A   1      40.784  28.262  28.684  1.00  0.00     0.049 A 
ATOM     36  N   UNL A   1      42.328  27.960  31.259  1.00  0.00    -0.248 NA
ATOM     37  C   UNL A   1      43.835  26.587  30.115  1.00  0.00     0.031 C 
ATOM     38  C   UNL A   1      40.010  28.465  27.461  1.00  0.00     0.029 A 
ATOM     39  N   UNL A   1      40.148  29.036  29.621  1.00  0.00    -0.354 N 
ATOM     40  C   UNL A   1      43.335  27.551  32.125  1.00  0.00     0.074 A 
ATOM     41  C   UNL A   1      44.215  26.680  31.379  1.00  0.00     0.031 C 
ATOM     42  C   UNL A   1      38.991  29.303  27.729  1.00  0.00     0.029 A 
ATOM     43  C   UNL A   1      39.021  29.662  29.146  1.00  0.00     0.049 A 
ATOM     44  H   UNL A   1      40.469  29.135  30.547  1.00  0.00     0.167 HD
ATOM     45  C   UNL A   1      43.512  27.871  33.427  1.00  0.00     0.031 A 
ATOM     46  C   UNL A   1      38.108  30.412  29.792  1.00  0.00     0.031 A 
ATOM     47  C   UNL A   1      42.627  28.715  34.178  1.00  0.00     0.049 A 
ATOM     48  C   UNL A   1      38.272  30.675  31.269  1.00  0.00     0.074 A 
ATOM     49  C   UNL A   1      42.723  29.105  35.502  1.00  0.00     0.029 A 
ATOM     50  N   UNL A   1      41.472  29.290  33.672  1.00  0.00    -0.354 N 
ATOM     51  N   UNL A   1      39.235  30.300  32.075  1.00  0.00    -0.248 NA
ATOM     52  C   UNL A   1      37.219  31.468  31.921  1.00  0.00     0.031 C 
ATOM     53  C   UNL A   1      41.592  29.866  35.815  1.00  0.00     0.029 A 
ATOM     54  C   UNL A   1      40.828  30.007  34.667  1.00  0.00     0.049 A 
ATOM     55  H   UNL A   1      41.156  29.203  32.745  1.00  0.00     0.167 HD
ATOM     56  C   UNL A   1      38.922  30.838  33.319  1.00  0.00     0.074 A 
ATOM     57  C   UNL A   1      37.686  31.575  33.157  1.00  0.00     0.031 C 
ATOM     58  C   UNL A   1      39.598  30.736  34.491  1.00  0.00     0.031 A 
BRANCH  45  59
ATOM     59  C   UNL A   1      44.691  27.255  34.128  1.00  0.00    -0.014 A 
ATOM     60  C   UNL A   1      45.937  27.903  34.174  1.00  0.00     0.009 A 
ATOM     61  C   UNL A   1      44.550  26.008  34.755  1.00  0.00     0.009 A 
ATOM     62  C   UNL A   1      47.026  27.294  34.801  1.00  0.00     0.001 A 
ATOM     63  C   UNL A   1      45.631  25.417  35.408  1.00  0.00     0.001 A 
ATOM     64  C   UNL A   1      46.871  26.055  35.420  1.00  0.00     0.000 A 
ENDBRANCH  45  59
BRANCH  46  65
ATOM     65  C   UNL A   1      36.932  30.954  29.060  1.00  0.00    -0.014 A 
ATOM     66  C   UNL A   1      35.860  30.119  28.709  1.00  0.00     0.009 A 
ATOM     67  C   UNL A   1      36.888  32.305  28.681  1.00  0.00     0.009 A 
ATOM     68  C   UNL A   1      34.783  30.620  27.973  1.00  0.00     0.001 A 
ATOM     69  C   UNL A   1      35.797  32.810  27.971  1.00  0.00     0.001 A 
ATOM     70  C   UNL A   1      34.750  31.965  27.609  1.00  0.00     0.000 A 
ENDBRANCH  46  65
BRANCH  58  71
ATOM     71  C   UNL A   1      39.043  31.469  35.682  1.00  0.00    -0.014 A 
ATOM     72  C   UNL A   1      38.120  30.866  36.549  1.00  0.00     0.009 A 
ATOM     73  C   UNL A   1      39.494  32.767  35.966  1.00  0.00     0.009 A 
ATOM     74  C   UNL A   1      37.636  31.562  37.660  1.00  0.00     0.001 A 
ATOM     75  C   UNL A   1      39.034  33.448  37.094  1.00  0.00     0.001 A 
ATOM     76  C   UNL A   1      38.098  32.849  37.934  1.00  0.00     0.000 A 
ENDBRANCH  58  71
ENDBRANCH  32  33
ENDBRANCH  25  27
ENDBRANCH  24  25
ENDBRANCH  23  24
ENDBRANCH  22  23
ENDBRANCH  21  22
ENDBRANCH  20  21
ENDBRANCH  19  20
ENDBRANCH   1  19
TORSDOF 22
ENDMDL
MODEL 2
REMARK VINA RESULT:      -8.2      3.342      5.091
REMARK SMILES C[C@H](C[N@@H+](C)[C@@H](C)[C@@H](C)O)C(=O)OCCOCCOCCOC(=O)c1ccc(-c2c3nc(c(-c4ccccc4)c4ccc([nH]4)c(-c4ccccc4)c4nc(c(-c5ccccc5)c5ccc2[nH]5)C=C4)C=C3)cc1
REMARK SMILES IDX 16 1 15 2 14 3 13 4 11 5 12 6 2 7 1 8 3 9 4 10 5 11 6 13
REMARK SMILES IDX 7 14 8 15 9 16 10 17 17 19 18 20 19 21 20 22 21 23 22 24
REMARK SMILES IDX 23 25 24 26 25 27 26 28 72 29 27 30 71 31 28 32 29 33 30 34
REMARK SMILES IDX 65 35 31 36 70 37 64 38 66 39 32 40 69 41 63 42 62 43 33 45
REMARK SMILES IDX 55 46 40 47 54 48 41 49 44 50 53 51 67 52 42 53 43 54 52 56
REMARK SMILES IDX 68 57 45 58 34 59 35 60 39 61 36 62 38 63 37 64 56 65 57 66
REMARK SMILES IDX 61 67 58 68 60 69 59 70 46 71 47 72 51 73 48 74 50 75 49 76
REMARK H PARENT 4 12 10 18 66 44 44 55
REMARK Flexibility Score: inf
ROOT
ATOM      1  O   UNL A   1      36.736  24.053  26.074  1.00  0.00    -0.376 OA
ENDROOT
BRANCH   1   2
ATOM      2  C   UNL A   1      35.361  23.678  26.090  1.00  0.00     0.202 C 
BRANCH   2   3
ATOM      3  C   UNL A   1      34.304  24.647  25.541  1.00  0.00     0.261 C 
BRANCH   3   4
ATOM      4  O   UNL A   1      33.040  24.538  26.225  1.00  0.00    -0.463 OA
BRANCH   4   5
ATOM      5  C   UNL A   1      32.079  25.436  25.888  1.00  0.00     0.314 C 
ATOM      6  O   UNL A   1      32.181  26.644  26.073  1.00  0.00    -0.252 OA
BRANCH   5   7
ATOM      7  C   UNL A   1      30.908  24.815  25.125  1.00  0.00     0.151 C 
ATOM      8  C   UNL A   1      30.932  23.286  25.208  1.00  0.00     0.026 C 
BRANCH   7   9
ATOM      9  C   UNL A   1      30.545  25.358  23.717  1.00  0.00     0.277 C 
BRANCH   9  10
ATOM     10  N   UNL A   1      31.298  26.470  23.092  1.00  0.00    -0.332 N 
ATOM     11  C   UNL A   1      31.996  25.939  21.902  1.00  0.00     0.333 C 
ATOM     12  H   UNL A   1      31.945  26.814  23.801  1.00  0.00     0.348 HD
BRANCH  10  13
ATOM     13  C   UNL A   1      30.488  27.663  22.712  1.00  0.00     0.209 C 
ATOM     14  C   UNL A   1      29.061  27.697  23.295  1.00  0.00     0.078 C 
BRANCH  13  15
ATOM     15  C   UNL A   1      31.240  29.009  22.934  1.00  0.00     0.169 C 
ATOM     16  C   UNL A   1      32.645  28.820  23.503  1.00  0.00     0.045 C 
BRANCH  15  17
ATOM     17  O   UNL A   1      31.345  29.763  21.723  1.00  0.00    -0.387 OA
ATOM     18  H   UNL A   1      31.663  30.656  21.926  1.00  0.00     0.211 HD
ENDBRANCH  15  17
ENDBRANCH  13  15
ENDBRANCH  10  13
ENDBRANCH   9  10
ENDBRANCH   7   9
ENDBRANCH   5   7
ENDBRANCH   4   5
ENDBRANCH   3   4
ENDBRANCH   2   3
ENDBRANCH   1   2
BRANCH   1  19
ATOM     19  C   UNL A   1      37.690  23.085  25.686  1.00  0.00     0.188 C 
BRANCH  19  20
ATOM     20  C   UNL A   1      37.280  21.992  24.699  1.00  0.00     0.188 C 
BRANCH  20  21
ATOM     21  O   UNL A   1      37.037  20.671  25.109  1.00  0.00    -0.376 OA
BRANCH  21  22
ATOM     22  C   UNL A   1      37.866  19.594  24.706  1.00  0.00     0.202 C 
BRANCH  22  23
ATOM     23  C   UNL A   1      39.025  18.991  25.526  1.00  0.00     0.261 C 
BRANCH  23  24
ATOM     24  O   UNL A   1      39.782  19.864  26.362  1.00  0.00    -0.460 OA
BRANCH  24  25
ATOM     25  C   UNL A   1      41.108  19.946  26.087  1.00  0.00     0.338 C 
ATOM     26  O   UNL A   1      41.761  19.216  25.361  1.00  0.00    -0.246 OA
BRANCH  25  27
ATOM     27  C   UNL A   1      41.574  21.253  26.602  1.00  0.00     0.060 A 
ATOM     28  C   UNL A   1      41.539  21.472  27.989  1.00  0.00     0.016 A 
ATOM     29  C   UNL A   1      42.131  22.207  25.749  1.00  0.00     0.016 A 
ATOM     30  C   UNL A   1      42.046  22.655  28.524  1.00  0.00     0.010 A 
ATOM     31  C   UNL A   1      42.606  23.406  26.282  1.00  0.00     0.010 A 
ATOM     32  C   UNL A   1      42.539  23.645  27.668  1.00  0.00    -0.014 A 
BRANCH  32  33
ATOM     33  C   UNL A   1      42.747  25.020  28.177  1.00  0.00     0.031 A 
ATOM     34  C   UNL A   1      44.140  25.402  28.596  1.00  0.00     0.074 A 
ATOM     35  C   UNL A   1      41.744  25.910  28.270  1.00  0.00     0.049 A 
ATOM     36  N   UNL A   1      44.570  26.507  29.146  1.00  0.00    -0.248 NA
ATOM     37  C   UNL A   1      45.186  24.392  28.364  1.00  0.00     0.031 C 
ATOM     38  C   UNL A   1      40.364  25.688  27.844  1.00  0.00     0.029 A 
ATOM     39  N   UNL A   1      41.743  27.188  28.770  1.00  0.00    -0.354 N 
ATOM     40  C   UNL A   1      45.933  26.319  29.338  1.00  0.00     0.074 A 
ATOM     41  C   UNL A   1      46.252  24.988  28.872  1.00  0.00     0.031 C 
ATOM     42  C   UNL A   1      39.645  26.793  28.113  1.00  0.00     0.029 A 
ATOM     43  C   UNL A   1      40.504  27.781  28.764  1.00  0.00     0.049 A 
ATOM     44  H   UNL A   1      42.555  27.638  29.101  1.00  0.00     0.167 HD
ATOM     45  C   UNL A   1      46.841  27.178  29.856  1.00  0.00     0.031 A 
ATOM     46  C   UNL A   1      40.110  28.972  29.254  1.00  0.00     0.031 A 
ATOM     47  C   UNL A   1      46.523  28.490  30.343  1.00  0.00     0.049 A 
ATOM     48  C   UNL A   1      41.121  29.873  29.919  1.00  0.00     0.074 A 
ATOM     49  C   UNL A   1      47.373  29.439  30.883  1.00  0.00     0.029 A 
ATOM     50  N   UNL A   1      45.248  29.034  30.363  1.00  0.00    -0.354 N 
ATOM     51  N   UNL A   1      42.410  29.696  30.080  1.00  0.00    -0.248 NA
ATOM     52  C   UNL A   1      40.617  31.142  30.468  1.00  0.00     0.031 C 
ATOM     53  C   UNL A   1      46.603  30.534  31.285  1.00  0.00     0.029 A 
ATOM     54  C   UNL A   1      45.283  30.295  30.933  1.00  0.00     0.049 A 
ATOM     55  H   UNL A   1      44.438  28.591  30.021  1.00  0.00     0.167 HD
ATOM     56  C   UNL A   1      42.875  30.842  30.717  1.00  0.00     0.074 A 
ATOM     57  C   UNL A   1      41.733  31.712  30.902  1.00  0.00     0.031 C 
ATOM     58  C   UNL A   1      44.137  31.149  31.111  1.00  0.00     0.031 A 
BRANCH  45  59
ATOM     59  C   UNL A   1      48.258  26.690  29.966  1.00  0.00    -0.014 A 
ATOM     60  C   UNL A   1      49.197  26.933  28.949  1.00  0.00     0.009 A 
ATOM     61  C   UNL A   1      48.660  25.979  31.107  1.00  0.00     0.009 A 
ATOM     62  C   UNL A   1      50.499  26.439  29.058  1.00  0.00     0.001 A 
ATOM     63  C   UNL A   1      49.970  25.515  31.227  1.00  0.00     0.001 A 
ATOM     64  C   UNL A   1      50.884  25.735  30.198  1.00  0.00     0.000 A 
ENDBRANCH  45  59
BRANCH  46  65
ATOM     65  C   UNL A   1      38.683  29.383  29.165  1.00  0.00    -0.014 A 
ATOM     66  C   UNL A   1      38.197  30.038  28.024  1.00  0.00     0.009 A 
ATOM     67  C   UNL A   1      37.806  29.149  30.236  1.00  0.00     0.009 A 
ATOM     68  C   UNL A   1      36.869  30.472  27.967  1.00  0.00     0.001 A 
ATOM     69  C   UNL A   1      36.472  29.557  30.165  1.00  0.00     0.001 A 
ATOM     70  C   UNL A   1      36.008  30.227  29.035  1.00  0.00     0.000 A 
ENDBRANCH  46  65
BRANCH  58  71
ATOM     71  C   UNL A   1      44.360  32.496  31.743  1.00  0.00    -0.014 A 
ATOM     72  C   UNL A   1      44.631  33.634  30.969  1.00  0.00     0.009 A 
ATOM     73  C   UNL A   1      44.245  32.634  33.136  1.00  0.00     0.009 A 
ATOM     74  C   UNL A   1      44.814  34.878  31.580  1.00  0.00     0.001 A 
ATOM     75  C   UNL A   1      44.397  33.882  33.741  1.00  0.00     0.001 A 
ATOM     76  C   UNL A   1      44.691  35.001  32.964  1.00  0.00     0.000 A 
ENDBRANCH  58  71
ENDBRANCH  32  33
ENDBRANCH  25  27
ENDBRANCH  24  25
ENDBRANCH  23  24
ENDBRANCH  22  23
ENDBRANCH  21  22
ENDBRANCH  20  21
ENDBRANCH  19  20
ENDBRANCH   1  19
TORSDOF 22
ENDMDL
MODEL 3
REMARK VINA RESULT:      -8.1      2.565      4.279
REMARK SMILES C[C@H](C[N@@H+](C)[C@@H](C)[C@@H](C)O)C(=O)OCCOCCOCCOC(=O)c1ccc(-c2c3nc(c(-c4ccccc4)c4ccc([nH]4)c(-c4ccccc4)c4nc(c(-c5ccccc5)c5ccc2[nH]5)C=C4)C=C3)cc1
REMARK SMILES IDX 16 1 15 2 14 3 13 4 11 5 12 6 2 7 1 8 3 9 4 10 5 11 6 13
REMARK SMILES IDX 7 14 8 15 9 16 10 17 17 19 18 20 19 21 20 22 21 23 22 24
REMARK SMILES IDX 23 25 24 26 25 27 26 28 72 29 27 30 71 31 28 32 29 33 30 34
REMARK SMILES IDX 65 35 31 36 70 37 64 38 66 39 32 40 69 41 63 42 62 43 33 45
REMARK SMILES IDX 55 46 40 47 54 48 41 49 44 50 53 51 67 52 42 53 43 54 52 56
REMARK SMILES IDX 68 57 45 58 34 59 35 60 39 61 36 62 38 63 37 64 56 65 57 66
REMARK SMILES IDX 61 67 58 68 60 69 59 70 46 71 47 72 51 73 48 74 50 75 49 76
REMARK H PARENT 4 12 10 18 66 44 44 55
REMARK Flexibility Score: inf
ROOT
ATOM      1  O   UNL A   1      34.670  23.881  25.236  1.00  0.00    -0.376 OA
ENDROOT
BRANCH   1   2
ATOM      2  C   UNL A   1      33.704  24.589  26.010  1.00  0.00     0.202 C 
BRANCH   2   3
ATOM      3  C   UNL A   1      33.271  25.997  25.578  1.00  0.00     0.261 C 
BRANCH   3   4
ATOM      4  O   UNL A   1      32.056  26.428  26.224  1.00  0.00    -0.463 OA
BRANCH   4   5
ATOM      5  C   UNL A   1      32.133  27.540  26.999  1.00  0.00     0.314 C 
ATOM      6  O   UNL A   1      31.579  27.651  28.088  1.00  0.00    -0.252 OA
BRANCH   5   7
ATOM      7  C   UNL A   1      33.093  28.597  26.452  1.00  0.00     0.151 C 
ATOM      8  C   UNL A   1      34.174  28.956  27.475  1.00  0.00     0.026 C 
BRANCH   7   9
ATOM      9  C   UNL A   1      32.519  29.824  25.694  1.00  0.00     0.277 C 
BRANCH   9  10
ATOM     10  N   UNL A   1      32.224  29.777  24.243  1.00  0.00    -0.332 N 
ATOM     11  C   UNL A   1      33.223  28.898  23.599  1.00  0.00     0.333 C 
ATOM     12  H   UNL A   1      32.276  30.738  23.908  1.00  0.00     0.348 HD
BRANCH  10  13
ATOM     13  C   UNL A   1      30.848  29.328  23.880  1.00  0.00     0.209 C 
ATOM     14  C   UNL A   1      29.787  30.446  23.833  1.00  0.00     0.078 C 
BRANCH  13  15
ATOM     15  C   UNL A   1      30.813  28.437  22.603  1.00  0.00     0.169 C 
ATOM     16  C   UNL A   1      30.433  26.988  22.897  1.00  0.00     0.045 C 
BRANCH  15  17
ATOM     17  O   UNL A   1      29.902  28.949  21.625  1.00  0.00    -0.387 OA
ATOM     18  H   UNL A   1      30.046  29.901  21.518  1.00  0.00     0.211 HD
ENDBRANCH  15  17
ENDBRANCH  13  15
ENDBRANCH  10  13
ENDBRANCH   9  10
ENDBRANCH   7   9
ENDBRANCH   5   7
ENDBRANCH   4   5
ENDBRANCH   3   4
ENDBRANCH   2   3
ENDBRANCH   1   2
BRANCH   1  19
ATOM     19  C   UNL A   1      35.667  23.147  25.917  1.00  0.00     0.188 C 
BRANCH  19  20
ATOM     20  C   UNL A   1      36.982  22.839  25.201  1.00  0.00     0.188 C 
BRANCH  20  21
ATOM     21  O   UNL A   1      37.583  21.571  25.262  1.00  0.00    -0.376 OA
BRANCH  21  22
ATOM     22  C   UNL A   1      38.908  21.389  25.734  1.00  0.00     0.202 C 
BRANCH  22  23
ATOM     23  C   UNL A   1      39.665  22.337  26.685  1.00  0.00     0.261 C 
BRANCH  23  24
ATOM     24  O   UNL A   1      39.658  23.732  26.390  1.00  0.00    -0.460 OA
BRANCH  24  25
ATOM     25  C   UNL A   1      40.836  24.381  26.566  1.00  0.00     0.338 C 
ATOM     26  O   UNL A   1      41.875  24.213  25.951  1.00  0.00    -0.246 OA
BRANCH  25  27
ATOM     27  C   UNL A   1      40.563  25.536  27.452  1.00  0.00     0.060 A 
ATOM     28  C   UNL A   1      41.294  26.718  27.249  1.00  0.00     0.016 A 
ATOM     29  C   UNL A   1      39.536  25.492  28.397  1.00  0.00     0.016 A 
ATOM     30  C   UNL A   1      41.011  27.855  28.003  1.00  0.00     0.010 A 
ATOM     31  C   UNL A   1      39.277  26.620  29.177  1.00  0.00     0.010 A 
ATOM     32  C   UNL A   1      40.033  27.795  29.002  1.00  0.00    -0.014 A 
BRANCH  32  33
ATOM     33  C   UNL A   1      39.967  28.859  30.030  1.00  0.00     0.031 A 
ATOM     34  C   UNL A   1      40.934  28.775  31.179  1.00  0.00     0.074 A 
ATOM     35  C   UNL A   1      39.086  29.872  29.959  1.00  0.00     0.049 A 
ATOM     36  N   UNL A   1      41.029  29.528  32.243  1.00  0.00    -0.248 NA
ATOM     37  C   UNL A   1      41.923  27.686  31.115  1.00  0.00     0.031 C 
ATOM     38  C   UNL A   1      38.137  30.103  28.872  1.00  0.00     0.029 A 
ATOM     39  N   UNL A   1      38.847  30.896  30.842  1.00  0.00    -0.354 N 
ATOM     40  C   UNL A   1      42.079  28.996  32.981  1.00  0.00     0.074 A 
ATOM     41  C   UNL A   1      42.569  27.843  32.259  1.00  0.00     0.031 C 
ATOM     42  C   UNL A   1      37.408  31.196  29.159  1.00  0.00     0.029 A 
ATOM     43  C   UNL A   1      37.812  31.716  30.465  1.00  0.00     0.049 A 
ATOM     44  H   UNL A   1      39.368  31.029  31.666  1.00  0.00     0.167 HD
ATOM     45  C   UNL A   1      42.591  29.427  34.156  1.00  0.00     0.031 A 
ATOM     46  C   UNL A   1      37.242  32.749  31.117  1.00  0.00     0.031 A 
ATOM     47  C   UNL A   1      42.090  30.555  34.888  1.00  0.00     0.049 A 
ATOM     48  C   UNL A   1      37.765  33.150  32.474  1.00  0.00     0.074 A 
ATOM     49  C   UNL A   1      42.544  31.076  36.087  1.00  0.00     0.029 A 
ATOM     50  N   UNL A   1      41.011  31.331  34.496  1.00  0.00    -0.354 N 
ATOM     51  N   UNL A   1      38.769  32.653  33.156  1.00  0.00    -0.248 NA
ATOM     52  C   UNL A   1      37.073  34.260  33.148  1.00  0.00     0.031 C 
ATOM     53  C   UNL A   1      41.700  32.130  36.451  1.00  0.00     0.029 A 
ATOM     54  C   UNL A   1      40.764  32.309  35.445  1.00  0.00     0.049 A 
ATOM     55  H   UNL A   1      40.496  31.207  33.666  1.00  0.00     0.167 HD
ATOM     56  C   UNL A   1      38.849  33.409  34.321  1.00  0.00     0.074 A 
ATOM     57  C   UNL A   1      37.800  34.405  34.247  1.00  0.00     0.031 C 
ATOM     58  C   UNL A   1      39.715  33.293  35.358  1.00  0.00     0.031 A 
BRANCH  45  59
ATOM     59  C   UNL A   1      43.724  28.631  34.741  1.00  0.00    -0.014 A 
ATOM     60  C   UNL A   1      45.060  28.897  34.396  1.00  0.00     0.009 A 
ATOM     61  C   UNL A   1      43.449  27.602  35.653  1.00  0.00     0.009 A 
ATOM     62  C   UNL A   1      46.093  28.121  34.926  1.00  0.00     0.001 A 
ATOM     63  C   UNL A   1      44.486  26.849  36.205  1.00  0.00     0.001 A 
ATOM     64  C   UNL A   1      45.806  27.101  35.832  1.00  0.00     0.000 A 
ENDBRANCH  45  59
BRANCH  46  65
ATOM     65  C   UNL A   1      36.088  33.469  30.515  1.00  0.00    -0.014 A 
ATOM     66  C   UNL A   1      36.221  34.131  29.285  1.00  0.00     0.009 A 
ATOM     67  C   UNL A   1      34.854  33.524  31.183  1.00  0.00     0.009 A 
ATOM     68  C   UNL A   1      35.150  34.853  28.749  1.00  0.00     0.001 A 
ATOM     69  C   UNL A   1      33.777  34.221  30.631  1.00  0.00     0.001 A 
ATOM     70  C   UNL A   1      33.929  34.893  29.420  1.00  0.00     0.000 A 
ENDBRANCH  46  65
BRANCH  58  71
ATOM     71  C   UNL A   1      39.597  34.289  36.480  1.00  0.00    -0.014 A 
ATOM     72  C   UNL A   1      40.228  35.540  36.418  1.00  0.00     0.009 A 
ATOM     73  C   UNL A   1      38.796  33.986  37.592  1.00  0.00     0.009 A 
ATOM     74  C   UNL A   1      40.085  36.456  37.465  1.00  0.00     0.001 A 
ATOM     75  C   UNL A   1      38.629  34.914  38.621  1.00  0.00     0.001 A 
ATOM     76  C   UNL A   1      39.281  36.144  38.561  1.00  0.00     0.000 A 
ENDBRANCH  58  71
ENDBRANCH  32  33
ENDBRANCH  25  27
ENDBRANCH  24  25
ENDBRANCH  23  24
ENDBRANCH  22  23
ENDBRANCH  21  22
ENDBRANCH  20  21
ENDBRANCH  19  20
ENDBRANCH   1  19
TORSDOF 22
ENDMDL
