MODEL 1
REMARK VINA RESULT:     -10.1      0.000      0.000
REMARK SMILES O=C(OCCOCCOCCOC(=O)c1sccc1S(=O)(=O)N1CCO[C@@H]2CCCC[C@@H]21)c1ccc(-c2c3nc(c(-c4ccccc4)c4ccc([nH]4)c(-c4ccccc4)c4nc(c(-c5ccccc5)c5ccc2[nH]5)C=C4)C=C3)cc1
REMARK SMILES IDX 7 1 6 2 5 3 4 4 3 5 2 6 1 7 33 8 34 9 80 10 35 11 79 12
REMARK SMILES IDX 36 13 37 14 38 15 73 16 39 17 78 18 72 19 74 20 40 21 77 22
REMARK SMILES IDX 71 23 70 24 41 26 63 27 48 28 62 29 49 30 52 31 61 32 75 33
REMARK SMILES IDX 50 34 51 35 60 37 76 38 53 39 42 40 43 41 47 42 44 43 46 44
REMARK SMILES IDX 45 45 64 46 65 47 69 48 66 49 68 50 67 51 54 52 55 53 59 54
REMARK SMILES IDX 56 55 58 56 57 57 8 58 9 59 10 60 11 61 12 62 13 63 14 64
REMARK SMILES IDX 15 65 16 66 19 67 17 68 18 69 20 70 21 71 22 72 23 73 24 74
REMARK SMILES IDX 32 75 25 76 27 77 31 78 26 79 28 80 30 81 29 82
REMARK H PARENT 74 25 52 36
REMARK Flexibility Score: inf
ROOT
ATOM      1  C   UNL A   1      42.159  20.414  26.514  1.00  0.00     0.188 C 
ENDROOT
BRANCH   1   2
ATOM      2  O   UNL A   1      42.943  20.644  25.338  1.00  0.00    -0.376 OA
BRANCH   2   3
ATOM      3  C   UNL A   1      44.016  21.574  25.547  1.00  0.00     0.202 C 
BRANCH   3   4
ATOM      4  C   UNL A   1      44.211  22.580  24.401  1.00  0.00     0.261 C 
BRANCH   4   5
ATOM      5  O   UNL A   1      43.526  23.824  24.627  1.00  0.00    -0.460 OA
BRANCH   5   6
ATOM      6  C   UNL A   1      44.012  25.003  25.086  1.00  0.00     0.338 C 
ATOM      7  O   UNL A   1      45.106  25.375  24.660  1.00  0.00    -0.246 OA
BRANCH   6   8
ATOM      8  C   UNL A   1      43.302  25.908  26.049  1.00  0.00     0.060 A 
ATOM      9  C   UNL A   1      43.614  27.242  26.322  1.00  0.00     0.016 A 
ATOM     10  C   UNL A   1      42.206  25.346  26.734  1.00  0.00     0.016 A 
ATOM     11  C   UNL A   1      42.950  27.957  27.313  1.00  0.00     0.010 A 
ATOM     12  C   UNL A   1      41.511  26.065  27.710  1.00  0.00     0.010 A 
ATOM     13  C   UNL A   1      41.923  27.359  28.035  1.00  0.00    -0.014 A 
BRANCH  13  14
ATOM     14  C   UNL A   1      41.470  28.007  29.277  1.00  0.00     0.031 A 
ATOM     15  C   UNL A   1      40.222  28.832  29.206  1.00  0.00     0.074 A 
ATOM     16  C   UNL A   1      42.085  27.781  30.448  1.00  0.00     0.049 A 
ATOM     17  N   UNL A   1      39.666  29.576  30.123  1.00  0.00    -0.248 NA
ATOM     18  C   UNL A   1      39.489  28.791  27.928  1.00  0.00     0.031 C 
ATOM     19  C   UNL A   1      43.192  26.850  30.652  1.00  0.00     0.029 A 
ATOM     20  N   UNL A   1      41.857  28.314  31.687  1.00  0.00    -0.354 N 
ATOM     21  C   UNL A   1      38.534  30.110  29.525  1.00  0.00     0.074 A 
ATOM     22  C   UNL A   1      38.480  29.611  28.171  1.00  0.00     0.031 C 
ATOM     23  C   UNL A   1      43.566  26.896  31.941  1.00  0.00     0.029 A 
ATOM     24  C   UNL A   1      42.767  27.903  32.629  1.00  0.00     0.049 A 
ATOM     25  H   UNL A   1      41.114  28.929  31.883  1.00  0.00     0.167 HD
ATOM     26  C   UNL A   1      37.628  30.959  30.060  1.00  0.00     0.031 A 
ATOM     27  C   UNL A   1      42.954  28.338  33.889  1.00  0.00     0.031 A 
ATOM     28  C   UNL A   1      37.730  31.477  31.395  1.00  0.00     0.049 A 
ATOM     29  C   UNL A   1      42.035  29.405  34.417  1.00  0.00     0.074 A 
ATOM     30  C   UNL A   1      36.926  32.404  32.030  1.00  0.00     0.029 A 
ATOM     31  N   UNL A   1      38.720  31.111  32.298  1.00  0.00    -0.354 N 
ATOM     32  N   UNL A   1      41.003  29.968  33.831  1.00  0.00    -0.248 NA
ATOM     33  C   UNL A   1      42.300  29.897  35.774  1.00  0.00     0.031 C 
ATOM     34  C   UNL A   1      37.466  32.641  33.298  1.00  0.00     0.029 A 
ATOM     35  C   UNL A   1      38.563  31.812  33.478  1.00  0.00     0.049 A 
ATOM     36  H   UNL A   1      39.428  30.451  32.123  1.00  0.00     0.167 HD
ATOM     37  C   UNL A   1      40.475  30.855  34.758  1.00  0.00     0.074 A 
ATOM     38  C   UNL A   1      41.300  30.752  35.947  1.00  0.00     0.031 C 
ATOM     39  C   UNL A   1      39.402  31.676  34.643  1.00  0.00     0.031 A 
BRANCH  26  40
ATOM     40  C   UNL A   1      36.537  31.439  29.147  1.00  0.00    -0.014 A 
ATOM     41  C   UNL A   1      36.455  32.778  28.733  1.00  0.00     0.009 A 
ATOM     42  C   UNL A   1      35.528  30.544  28.758  1.00  0.00     0.009 A 
ATOM     43  C   UNL A   1      35.355  33.223  27.994  1.00  0.00     0.001 A 
ATOM     44  C   UNL A   1      34.446  30.985  27.994  1.00  0.00     0.001 A 
ATOM     45  C   UNL A   1      34.353  32.325  27.626  1.00  0.00     0.000 A 
ENDBRANCH  26  40
BRANCH  27  46
ATOM     46  C   UNL A   1      44.087  27.816  34.700  1.00  0.00    -0.014 A 
ATOM     47  C   UNL A   1      43.916  26.726  35.565  1.00  0.00     0.009 A 
ATOM     48  C   UNL A   1      45.355  28.415  34.613  1.00  0.00     0.009 A 
ATOM     49  C   UNL A   1      44.983  26.262  36.340  1.00  0.00     0.001 A 
ATOM     50  C   UNL A   1      46.427  27.932  35.366  1.00  0.00     0.001 A 
ATOM     51  C   UNL A   1      46.238  26.860  36.236  1.00  0.00     0.000 A 
ENDBRANCH  27  46
BRANCH  39  52
ATOM     52  C   UNL A   1      39.025  32.484  35.851  1.00  0.00    -0.014 A 
ATOM     53  C   UNL A   1      38.151  31.982  36.826  1.00  0.00     0.009 A 
ATOM     54  C   UNL A   1      39.622  33.740  36.047  1.00  0.00     0.009 A 
ATOM     55  C   UNL A   1      37.862  32.737  37.964  1.00  0.00     0.001 A 
ATOM     56  C   UNL A   1      39.355  34.477  37.200  1.00  0.00     0.001 A 
ATOM     57  C   UNL A   1      38.471  33.978  38.154  1.00  0.00     0.000 A 
ENDBRANCH  39  52
ENDBRANCH  13  14
ENDBRANCH   6   8
ENDBRANCH   5   6
ENDBRANCH   4   5
ENDBRANCH   3   4
ENDBRANCH   2   3
ENDBRANCH   1   2
BRANCH   1  58
ATOM     58  C   UNL A   1      41.460  21.646  27.082  1.00  0.00     0.188 C 
BRANCH  58  59
ATOM     59  O   UNL A   1      40.053  21.531  27.251  1.00  0.00    -0.376 OA
BRANCH  59  60
ATOM     60  C   UNL A   1      39.251  22.436  26.491  1.00  0.00     0.202 C 
BRANCH  60  61
ATOM     61  C   UNL A   1      38.153  21.798  25.639  1.00  0.00     0.261 C 
BRANCH  61  62
ATOM     62  O   UNL A   1      36.821  22.078  26.120  1.00  0.00    -0.459 OA
BRANCH  62  63
ATOM     63  C   UNL A   1      35.820  21.453  25.431  1.00  0.00     0.349 C 
ATOM     64  O   UNL A   1      35.985  20.545  24.628  1.00  0.00    -0.245 OA
BRANCH  63  65
ATOM     65  C   UNL A   1      34.533  22.018  25.746  1.00  0.00     0.132 A 
ATOM     66  S   UNL A   1      33.531  21.248  26.900  1.00  0.00    -0.136 S 
ATOM     67  C   UNL A   1      33.881  23.070  25.135  1.00  0.00     0.108 A 
ATOM     68  C   UNL A   1      32.189  22.231  26.487  1.00  0.00     0.067 A 
ATOM     69  C   UNL A   1      32.510  23.161  25.522  1.00  0.00     0.034 A 
BRANCH  67  70
ATOM     70  S   UNL A   1      34.618  24.135  23.982  1.00  0.00     0.245 S 
ATOM     71  O   UNL A   1      35.722  24.692  24.719  1.00  0.00    -0.207 OA
ATOM     72  O   UNL A   1      34.814  23.292  22.818  1.00  0.00    -0.207 OA
BRANCH  70  73
ATOM     73  N   UNL A   1      33.497  25.355  23.594  1.00  0.00    -0.190 NA
ATOM     74  C   UNL A   1      32.797  25.153  22.297  1.00  0.00     0.131 C 
ATOM     75  C   UNL A   1      32.767  26.047  24.710  1.00  0.00     0.102 C 
ATOM     76  C   UNL A   1      31.628  26.094  22.037  1.00  0.00     0.177 C 
ATOM     77  C   UNL A   1      31.574  26.916  24.230  1.00  0.00     0.136 C 
ATOM     78  C   UNL A   1      33.730  26.790  25.663  1.00  0.00     0.023 C 
ATOM     79  O   UNL A   1      31.668  27.264  22.844  1.00  0.00    -0.375 OA
ATOM     80  C   UNL A   1      31.404  28.216  25.013  1.00  0.00     0.034 C 
ATOM     81  C   UNL A   1      33.875  28.303  25.521  1.00  0.00     0.002 C 
ATOM     82  C   UNL A   1      32.671  29.051  24.979  1.00  0.00     0.003 C 
ENDBRANCH  70  73
ENDBRANCH  67  70
ENDBRANCH  63  65
ENDBRANCH  62  63
ENDBRANCH  61  62
ENDBRANCH  60  61
ENDBRANCH  59  60
ENDBRANCH  58  59
ENDBRANCH   1  58
TORSDOF 19
ENDMDL
MODEL 2
REMARK VINA RESULT:     -10.0      3.652      6.880
REMARK SMILES O=C(OCCOCCOCCOC(=O)c1sccc1S(=O)(=O)N1CCO[C@@H]2CCCC[C@@H]21)c1ccc(-c2c3nc(c(-c4ccccc4)c4ccc([nH]4)c(-c4ccccc4)c4nc(c(-c5ccccc5)c5ccc2[nH]5)C=C4)C=C3)cc1
REMARK SMILES IDX 7 1 6 2 5 3 4 4 3 5 2 6 1 7 33 8 34 9 80 10 35 11 79 12
REMARK SMILES IDX 36 13 37 14 38 15 73 16 39 17 78 18 72 19 74 20 40 21 77 22
REMARK SMILES IDX 71 23 70 24 41 26 63 27 48 28 62 29 49 30 52 31 61 32 75 33
REMARK SMILES IDX 50 34 51 35 60 37 76 38 53 39 42 40 43 41 47 42 44 43 46 44
REMARK SMILES IDX 45 45 64 46 65 47 69 48 66 49 68 50 67 51 54 52 55 53 59 54
REMARK SMILES IDX 56 55 58 56 57 57 8 58 9 59 10 60 11 61 12 62 13 63 14 64
REMARK SMILES IDX 15 65 16 66 19 67 17 68 18 69 20 70 21 71 22 72 23 73 24 74
REMARK SMILES IDX 32 75 25 76 27 77 31 78 26 79 28 80 30 81 29 82
REMARK H PARENT 74 25 52 36
REMARK Flexibility Score: inf
ROOT
ATOM      1  C   UNL A   1      40.794  20.990  27.122  1.00  0.00     0.188 C 
ENDROOT
BRANCH   1   2
ATOM      2  O   UNL A   1      41.302  20.157  26.074  1.00  0.00    -0.376 OA
BRANCH   2   3
ATOM      3  C   UNL A   1      42.196  19.139  26.545  1.00  0.00     0.202 C 
BRANCH   3   4
ATOM      4  C   UNL A   1      43.363  18.833  25.593  1.00  0.00     0.261 C 
BRANCH   4   5
ATOM      5  O   UNL A   1      43.670  19.930  24.716  1.00  0.00    -0.460 OA
BRANCH   5   6
ATOM      6  C   UNL A   1      44.488  20.991  24.919  1.00  0.00     0.338 C 
ATOM      7  O   UNL A   1      45.678  20.860  24.627  1.00  0.00    -0.246 OA
BRANCH   6   8
ATOM      8  C   UNL A   1      44.048  22.327  25.440  1.00  0.00     0.060 A 
ATOM      9  C   UNL A   1      43.628  23.420  24.678  1.00  0.00     0.016 A 
ATOM     10  C   UNL A   1      44.056  22.479  26.841  1.00  0.00     0.016 A 
ATOM     11  C   UNL A   1      43.339  24.649  25.264  1.00  0.00     0.010 A 
ATOM     12  C   UNL A   1      43.738  23.699  27.443  1.00  0.00     0.010 A 
ATOM     13  C   UNL A   1      43.430  24.802  26.643  1.00  0.00    -0.014 A 
BRANCH  13  14
ATOM     14  C   UNL A   1      43.446  26.166  27.197  1.00  0.00     0.031 A 
ATOM     15  C   UNL A   1      44.782  26.813  27.394  1.00  0.00     0.074 A 
ATOM     16  C   UNL A   1      42.309  26.844  27.416  1.00  0.00     0.049 A 
ATOM     17  N   UNL A   1      45.077  27.957  27.946  1.00  0.00    -0.248 NA
ATOM     18  C   UNL A   1      45.945  26.071  26.872  1.00  0.00     0.031 C 
ATOM     19  C   UNL A   1      40.968  26.372  27.082  1.00  0.00     0.029 A 
ATOM     20  N   UNL A   1      42.106  28.082  27.962  1.00  0.00    -0.354 N 
ATOM     21  C   UNL A   1      46.457  28.062  27.860  1.00  0.00     0.074 A 
ATOM     22  C   UNL A   1      46.945  26.869  27.208  1.00  0.00     0.031 C 
ATOM     23  C   UNL A   1      40.074  27.301  27.457  1.00  0.00     0.029 A 
ATOM     24  C   UNL A   1      40.779  28.398  28.110  1.00  0.00     0.049 A 
ATOM     25  H   UNL A   1      42.839  28.686  28.223  1.00  0.00     0.167 HD
ATOM     26  C   UNL A   1      47.249  29.063  28.306  1.00  0.00     0.031 A 
ATOM     27  C   UNL A   1      40.209  29.436  28.750  1.00  0.00     0.031 A 
ATOM     28  C   UNL A   1      46.743  30.217  28.993  1.00  0.00     0.049 A 
ATOM     29  C   UNL A   1      41.109  30.461  29.383  1.00  0.00     0.074 A 
ATOM     30  C   UNL A   1      47.443  31.262  29.566  1.00  0.00     0.029 A 
ATOM     31  N   UNL A   1      45.394  30.464  29.210  1.00  0.00    -0.354 N 
ATOM     32  N   UNL A   1      42.420  30.529  29.368  1.00  0.00    -0.248 NA
ATOM     33  C   UNL A   1      40.458  31.551  30.120  1.00  0.00     0.031 C 
ATOM     34  C   UNL A   1      46.517  32.112  30.180  1.00  0.00     0.029 A 
ATOM     35  C   UNL A   1      45.239  31.633  29.930  1.00  0.00     0.049 A 
ATOM     36  H   UNL A   1      44.657  29.891  28.898  1.00  0.00     0.167 HD
ATOM     37  C   UNL A   1      42.751  31.684  30.063  1.00  0.00     0.074 A 
ATOM     38  C   UNL A   1      41.500  32.287  30.483  1.00  0.00     0.031 C 
ATOM     39  C   UNL A   1      43.975  32.205  30.324  1.00  0.00     0.031 A 
BRANCH  26  40
ATOM     40  C   UNL A   1      48.729  28.869  28.147  1.00  0.00    -0.014 A 
ATOM     41  C   UNL A   1      49.413  29.305  27.000  1.00  0.00     0.009 A 
ATOM     42  C   UNL A   1      49.437  28.166  29.134  1.00  0.00     0.009 A 
ATOM     43  C   UNL A   1      50.763  28.992  26.821  1.00  0.00     0.001 A 
ATOM     44  C   UNL A   1      50.793  27.881  28.966  1.00  0.00     0.001 A 
ATOM     45  C   UNL A   1      51.451  28.280  27.804  1.00  0.00     0.000 A 
ENDBRANCH  26  40
BRANCH  27  46
ATOM     46  C   UNL A   1      38.729  29.516  28.875  1.00  0.00    -0.014 A 
ATOM     47  C   UNL A   1      37.930  29.900  27.789  1.00  0.00     0.009 A 
ATOM     48  C   UNL A   1      38.104  29.210  30.097  1.00  0.00     0.009 A 
ATOM     49  C   UNL A   1      36.543  29.995  27.928  1.00  0.00     0.001 A 
ATOM     50  C   UNL A   1      36.716  29.279  30.226  1.00  0.00     0.001 A 
ATOM     51  C   UNL A   1      35.936  29.679  29.143  1.00  0.00     0.000 A 
ENDBRANCH  27  46
BRANCH  39  52
ATOM     52  C   UNL A   1      44.019  33.519  31.049  1.00  0.00    -0.014 A 
ATOM     53  C   UNL A   1      43.946  34.740  30.362  1.00  0.00     0.009 A 
ATOM     54  C   UNL A   1      44.057  33.524  32.454  1.00  0.00     0.009 A 
ATOM     55  C   UNL A   1      43.936  35.943  31.070  1.00  0.00     0.001 A 
ATOM     56  C   UNL A   1      44.015  34.727  33.158  1.00  0.00     0.001 A 
ATOM     57  C   UNL A   1      43.962  35.935  32.465  1.00  0.00     0.000 A 
ENDBRANCH  39  52
ENDBRANCH  13  14
ENDBRANCH   6   8
ENDBRANCH   5   6
ENDBRANCH   4   5
ENDBRANCH   3   4
ENDBRANCH   2   3
ENDBRANCH   1   2
BRANCH   1  58
ATOM     58  C   UNL A   1      40.284  22.360  26.677  1.00  0.00     0.188 C 
BRANCH  58  59
ATOM     59  O   UNL A   1      38.902  22.424  26.351  1.00  0.00    -0.376 OA
BRANCH  59  60
ATOM     60  C   UNL A   1      38.344  23.733  26.231  1.00  0.00     0.202 C 
BRANCH  60  61
ATOM     61  C   UNL A   1      36.848  23.792  25.920  1.00  0.00     0.261 C 
BRANCH  61  62
ATOM     62  O   UNL A   1      36.249  22.491  25.740  1.00  0.00    -0.459 OA
BRANCH  62  63
ATOM     63  C   UNL A   1      35.921  22.184  24.449  1.00  0.00     0.349 C 
ATOM     64  O   UNL A   1      36.691  22.238  23.501  1.00  0.00    -0.245 OA
BRANCH  63  65
ATOM     65  C   UNL A   1      34.535  21.811  24.334  1.00  0.00     0.132 A 
ATOM     66  S   UNL A   1      34.001  20.324  24.992  1.00  0.00    -0.136 S 
ATOM     67  C   UNL A   1      33.532  22.433  23.619  1.00  0.00     0.108 A 
ATOM     68  C   UNL A   1      32.480  20.449  24.212  1.00  0.00     0.067 A 
ATOM     69  C   UNL A   1      32.362  21.624  23.502  1.00  0.00     0.034 A 
BRANCH  67  70
ATOM     70  S   UNL A   1      33.683  24.000  22.891  1.00  0.00     0.245 S 
ATOM     71  O   UNL A   1      35.010  24.405  23.274  1.00  0.00    -0.207 OA
ATOM     72  O   UNL A   1      33.316  23.768  21.507  1.00  0.00    -0.207 OA
BRANCH  70  73
ATOM     73  N   UNL A   1      32.528  25.029  23.601  1.00  0.00    -0.190 NA
ATOM     74  C   UNL A   1      31.221  25.062  22.893  1.00  0.00     0.131 C 
ATOM     75  C   UNL A   1      32.550  25.221  25.091  1.00  0.00     0.102 C 
ATOM     76  C   UNL A   1      30.101  25.783  23.631  1.00  0.00     0.177 C 
ATOM     77  C   UNL A   1      31.287  25.931  25.646  1.00  0.00     0.136 C 
ATOM     78  C   UNL A   1      33.876  25.844  25.579  1.00  0.00     0.023 C 
ATOM     79  O   UNL A   1      30.580  26.664  24.640  1.00  0.00    -0.375 OA
ATOM     80  C   UNL A   1      31.579  26.898  26.792  1.00  0.00     0.034 C 
ATOM     81  C   UNL A   1      33.904  27.334  25.913  1.00  0.00     0.002 C 
ATOM     82  C   UNL A   1      32.598  27.946  26.384  1.00  0.00     0.003 C 
ENDBRANCH  70  73
ENDBRANCH  67  70
ENDBRANCH  63  65
ENDBRANCH  62  63
ENDBRANCH  61  62
ENDBRANCH  60  61
ENDBRANCH  59  60
ENDBRANCH  58  59
ENDBRANCH   1  58
TORSDOF 19
ENDMDL
MODEL 3
REMARK VINA RESULT:      -9.8      1.329      5.988
REMARK SMILES O=C(OCCOCCOCCOC(=O)c1sccc1S(=O)(=O)N1CCO[C@@H]2CCCC[C@@H]21)c1ccc(-c2c3nc(c(-c4ccccc4)c4ccc([nH]4)c(-c4ccccc4)c4nc(c(-c5ccccc5)c5ccc2[nH]5)C=C4)C=C3)cc1
REMARK SMILES IDX 7 1 6 2 5 3 4 4 3 5 2 6 1 7 33 8 34 9 80 10 35 11 79 12
REMARK SMILES IDX 36 13 37 14 38 15 73 16 39 17 78 18 72 19 74 20 40 21 77 22
REMARK SMILES IDX 71 23 70 24 41 26 63 27 48 28 62 29 49 30 52 31 61 32 75 33
REMARK SMILES IDX 50 34 51 35 60 37 76 38 53 39 42 40 43 41 47 42 44 43 46 44
REMARK SMILES IDX 45 45 64 46 65 47 69 48 66 49 68 50 67 51 54 52 55 53 59 54
REMARK SMILES IDX 56 55 58 56 57 57 8 58 9 59 10 60 11 61 12 62 13 63 14 64
REMARK SMILES IDX 15 65 16 66 19 67 17 68 18 69 20 70 21 71 22 72 23 73 24 74
REMARK SMILES IDX 32 75 25 76 27 77 31 78 26 79 28 80 30 81 29 82
REMARK H PARENT 74 25 52 36
REMARK Flexibility Score: inf
ROOT
ATOM      1  C   UNL A   1      40.994  20.413  27.284  1.00  0.00     0.188 C 
ENDROOT
BRANCH   1   2
ATOM      2  O   UNL A   1      42.409  20.629  27.239  1.00  0.00    -0.376 OA
BRANCH   2   3
ATOM      3  C   UNL A   1      42.927  20.701  25.903  1.00  0.00     0.202 C 
BRANCH   3   4
ATOM      4  C   UNL A   1      43.667  22.010  25.582  1.00  0.00     0.261 C 
BRANCH   4   5
ATOM      5  O   UNL A   1      42.775  23.102  25.301  1.00  0.00    -0.460 OA
BRANCH   5   6
ATOM      6  C   UNL A   1      42.949  24.430  25.507  1.00  0.00     0.338 C 
ATOM      7  O   UNL A   1      43.325  25.113  24.554  1.00  0.00    -0.246 OA
BRANCH   6   8
ATOM      8  C   UNL A   1      42.684  25.139  26.803  1.00  0.00     0.060 A 
ATOM      9  C   UNL A   1      41.678  24.839  27.725  1.00  0.00     0.016 A 
ATOM     10  C   UNL A   1      43.550  26.206  27.114  1.00  0.00     0.016 A 
ATOM     11  C   UNL A   1      41.460  25.631  28.848  1.00  0.00     0.010 A 
ATOM     12  C   UNL A   1      43.360  26.989  28.255  1.00  0.00     0.010 A 
ATOM     13  C   UNL A   1      42.276  26.729  29.096  1.00  0.00    -0.014 A 
BRANCH  13  14
ATOM     14  C   UNL A   1      41.830  27.725  30.084  1.00  0.00     0.031 A 
ATOM     15  C   UNL A   1      42.587  27.801  31.374  1.00  0.00     0.074 A 
ATOM     16  C   UNL A   1      40.856  28.604  29.800  1.00  0.00     0.049 A 
ATOM     17  N   UNL A   1      42.344  28.516  32.437  1.00  0.00    -0.248 NA
ATOM     18  C   UNL A   1      43.799  26.967  31.464  1.00  0.00     0.031 C 
ATOM     19  C   UNL A   1      40.187  28.732  28.508  1.00  0.00     0.029 A 
ATOM     20  N   UNL A   1      40.269  29.561  30.582  1.00  0.00    -0.354 N 
ATOM     21  C   UNL A   1      43.358  28.202  33.330  1.00  0.00     0.074 A 
ATOM     22  C   UNL A   1      44.216  27.231  32.691  1.00  0.00     0.031 C 
ATOM     23  C   UNL A   1      39.258  29.698  28.593  1.00  0.00     0.029 A 
ATOM     24  C   UNL A   1      39.230  30.206  29.959  1.00  0.00     0.049 A 
ATOM     25  H   UNL A   1      40.564  29.766  31.498  1.00  0.00     0.167 HD
ATOM     26  C   UNL A   1      43.543  28.673  34.584  1.00  0.00     0.031 A 
ATOM     27  C   UNL A   1      38.331  31.071  30.464  1.00  0.00     0.031 A 
ATOM     28  C   UNL A   1      42.649  29.602  35.214  1.00  0.00     0.049 A 
ATOM     29  C   UNL A   1      38.454  31.461  31.911  1.00  0.00     0.074 A 
ATOM     30  C   UNL A   1      42.677  30.095  36.504  1.00  0.00     0.029 A 
ATOM     31  N   UNL A   1      41.547  30.169  34.586  1.00  0.00    -0.354 N 
ATOM     32  N   UNL A   1      39.371  31.111  32.784  1.00  0.00    -0.248 NA
ATOM     33  C   UNL A   1      37.427  32.363  32.446  1.00  0.00     0.031 C 
ATOM     34  C   UNL A   1      41.557  30.916  36.674  1.00  0.00     0.029 A 
ATOM     35  C   UNL A   1      40.872  30.989  35.470  1.00  0.00     0.049 A 
ATOM     36  H   UNL A   1      41.286  30.010  33.650  1.00  0.00     0.167 HD
ATOM     37  C   UNL A   1      39.051  31.774  33.961  1.00  0.00     0.074 A 
ATOM     38  C   UNL A   1      37.857  32.551  33.687  1.00  0.00     0.031 C 
ATOM     39  C   UNL A   1      39.689  31.752  35.157  1.00  0.00     0.031 A 
BRANCH  26  40
ATOM     40  C   UNL A   1      44.692  28.091  35.356  1.00  0.00    -0.014 A 
ATOM     41  C   UNL A   1      44.544  26.938  36.144  1.00  0.00     0.009 A 
ATOM     42  C   UNL A   1      45.926  28.759  35.354  1.00  0.00     0.009 A 
ATOM     43  C   UNL A   1      45.593  26.498  36.956  1.00  0.00     0.001 A 
ATOM     44  C   UNL A   1      46.982  28.299  36.143  1.00  0.00     0.001 A 
ATOM     45  C   UNL A   1      46.810  27.180  36.954  1.00  0.00     0.000 A 
ENDBRANCH  26  40
BRANCH  27  46
ATOM     46  C   UNL A   1      37.212  31.565  29.618  1.00  0.00    -0.014 A 
ATOM     47  C   UNL A   1      36.029  30.826  29.477  1.00  0.00     0.009 A 
ATOM     48  C   UNL A   1      37.326  32.790  28.937  1.00  0.00     0.009 A 
ATOM     49  C   UNL A   1      34.996  31.291  28.658  1.00  0.00     0.001 A 
ATOM     50  C   UNL A   1      36.282  33.266  28.143  1.00  0.00     0.001 A 
ATOM     51  C   UNL A   1      35.119  32.512  27.997  1.00  0.00     0.000 A 
ENDBRANCH  27  46
BRANCH  39  52
ATOM     52  C   UNL A   1      39.141  32.634  36.241  1.00  0.00    -0.014 A 
ATOM     53  C   UNL A   1      38.183  32.168  37.153  1.00  0.00     0.009 A 
ATOM     54  C   UNL A   1      39.658  33.932  36.393  1.00  0.00     0.009 A 
ATOM     55  C   UNL A   1      37.733  32.997  38.182  1.00  0.00     0.001 A 
ATOM     56  C   UNL A   1      39.229  34.745  37.441  1.00  0.00     0.001 A 
ATOM     57  C   UNL A   1      38.262  34.279  38.330  1.00  0.00     0.000 A 
ENDBRANCH  39  52
ENDBRANCH  13  14
ENDBRANCH   6   8
ENDBRANCH   5   6
ENDBRANCH   4   5
ENDBRANCH   3   4
ENDBRANCH   2   3
ENDBRANCH   1   2
BRANCH   1  58
ATOM     58  C   UNL A   1      40.181  21.200  26.259  1.00  0.00     0.188 C 
BRANCH  58  59
ATOM     59  O   UNL A   1      39.447  22.303  26.774  1.00  0.00    -0.376 OA
BRANCH  59  60
ATOM     60  C   UNL A   1      38.812  23.143  25.809  1.00  0.00     0.202 C 
BRANCH  60  61
ATOM     61  C   UNL A   1      37.415  23.641  26.178  1.00  0.00     0.261 C 
BRANCH  61  62
ATOM     62  O   UNL A   1      36.452  23.485  25.113  1.00  0.00    -0.459 OA
BRANCH  62  63
ATOM     63  C   UNL A   1      35.166  23.797  25.452  1.00  0.00     0.349 C 
ATOM     64  O   UNL A   1      34.788  24.903  25.815  1.00  0.00    -0.245 OA
BRANCH  63  65
ATOM     65  C   UNL A   1      34.304  22.648  25.358  1.00  0.00     0.132 A 
ATOM     66  S   UNL A   1      34.165  21.582  26.691  1.00  0.00    -0.136 S 
ATOM     67  C   UNL A   1      33.632  22.162  24.255  1.00  0.00     0.108 A 
ATOM     68  C   UNL A   1      33.326  20.417  25.756  1.00  0.00     0.067 A 
ATOM     69  C   UNL A   1      33.112  20.850  24.466  1.00  0.00     0.034 A 
BRANCH  67  70
ATOM     70  S   UNL A   1      33.477  23.018  22.755  1.00  0.00     0.245 S 
ATOM     71  O   UNL A   1      34.845  23.188  22.340  1.00  0.00    -0.207 OA
ATOM     72  O   UNL A   1      32.535  22.214  22.000  1.00  0.00    -0.207 OA
BRANCH  70  73
ATOM     73  N   UNL A   1      32.770  24.532  23.078  1.00  0.00    -0.190 NA
ATOM     74  C   UNL A   1      33.422  25.674  22.382  1.00  0.00     0.131 C 
ATOM     75  C   UNL A   1      31.293  24.598  23.348  1.00  0.00     0.102 C 
ATOM     76  C   UNL A   1      32.673  26.997  22.464  1.00  0.00     0.177 C 
ATOM     77  C   UNL A   1      30.720  26.039  23.334  1.00  0.00     0.136 C 
ATOM     78  C   UNL A   1      30.893  23.785  24.599  1.00  0.00     0.023 C 
ATOM     79  O   UNL A   1      31.729  27.036  23.527  1.00  0.00    -0.375 OA
ATOM     80  C   UNL A   1      29.637  26.282  24.382  1.00  0.00     0.034 C 
ATOM     81  C   UNL A   1      30.633  24.533  25.904  1.00  0.00     0.002 C 
ATOM     82  C   UNL A   1      30.137  25.961  25.778  1.00  0.00     0.003 C 
ENDBRANCH  70  73
ENDBRANCH  67  70
ENDBRANCH  63  65
ENDBRANCH  62  63
ENDBRANCH  61  62
ENDBRANCH  60  61
ENDBRANCH  59  60
ENDBRANCH  58  59
ENDBRANCH   1  58
TORSDOF 19
ENDMDL
