MODEL 1
REMARK VINA RESULT:      -9.5      0.000      0.000
REMARK SMILES C[C@H](CO)CSc1cc(Cl)ccc1C(=O)OCCOCCOCCOC(=O)c1ccc(-c2c3nc(c(-c4ccccc4)c4ccc([nH]4)c(-c4ccccc4)c4nc(c(-c5ccccc5)c5ccc2[nH]5)C=C4)C=C3)cc1
REMARK SMILES IDX 19 1 18 2 17 3 16 4 14 5 15 6 13 7 7 8 8 9 9 10 12 11 10 12
REMARK SMILES IDX 11 13 6 14 5 15 2 16 1 17 3 18 4 19 20 21 21 22 22 23 23 24
REMARK SMILES IDX 24 25 25 26 26 27 27 28 28 29 29 30 75 31 30 32 74 33 31 34
REMARK SMILES IDX 32 35 33 36 68 37 34 38 73 39 67 40 69 41 35 42 72 43 66 44
REMARK SMILES IDX 65 45 36 47 58 48 43 49 57 50 44 51 47 52 56 53 70 54 45 55
REMARK SMILES IDX 46 56 55 58 71 59 48 60 37 61 38 62 42 63 39 64 41 65 40 66
REMARK SMILES IDX 59 67 60 68 64 69 61 70 63 71 62 72 49 73 50 74 54 75 51 76
REMARK SMILES IDX 53 77 52 78
REMARK H PARENT 4 20 69 46 47 57
REMARK Flexibility Score: inf
ROOT
ATOM      1  O   UNL A   1      38.827  21.719  26.134  1.00  0.00    -0.376 OA
ENDROOT
BRANCH   1   2
ATOM      2  C   UNL A   1      38.005  21.394  25.024  1.00  0.00     0.202 C 
BRANCH   2   3
ATOM      3  C   UNL A   1      36.976  22.331  24.361  1.00  0.00     0.261 C 
BRANCH   3   4
ATOM      4  O   UNL A   1      35.589  22.011  24.526  1.00  0.00    -0.460 OA
BRANCH   4   5
ATOM      5  C   UNL A   1      34.728  22.875  23.935  1.00  0.00     0.339 C 
ATOM      6  O   UNL A   1      34.888  23.435  22.860  1.00  0.00    -0.246 OA
BRANCH   5   7
ATOM      7  C   UNL A   1      33.410  22.878  24.603  1.00  0.00     0.073 A 
ATOM      8  C   UNL A   1      32.466  21.844  24.529  1.00  0.00     0.023 A 
ATOM      9  C   UNL A   1      31.398  21.878  25.436  1.00  0.00     0.036 A 
ATOM     10  C   UNL A   1      31.151  22.991  26.236  1.00  0.00     0.042 A 
ATOM     11  C   UNL A   1      33.170  23.993  25.437  1.00  0.00     0.018 A 
ATOM     12  Cl  UNL A   1      29.761  23.019  27.246  1.00  0.00    -0.084 Cl
ATOM     13  C   UNL A   1      32.017  24.072  26.214  1.00  0.00     0.021 A 
BRANCH   8  14
ATOM     14  S   UNL A   1      32.522  20.448  23.416  1.00  0.00    -0.125 SA
BRANCH  14  15
ATOM     15  C   UNL A   1      32.535  19.022  24.606  1.00  0.00     0.080 C 
BRANCH  15  16
ATOM     16  C   UNL A   1      33.599  17.920  24.348  1.00  0.00     0.022 C 
ATOM     17  C   UNL A   1      35.008  18.464  24.624  1.00  0.00     0.011 C 
BRANCH  16  18
ATOM     18  C   UNL A   1      33.510  17.329  22.929  1.00  0.00     0.160 C 
BRANCH  18  19
ATOM     19  O   UNL A   1      32.192  17.330  22.395  1.00  0.00    -0.396 OA
ATOM     20  H   UNL A   1      31.592  17.775  23.014  1.00  0.00     0.210 HD
ENDBRANCH  18  19
ENDBRANCH  16  18
ENDBRANCH  15  16
ENDBRANCH  14  15
ENDBRANCH   8  14
ENDBRANCH   5   7
ENDBRANCH   4   5
ENDBRANCH   3   4
ENDBRANCH   2   3
ENDBRANCH   1   2
BRANCH   1  21
ATOM     21  C   UNL A   1      40.199  21.407  26.126  1.00  0.00     0.188 C 
BRANCH  21  22
ATOM     22  C   UNL A   1      40.589  19.914  26.062  1.00  0.00     0.188 C 
BRANCH  22  23
ATOM     23  O   UNL A   1      41.749  19.491  25.373  1.00  0.00    -0.376 OA
BRANCH  23  24
ATOM     24  C   UNL A   1      43.030  19.856  25.862  1.00  0.00     0.202 C 
BRANCH  24  25
ATOM     25  C   UNL A   1      43.797  21.094  25.362  1.00  0.00     0.261 C 
BRANCH  25  26
ATOM     26  O   UNL A   1      43.724  22.273  26.174  1.00  0.00    -0.460 OA
BRANCH  26  27
ATOM     27  C   UNL A   1      43.650  23.443  25.500  1.00  0.00     0.338 C 
ATOM     28  O   UNL A   1      43.896  23.636  24.315  1.00  0.00    -0.246 OA
BRANCH  27  29
ATOM     29  C   UNL A   1      43.033  24.466  26.361  1.00  0.00     0.060 A 
ATOM     30  C   UNL A   1      43.601  25.747  26.397  1.00  0.00     0.016 A 
ATOM     31  C   UNL A   1      41.932  24.156  27.159  1.00  0.00     0.016 A 
ATOM     32  C   UNL A   1      43.074  26.725  27.239  1.00  0.00     0.010 A 
ATOM     33  C   UNL A   1      41.423  25.129  28.025  1.00  0.00     0.010 A 
ATOM     34  C   UNL A   1      42.005  26.408  28.085  1.00  0.00    -0.014 A 
BRANCH  34  35
ATOM     35  C   UNL A   1      41.602  27.361  29.148  1.00  0.00     0.031 A 
ATOM     36  C   UNL A   1      42.355  27.351  30.449  1.00  0.00     0.074 A 
ATOM     37  C   UNL A   1      40.595  28.231  28.958  1.00  0.00     0.049 A 
ATOM     38  N   UNL A   1      42.148  28.053  31.534  1.00  0.00    -0.248 NA
ATOM     39  C   UNL A   1      43.494  26.422  30.538  1.00  0.00     0.031 C 
ATOM     40  C   UNL A   1      39.821  28.379  27.728  1.00  0.00     0.029 A 
ATOM     41  N   UNL A   1      40.049  29.154  29.816  1.00  0.00    -0.354 N 
ATOM     42  C   UNL A   1      43.120  27.645  32.437  1.00  0.00     0.074 A 
ATOM     43  C   UNL A   1      43.901  26.615  31.785  1.00  0.00     0.031 C 
ATOM     44  C   UNL A   1      38.888  29.330  27.914  1.00  0.00     0.029 A 
ATOM     45  C   UNL A   1      38.977  29.830  29.285  1.00  0.00     0.049 A 
ATOM     46  H   UNL A   1      40.392  29.317  30.724  1.00  0.00     0.167 HD
ATOM     47  C   UNL A   1      43.348  28.087  33.697  1.00  0.00     0.031 A 
ATOM     48  C   UNL A   1      38.146  30.726  29.851  1.00  0.00     0.031 A 
ATOM     49  C   UNL A   1      42.559  29.095  34.355  1.00  0.00     0.049 A 
ATOM     50  C   UNL A   1      38.360  31.132  31.287  1.00  0.00     0.074 A 
ATOM     51  C   UNL A   1      42.721  29.619  35.626  1.00  0.00     0.029 A 
ATOM     52  N   UNL A   1      41.455  29.720  33.800  1.00  0.00    -0.354 N 
ATOM     53  N   UNL A   1      39.300  30.762  32.123  1.00  0.00    -0.248 NA
ATOM     54  C   UNL A   1      37.394  32.084  31.856  1.00  0.00     0.031 C 
ATOM     55  C   UNL A   1      41.672  30.514  35.864  1.00  0.00     0.029 A 
ATOM     56  C   UNL A   1      40.900  30.599  34.717  1.00  0.00     0.049 A 
ATOM     57  H   UNL A   1      41.113  29.562  32.890  1.00  0.00     0.167 HD
ATOM     58  C   UNL A   1      39.058  31.457  33.302  1.00  0.00     0.074 A 
ATOM     59  C   UNL A   1      37.893  32.284  33.068  1.00  0.00     0.031 C 
ATOM     60  C   UNL A   1      39.739  31.415  34.474  1.00  0.00     0.031 A 
BRANCH  47  61
ATOM     61  C   UNL A   1      44.472  27.446  34.462  1.00  0.00    -0.014 A 
ATOM     62  C   UNL A   1      44.293  26.234  35.148  1.00  0.00     0.009 A 
ATOM     63  C   UNL A   1      45.738  28.052  34.474  1.00  0.00     0.009 A 
ATOM     64  C   UNL A   1      45.351  25.661  35.858  1.00  0.00     0.001 A 
ATOM     65  C   UNL A   1      46.801  27.461  35.158  1.00  0.00     0.001 A 
ATOM     66  C   UNL A   1      46.604  26.271  35.858  1.00  0.00     0.000 A 
ENDBRANCH  47  61
BRANCH  48  67
ATOM     67  C   UNL A   1      37.010  31.288  29.074  1.00  0.00    -0.014 A 
ATOM     68  C   UNL A   1      37.008  32.634  28.676  1.00  0.00     0.009 A 
ATOM     69  C   UNL A   1      35.902  30.487  28.753  1.00  0.00     0.009 A 
ATOM     70  C   UNL A   1      35.910  33.173  28.000  1.00  0.00     0.001 A 
ATOM     71  C   UNL A   1      34.820  31.019  28.048  1.00  0.00     0.001 A 
ATOM     72  C   UNL A   1      34.820  32.364  27.682  1.00  0.00     0.000 A 
ENDBRANCH  48  67
BRANCH  60  73
ATOM     73  C   UNL A   1      39.267  32.316  35.583  1.00  0.00    -0.014 A 
ATOM     74  C   UNL A   1      39.714  33.641  35.693  1.00  0.00     0.009 A 
ATOM     75  C   UNL A   1      38.323  31.842  36.508  1.00  0.00     0.009 A 
ATOM     76  C   UNL A   1      39.253  34.460  36.726  1.00  0.00     0.001 A 
ATOM     77  C   UNL A   1      37.837  32.672  37.520  1.00  0.00     0.001 A 
ATOM     78  C   UNL A   1      38.311  33.978  37.634  1.00  0.00     0.000 A 
ENDBRANCH  60  73
ENDBRANCH  34  35
ENDBRANCH  27  29
ENDBRANCH  26  27
ENDBRANCH  25  26
ENDBRANCH  24  25
ENDBRANCH  23  24
ENDBRANCH  22  23
ENDBRANCH  21  22
ENDBRANCH   1  21
TORSDOF 22
ENDMDL
MODEL 2
REMARK VINA RESULT:      -9.2      3.994      5.845
REMARK SMILES C[C@H](CO)CSc1cc(Cl)ccc1C(=O)OCCOCCOCCOC(=O)c1ccc(-c2c3nc(c(-c4ccccc4)c4ccc([nH]4)c(-c4ccccc4)c4nc(c(-c5ccccc5)c5ccc2[nH]5)C=C4)C=C3)cc1
REMARK SMILES IDX 19 1 18 2 17 3 16 4 14 5 15 6 13 7 7 8 8 9 9 10 12 11 10 12
REMARK SMILES IDX 11 13 6 14 5 15 2 16 1 17 3 18 4 19 20 21 21 22 22 23 23 24
REMARK SMILES IDX 24 25 25 26 26 27 27 28 28 29 29 30 75 31 30 32 74 33 31 34
REMARK SMILES IDX 32 35 33 36 68 37 34 38 73 39 67 40 69 41 35 42 72 43 66 44
REMARK SMILES IDX 65 45 36 47 58 48 43 49 57 50 44 51 47 52 56 53 70 54 45 55
REMARK SMILES IDX 46 56 55 58 71 59 48 60 37 61 38 62 42 63 39 64 41 65 40 66
REMARK SMILES IDX 59 67 60 68 64 69 61 70 63 71 62 72 49 73 50 74 54 75 51 76
REMARK SMILES IDX 53 77 52 78
REMARK H PARENT 4 20 69 46 47 57
REMARK Flexibility Score: inf
ROOT
ATOM      1  O   UNL A   1      34.566  22.397  25.847  1.00  0.00    -0.376 OA
ENDROOT
BRANCH   1   2
ATOM      2  C   UNL A   1      33.510  23.199  25.342  1.00  0.00     0.202 C 
BRANCH   2   3
ATOM      3  C   UNL A   1      33.344  23.652  23.877  1.00  0.00     0.261 C 
BRANCH   3   4
ATOM      4  O   UNL A   1      32.600  24.851  23.637  1.00  0.00    -0.460 OA
BRANCH   4   5
ATOM      5  C   UNL A   1      33.334  25.901  23.194  1.00  0.00     0.339 C 
ATOM      6  O   UNL A   1      33.885  25.993  22.106  1.00  0.00    -0.246 OA
BRANCH   5   7
ATOM      7  C   UNL A   1      33.184  27.082  24.071  1.00  0.00     0.073 A 
ATOM      8  C   UNL A   1      32.267  28.123  23.870  1.00  0.00     0.023 A 
ATOM      9  C   UNL A   1      32.061  29.016  24.931  1.00  0.00     0.036 A 
ATOM     10  C   UNL A   1      32.877  29.012  26.060  1.00  0.00     0.042 A 
ATOM     11  C   UNL A   1      33.990  27.066  25.231  1.00  0.00     0.018 A 
ATOM     12  Cl  UNL A   1      32.646  30.204  27.278  1.00  0.00    -0.084 Cl
ATOM     13  C   UNL A   1      33.871  28.058  26.200  1.00  0.00     0.021 A 
BRANCH   8  14
ATOM     14  S   UNL A   1      31.290  28.396  22.400  1.00  0.00    -0.125 SA
BRANCH  14  15
ATOM     15  C   UNL A   1      29.565  28.174  23.052  1.00  0.00     0.080 C 
BRANCH  15  16
ATOM     16  C   UNL A   1      28.554  29.306  22.722  1.00  0.00     0.022 C 
ATOM     17  C   UNL A   1      29.018  30.632  23.343  1.00  0.00     0.011 C 
BRANCH  16  18
ATOM     18  C   UNL A   1      27.118  28.968  23.164  1.00  0.00     0.160 C 
BRANCH  18  19
ATOM     19  O   UNL A   1      26.938  27.600  23.510  1.00  0.00    -0.396 OA
ATOM     20  H   UNL A   1      27.393  27.414  24.346  1.00  0.00     0.210 HD
ENDBRANCH  18  19
ENDBRANCH  16  18
ENDBRANCH  15  16
ENDBRANCH  14  15
ENDBRANCH   8  14
ENDBRANCH   5   7
ENDBRANCH   4   5
ENDBRANCH   3   4
ENDBRANCH   2   3
ENDBRANCH   1   2
BRANCH   1  21
ATOM     21  C   UNL A   1      35.897  22.852  25.800  1.00  0.00     0.188 C 
BRANCH  21  22
ATOM     22  C   UNL A   1      36.855  22.149  24.814  1.00  0.00     0.188 C 
BRANCH  22  23
ATOM     23  O   UNL A   1      37.967  21.409  25.278  1.00  0.00    -0.376 OA
BRANCH  23  24
ATOM     24  C   UNL A   1      38.103  20.043  24.919  1.00  0.00     0.202 C 
BRANCH  24  25
ATOM     25  C   UNL A   1      39.267  19.160  25.405  1.00  0.00     0.261 C 
BRANCH  25  26
ATOM     26  O   UNL A   1      40.114  19.710  26.423  1.00  0.00    -0.460 OA
BRANCH  26  27
ATOM     27  C   UNL A   1      41.414  19.865  26.080  1.00  0.00     0.338 C 
ATOM     28  O   UNL A   1      42.081  19.145  25.347  1.00  0.00    -0.246 OA
BRANCH  27  29
ATOM     29  C   UNL A   1      41.896  21.167  26.571  1.00  0.00     0.060 A 
ATOM     30  C   UNL A   1      41.833  21.434  27.946  1.00  0.00     0.016 A 
ATOM     31  C   UNL A   1      42.366  22.134  25.682  1.00  0.00     0.016 A 
ATOM     32  C   UNL A   1      42.233  22.675  28.439  1.00  0.00     0.010 A 
ATOM     33  C   UNL A   1      42.739  23.388  26.175  1.00  0.00     0.010 A 
ATOM     34  C   UNL A   1      42.653  23.672  27.550  1.00  0.00    -0.014 A 
BRANCH  34  35
ATOM     35  C   UNL A   1      42.844  25.059  28.040  1.00  0.00     0.031 A 
ATOM     36  C   UNL A   1      44.227  25.502  28.431  1.00  0.00     0.074 A 
ATOM     37  C   UNL A   1      41.813  25.916  28.122  1.00  0.00     0.049 A 
ATOM     38  N   UNL A   1      44.621  26.644  28.933  1.00  0.00    -0.248 NA
ATOM     39  C   UNL A   1      45.308  24.523  28.231  1.00  0.00     0.031 C 
ATOM     40  C   UNL A   1      40.436  25.629  27.726  1.00  0.00     0.029 A 
ATOM     41  N   UNL A   1      41.771  27.210  28.579  1.00  0.00    -0.354 N 
ATOM     42  C   UNL A   1      45.992  26.519  29.119  1.00  0.00     0.074 A 
ATOM     43  C   UNL A   1      46.357  25.182  28.702  1.00  0.00     0.031 C 
ATOM     44  C   UNL A   1      39.679  26.714  27.969  1.00  0.00     0.029 A 
ATOM     45  C   UNL A   1      40.510  27.756  28.570  1.00  0.00     0.049 A 
ATOM     46  H   UNL A   1      42.568  27.701  28.884  1.00  0.00     0.167 HD
ATOM     47  C   UNL A   1      46.871  27.434  29.591  1.00  0.00     0.031 A 
ATOM     48  C   UNL A   1      40.073  28.947  29.023  1.00  0.00     0.031 A 
ATOM     49  C   UNL A   1      46.507  28.757  30.026  1.00  0.00     0.049 A 
ATOM     50  C   UNL A   1      41.056  29.912  29.636  1.00  0.00     0.074 A 
ATOM     51  C   UNL A   1      47.329  29.761  30.508  1.00  0.00     0.029 A 
ATOM     52  N   UNL A   1      45.213  29.253  30.045  1.00  0.00    -0.354 N 
ATOM     53  N   UNL A   1      42.354  29.796  29.779  1.00  0.00    -0.248 NA
ATOM     54  C   UNL A   1      40.508  31.179  30.146  1.00  0.00     0.031 C 
ATOM     55  C   UNL A   1      46.523  30.842  30.881  1.00  0.00     0.029 A 
ATOM     56  C   UNL A   1      45.209  30.537  30.566  1.00  0.00     0.049 A 
ATOM     57  H   UNL A   1      44.415  28.766  29.736  1.00  0.00     0.167 HD
ATOM     58  C   UNL A   1      42.781  30.982  30.366  1.00  0.00     0.074 A 
ATOM     59  C   UNL A   1      41.606  31.811  30.536  1.00  0.00     0.031 C 
ATOM     60  C   UNL A   1      44.033  31.352  30.732  1.00  0.00     0.031 A 
BRANCH  47  61
ATOM     61  C   UNL A   1      48.311  27.016  29.704  1.00  0.00    -0.014 A 
ATOM     62  C   UNL A   1      49.225  27.253  28.665  1.00  0.00     0.009 A 
ATOM     63  C   UNL A   1      48.764  26.402  30.881  1.00  0.00     0.009 A 
ATOM     64  C   UNL A   1      50.557  26.849  28.790  1.00  0.00     0.001 A 
ATOM     65  C   UNL A   1      50.103  26.028  31.016  1.00  0.00     0.001 A 
ATOM     66  C   UNL A   1      50.995  26.242  29.967  1.00  0.00     0.000 A 
ENDBRANCH  47  61
BRANCH  48  67
ATOM     67  C   UNL A   1      38.629  29.293  28.947  1.00  0.00    -0.014 A 
ATOM     68  C   UNL A   1      38.080  29.825  27.770  1.00  0.00     0.009 A 
ATOM     69  C   UNL A   1      37.797  29.124  30.065  1.00  0.00     0.009 A 
ATOM     70  C   UNL A   1      36.737  30.206  27.724  1.00  0.00     0.001 A 
ATOM     71  C   UNL A   1      36.446  29.475  30.006  1.00  0.00     0.001 A 
ATOM     72  C   UNL A   1      35.920  30.026  28.839  1.00  0.00     0.000 A 
ENDBRANCH  48  67
BRANCH  60  73
ATOM     73  C   UNL A   1      44.207  32.727  31.318  1.00  0.00    -0.014 A 
ATOM     74  C   UNL A   1      44.171  32.944  32.705  1.00  0.00     0.009 A 
ATOM     75  C   UNL A   1      44.458  33.817  30.469  1.00  0.00     0.009 A 
ATOM     76  C   UNL A   1      44.347  34.228  33.224  1.00  0.00     0.001 A 
ATOM     77  C   UNL A   1      44.667  35.094  30.993  1.00  0.00     0.001 A 
ATOM     78  C   UNL A   1      44.600  35.300  32.370  1.00  0.00     0.000 A 
ENDBRANCH  60  73
ENDBRANCH  34  35
ENDBRANCH  27  29
ENDBRANCH  26  27
ENDBRANCH  25  26
ENDBRANCH  24  25
ENDBRANCH  23  24
ENDBRANCH  22  23
ENDBRANCH  21  22
ENDBRANCH   1  21
TORSDOF 22
ENDMDL
MODEL 3
REMARK VINA RESULT:      -9.2      1.471      2.841
REMARK SMILES C[C@H](CO)CSc1cc(Cl)ccc1C(=O)OCCOCCOCCOC(=O)c1ccc(-c2c3nc(c(-c4ccccc4)c4ccc([nH]4)c(-c4ccccc4)c4nc(c(-c5ccccc5)c5ccc2[nH]5)C=C4)C=C3)cc1
REMARK SMILES IDX 19 1 18 2 17 3 16 4 14 5 15 6 13 7 7 8 8 9 9 10 12 11 10 12
REMARK SMILES IDX 11 13 6 14 5 15 2 16 1 17 3 18 4 19 20 21 21 22 22 23 23 24
REMARK SMILES IDX 24 25 25 26 26 27 27 28 28 29 29 30 75 31 30 32 74 33 31 34
REMARK SMILES IDX 32 35 33 36 68 37 34 38 73 39 67 40 69 41 35 42 72 43 66 44
REMARK SMILES IDX 65 45 36 47 58 48 43 49 57 50 44 51 47 52 56 53 70 54 45 55
REMARK SMILES IDX 46 56 55 58 71 59 48 60 37 61 38 62 42 63 39 64 41 65 40 66
REMARK SMILES IDX 59 67 60 68 64 69 61 70 63 71 62 72 49 73 50 74 54 75 51 76
REMARK SMILES IDX 53 77 52 78
REMARK H PARENT 4 20 69 46 47 57
REMARK Flexibility Score: inf
ROOT
ATOM      1  O   UNL A   1      38.398  22.128  26.100  1.00  0.00    -0.376 OA
ENDROOT
BRANCH   1   2
ATOM      2  C   UNL A   1      37.521  21.873  25.014  1.00  0.00     0.202 C 
BRANCH   2   3
ATOM      3  C   UNL A   1      36.484  22.863  24.445  1.00  0.00     0.261 C 
BRANCH   3   4
ATOM      4  O   UNL A   1      35.399  22.317  23.685  1.00  0.00    -0.460 OA
BRANCH   4   5
ATOM      5  C   UNL A   1      34.386  23.181  23.432  1.00  0.00     0.339 C 
ATOM      6  O   UNL A   1      34.176  23.763  22.378  1.00  0.00    -0.246 OA
BRANCH   5   7
ATOM      7  C   UNL A   1      33.364  23.155  24.500  1.00  0.00     0.073 A 
ATOM      8  C   UNL A   1      33.076  24.218  25.367  1.00  0.00     0.023 A 
ATOM      9  C   UNL A   1      31.903  24.131  26.128  1.00  0.00     0.036 A 
ATOM     10  C   UNL A   1      31.158  22.956  26.195  1.00  0.00     0.042 A 
ATOM     11  C   UNL A   1      32.589  21.974  24.551  1.00  0.00     0.018 A 
ATOM     12  Cl  UNL A   1      29.791  22.875  27.235  1.00  0.00    -0.084 Cl
ATOM     13  C   UNL A   1      31.519  21.857  25.433  1.00  0.00     0.021 A 
BRANCH   8  14
ATOM     14  S   UNL A   1      34.040  25.710  25.558  1.00  0.00    -0.125 SA
BRANCH  14  15
ATOM     15  C   UNL A   1      32.874  26.995  24.898  1.00  0.00     0.080 C 
BRANCH  15  16
ATOM     16  C   UNL A   1      32.794  27.123  23.352  1.00  0.00     0.022 C 
ATOM     17  C   UNL A   1      33.157  28.550  22.915  1.00  0.00     0.011 C 
BRANCH  16  18
ATOM     18  C   UNL A   1      31.419  26.713  22.792  1.00  0.00     0.160 C 
BRANCH  18  19
ATOM     19  O   UNL A   1      31.036  27.447  21.635  1.00  0.00    -0.396 OA
ATOM     20  H   UNL A   1      30.081  27.617  21.661  1.00  0.00     0.210 HD
ENDBRANCH  18  19
ENDBRANCH  16  18
ENDBRANCH  15  16
ENDBRANCH  14  15
ENDBRANCH   8  14
ENDBRANCH   5   7
ENDBRANCH   4   5
ENDBRANCH   3   4
ENDBRANCH   2   3
ENDBRANCH   1   2
BRANCH   1  21
ATOM     21  C   UNL A   1      39.690  21.569  26.124  1.00  0.00     0.188 C 
BRANCH  21  22
ATOM     22  C   UNL A   1      39.803  20.033  26.007  1.00  0.00     0.188 C 
BRANCH  22  23
ATOM     23  O   UNL A   1      41.000  19.420  25.574  1.00  0.00    -0.376 OA
BRANCH  23  24
ATOM     24  C   UNL A   1      42.205  19.647  26.287  1.00  0.00     0.202 C 
BRANCH  24  25
ATOM     25  C   UNL A   1      43.344  20.534  25.748  1.00  0.00     0.261 C 
BRANCH  25  26
ATOM     26  O   UNL A   1      43.539  21.799  26.394  1.00  0.00    -0.460 OA
BRANCH  26  27
ATOM     27  C   UNL A   1      43.307  22.888  25.625  1.00  0.00     0.338 C 
ATOM     28  O   UNL A   1      43.370  22.964  24.403  1.00  0.00    -0.246 OA
BRANCH  27  29
ATOM     29  C   UNL A   1      42.764  23.971  26.462  1.00  0.00     0.060 A 
ATOM     30  C   UNL A   1      43.248  25.274  26.275  1.00  0.00     0.016 A 
ATOM     31  C   UNL A   1      41.821  23.702  27.453  1.00  0.00     0.016 A 
ATOM     32  C   UNL A   1      42.794  26.314  27.084  1.00  0.00     0.010 A 
ATOM     33  C   UNL A   1      41.389  24.740  28.283  1.00  0.00     0.010 A 
ATOM     34  C   UNL A   1      41.890  26.045  28.117  1.00  0.00    -0.014 A 
BRANCH  34  35
ATOM     35  C   UNL A   1      41.594  27.091  29.126  1.00  0.00     0.031 A 
ATOM     36  C   UNL A   1      42.463  27.179  30.350  1.00  0.00     0.074 A 
ATOM     37  C   UNL A   1      40.582  27.959  28.953  1.00  0.00     0.049 A 
ATOM     38  N   UNL A   1      42.361  27.974  31.384  1.00  0.00    -0.248 NA
ATOM     39  C   UNL A   1      43.596  26.242  30.416  1.00  0.00     0.031 C 
ATOM     40  C   UNL A   1      39.700  28.014  27.790  1.00  0.00     0.029 A 
ATOM     41  N   UNL A   1      40.125  28.960  29.774  1.00  0.00    -0.354 N 
ATOM     42  C   UNL A   1      43.408  27.628  32.229  1.00  0.00     0.074 A 
ATOM     43  C   UNL A   1      44.116  26.534  31.599  1.00  0.00     0.031 C 
ATOM     44  C   UNL A   1      38.797  28.993  27.976  1.00  0.00     0.029 A 
ATOM     45  C   UNL A   1      39.015  29.606  29.285  1.00  0.00     0.049 A 
ATOM     46  H   UNL A   1      40.551  29.194  30.630  1.00  0.00     0.167 HD
ATOM     47  C   UNL A   1      43.753  28.172  33.419  1.00  0.00     0.031 A 
ATOM     48  C   UNL A   1      38.247  30.561  29.844  1.00  0.00     0.031 A 
ATOM     49  C   UNL A   1      43.037  29.245  34.057  1.00  0.00     0.049 A 
ATOM     50  C   UNL A   1      38.594  31.084  31.215  1.00  0.00     0.074 A 
ATOM     51  C   UNL A   1      43.318  29.873  35.258  1.00  0.00     0.029 A 
ATOM     52  N   UNL A   1      41.892  29.839  33.552  1.00  0.00    -0.354 N 
ATOM     53  N   UNL A   1      39.604  30.771  31.991  1.00  0.00    -0.248 NA
ATOM     54  C   UNL A   1      37.693  32.098  31.784  1.00  0.00     0.031 C 
ATOM     55  C   UNL A   1      42.304  30.802  35.512  1.00  0.00     0.029 A 
ATOM     56  C   UNL A   1      41.432  30.803  34.435  1.00  0.00     0.049 A 
ATOM     57  H   UNL A   1      41.467  29.610  32.693  1.00  0.00     0.167 HD
ATOM     58  C   UNL A   1      39.476  31.567  33.123  1.00  0.00     0.074 A 
ATOM     59  C   UNL A   1      38.302  32.391  32.925  1.00  0.00     0.031 C 
ATOM     60  C   UNL A   1      40.260  31.614  34.228  1.00  0.00     0.031 A 
BRANCH  47  61
ATOM     61  C   UNL A   1      44.937  27.579  34.133  1.00  0.00    -0.014 A 
ATOM     62  C   UNL A   1      46.233  28.086  33.947  1.00  0.00     0.009 A 
ATOM     63  C   UNL A   1      44.746  26.516  35.029  1.00  0.00     0.009 A 
ATOM     64  C   UNL A   1      47.318  27.515  34.616  1.00  0.00     0.001 A 
ATOM     65  C   UNL A   1      45.828  25.968  35.720  1.00  0.00     0.001 A 
ATOM     66  C   UNL A   1      47.114  26.460  35.505  1.00  0.00     0.000 A 
ENDBRANCH  47  61
BRANCH  48  67
ATOM     67  C   UNL A   1      37.050  31.074  29.126  1.00  0.00    -0.014 A 
ATOM     68  C   UNL A   1      35.971  30.226  28.832  1.00  0.00     0.009 A 
ATOM     69  C   UNL A   1      36.994  32.411  28.701  1.00  0.00     0.009 A 
ATOM     70  C   UNL A   1      34.876  30.698  28.103  1.00  0.00     0.001 A 
ATOM     71  C   UNL A   1      35.884  32.889  28.001  1.00  0.00     0.001 A 
ATOM     72  C   UNL A   1      34.831  32.030  27.694  1.00  0.00     0.000 A 
ENDBRANCH  48  67
BRANCH  60  73
ATOM     73  C   UNL A   1      39.900  32.613  35.294  1.00  0.00    -0.014 A 
ATOM     74  C   UNL A   1      39.064  32.270  36.368  1.00  0.00     0.009 A 
ATOM     75  C   UNL A   1      40.444  33.907  35.246  1.00  0.00     0.009 A 
ATOM     76  C   UNL A   1      38.753  33.213  37.351  1.00  0.00     0.001 A 
ATOM     77  C   UNL A   1      40.159  34.836  36.248  1.00  0.00     0.001 A 
ATOM     78  C   UNL A   1      39.305  34.492  37.293  1.00  0.00     0.000 A 
ENDBRANCH  60  73
ENDBRANCH  34  35
ENDBRANCH  27  29
ENDBRANCH  26  27
ENDBRANCH  25  26
ENDBRANCH  24  25
ENDBRANCH  23  24
ENDBRANCH  22  23
ENDBRANCH  21  22
ENDBRANCH   1  21
TORSDOF 22
ENDMDL
