MODEL 1
REMARK VINA RESULT:      -9.6      0.000      0.000
REMARK SMILES C[NH2+][C@@]1(C(=O)OCCOCCOCCOC(=O)c2ccc(-c3c4nc(c(-c5ccccc5)c5ccc([nH]5)c(-c5ccccc5)c5nc(c(-c6ccccc6)c6ccc3[nH]6)C=C5)C=C4)cc2)CC[C@H]([NH+]2CC[NH+](C)CC2)C1
REMARK SMILES IDX 11 1 10 2 9 3 8 4 7 5 6 6 4 7 5 8 3 9 66 10 76 11 67 12
REMARK SMILES IDX 68 13 2 14 1 15 69 18 70 19 75 20 71 22 74 23 72 24 73 25
REMARK SMILES IDX 12 27 13 28 14 29 15 30 16 31 17 32 18 33 19 34 65 35 20 36
REMARK SMILES IDX 64 37 21 38 22 39 23 40 58 41 24 42 63 43 57 44 59 45 25 46
REMARK SMILES IDX 62 47 56 48 55 49 26 51 48 52 33 53 47 54 34 55 37 56 46 57
REMARK SMILES IDX 60 58 35 59 36 60 45 62 61 63 38 64 27 65 28 66 32 67 29 68
REMARK SMILES IDX 31 69 30 70 49 71 50 72 54 73 51 74 53 75 52 76 39 77 40 78
REMARK SMILES IDX 44 79 41 80 43 81 42 82
REMARK H PARENT 2 16 2 17 69 21 72 26 59 50 37 61
REMARK Flexibility Score: inf
ROOT
ATOM      1  C   UNL A   1      34.672  32.781  29.241  1.00  0.00     0.188 C 
ENDROOT
BRANCH   1   2
ATOM      2  C   UNL A   1      35.048  31.796  28.138  1.00  0.00     0.188 C 
BRANCH   2   3
ATOM      3  O   UNL A   1      34.208  30.679  27.919  1.00  0.00    -0.376 OA
BRANCH   3   4
ATOM      4  C   UNL A   1      33.106  30.839  27.028  1.00  0.00     0.202 C 
BRANCH   4   5
ATOM      5  C   UNL A   1      32.094  29.688  26.919  1.00  0.00     0.261 C 
BRANCH   5   6
ATOM      6  O   UNL A   1      32.381  28.802  25.810  1.00  0.00    -0.459 OA
BRANCH   6   7
ATOM      7  C   UNL A   1      31.536  28.881  24.749  1.00  0.00     0.368 C 
ATOM      8  O   UNL A   1      30.745  29.811  24.601  1.00  0.00    -0.245 OA
BRANCH   7   9
ATOM      9  C   UNL A   1      31.734  27.763  23.661  1.00  0.00     0.200 C 
ATOM     10  C   UNL A   1      30.338  27.261  23.234  1.00  0.00     0.087 C 
ATOM     11  C   UNL A   1      32.404  26.422  24.035  1.00  0.00     0.146 C 
ATOM     12  C   UNL A   1      29.981  26.171  24.235  1.00  0.00     0.072 C 
ATOM     13  C   UNL A   1      31.303  25.475  24.576  1.00  0.00     0.191 C 
BRANCH   9  14
ATOM     14  N   UNL A   1      32.332  28.384  22.441  1.00  0.00    -0.334 N 
ATOM     15  C   UNL A   1      33.777  28.541  22.456  1.00  0.00     0.331 C 
ATOM     16  H   UNL A   1      32.089  27.801  21.641  1.00  0.00     0.347 HD
ATOM     17  H   UNL A   1      31.952  29.330  22.397  1.00  0.00     0.347 HD
ENDBRANCH   9  14
BRANCH  13  18
ATOM     18  N   UNL A   1      31.510  24.926  25.925  1.00  0.00    -0.323 N 
ATOM     19  C   UNL A   1      32.867  24.429  26.212  1.00  0.00     0.324 C 
ATOM     20  C   UNL A   1      30.553  23.932  26.419  1.00  0.00     0.324 C 
ATOM     21  H   UNL A   1      31.339  25.788  26.442  1.00  0.00     0.348 HD
ATOM     22  C   UNL A   1      33.160  22.973  25.762  1.00  0.00     0.324 C 
ATOM     23  C   UNL A   1      30.751  22.512  25.868  1.00  0.00     0.324 C 
ATOM     24  N   UNL A   1      32.106  21.982  26.069  1.00  0.00    -0.328 N 
ATOM     25  C   UNL A   1      32.291  20.771  25.267  1.00  0.00     0.333 C 
ATOM     26  H   UNL A   1      32.201  21.757  27.060  1.00  0.00     0.348 HD
ENDBRANCH  13  18
ENDBRANCH   7   9
ENDBRANCH   6   7
ENDBRANCH   5   6
ENDBRANCH   4   5
ENDBRANCH   3   4
ENDBRANCH   2   3
ENDBRANCH   1   2
BRANCH   1  27
ATOM     27  O   UNL A   1      34.781  34.169  29.066  1.00  0.00    -0.376 OA
BRANCH  27  28
ATOM     28  C   UNL A   1      33.684  34.993  28.735  1.00  0.00     0.202 C 
BRANCH  28  29
ATOM     29  C   UNL A   1      32.932  35.879  29.739  1.00  0.00     0.261 C 
BRANCH  29  30
ATOM     30  O   UNL A   1      32.431  35.246  30.913  1.00  0.00    -0.460 OA
BRANCH  30  31
ATOM     31  C   UNL A   1      32.819  35.797  32.092  1.00  0.00     0.338 C 
ATOM     32  O   UNL A   1      32.234  36.628  32.753  1.00  0.00    -0.246 OA
BRANCH  31  33
ATOM     33  C   UNL A   1      33.988  35.014  32.560  1.00  0.00     0.060 A 
ATOM     34  C   UNL A   1      35.254  35.618  32.536  1.00  0.00     0.016 A 
ATOM     35  C   UNL A   1      33.819  33.739  33.104  1.00  0.00     0.016 A 
ATOM     36  C   UNL A   1      36.361  34.937  33.040  1.00  0.00     0.010 A 
ATOM     37  C   UNL A   1      34.931  33.047  33.583  1.00  0.00     0.010 A 
ATOM     38  C   UNL A   1      36.208  33.632  33.526  1.00  0.00    -0.014 A 
BRANCH  38  39
ATOM     39  C   UNL A   1      37.398  32.778  33.737  1.00  0.00     0.031 A 
ATOM     40  C   UNL A   1      38.203  33.008  34.986  1.00  0.00     0.074 A 
ATOM     41  C   UNL A   1      37.771  31.841  32.849  1.00  0.00     0.049 A 
ATOM     42  N   UNL A   1      39.323  32.453  35.366  1.00  0.00    -0.248 NA
ATOM     43  C   UNL A   1      37.669  34.007  35.929  1.00  0.00     0.031 C 
ATOM     44  C   UNL A   1      37.054  31.490  31.627  1.00  0.00     0.029 A 
ATOM     45  N   UNL A   1      38.872  31.020  32.846  1.00  0.00    -0.354 N 
ATOM     46  C   UNL A   1      39.630  33.038  36.588  1.00  0.00     0.074 A 
ATOM     47  C   UNL A   1      38.598  34.010  36.871  1.00  0.00     0.031 C 
ATOM     48  C   UNL A   1      37.743  30.530  30.980  1.00  0.00     0.029 A 
ATOM     49  C   UNL A   1      38.964  30.230  31.727  1.00  0.00     0.049 A 
ATOM     50  H   UNL A   1      39.531  31.000  33.576  1.00  0.00     0.167 HD
ATOM     51  C   UNL A   1      40.679  32.789  37.405  1.00  0.00     0.031 A 
ATOM     52  C   UNL A   1      39.939  29.382  31.343  1.00  0.00     0.031 A 
ATOM     53  C   UNL A   1      41.725  31.849  37.112  1.00  0.00     0.049 A 
ATOM     54  C   UNL A   1      41.150  29.194  32.224  1.00  0.00     0.074 A 
ATOM     55  C   UNL A   1      42.829  31.523  37.878  1.00  0.00     0.029 A 
ATOM     56  N   UNL A   1      41.801  31.097  35.951  1.00  0.00    -0.354 N 
ATOM     57  N   UNL A   1      41.417  29.728  33.392  1.00  0.00    -0.248 NA
ATOM     58  C   UNL A   1      42.191  28.280  31.732  1.00  0.00     0.031 C 
ATOM     59  C   UNL A   1      43.609  30.618  37.151  1.00  0.00     0.029 A 
ATOM     60  C   UNL A   1      42.953  30.328  35.966  1.00  0.00     0.049 A 
ATOM     61  H   UNL A   1      41.137  31.107  35.225  1.00  0.00     0.167 HD
ATOM     62  C   UNL A   1      42.637  29.188  33.788  1.00  0.00     0.074 A 
ATOM     63  C   UNL A   1      43.050  28.277  32.742  1.00  0.00     0.031 C 
ATOM     64  C   UNL A   1      43.348  29.422  34.918  1.00  0.00     0.031 A 
BRANCH  51  65
ATOM     65  C   UNL A   1      40.761  33.586  38.676  1.00  0.00    -0.014 A 
ATOM     66  C   UNL A   1      41.236  34.907  38.681  1.00  0.00     0.009 A 
ATOM     67  C   UNL A   1      40.347  33.007  39.885  1.00  0.00     0.009 A 
ATOM     68  C   UNL A   1      41.325  35.620  39.877  1.00  0.00     0.001 A 
ATOM     69  C   UNL A   1      40.409  33.733  41.075  1.00  0.00     0.001 A 
ATOM     70  C   UNL A   1      40.907  35.035  41.072  1.00  0.00     0.000 A 
ENDBRANCH  51  65
BRANCH  52  71
ATOM     71  C   UNL A   1      39.836  28.656  30.048  1.00  0.00    -0.014 A 
ATOM     72  C   UNL A   1      39.316  27.354  29.997  1.00  0.00     0.009 A 
ATOM     73  C   UNL A   1      40.300  29.246  28.862  1.00  0.00     0.009 A 
ATOM     74  C   UNL A   1      39.291  26.647  28.791  1.00  0.00     0.001 A 
ATOM     75  C   UNL A   1      40.244  28.550  27.652  1.00  0.00     0.001 A 
ATOM     76  C   UNL A   1      39.750  27.247  27.620  1.00  0.00     0.000 A 
ENDBRANCH  52  71
BRANCH  64  77
ATOM     77  C   UNL A   1      44.625  28.648  35.111  1.00  0.00    -0.014 A 
ATOM     78  C   UNL A   1      44.635  27.392  35.735  1.00  0.00     0.009 A 
ATOM     79  C   UNL A   1      45.830  29.167  34.610  1.00  0.00     0.009 A 
ATOM     80  C   UNL A   1      45.832  26.685  35.881  1.00  0.00     0.001 A 
ATOM     81  C   UNL A   1      47.018  28.445  34.728  1.00  0.00     0.001 A 
ATOM     82  C   UNL A   1      47.020  27.210  35.372  1.00  0.00     0.000 A 
ENDBRANCH  64  77
ENDBRANCH  38  39
ENDBRANCH  31  33
ENDBRANCH  30  31
ENDBRANCH  29  30
ENDBRANCH  28  29
ENDBRANCH  27  28
ENDBRANCH   1  27
TORSDOF 19
ENDMDL
MODEL 2
REMARK VINA RESULT:      -9.2      2.131      7.137
REMARK SMILES C[NH2+][C@@]1(C(=O)OCCOCCOCCOC(=O)c2ccc(-c3c4nc(c(-c5ccccc5)c5ccc([nH]5)c(-c5ccccc5)c5nc(c(-c6ccccc6)c6ccc3[nH]6)C=C5)C=C4)cc2)CC[C@H]([NH+]2CC[NH+](C)CC2)C1
REMARK SMILES IDX 11 1 10 2 9 3 8 4 7 5 6 6 4 7 5 8 3 9 66 10 76 11 67 12
REMARK SMILES IDX 68 13 2 14 1 15 69 18 70 19 75 20 71 22 74 23 72 24 73 25
REMARK SMILES IDX 12 27 13 28 14 29 15 30 16 31 17 32 18 33 19 34 65 35 20 36
REMARK SMILES IDX 64 37 21 38 22 39 23 40 58 41 24 42 63 43 57 44 59 45 25 46
REMARK SMILES IDX 62 47 56 48 55 49 26 51 48 52 33 53 47 54 34 55 37 56 46 57
REMARK SMILES IDX 60 58 35 59 36 60 45 62 61 63 38 64 27 65 28 66 32 67 29 68
REMARK SMILES IDX 31 69 30 70 49 71 50 72 54 73 51 74 53 75 52 76 39 77 40 78
REMARK SMILES IDX 44 79 41 80 43 81 42 82
REMARK H PARENT 2 16 2 17 69 21 72 26 59 50 37 61
REMARK Flexibility Score: inf
ROOT
ATOM      1  C   UNL A   1      30.077  29.756  23.774  1.00  0.00     0.188 C 
ENDROOT
BRANCH   1   2
ATOM      2  C   UNL A   1      30.526  28.826  22.650  1.00  0.00     0.188 C 
BRANCH   2   3
ATOM      3  O   UNL A   1      30.568  27.436  22.904  1.00  0.00    -0.376 OA
BRANCH   3   4
ATOM      4  C   UNL A   1      31.359  26.625  22.037  1.00  0.00     0.202 C 
BRANCH   4   5
ATOM      5  C   UNL A   1      31.502  25.133  22.378  1.00  0.00     0.261 C 
BRANCH   5   6
ATOM      6  O   UNL A   1      32.886  24.709  22.433  1.00  0.00    -0.459 OA
BRANCH   6   7
ATOM      7  C   UNL A   1      33.120  23.509  23.027  1.00  0.00     0.368 C 
ATOM      8  O   UNL A   1      32.864  22.439  22.478  1.00  0.00    -0.245 OA
BRANCH   7   9
ATOM      9  C   UNL A   1      33.859  23.590  24.413  1.00  0.00     0.200 C 
ATOM     10  C   UNL A   1      32.902  23.046  25.496  1.00  0.00     0.087 C 
ATOM     11  C   UNL A   1      34.216  24.961  25.027  1.00  0.00     0.146 C 
ATOM     12  C   UNL A   1      32.057  24.240  25.919  1.00  0.00     0.072 C 
ATOM     13  C   UNL A   1      32.988  25.454  25.835  1.00  0.00     0.191 C 
BRANCH   9  14
ATOM     14  N   UNL A   1      35.020  22.651  24.390  1.00  0.00    -0.334 N 
ATOM     15  C   UNL A   1      36.114  23.021  23.507  1.00  0.00     0.331 C 
ATOM     16  H   UNL A   1      35.391  22.587  25.338  1.00  0.00     0.347 HD
ATOM     17  H   UNL A   1      34.657  21.770  24.026  1.00  0.00     0.347 HD
ENDBRANCH   9  14
BRANCH  13  18
ATOM     18  N   UNL A   1      32.439  26.768  25.465  1.00  0.00    -0.323 N 
ATOM     19  C   UNL A   1      33.356  27.662  24.736  1.00  0.00     0.324 C 
ATOM     20  C   UNL A   1      31.775  27.557  26.507  1.00  0.00     0.324 C 
ATOM     21  H   UNL A   1      31.710  26.430  24.836  1.00  0.00     0.348 HD
ATOM     22  C   UNL A   1      34.317  28.504  25.617  1.00  0.00     0.324 C 
ATOM     23  C   UNL A   1      32.724  28.283  27.472  1.00  0.00     0.324 C 
ATOM     24  N   UNL A   1      33.706  29.145  26.800  1.00  0.00    -0.328 N 
ATOM     25  C   UNL A   1      34.740  29.557  27.752  1.00  0.00     0.333 C 
ATOM     26  H   UNL A   1      33.206  29.967  26.459  1.00  0.00     0.348 HD
ENDBRANCH  13  18
ENDBRANCH   7   9
ENDBRANCH   6   7
ENDBRANCH   5   6
ENDBRANCH   4   5
ENDBRANCH   3   4
ENDBRANCH   2   3
ENDBRANCH   1   2
BRANCH   1  27
ATOM     27  O   UNL A   1      30.966  30.214  24.758  1.00  0.00    -0.376 OA
BRANCH  27  28
ATOM     28  C   UNL A   1      30.819  31.458  25.409  1.00  0.00     0.202 C 
BRANCH  28  29
ATOM     29  C   UNL A   1      31.346  31.766  26.819  1.00  0.00     0.261 C 
BRANCH  29  30
ATOM     30  O   UNL A   1      32.705  32.182  26.925  1.00  0.00    -0.460 OA
BRANCH  30  31
ATOM     31  C   UNL A   1      32.918  33.325  27.628  1.00  0.00     0.338 C 
ATOM     32  O   UNL A   1      32.180  34.281  27.734  1.00  0.00    -0.246 OA
BRANCH  31  33
ATOM     33  C   UNL A   1      34.128  33.094  28.453  1.00  0.00     0.060 A 
ATOM     34  C   UNL A   1      35.365  33.545  27.970  1.00  0.00     0.016 A 
ATOM     35  C   UNL A   1      34.025  32.529  29.726  1.00  0.00     0.016 A 
ATOM     36  C   UNL A   1      36.510  33.413  28.755  1.00  0.00     0.010 A 
ATOM     37  C   UNL A   1      35.174  32.372  30.499  1.00  0.00     0.010 A 
ATOM     38  C   UNL A   1      36.423  32.786  30.005  1.00  0.00    -0.014 A 
BRANCH  38  39
ATOM     39  C   UNL A   1      37.653  32.329  30.690  1.00  0.00     0.031 A 
ATOM     40  C   UNL A   1      38.352  31.123  30.128  1.00  0.00     0.074 A 
ATOM     41  C   UNL A   1      38.130  32.945  31.785  1.00  0.00     0.049 A 
ATOM     42  N   UNL A   1      39.394  30.479  30.583  1.00  0.00    -0.248 NA
ATOM     43  C   UNL A   1      37.790  30.566  28.884  1.00  0.00     0.031 C 
ATOM     44  C   UNL A   1      37.573  34.146  32.400  1.00  0.00     0.029 A 
ATOM     45  N   UNL A   1      39.200  32.619  32.581  1.00  0.00    -0.354 N 
ATOM     46  C   UNL A   1      39.609  29.441  29.686  1.00  0.00     0.074 A 
ATOM     47  C   UNL A   1      38.575  29.521  28.680  1.00  0.00     0.031 C 
ATOM     48  C   UNL A   1      38.300  34.451  33.492  1.00  0.00     0.029 A 
ATOM     49  C   UNL A   1      39.347  33.445  33.668  1.00  0.00     0.049 A 
ATOM     50  H   UNL A   1      39.803  31.865  32.392  1.00  0.00     0.167 HD
ATOM     51  C   UNL A   1      40.583  28.502  29.697  1.00  0.00     0.031 A 
ATOM     52  C   UNL A   1      40.213  33.376  34.699  1.00  0.00     0.031 A 
ATOM     53  C   UNL A   1      41.592  28.399  30.714  1.00  0.00     0.049 A 
ATOM     54  C   UNL A   1      41.229  32.261  34.741  1.00  0.00     0.074 A 
ATOM     55  C   UNL A   1      42.624  27.484  30.812  1.00  0.00     0.029 A 
ATOM     56  N   UNL A   1      41.684  29.232  31.817  1.00  0.00    -0.354 N 
ATOM     57  N   UNL A   1      41.445  31.301  33.873  1.00  0.00    -0.248 NA
ATOM     58  C   UNL A   1      42.124  32.224  35.908  1.00  0.00     0.031 C 
ATOM     59  C   UNL A   1      43.304  27.725  32.010  1.00  0.00     0.029 A 
ATOM     60  C   UNL A   1      42.739  28.832  32.620  1.00  0.00     0.049 A 
ATOM     61  H   UNL A   1      41.088  29.993  32.003  1.00  0.00     0.167 HD
ATOM     62  C   UNL A   1      42.520  30.572  34.371  1.00  0.00     0.074 A 
ATOM     63  C   UNL A   1      42.918  31.207  35.610  1.00  0.00     0.031 C 
ATOM     64  C   UNL A   1      43.125  29.478  33.848  1.00  0.00     0.031 A 
BRANCH  51  65
ATOM     65  C   UNL A   1      40.567  27.486  28.590  1.00  0.00    -0.014 A 
ATOM     66  C   UNL A   1      39.880  26.269  28.726  1.00  0.00     0.009 A 
ATOM     67  C   UNL A   1      41.242  27.757  27.391  1.00  0.00     0.009 A 
ATOM     68  C   UNL A   1      39.898  25.330  27.694  1.00  0.00     0.001 A 
ATOM     69  C   UNL A   1      41.233  26.830  26.348  1.00  0.00     0.001 A 
ATOM     70  C   UNL A   1      40.569  25.613  26.504  1.00  0.00     0.000 A 
ENDBRANCH  51  65
BRANCH  52  71
ATOM     71  C   UNL A   1      40.154  34.376  35.799  1.00  0.00    -0.014 A 
ATOM     72  C   UNL A   1      40.926  35.547  35.744  1.00  0.00     0.009 A 
ATOM     73  C   UNL A   1      39.357  34.144  36.930  1.00  0.00     0.009 A 
ATOM     74  C   UNL A   1      40.925  36.447  36.814  1.00  0.00     0.001 A 
ATOM     75  C   UNL A   1      39.333  35.061  37.983  1.00  0.00     0.001 A 
ATOM     76  C   UNL A   1      40.126  36.206  37.929  1.00  0.00     0.000 A 
ENDBRANCH  52  71
BRANCH  64  77
ATOM     77  C   UNL A   1      44.315  28.920  34.583  1.00  0.00    -0.014 A 
ATOM     78  C   UNL A   1      45.613  29.398  34.349  1.00  0.00     0.009 A 
ATOM     79  C   UNL A   1      44.121  27.935  35.565  1.00  0.00     0.009 A 
ATOM     80  C   UNL A   1      46.697  28.877  35.063  1.00  0.00     0.001 A 
ATOM     81  C   UNL A   1      45.200  27.441  36.300  1.00  0.00     0.001 A 
ATOM     82  C   UNL A   1      46.487  27.905  36.040  1.00  0.00     0.000 A 
ENDBRANCH  64  77
ENDBRANCH  38  39
ENDBRANCH  31  33
ENDBRANCH  30  31
ENDBRANCH  29  30
ENDBRANCH  28  29
ENDBRANCH  27  28
ENDBRANCH   1  27
TORSDOF 19
ENDMDL
MODEL 3
REMARK VINA RESULT:      -9.2      2.043      3.009
REMARK SMILES C[NH2+][C@@]1(C(=O)OCCOCCOCCOC(=O)c2ccc(-c3c4nc(c(-c5ccccc5)c5ccc([nH]5)c(-c5ccccc5)c5nc(c(-c6ccccc6)c6ccc3[nH]6)C=C5)C=C4)cc2)CC[C@H]([NH+]2CC[NH+](C)CC2)C1
REMARK SMILES IDX 11 1 10 2 9 3 8 4 7 5 6 6 4 7 5 8 3 9 66 10 76 11 67 12
REMARK SMILES IDX 68 13 2 14 1 15 69 18 70 19 75 20 71 22 74 23 72 24 73 25
REMARK SMILES IDX 12 27 13 28 14 29 15 30 16 31 17 32 18 33 19 34 65 35 20 36
REMARK SMILES IDX 64 37 21 38 22 39 23 40 58 41 24 42 63 43 57 44 59 45 25 46
REMARK SMILES IDX 62 47 56 48 55 49 26 51 48 52 33 53 47 54 34 55 37 56 46 57
REMARK SMILES IDX 60 58 35 59 36 60 45 62 61 63 38 64 27 65 28 66 32 67 29 68
REMARK SMILES IDX 31 69 30 70 49 71 50 72 54 73 51 74 53 75 52 76 39 77 40 78
REMARK SMILES IDX 44 79 41 80 43 81 42 82
REMARK H PARENT 2 16 2 17 69 21 72 26 59 50 37 61
REMARK Flexibility Score: inf
ROOT
ATOM      1  C   UNL A   1      32.857  30.454  26.966  1.00  0.00     0.188 C 
ENDROOT
BRANCH   1   2
ATOM      2  C   UNL A   1      32.884  28.947  27.210  1.00  0.00     0.188 C 
BRANCH   2   3
ATOM      3  O   UNL A   1      33.898  28.184  26.587  1.00  0.00    -0.376 OA
BRANCH   3   4
ATOM      4  C   UNL A   1      33.555  26.885  26.110  1.00  0.00     0.202 C 
BRANCH   4   5
ATOM      5  C   UNL A   1      32.127  26.663  25.585  1.00  0.00     0.261 C 
BRANCH   5   6
ATOM      6  O   UNL A   1      31.964  25.370  24.954  1.00  0.00    -0.459 OA
BRANCH   6   7
ATOM      7  C   UNL A   1      31.792  25.381  23.606  1.00  0.00     0.368 C 
ATOM      8  O   UNL A   1      30.758  25.782  23.075  1.00  0.00    -0.245 OA
BRANCH   7   9
ATOM      9  C   UNL A   1      33.060  24.966  22.774  1.00  0.00     0.200 C 
ATOM     10  C   UNL A   1      32.704  23.702  21.962  1.00  0.00     0.087 C 
ATOM     11  C   UNL A   1      34.338  24.478  23.492  1.00  0.00     0.146 C 
ATOM     12  C   UNL A   1      32.982  22.534  22.898  1.00  0.00     0.072 C 
ATOM     13  C   UNL A   1      34.196  22.954  23.733  1.00  0.00     0.191 C 
BRANCH   9  14
ATOM     14  N   UNL A   1      33.339  26.031  21.765  1.00  0.00    -0.334 N 
ATOM     15  C   UNL A   1      33.665  27.341  22.303  1.00  0.00     0.331 C 
ATOM     16  H   UNL A   1      34.126  25.723  21.193  1.00  0.00     0.347 HD
ATOM     17  H   UNL A   1      32.470  26.154  21.244  1.00  0.00     0.347 HD
ENDBRANCH   9  14
BRANCH  13  18
ATOM     18  N   UNL A   1      34.316  22.492  25.125  1.00  0.00    -0.323 N 
ATOM     19  C   UNL A   1      35.009  23.411  26.045  1.00  0.00     0.324 C 
ATOM     20  C   UNL A   1      34.836  21.142  25.361  1.00  0.00     0.324 C 
ATOM     21  H   UNL A   1      33.320  22.471  25.340  1.00  0.00     0.348 HD
ATOM     22  C   UNL A   1      36.558  23.309  26.058  1.00  0.00     0.324 C 
ATOM     23  C   UNL A   1      36.360  21.003  25.238  1.00  0.00     0.324 C 
ATOM     24  N   UNL A   1      37.111  21.938  26.087  1.00  0.00    -0.328 N 
ATOM     25  C   UNL A   1      38.521  21.945  25.695  1.00  0.00     0.333 C 
ATOM     26  H   UNL A   1      37.023  21.610  27.050  1.00  0.00     0.348 HD
ENDBRANCH  13  18
ENDBRANCH   7   9
ENDBRANCH   6   7
ENDBRANCH   5   6
ENDBRANCH   4   5
ENDBRANCH   3   4
ENDBRANCH   2   3
ENDBRANCH   1   2
BRANCH   1  27
ATOM     27  O   UNL A   1      31.673  31.131  26.638  1.00  0.00    -0.376 OA
BRANCH  27  28
ATOM     28  C   UNL A   1      31.564  32.539  26.643  1.00  0.00     0.202 C 
BRANCH  28  29
ATOM     29  C   UNL A   1      32.613  33.487  27.242  1.00  0.00     0.261 C 
BRANCH  29  30
ATOM     30  O   UNL A   1      32.222  34.245  28.384  1.00  0.00    -0.460 OA
BRANCH  30  31
ATOM     31  C   UNL A   1      33.056  35.261  28.729  1.00  0.00     0.338 C 
ATOM     32  O   UNL A   1      32.834  36.452  28.685  1.00  0.00    -0.246 OA
BRANCH  31  33
ATOM     33  C   UNL A   1      34.217  34.642  29.412  1.00  0.00     0.060 A 
ATOM     34  C   UNL A   1      35.414  34.490  28.695  1.00  0.00     0.016 A 
ATOM     35  C   UNL A   1      34.152  34.306  30.766  1.00  0.00     0.016 A 
ATOM     36  C   UNL A   1      36.546  33.982  29.330  1.00  0.00     0.010 A 
ATOM     37  C   UNL A   1      35.277  33.773  31.393  1.00  0.00     0.010 A 
ATOM     38  C   UNL A   1      36.468  33.582  30.671  1.00  0.00    -0.014 A 
BRANCH  38  39
ATOM     39  C   UNL A   1      37.532  32.735  31.253  1.00  0.00     0.031 A 
ATOM     40  C   UNL A   1      38.101  33.153  32.580  1.00  0.00     0.074 A 
ATOM     41  C   UNL A   1      37.998  31.642  30.626  1.00  0.00     0.049 A 
ATOM     42  N   UNL A   1      39.088  32.633  33.262  1.00  0.00    -0.248 NA
ATOM     43  C   UNL A   1      37.472  34.323  33.219  1.00  0.00     0.031 C 
ATOM     44  C   UNL A   1      37.501  31.107  29.361  1.00  0.00     0.029 A 
ATOM     45  N   UNL A   1      39.018  30.793  30.978  1.00  0.00    -0.354 N 
ATOM     46  C   UNL A   1      39.200  33.413  34.406  1.00  0.00     0.074 A 
ATOM     47  C   UNL A   1      38.205  34.458  34.312  1.00  0.00     0.031 C 
ATOM     48  C   UNL A   1      38.229  30.023  29.034  1.00  0.00     0.029 A 
ATOM     49  C   UNL A   1      39.263  29.814  30.047  1.00  0.00     0.049 A 
ATOM     50  H   UNL A   1      39.525  30.878  31.817  1.00  0.00     0.167 HD
ATOM     51  C   UNL A   1      40.055  33.274  35.444  1.00  0.00     0.031 A 
ATOM     52  C   UNL A   1      40.230  28.876  30.010  1.00  0.00     0.031 A 
ATOM     53  C   UNL A   1      41.067  32.258  35.524  1.00  0.00     0.049 A 
ATOM     54  C   UNL A   1      41.236  28.801  31.132  1.00  0.00     0.074 A 
ATOM     55  C   UNL A   1      41.981  32.033  36.537  1.00  0.00     0.029 A 
ATOM     56  N   UNL A   1      41.307  31.310  34.544  1.00  0.00    -0.354 N 
ATOM     57  N   UNL A   1      41.316  29.524  32.224  1.00  0.00    -0.248 NA
ATOM     58  C   UNL A   1      42.283  27.776  31.016  1.00  0.00     0.031 C 
ATOM     59  C   UNL A   1      42.817  30.984  36.140  1.00  0.00     0.029 A 
ATOM     60  C   UNL A   1      42.378  30.513  34.914  1.00  0.00     0.049 A 
ATOM     61  H   UNL A   1      40.794  31.216  33.709  1.00  0.00     0.167 HD
ATOM     62  C   UNL A   1      42.397  29.017  32.938  1.00  0.00     0.074 A 
ATOM     63  C   UNL A   1      42.934  27.920  32.162  1.00  0.00     0.031 C 
ATOM     64  C   UNL A   1      42.898  29.421  34.131  1.00  0.00     0.031 A 
BRANCH  51  65
ATOM     65  C   UNL A   1      39.953  34.280  36.555  1.00  0.00    -0.014 A 
ATOM     66  C   UNL A   1      40.599  35.525  36.476  1.00  0.00     0.009 A 
ATOM     67  C   UNL A   1      39.189  33.981  37.693  1.00  0.00     0.009 A 
ATOM     68  C   UNL A   1      40.509  36.434  37.530  1.00  0.00     0.001 A 
ATOM     69  C   UNL A   1      39.076  34.905  38.733  1.00  0.00     0.001 A 
ATOM     70  C   UNL A   1      39.744  36.126  38.655  1.00  0.00     0.000 A 
ENDBRANCH  51  65
BRANCH  52  71
ATOM     71  C   UNL A   1      40.321  27.936  28.860  1.00  0.00    -0.014 A 
ATOM     72  C   UNL A   1      40.957  28.320  27.670  1.00  0.00     0.009 A 
ATOM     73  C   UNL A   1      39.734  26.663  28.932  1.00  0.00     0.009 A 
ATOM     74  C   UNL A   1      40.976  27.462  26.566  1.00  0.00     0.001 A 
ATOM     75  C   UNL A   1      39.781  25.795  27.839  1.00  0.00     0.001 A 
ATOM     76  C   UNL A   1      40.392  26.200  26.653  1.00  0.00     0.000 A 
ENDBRANCH  52  71
BRANCH  64  77
ATOM     77  C   UNL A   1      44.057  28.646  34.700  1.00  0.00    -0.014 A 
ATOM     78  C   UNL A   1      45.385  29.029  34.460  1.00  0.00     0.009 A 
ATOM     79  C   UNL A   1      43.808  27.545  35.535  1.00  0.00     0.009 A 
ATOM     80  C   UNL A   1      46.440  28.304  35.020  1.00  0.00     0.001 A 
ATOM     81  C   UNL A   1      44.862  26.843  36.119  1.00  0.00     0.001 A 
ATOM     82  C   UNL A   1      46.178  27.216  35.852  1.00  0.00     0.000 A 
ENDBRANCH  64  77
ENDBRANCH  38  39
ENDBRANCH  31  33
ENDBRANCH  30  31
ENDBRANCH  29  30
ENDBRANCH  28  29
ENDBRANCH  27  28
ENDBRANCH   1  27
TORSDOF 19
ENDMDL
