MODEL 1
REMARK VINA RESULT:      -9.9      0.000      0.000
REMARK SMILES O=C(N[C@@H](Cc1c[nH]c2ccccc12)C(=O)N[C@@H](CO)C(=O)OCCOCCOCCOC(=O)c1ccc(-c2c3nc(c(-c4ccccc4)c4ccc([nH]4)c(-c4ccccc4)c4nc(c(-c5ccccc5)c5ccc2[nH]5)C=C4)C=C3)cc1)c1ccc(F)cc1
REMARK SMILES IDX 27 1 26 2 25 3 24 4 23 5 21 6 22 7 18 8 17 9 15 10 16 11
REMARK SMILES IDX 4 13 3 14 1 15 2 16 83 18 84 19 89 20 85 21 88 22 86 23
REMARK SMILES IDX 87 24 5 25 6 26 7 27 14 28 8 29 9 30 13 31 10 33 12 34 11 35
REMARK SMILES IDX 19 36 20 37 28 39 29 40 30 41 31 42 32 43 33 44 34 45 35 46
REMARK SMILES IDX 36 47 82 48 37 49 81 50 38 51 39 52 40 53 75 54 41 55 80 56
REMARK SMILES IDX 74 57 76 58 42 59 79 60 73 61 72 62 43 64 65 65 50 66 64 67
REMARK SMILES IDX 51 68 54 69 63 70 77 71 52 72 53 73 62 75 78 76 55 77 44 78
REMARK SMILES IDX 45 79 49 80 46 81 48 82 47 83 66 84 67 85 71 86 68 87 70 88
REMARK SMILES IDX 69 89 56 90 57 91 61 92 58 93 60 94 59 95
REMARK H PARENT 17 12 3 17 8 32 20 38 76 63 54 74
REMARK Flexibility Score: inf
ROOT
ATOM      1  C   UNL A   1      35.831  29.830  28.190  1.00  0.00     0.188 C 
ENDROOT
BRANCH   1   2
ATOM      2  O   UNL A   1      35.346  29.046  27.090  1.00  0.00    -0.376 OA
BRANCH   2   3
ATOM      3  C   UNL A   1      33.966  29.047  26.700  1.00  0.00     0.202 C 
BRANCH   3   4
ATOM      4  C   UNL A   1      33.508  27.612  26.148  1.00  0.00     0.261 C 
BRANCH   4   5
ATOM      5  O   UNL A   1      32.903  27.538  24.777  1.00  0.00    -0.462 OA
BRANCH   5   6
ATOM      6  C   UNL A   1      31.550  27.290  24.663  1.00  0.00     0.331 C 
ATOM      7  O   UNL A   1      30.716  28.178  24.858  1.00  0.00    -0.250 OA
BRANCH   6   8
ATOM      8  C   UNL A   1      31.053  25.812  24.214  1.00  0.00     0.218 C 
BRANCH   8   9
ATOM      9  N   UNL A   1      30.985  24.617  25.100  1.00  0.00    -0.339 N 
ATOM     10  C   UNL A   1      31.120  23.260  25.005  1.00  0.00     0.243 C 
ATOM     11  O   UNL A   1      30.532  22.686  25.949  1.00  0.00    -0.273 OA
ATOM     12  H   UNL A   1      30.782  24.882  26.025  1.00  0.00     0.164 HD
BRANCH  10  13
ATOM     13  C   UNL A   1      31.853  22.265  23.940  1.00  0.00     0.176 C 
BRANCH  13  14
ATOM     14  N   UNL A   1      32.271  22.790  22.638  1.00  0.00    -0.340 N 
ATOM     15  O   UNL A   1      33.519  24.173  21.358  1.00  0.00    -0.269 OA
ATOM     16  C   UNL A   1      33.434  23.512  22.389  1.00  0.00     0.251 C 
ATOM     17  H   UNL A   1      31.677  22.619  21.873  1.00  0.00     0.164 HD
BRANCH  16  18
ATOM     18  C   UNL A   1      34.555  23.588  23.391  1.00  0.00     0.040 A 
ATOM     19  C   UNL A   1      34.475  24.367  24.555  1.00  0.00     0.017 A 
ATOM     20  C   UNL A   1      35.724  22.843  23.153  1.00  0.00     0.017 A 
ATOM     21  C   UNL A   1      35.567  24.453  25.428  1.00  0.00     0.040 A 
ATOM     22  C   UNL A   1      36.806  22.911  24.042  1.00  0.00     0.040 A 
ATOM     23  C   UNL A   1      36.720  23.723  25.167  1.00  0.00     0.123 A 
ATOM     24  F   UNL A   1      37.756  23.795  26.015  1.00  0.00    -0.207 F 
ENDBRANCH  16  18
ENDBRANCH  13  14
BRANCH  13  25
ATOM     25  C   UNL A   1      32.745  21.027  24.297  1.00  0.00     0.072 C 
BRANCH  25  26
ATOM     26  C   UNL A   1      32.395  19.837  23.545  1.00  0.00    -0.020 A 
ATOM     27  C   UNL A   1      32.124  19.673  22.204  1.00  0.00     0.087 A 
ATOM     28  C   UNL A   1      32.520  18.591  24.166  1.00  0.00     0.003 A 
ATOM     29  N   UNL A   1      32.257  18.335  21.953  1.00  0.00    -0.361 N 
ATOM     30  C   UNL A   1      32.662  17.726  23.113  1.00  0.00     0.046 A 
ATOM     31  C   UNL A   1      32.844  18.216  25.491  1.00  0.00     0.010 A 
ATOM     32  H   UNL A   1      32.092  17.888  21.091  1.00  0.00     0.166 HD
ATOM     33  C   UNL A   1      33.302  16.540  23.322  1.00  0.00     0.026 A 
ATOM     34  C   UNL A   1      33.447  17.007  25.725  1.00  0.00     0.001 A 
ATOM     35  C   UNL A   1      33.732  16.229  24.633  1.00  0.00     0.002 A 
ENDBRANCH  25  26
ENDBRANCH  13  25
ENDBRANCH  10  13
ENDBRANCH   8   9
BRANCH   8  36
ATOM     36  C   UNL A   1      29.627  26.027  23.657  1.00  0.00     0.193 C 
BRANCH  36  37
ATOM     37  O   UNL A   1      28.650  25.941  24.700  1.00  0.00    -0.394 OA
ATOM     38  H   UNL A   1      27.836  25.545  24.349  1.00  0.00     0.210 HD
ENDBRANCH  36  37
ENDBRANCH   8  36
ENDBRANCH   6   8
ENDBRANCH   5   6
ENDBRANCH   4   5
ENDBRANCH   3   4
ENDBRANCH   2   3
ENDBRANCH   1   2
BRANCH   1  39
ATOM     39  C   UNL A   1      35.645  31.372  28.256  1.00  0.00     0.188 C 
BRANCH  39  40
ATOM     40  O   UNL A   1      34.323  31.757  28.632  1.00  0.00    -0.376 OA
BRANCH  40  41
ATOM     41  C   UNL A   1      34.226  33.083  29.156  1.00  0.00     0.202 C 
BRANCH  41  42
ATOM     42  C   UNL A   1      35.003  33.378  30.452  1.00  0.00     0.261 C 
BRANCH  42  43
ATOM     43  O   UNL A   1      34.601  32.544  31.551  1.00  0.00    -0.460 OA
BRANCH  43  44
ATOM     44  C   UNL A   1      35.567  31.690  31.997  1.00  0.00     0.338 C 
ATOM     45  O   UNL A   1      35.754  30.549  31.647  1.00  0.00    -0.246 OA
BRANCH  44  46
ATOM     46  C   UNL A   1      36.467  32.393  32.944  1.00  0.00     0.060 A 
ATOM     47  C   UNL A   1      37.657  31.750  33.290  1.00  0.00     0.016 A 
ATOM     48  C   UNL A   1      36.153  33.614  33.535  1.00  0.00     0.016 A 
ATOM     49  C   UNL A   1      38.593  32.342  34.128  1.00  0.00     0.010 A 
ATOM     50  C   UNL A   1      37.052  34.181  34.448  1.00  0.00     0.010 A 
ATOM     51  C   UNL A   1      38.277  33.551  34.739  1.00  0.00    -0.014 A 
BRANCH  51  52
ATOM     52  C   UNL A   1      39.115  34.035  35.854  1.00  0.00     0.031 A 
ATOM     53  C   UNL A   1      38.657  33.734  37.247  1.00  0.00     0.074 A 
ATOM     54  C   UNL A   1      40.264  34.698  35.645  1.00  0.00     0.049 A 
ATOM     55  N   UNL A   1      39.042  34.258  38.380  1.00  0.00    -0.248 NA
ATOM     56  C   UNL A   1      37.617  32.699  37.376  1.00  0.00     0.031 C 
ATOM     57  C   UNL A   1      40.907  34.905  34.348  1.00  0.00     0.029 A 
ATOM     58  N   UNL A   1      41.086  35.334  36.539  1.00  0.00    -0.354 N 
ATOM     59  C   UNL A   1      38.254  33.654  39.350  1.00  0.00     0.074 A 
ATOM     60  C   UNL A   1      37.382  32.718  38.678  1.00  0.00     0.031 C 
ATOM     61  C   UNL A   1      42.014  35.649  34.529  1.00  0.00     0.029 A 
ATOM     62  C   UNL A   1      42.110  36.024  35.939  1.00  0.00     0.049 A 
ATOM     63  H   UNL A   1      40.955  35.299  37.514  1.00  0.00     0.167 HD
ATOM     64  C   UNL A   1      38.248  33.882  40.684  1.00  0.00     0.031 A 
ATOM     65  C   UNL A   1      42.980  36.906  36.468  1.00  0.00     0.031 A 
ATOM     66  C   UNL A   1      39.119  34.822  41.334  1.00  0.00     0.049 A 
ATOM     67  C   UNL A   1      42.870  37.253  37.931  1.00  0.00     0.074 A 
ATOM     68  C   UNL A   1      39.168  35.178  42.669  1.00  0.00     0.029 A 
ATOM     69  N   UNL A   1      40.101  35.554  40.684  1.00  0.00    -0.354 N 
ATOM     70  N   UNL A   1      42.059  36.765  38.841  1.00  0.00    -0.248 NA
ATOM     71  C   UNL A   1      43.784  38.289  38.437  1.00  0.00     0.031 C 
ATOM     72  C   UNL A   1      40.152  36.160  42.818  1.00  0.00     0.029 A 
ATOM     73  C   UNL A   1      40.755  36.370  41.587  1.00  0.00     0.049 A 
ATOM     74  H   UNL A   1      40.303  35.499  39.721  1.00  0.00     0.167 HD
ATOM     75  C   UNL A   1      42.388  37.406  40.028  1.00  0.00     0.074 A 
ATOM     76  C   UNL A   1      43.473  38.318  39.725  1.00  0.00     0.031 C 
ATOM     77  C   UNL A   1      41.845  37.254  41.261  1.00  0.00     0.031 A 
BRANCH  64  78
ATOM     78  C   UNL A   1      37.209  33.162  41.493  1.00  0.00    -0.014 A 
ATOM     79  C   UNL A   1      35.927  33.694  41.693  1.00  0.00     0.009 A 
ATOM     80  C   UNL A   1      37.536  31.934  42.091  1.00  0.00     0.009 A 
ATOM     81  C   UNL A   1      35.007  33.033  42.510  1.00  0.00     0.001 A 
ATOM     82  C   UNL A   1      36.605  31.260  42.881  1.00  0.00     0.001 A 
ATOM     83  C   UNL A   1      35.346  31.816  43.101  1.00  0.00     0.000 A 
ENDBRANCH  64  78
BRANCH  65  84
ATOM     84  C   UNL A   1      43.988  37.579  35.605  1.00  0.00    -0.014 A 
ATOM     85  C   UNL A   1      45.286  37.062  35.488  1.00  0.00     0.009 A 
ATOM     86  C   UNL A   1      43.665  38.759  34.914  1.00  0.00     0.009 A 
ATOM     87  C   UNL A   1      46.246  37.724  34.717  1.00  0.00     0.001 A 
ATOM     88  C   UNL A   1      44.617  39.401  34.120  1.00  0.00     0.001 A 
ATOM     89  C   UNL A   1      45.910  38.889  34.030  1.00  0.00     0.000 A 
ENDBRANCH  65  84
BRANCH  77  90
ATOM     90  C   UNL A   1      42.456  38.035  42.391  1.00  0.00    -0.014 A 
ATOM     91  C   UNL A   1      43.544  37.539  43.123  1.00  0.00     0.009 A 
ATOM     92  C   UNL A   1      41.972  39.323  42.674  1.00  0.00     0.009 A 
ATOM     93  C   UNL A   1      44.121  38.312  44.134  1.00  0.00     0.001 A 
ATOM     94  C   UNL A   1      42.569  40.103  43.664  1.00  0.00     0.001 A 
ATOM     95  C   UNL A   1      43.638  39.594  44.397  1.00  0.00     0.000 A 
ENDBRANCH  77  90
ENDBRANCH  51  52
ENDBRANCH  44  46
ENDBRANCH  43  44
ENDBRANCH  42  43
ENDBRANCH  41  42
ENDBRANCH  40  41
ENDBRANCH  39  40
ENDBRANCH   1  39
TORSDOF 25
ENDMDL
MODEL 2
REMARK VINA RESULT:      -9.7      1.520      5.710
REMARK SMILES O=C(N[C@@H](Cc1c[nH]c2ccccc12)C(=O)N[C@@H](CO)C(=O)OCCOCCOCCOC(=O)c1ccc(-c2c3nc(c(-c4ccccc4)c4ccc([nH]4)c(-c4ccccc4)c4nc(c(-c5ccccc5)c5ccc2[nH]5)C=C4)C=C3)cc1)c1ccc(F)cc1
REMARK SMILES IDX 27 1 26 2 25 3 24 4 23 5 21 6 22 7 18 8 17 9 15 10 16 11
REMARK SMILES IDX 4 13 3 14 1 15 2 16 83 18 84 19 89 20 85 21 88 22 86 23
REMARK SMILES IDX 87 24 5 25 6 26 7 27 14 28 8 29 9 30 13 31 10 33 12 34 11 35
REMARK SMILES IDX 19 36 20 37 28 39 29 40 30 41 31 42 32 43 33 44 34 45 35 46
REMARK SMILES IDX 36 47 82 48 37 49 81 50 38 51 39 52 40 53 75 54 41 55 80 56
REMARK SMILES IDX 74 57 76 58 42 59 79 60 73 61 72 62 43 64 65 65 50 66 64 67
REMARK SMILES IDX 51 68 54 69 63 70 77 71 52 72 53 73 62 75 78 76 55 77 44 78
REMARK SMILES IDX 45 79 49 80 46 81 48 82 47 83 66 84 67 85 71 86 68 87 70 88
REMARK SMILES IDX 69 89 56 90 57 91 61 92 58 93 60 94 59 95
REMARK H PARENT 17 12 3 17 8 32 20 38 76 63 54 74
REMARK Flexibility Score: inf
ROOT
ATOM      1  C   UNL A   1      35.950  29.747  28.440  1.00  0.00     0.188 C 
ENDROOT
BRANCH   1   2
ATOM      2  O   UNL A   1      35.496  29.109  27.237  1.00  0.00    -0.376 OA
BRANCH   2   3
ATOM      3  C   UNL A   1      34.139  29.210  26.785  1.00  0.00     0.202 C 
BRANCH   3   4
ATOM      4  C   UNL A   1      33.597  27.806  26.228  1.00  0.00     0.261 C 
BRANCH   4   5
ATOM      5  O   UNL A   1      32.993  27.772  24.856  1.00  0.00    -0.462 OA
BRANCH   5   6
ATOM      6  C   UNL A   1      31.651  27.471  24.730  1.00  0.00     0.331 C 
ATOM      7  O   UNL A   1      30.781  28.322  24.928  1.00  0.00    -0.250 OA
BRANCH   6   8
ATOM      8  C   UNL A   1      31.217  25.979  24.263  1.00  0.00     0.218 C 
BRANCH   8   9
ATOM      9  N   UNL A   1      31.069  24.800  25.163  1.00  0.00    -0.339 N 
ATOM     10  C   UNL A   1      31.119  23.437  25.085  1.00  0.00     0.243 C 
ATOM     11  O   UNL A   1      30.492  22.912  26.031  1.00  0.00    -0.273 OA
ATOM     12  H   UNL A   1      30.879  25.088  26.084  1.00  0.00     0.164 HD
BRANCH  10  13
ATOM     13  C   UNL A   1      31.793  22.385  24.035  1.00  0.00     0.176 C 
BRANCH  13  14
ATOM     14  N   UNL A   1      32.205  22.858  22.711  1.00  0.00    -0.340 N 
ATOM     15  O   UNL A   1      33.477  24.160  21.369  1.00  0.00    -0.269 OA
ATOM     16  C   UNL A   1      33.388  23.532  22.421  1.00  0.00     0.251 C 
ATOM     17  H   UNL A   1      31.592  22.685  21.961  1.00  0.00     0.164 HD
BRANCH  16  18
ATOM     18  C   UNL A   1      34.528  23.598  23.401  1.00  0.00     0.040 A 
ATOM     19  C   UNL A   1      34.521  24.458  24.510  1.00  0.00     0.017 A 
ATOM     20  C   UNL A   1      35.640  22.760  23.200  1.00  0.00     0.017 A 
ATOM     21  C   UNL A   1      35.631  24.527  25.362  1.00  0.00     0.040 A 
ATOM     22  C   UNL A   1      36.738  22.813  24.070  1.00  0.00     0.040 A 
ATOM     23  C   UNL A   1      36.727  23.703  25.137  1.00  0.00     0.123 A 
ATOM     24  F   UNL A   1      37.779  23.761  25.965  1.00  0.00    -0.207 F 
ENDBRANCH  16  18
ENDBRANCH  13  14
BRANCH  13  25
ATOM     25  C   UNL A   1      32.643  21.124  24.409  1.00  0.00     0.072 C 
BRANCH  25  26
ATOM     26  C   UNL A   1      32.343  19.969  23.584  1.00  0.00    -0.020 A 
ATOM     27  C   UNL A   1      32.090  19.876  22.233  1.00  0.00     0.087 A 
ATOM     28  C   UNL A   1      32.511  18.694  24.131  1.00  0.00     0.003 A 
ATOM     29  N   UNL A   1      32.275  18.561  21.904  1.00  0.00    -0.361 N 
ATOM     30  C   UNL A   1      32.693  17.900  23.029  1.00  0.00     0.046 A 
ATOM     31  C   UNL A   1      32.838  18.252  25.434  1.00  0.00     0.010 A 
ATOM     32  H   UNL A   1      32.133  18.161  21.015  1.00  0.00     0.166 HD
ATOM     33  C   UNL A   1      33.375  16.727  23.173  1.00  0.00     0.026 A 
ATOM     34  C   UNL A   1      33.484  17.054  25.602  1.00  0.00     0.001 A 
ATOM     35  C   UNL A   1      33.806  16.354  24.468  1.00  0.00     0.002 A 
ENDBRANCH  25  26
ENDBRANCH  13  25
ENDBRANCH  10  13
ENDBRANCH   8   9
BRANCH   8  36
ATOM     36  C   UNL A   1      29.854  26.166  23.559  1.00  0.00     0.193 C 
BRANCH  36  37
ATOM     37  O   UNL A   1      28.780  26.155  24.507  1.00  0.00    -0.394 OA
ATOM     38  H   UNL A   1      27.999  25.743  24.106  1.00  0.00     0.210 HD
ENDBRANCH  36  37
ENDBRANCH   8  36
ENDBRANCH   6   8
ENDBRANCH   5   6
ENDBRANCH   4   5
ENDBRANCH   3   4
ENDBRANCH   2   3
ENDBRANCH   1   2
BRANCH   1  39
ATOM     39  C   UNL A   1      35.856  31.284  28.652  1.00  0.00     0.188 C 
BRANCH  39  40
ATOM     40  O   UNL A   1      34.549  31.714  29.030  1.00  0.00    -0.376 OA
BRANCH  40  41
ATOM     41  C   UNL A   1      34.483  33.073  29.469  1.00  0.00     0.202 C 
BRANCH  41  42
ATOM     42  C   UNL A   1      35.281  33.435  30.734  1.00  0.00     0.261 C 
BRANCH  42  43
ATOM     43  O   UNL A   1      34.804  32.763  31.912  1.00  0.00    -0.460 OA
BRANCH  43  44
ATOM     44  C   UNL A   1      35.661  31.828  32.416  1.00  0.00     0.338 C 
ATOM     45  O   UNL A   1      35.796  30.685  32.047  1.00  0.00    -0.246 OA
BRANCH  44  46
ATOM     46  C   UNL A   1      36.517  32.437  33.463  1.00  0.00     0.060 A 
ATOM     47  C   UNL A   1      37.704  31.774  33.783  1.00  0.00     0.016 A 
ATOM     48  C   UNL A   1      36.165  33.585  34.167  1.00  0.00     0.016 A 
ATOM     49  C   UNL A   1      38.601  32.285  34.710  1.00  0.00     0.010 A 
ATOM     50  C   UNL A   1      37.023  34.063  35.166  1.00  0.00     0.010 A 
ATOM     51  C   UNL A   1      38.247  33.419  35.434  1.00  0.00    -0.014 A 
BRANCH  51  52
ATOM     52  C   UNL A   1      39.038  33.793  36.622  1.00  0.00     0.031 A 
ATOM     53  C   UNL A   1      40.218  34.691  36.416  1.00  0.00     0.074 A 
ATOM     54  C   UNL A   1      38.710  33.375  37.855  1.00  0.00     0.049 A 
ATOM     55  N   UNL A   1      41.216  34.949  37.217  1.00  0.00    -0.248 NA
ATOM     56  C   UNL A   1      40.276  35.393  35.122  1.00  0.00     0.031 C 
ATOM     57  C   UNL A   1      37.496  32.644  38.215  1.00  0.00     0.029 A 
ATOM     58  N   UNL A   1      39.394  33.503  39.037  1.00  0.00    -0.354 N 
ATOM     59  C   UNL A   1      42.049  35.801  36.504  1.00  0.00     0.074 A 
ATOM     60  C   UNL A   1      41.434  36.027  35.215  1.00  0.00     0.031 C 
ATOM     61  C   UNL A   1      37.537  32.360  39.530  1.00  0.00     0.029 A 
ATOM     62  C   UNL A   1      38.809  32.828  40.079  1.00  0.00     0.049 A 
ATOM     63  H   UNL A   1      40.222  34.027  39.129  1.00  0.00     0.167 HD
ATOM     64  C   UNL A   1      43.234  36.328  36.888  1.00  0.00     0.031 A 
ATOM     65  C   UNL A   1      39.283  32.569  41.313  1.00  0.00     0.031 A 
ATOM     66  C   UNL A   1      43.833  36.087  38.172  1.00  0.00     0.049 A 
ATOM     67  C   UNL A   1      40.667  33.047  41.679  1.00  0.00     0.074 A 
ATOM     68  C   UNL A   1      45.053  36.521  38.654  1.00  0.00     0.029 A 
ATOM     69  N   UNL A   1      43.241  35.342  39.181  1.00  0.00    -0.354 N 
ATOM     70  N   UNL A   1      41.508  33.767  40.974  1.00  0.00    -0.248 NA
ATOM     71  C   UNL A   1      41.173  32.658  43.004  1.00  0.00     0.031 C 
ATOM     72  C   UNL A   1      45.219  36.000  39.941  1.00  0.00     0.029 A 
ATOM     73  C   UNL A   1      44.076  35.293  40.281  1.00  0.00     0.049 A 
ATOM     74  H   UNL A   1      42.356  34.912  39.122  1.00  0.00     0.167 HD
ATOM     75  C   UNL A   1      42.625  33.946  41.781  1.00  0.00     0.074 A 
ATOM     76  C   UNL A   1      42.353  33.262  43.029  1.00  0.00     0.031 C 
ATOM     77  C   UNL A   1      43.772  34.620  41.518  1.00  0.00     0.031 A 
BRANCH  64  78
ATOM     78  C   UNL A   1      43.982  37.137  35.869  1.00  0.00    -0.014 A 
ATOM     79  C   UNL A   1      44.712  36.532  34.835  1.00  0.00     0.009 A 
ATOM     80  C   UNL A   1      43.976  38.538  35.967  1.00  0.00     0.009 A 
ATOM     81  C   UNL A   1      45.455  37.311  33.946  1.00  0.00     0.001 A 
ATOM     82  C   UNL A   1      44.694  39.316  35.058  1.00  0.00     0.001 A 
ATOM     83  C   UNL A   1      45.444  38.702  34.056  1.00  0.00     0.000 A 
ENDBRANCH  64  78
BRANCH  65  84
ATOM     84  C   UNL A   1      38.483  31.764  42.274  1.00  0.00    -0.014 A 
ATOM     85  C   UNL A   1      37.422  32.346  42.983  1.00  0.00     0.009 A 
ATOM     86  C   UNL A   1      38.794  30.414  42.509  1.00  0.00     0.009 A 
ATOM     87  C   UNL A   1      36.705  31.601  43.922  1.00  0.00     0.001 A 
ATOM     88  C   UNL A   1      38.054  29.664  43.426  1.00  0.00     0.001 A 
ATOM     89  C   UNL A   1      37.017  30.260  44.139  1.00  0.00     0.000 A 
ENDBRANCH  65  84
BRANCH  77  90
ATOM     90  C   UNL A   1      44.792  34.712  42.618  1.00  0.00    -0.014 A 
ATOM     91  C   UNL A   1      44.782  35.766  43.543  1.00  0.00     0.009 A 
ATOM     92  C   UNL A   1      45.734  33.680  42.767  1.00  0.00     0.009 A 
ATOM     93  C   UNL A   1      45.713  35.795  44.584  1.00  0.00     0.001 A 
ATOM     94  C   UNL A   1      46.643  33.698  43.824  1.00  0.00     0.001 A 
ATOM     95  C   UNL A   1      46.636  34.759  44.727  1.00  0.00     0.000 A 
ENDBRANCH  77  90
ENDBRANCH  51  52
ENDBRANCH  44  46
ENDBRANCH  43  44
ENDBRANCH  42  43
ENDBRANCH  41  42
ENDBRANCH  40  41
ENDBRANCH  39  40
ENDBRANCH   1  39
TORSDOF 25
ENDMDL
MODEL 3
REMARK VINA RESULT:      -9.5      5.257     10.027
REMARK SMILES O=C(N[C@@H](Cc1c[nH]c2ccccc12)C(=O)N[C@@H](CO)C(=O)OCCOCCOCCOC(=O)c1ccc(-c2c3nc(c(-c4ccccc4)c4ccc([nH]4)c(-c4ccccc4)c4nc(c(-c5ccccc5)c5ccc2[nH]5)C=C4)C=C3)cc1)c1ccc(F)cc1
REMARK SMILES IDX 27 1 26 2 25 3 24 4 23 5 21 6 22 7 18 8 17 9 15 10 16 11
REMARK SMILES IDX 4 13 3 14 1 15 2 16 83 18 84 19 89 20 85 21 88 22 86 23
REMARK SMILES IDX 87 24 5 25 6 26 7 27 14 28 8 29 9 30 13 31 10 33 12 34 11 35
REMARK SMILES IDX 19 36 20 37 28 39 29 40 30 41 31 42 32 43 33 44 34 45 35 46
REMARK SMILES IDX 36 47 82 48 37 49 81 50 38 51 39 52 40 53 75 54 41 55 80 56
REMARK SMILES IDX 74 57 76 58 42 59 79 60 73 61 72 62 43 64 65 65 50 66 64 67
REMARK SMILES IDX 51 68 54 69 63 70 77 71 52 72 53 73 62 75 78 76 55 77 44 78
REMARK SMILES IDX 45 79 49 80 46 81 48 82 47 83 66 84 67 85 71 86 68 87 70 88
REMARK SMILES IDX 69 89 56 90 57 91 61 92 58 93 60 94 59 95
REMARK H PARENT 17 12 3 17 8 32 20 38 76 63 54 74
REMARK Flexibility Score: inf
ROOT
ATOM      1  C   UNL A   1      41.671  19.833  26.387  1.00  0.00     0.188 C 
ENDROOT
BRANCH   1   2
ATOM      2  O   UNL A   1      40.259  19.788  26.136  1.00  0.00    -0.376 OA
BRANCH   2   3
ATOM      3  C   UNL A   1      39.603  20.746  25.293  1.00  0.00     0.202 C 
BRANCH   3   4
ATOM      4  C   UNL A   1      38.403  21.483  26.062  1.00  0.00     0.261 C 
BRANCH   4   5
ATOM      5  O   UNL A   1      37.022  21.385  25.482  1.00  0.00    -0.462 OA
BRANCH   5   6
ATOM      6  C   UNL A   1      36.541  22.443  24.737  1.00  0.00     0.331 C 
ATOM      7  O   UNL A   1      37.298  23.294  24.265  1.00  0.00    -0.250 OA
BRANCH   6   8
ATOM      8  C   UNL A   1      34.949  22.537  24.438  1.00  0.00     0.218 C 
BRANCH   8   9
ATOM      9  N   UNL A   1      34.333  22.811  23.109  1.00  0.00    -0.339 N 
ATOM     10  C   UNL A   1      33.556  23.766  22.515  1.00  0.00     0.243 C 
ATOM     11  O   UNL A   1      32.960  23.299  21.519  1.00  0.00    -0.273 OA
ATOM     12  H   UNL A   1      34.550  22.094  22.471  1.00  0.00     0.164 HD
BRANCH  10  13
ATOM     13  C   UNL A   1      33.242  25.334  22.837  1.00  0.00     0.176 C 
BRANCH  13  14
ATOM     14  N   UNL A   1      31.851  25.772  22.976  1.00  0.00    -0.340 N 
ATOM     15  O   UNL A   1      29.736  25.479  23.718  1.00  0.00    -0.269 OA
ATOM     16  C   UNL A   1      30.934  25.286  23.903  1.00  0.00     0.251 C 
ATOM     17  H   UNL A   1      31.538  26.472  22.359  1.00  0.00     0.164 HD
BRANCH  16  18
ATOM     18  C   UNL A   1      31.358  24.445  25.077  1.00  0.00     0.040 A 
ATOM     19  C   UNL A   1      32.324  24.871  26.001  1.00  0.00     0.017 A 
ATOM     20  C   UNL A   1      30.757  23.186  25.256  1.00  0.00     0.017 A 
ATOM     21  C   UNL A   1      32.730  24.029  27.044  1.00  0.00     0.040 A 
ATOM     22  C   UNL A   1      31.147  22.356  26.317  1.00  0.00     0.040 A 
ATOM     23  C   UNL A   1      32.136  22.781  27.195  1.00  0.00     0.123 A 
ATOM     24  F   UNL A   1      32.516  21.985  28.205  1.00  0.00    -0.207 F 
ENDBRANCH  16  18
ENDBRANCH  13  14
BRANCH  13  25
ATOM     25  C   UNL A   1      34.164  26.314  23.638  1.00  0.00     0.072 C 
BRANCH  25  26
ATOM     26  C   UNL A   1      33.671  27.679  23.651  1.00  0.00    -0.020 A 
ATOM     27  C   UNL A   1      33.206  28.471  22.625  1.00  0.00     0.087 A 
ATOM     28  C   UNL A   1      33.411  28.286  24.882  1.00  0.00     0.003 A 
ATOM     29  N   UNL A   1      32.501  29.483  23.218  1.00  0.00    -0.361 N 
ATOM     30  C   UNL A   1      32.496  29.256  24.570  1.00  0.00     0.046 A 
ATOM     31  C   UNL A   1      33.632  27.867  26.216  1.00  0.00     0.010 A 
ATOM     32  H   UNL A   1      32.073  30.240  22.756  1.00  0.00     0.166 HD
ATOM     33  C   UNL A   1      31.650  29.696  25.545  1.00  0.00     0.026 A 
ATOM     34  C   UNL A   1      32.820  28.335  27.216  1.00  0.00     0.001 A 
ATOM     35  C   UNL A   1      31.801  29.177  26.853  1.00  0.00     0.002 A 
ENDBRANCH  25  26
ENDBRANCH  13  25
ENDBRANCH  10  13
ENDBRANCH   8   9
BRANCH   8  36
ATOM     36  C   UNL A   1      34.377  21.181  24.913  1.00  0.00     0.193 C 
BRANCH  36  37
ATOM     37  O   UNL A   1      33.380  20.697  24.007  1.00  0.00    -0.394 OA
ATOM     38  H   UNL A   1      33.490  21.127  23.145  1.00  0.00     0.210 HD
ENDBRANCH  36  37
ENDBRANCH   8  36
ENDBRANCH   6   8
ENDBRANCH   5   6
ENDBRANCH   4   5
ENDBRANCH   3   4
ENDBRANCH   2   3
ENDBRANCH   1   2
BRANCH   1  39
ATOM     39  C   UNL A   1      42.322  20.923  27.283  1.00  0.00     0.188 C 
BRANCH  39  40
ATOM     40  O   UNL A   1      43.487  21.503  26.695  1.00  0.00    -0.376 OA
BRANCH  40  41
ATOM     41  C   UNL A   1      43.330  21.870  25.322  1.00  0.00     0.202 C 
BRANCH  41  42
ATOM     42  C   UNL A   1      43.080  23.358  25.024  1.00  0.00     0.261 C 
BRANCH  42  43
ATOM     43  O   UNL A   1      44.293  24.116  24.881  1.00  0.00    -0.460 OA
BRANCH  43  44
ATOM     44  C   UNL A   1      44.978  24.312  26.044  1.00  0.00     0.338 C 
ATOM     45  O   UNL A   1      46.075  23.891  26.328  1.00  0.00    -0.246 OA
BRANCH  44  46
ATOM     46  C   UNL A   1      44.219  25.228  26.931  1.00  0.00     0.060 A 
ATOM     47  C   UNL A   1      44.330  26.597  26.680  1.00  0.00     0.016 A 
ATOM     48  C   UNL A   1      43.463  24.791  28.015  1.00  0.00     0.016 A 
ATOM     49  C   UNL A   1      43.622  27.537  27.417  1.00  0.00     0.010 A 
ATOM     50  C   UNL A   1      42.812  25.736  28.818  1.00  0.00     0.010 A 
ATOM     51  C   UNL A   1      42.883  27.110  28.515  1.00  0.00    -0.014 A 
BRANCH  51  52
ATOM     52  C   UNL A   1      42.382  28.109  29.479  1.00  0.00     0.031 A 
ATOM     53  C   UNL A   1      43.163  28.310  30.740  1.00  0.00     0.074 A 
ATOM     54  C   UNL A   1      41.283  28.842  29.237  1.00  0.00     0.049 A 
ATOM     55  N   UNL A   1      42.815  28.907  31.848  1.00  0.00    -0.248 NA
ATOM     56  C   UNL A   1      44.528  27.757  30.748  1.00  0.00     0.031 C 
ATOM     57  C   UNL A   1      40.532  28.869  27.983  1.00  0.00     0.029 A 
ATOM     58  N   UNL A   1      40.601  29.701  30.061  1.00  0.00    -0.354 N 
ATOM     59  C   UNL A   1      43.897  28.753  32.704  1.00  0.00     0.074 A 
ATOM     60  C   UNL A   1      44.916  28.022  31.985  1.00  0.00     0.031 C 
ATOM     61  C   UNL A   1      39.470  29.683  28.133  1.00  0.00     0.029 A 
ATOM     62  C   UNL A   1      39.435  30.172  29.510  1.00  0.00     0.049 A 
ATOM     63  H   UNL A   1      40.916  29.955  30.959  1.00  0.00     0.167 HD
ATOM     64  C   UNL A   1      44.015  29.168  33.986  1.00  0.00     0.031 A 
ATOM     65  C   UNL A   1      38.431  30.864  30.080  1.00  0.00     0.031 A 
ATOM     66  C   UNL A   1      42.987  29.889  34.687  1.00  0.00     0.049 A 
ATOM     67  C   UNL A   1      38.516  31.201  31.548  1.00  0.00     0.074 A 
ATOM     68  C   UNL A   1      42.971  30.315  36.001  1.00  0.00     0.029 A 
ATOM     69  N   UNL A   1      41.789  30.292  34.116  1.00  0.00    -0.354 N 
ATOM     70  N   UNL A   1      39.491  30.970  32.396  1.00  0.00    -0.248 NA
ATOM     71  C   UNL A   1      37.352  31.875  32.142  1.00  0.00     0.031 C 
ATOM     72  C   UNL A   1      41.741  30.937  36.238  1.00  0.00     0.029 A 
ATOM     73  C   UNL A   1      41.019  30.952  35.054  1.00  0.00     0.049 A 
ATOM     74  H   UNL A   1      41.528  30.132  33.180  1.00  0.00     0.167 HD
ATOM     75  C   UNL A   1      39.074  31.500  33.610  1.00  0.00     0.074 A 
ATOM     76  C   UNL A   1      37.759  32.068  33.389  1.00  0.00     0.031 C 
ATOM     77  C   UNL A   1      39.721  31.523  34.802  1.00  0.00     0.031 A 
BRANCH  64  78
ATOM     78  C   UNL A   1      45.263  28.771  34.719  1.00  0.00    -0.014 A 
ATOM     79  C   UNL A   1      45.386  27.522  35.346  1.00  0.00     0.009 A 
ATOM     80  C   UNL A   1      46.328  29.682  34.804  1.00  0.00     0.009 A 
ATOM     81  C   UNL A   1      46.533  27.211  36.080  1.00  0.00     0.001 A 
ATOM     82  C   UNL A   1      47.485  29.357  35.512  1.00  0.00     0.001 A 
ATOM     83  C   UNL A   1      47.582  28.127  36.160  1.00  0.00     0.000 A 
ENDBRANCH  64  78
BRANCH  65  84
ATOM     84  C   UNL A   1      37.224  31.229  29.290  1.00  0.00    -0.014 A 
ATOM     85  C   UNL A   1      36.233  30.275  29.020  1.00  0.00     0.009 A 
ATOM     86  C   UNL A   1      37.071  32.529  28.778  1.00  0.00     0.009 A 
ATOM     87  C   UNL A   1      35.126  30.607  28.235  1.00  0.00     0.001 A 
ATOM     88  C   UNL A   1      35.948  32.865  28.019  1.00  0.00     0.001 A 
ATOM     89  C   UNL A   1      34.981  31.902  27.740  1.00  0.00     0.000 A 
ENDBRANCH  65  84
BRANCH  77  90
ATOM     90  C   UNL A   1      39.052  32.239  35.942  1.00  0.00    -0.014 A 
ATOM     91  C   UNL A   1      38.248  31.557  36.867  1.00  0.00     0.009 A 
ATOM     92  C   UNL A   1      39.296  33.609  36.127  1.00  0.00     0.009 A 
ATOM     93  C   UNL A   1      37.683  32.242  37.944  1.00  0.00     0.001 A 
ATOM     94  C   UNL A   1      38.753  34.285  37.221  1.00  0.00     0.001 A 
ATOM     95  C   UNL A   1      37.942  33.601  38.124  1.00  0.00     0.000 A 
ENDBRANCH  77  90
ENDBRANCH  51  52
ENDBRANCH  44  46
ENDBRANCH  43  44
ENDBRANCH  42  43
ENDBRANCH  41  42
ENDBRANCH  40  41
ENDBRANCH  39  40
ENDBRANCH   1  39
TORSDOF 25
ENDMDL
