MODEL 1
REMARK VINA RESULT:     -10.2      0.000      0.000
REMARK SMILES O=C(OCCOCCOCCOC(=O)c1ccccc1C(=O)N1CCCc2ccccc21)c1ccc(-c2c3nc(c(-c4ccccc4)c4ccc([nH]4)c(-c4ccccc4)c4nc(c(-c5ccccc5)c5ccc2[nH]5)C=C4)C=C3)cc1
REMARK SMILES IDX 7 1 6 2 5 3 4 4 3 5 2 6 1 7 33 8 34 9 80 10 35 11 79 12
REMARK SMILES IDX 36 13 37 14 38 15 73 16 39 17 78 18 72 19 74 20 40 21 77 22
REMARK SMILES IDX 71 23 70 24 41 26 63 27 48 28 62 29 49 30 52 31 61 32 75 33
REMARK SMILES IDX 50 34 51 35 60 37 76 38 53 39 42 40 43 41 47 42 44 43 46 44
REMARK SMILES IDX 45 45 64 46 65 47 69 48 66 49 68 50 67 51 54 52 55 53 59 54
REMARK SMILES IDX 56 55 58 56 57 57 8 58 9 59 10 60 11 61 12 62 13 63 14 64
REMARK SMILES IDX 15 65 16 66 20 67 17 68 19 69 18 70 21 71 22 72 23 73 24 74
REMARK SMILES IDX 32 75 25 76 27 77 31 78 26 79 28 80 30 81 29 82
REMARK H PARENT 74 25 52 36
REMARK Flexibility Score: inf
ROOT
ATOM      1  C   UNL A   1      34.492  20.584  24.889  1.00  0.00     0.188 C 
ENDROOT
BRANCH   1   2
ATOM      2  O   UNL A   1      35.752  20.363  25.539  1.00  0.00    -0.376 OA
BRANCH   2   3
ATOM      3  C   UNL A   1      36.873  20.575  24.667  1.00  0.00     0.202 C 
BRANCH   3   4
ATOM      4  C   UNL A   1      38.201  20.968  25.347  1.00  0.00     0.261 C 
BRANCH   4   5
ATOM      5  O   UNL A   1      39.157  19.897  25.417  1.00  0.00    -0.460 OA
BRANCH   5   6
ATOM      6  C   UNL A   1      40.421  19.900  25.906  1.00  0.00     0.338 C 
ATOM      7  O   UNL A   1      41.083  18.867  25.796  1.00  0.00    -0.246 OA
BRANCH   6   8
ATOM      8  C   UNL A   1      41.068  21.067  26.592  1.00  0.00     0.060 A 
ATOM      9  C   UNL A   1      41.091  21.297  27.968  1.00  0.00     0.016 A 
ATOM     10  C   UNL A   1      41.729  22.001  25.768  1.00  0.00     0.016 A 
ATOM     11  C   UNL A   1      41.626  22.463  28.503  1.00  0.00     0.010 A 
ATOM     12  C   UNL A   1      42.308  23.159  26.298  1.00  0.00     0.010 A 
ATOM     13  C   UNL A   1      42.200  23.417  27.667  1.00  0.00    -0.014 A 
BRANCH  13  14
ATOM     14  C   UNL A   1      42.472  24.751  28.235  1.00  0.00     0.031 A 
ATOM     15  C   UNL A   1      43.900  25.114  28.512  1.00  0.00     0.074 A 
ATOM     16  C   UNL A   1      41.485  25.654  28.354  1.00  0.00     0.049 A 
ATOM     17  N   UNL A   1      44.402  26.246  28.922  1.00  0.00    -0.248 NA
ATOM     18  C   UNL A   1      44.903  24.060  28.269  1.00  0.00     0.031 C 
ATOM     19  C   UNL A   1      40.087  25.414  28.004  1.00  0.00     0.029 A 
ATOM     20  N   UNL A   1      41.509  26.958  28.768  1.00  0.00    -0.354 N 
ATOM     21  C   UNL A   1      45.772  26.036  29.006  1.00  0.00     0.074 A 
ATOM     22  C   UNL A   1      46.024  24.668  28.617  1.00  0.00     0.031 C 
ATOM     23  C   UNL A   1      39.388  26.544  28.204  1.00  0.00     0.029 A 
ATOM     24  C   UNL A   1      40.280  27.573  28.725  1.00  0.00     0.049 A 
ATOM     25  H   UNL A   1      42.329  27.414  29.068  1.00  0.00     0.167 HD
ATOM     26  C   UNL A   1      46.735  26.908  29.381  1.00  0.00     0.031 A 
ATOM     27  C   UNL A   1      39.928  28.825  29.076  1.00  0.00     0.031 A 
ATOM     28  C   UNL A   1      46.462  28.257  29.791  1.00  0.00     0.049 A 
ATOM     29  C   UNL A   1      41.012  29.747  29.573  1.00  0.00     0.074 A 
ATOM     30  C   UNL A   1      47.342  29.220  30.246  1.00  0.00     0.029 A 
ATOM     31  N   UNL A   1      45.197  28.828  29.798  1.00  0.00    -0.354 N 
ATOM     32  N   UNL A   1      42.305  29.539  29.646  1.00  0.00    -0.248 NA
ATOM     33  C   UNL A   1      40.589  31.077  30.032  1.00  0.00     0.031 C 
ATOM     34  C   UNL A   1      46.600  30.359  30.579  1.00  0.00     0.029 A 
ATOM     35  C   UNL A   1      45.267  30.122  30.274  1.00  0.00     0.049 A 
ATOM     36  H   UNL A   1      44.371  28.376  29.507  1.00  0.00     0.167 HD
ATOM     37  C   UNL A   1      42.853  30.720  30.130  1.00  0.00     0.074 A 
ATOM     38  C   UNL A   1      41.753  31.647  30.305  1.00  0.00     0.031 C 
ATOM     39  C   UNL A   1      44.146  31.016  30.414  1.00  0.00     0.031 A 
BRANCH  26  40
ATOM     40  C   UNL A   1      48.138  26.376  29.445  1.00  0.00    -0.014 A 
ATOM     41  C   UNL A   1      48.653  25.790  30.613  1.00  0.00     0.009 A 
ATOM     42  C   UNL A   1      48.979  26.528  28.332  1.00  0.00     0.009 A 
ATOM     43  C   UNL A   1      49.997  25.413  30.678  1.00  0.00     0.001 A 
ATOM     44  C   UNL A   1      50.314  26.125  28.391  1.00  0.00     0.001 A 
ATOM     45  C   UNL A   1      50.825  25.582  29.569  1.00  0.00     0.000 A 
ENDBRANCH  26  40
BRANCH  27  46
ATOM     46  C   UNL A   1      38.513  29.286  28.977  1.00  0.00    -0.014 A 
ATOM     47  C   UNL A   1      37.997  29.772  27.766  1.00  0.00     0.009 A 
ATOM     48  C   UNL A   1      37.666  29.257  30.097  1.00  0.00     0.009 A 
ATOM     49  C   UNL A   1      36.674  30.218  27.677  1.00  0.00     0.001 A 
ATOM     50  C   UNL A   1      36.333  29.668  29.997  1.00  0.00     0.001 A 
ATOM     51  C   UNL A   1      35.839  30.152  28.789  1.00  0.00     0.000 A 
ENDBRANCH  27  46
BRANCH  39  52
ATOM     52  C   UNL A   1      44.429  32.410  30.893  1.00  0.00    -0.014 A 
ATOM     53  C   UNL A   1      44.429  32.727  32.259  1.00  0.00     0.009 A 
ATOM     54  C   UNL A   1      44.733  33.411  29.957  1.00  0.00     0.009 A 
ATOM     55  C   UNL A   1      44.692  34.031  32.678  1.00  0.00     0.001 A 
ATOM     56  C   UNL A   1      45.027  34.707  30.380  1.00  0.00     0.001 A 
ATOM     57  C   UNL A   1      44.996  35.018  31.739  1.00  0.00     0.000 A 
ENDBRANCH  39  52
ENDBRANCH  13  14
ENDBRANCH   6   8
ENDBRANCH   5   6
ENDBRANCH   4   5
ENDBRANCH   3   4
ENDBRANCH   2   3
ENDBRANCH   1   2
BRANCH   1  58
ATOM     58  C   UNL A   1      33.310  20.908  25.806  1.00  0.00     0.188 C 
BRANCH  58  59
ATOM     59  O   UNL A   1      32.335  21.828  25.339  1.00  0.00    -0.376 OA
BRANCH  59  60
ATOM     60  C   UNL A   1      31.872  22.800  26.264  1.00  0.00     0.202 C 
BRANCH  60  61
ATOM     61  C   UNL A   1      30.523  23.487  26.008  1.00  0.00     0.261 C 
BRANCH  61  62
ATOM     62  O   UNL A   1      30.566  24.787  25.387  1.00  0.00    -0.460 OA
BRANCH  62  63
ATOM     63  C   UNL A   1      30.244  24.844  24.066  1.00  0.00     0.339 C 
ATOM     64  O   UNL A   1      30.388  23.961  23.230  1.00  0.00    -0.246 OA
BRANCH  63  65
ATOM     65  C   UNL A   1      29.810  26.209  23.727  1.00  0.00     0.072 A 
ATOM     66  C   UNL A   1      28.459  26.506  24.023  1.00  0.00     0.016 A 
ATOM     67  C   UNL A   1      30.601  27.136  23.028  1.00  0.00     0.054 A 
ATOM     68  C   UNL A   1      27.866  27.697  23.609  1.00  0.00     0.001 A 
ATOM     69  C   UNL A   1      29.950  28.319  22.588  1.00  0.00     0.015 A 
ATOM     70  C   UNL A   1      28.610  28.599  22.870  1.00  0.00     0.001 A 
BRANCH  67  71
ATOM     71  C   UNL A   1      32.052  27.090  22.613  1.00  0.00     0.259 C 
ATOM     72  O   UNL A   1      32.247  27.237  21.399  1.00  0.00    -0.269 OA
BRANCH  71  73
ATOM     73  N   UNL A   1      33.130  27.026  23.496  1.00  0.00    -0.308 N 
ATOM     74  C   UNL A   1      34.000  28.078  24.021  1.00  0.00     0.126 C 
ATOM     75  C   UNL A   1      33.586  25.776  24.033  1.00  0.00     0.047 A 
ATOM     76  C   UNL A   1      33.762  28.267  25.527  1.00  0.00     0.027 C 
ATOM     77  C   UNL A   1      34.024  25.800  25.375  1.00  0.00    -0.024 A 
ATOM     78  C   UNL A   1      34.007  24.762  23.180  1.00  0.00     0.026 A 
ATOM     79  C   UNL A   1      33.510  26.926  26.230  1.00  0.00     0.039 C 
ATOM     80  C   UNL A   1      34.961  24.874  25.828  1.00  0.00     0.006 A 
ATOM     81  C   UNL A   1      34.985  23.873  23.629  1.00  0.00     0.002 A 
ATOM     82  C   UNL A   1      35.473  23.937  24.936  1.00  0.00     0.000 A 
ENDBRANCH  71  73
ENDBRANCH  67  71
ENDBRANCH  63  65
ENDBRANCH  62  63
ENDBRANCH  61  62
ENDBRANCH  60  61
ENDBRANCH  59  60
ENDBRANCH  58  59
ENDBRANCH   1  58
TORSDOF 19
ENDMDL
MODEL 2
REMARK VINA RESULT:     -10.2      3.504      8.102
REMARK SMILES O=C(OCCOCCOCCOC(=O)c1ccccc1C(=O)N1CCCc2ccccc21)c1ccc(-c2c3nc(c(-c4ccccc4)c4ccc([nH]4)c(-c4ccccc4)c4nc(c(-c5ccccc5)c5ccc2[nH]5)C=C4)C=C3)cc1
REMARK SMILES IDX 7 1 6 2 5 3 4 4 3 5 2 6 1 7 33 8 34 9 80 10 35 11 79 12
REMARK SMILES IDX 36 13 37 14 38 15 73 16 39 17 78 18 72 19 74 20 40 21 77 22
REMARK SMILES IDX 71 23 70 24 41 26 63 27 48 28 62 29 49 30 52 31 61 32 75 33
REMARK SMILES IDX 50 34 51 35 60 37 76 38 53 39 42 40 43 41 47 42 44 43 46 44
REMARK SMILES IDX 45 45 64 46 65 47 69 48 66 49 68 50 67 51 54 52 55 53 59 54
REMARK SMILES IDX 56 55 58 56 57 57 8 58 9 59 10 60 11 61 12 62 13 63 14 64
REMARK SMILES IDX 15 65 16 66 20 67 17 68 19 69 18 70 21 71 22 72 23 73 24 74
REMARK SMILES IDX 32 75 25 76 27 77 31 78 26 79 28 80 30 81 29 82
REMARK H PARENT 74 25 52 36
REMARK Flexibility Score: inf
ROOT
ATOM      1  C   UNL A   1      33.910  33.582  29.127  1.00  0.00     0.188 C 
ENDROOT
BRANCH   1   2
ATOM      2  O   UNL A   1      34.083  34.733  29.965  1.00  0.00    -0.376 OA
BRANCH   2   3
ATOM      3  C   UNL A   1      34.948  34.482  31.084  1.00  0.00     0.202 C 
BRANCH   3   4
ATOM      4  C   UNL A   1      34.283  33.878  32.338  1.00  0.00     0.261 C 
BRANCH   4   5
ATOM      5  O   UNL A   1      34.780  32.576  32.688  1.00  0.00    -0.460 OA
BRANCH   5   6
ATOM      6  C   UNL A   1      36.005  32.214  33.145  1.00  0.00     0.338 C 
ATOM      7  O   UNL A   1      36.331  32.588  34.272  1.00  0.00    -0.246 OA
BRANCH   6   8
ATOM      8  C   UNL A   1      37.002  31.409  32.366  1.00  0.00     0.060 A 
ATOM      9  C   UNL A   1      38.083  30.706  32.900  1.00  0.00     0.016 A 
ATOM     10  C   UNL A   1      36.813  31.342  30.970  1.00  0.00     0.016 A 
ATOM     11  C   UNL A   1      39.015  30.073  32.086  1.00  0.00     0.010 A 
ATOM     12  C   UNL A   1      37.721  30.674  30.143  1.00  0.00     0.010 A 
ATOM     13  C   UNL A   1      38.860  30.090  30.702  1.00  0.00    -0.014 A 
BRANCH  13  14
ATOM     14  C   UNL A   1      40.013  29.679  29.879  1.00  0.00     0.031 A 
ATOM     15  C   UNL A   1      41.152  30.645  29.741  1.00  0.00     0.074 A 
ATOM     16  C   UNL A   1      40.097  28.426  29.403  1.00  0.00     0.049 A 
ATOM     17  N   UNL A   1      42.305  30.486  29.152  1.00  0.00    -0.248 NA
ATOM     18  C   UNL A   1      40.972  31.964  30.374  1.00  0.00     0.031 C 
ATOM     19  C   UNL A   1      39.081  27.392  29.588  1.00  0.00     0.029 A 
ATOM     20  N   UNL A   1      41.090  27.800  28.699  1.00  0.00    -0.354 N 
ATOM     21  C   UNL A   1      42.979  31.688  29.326  1.00  0.00     0.074 A 
ATOM     22  C   UNL A   1      42.105  32.571  30.062  1.00  0.00     0.031 C 
ATOM     23  C   UNL A   1      39.512  26.252  29.023  1.00  0.00     0.029 A 
ATOM     24  C   UNL A   1      40.815  26.484  28.411  1.00  0.00     0.049 A 
ATOM     25  H   UNL A   1      41.922  28.248  28.424  1.00  0.00     0.167 HD
ATOM     26  C   UNL A   1      44.218  32.026  28.901  1.00  0.00     0.031 A 
ATOM     27  C   UNL A   1      41.541  25.580  27.723  1.00  0.00     0.031 A 
ATOM     28  C   UNL A   1      45.062  31.144  28.146  1.00  0.00     0.049 A 
ATOM     29  C   UNL A   1      42.881  26.015  27.188  1.00  0.00     0.074 A 
ATOM     30  C   UNL A   1      46.312  31.387  27.611  1.00  0.00     0.029 A 
ATOM     31  N   UNL A   1      44.725  29.838  27.815  1.00  0.00    -0.354 N 
ATOM     32  N   UNL A   1      43.510  27.154  27.360  1.00  0.00    -0.248 NA
ATOM     33  C   UNL A   1      43.612  25.041  26.368  1.00  0.00     0.031 C 
ATOM     34  C   UNL A   1      46.710  30.243  26.910  1.00  0.00     0.029 A 
ATOM     35  C   UNL A   1      45.732  29.270  27.060  1.00  0.00     0.049 A 
ATOM     36  H   UNL A   1      43.891  29.385  28.079  1.00  0.00     0.167 HD
ATOM     37  C   UNL A   1      44.723  27.022  26.697  1.00  0.00     0.074 A 
ATOM     38  C   UNL A   1      44.750  25.682  26.144  1.00  0.00     0.031 C 
ATOM     39  C   UNL A   1      45.724  27.924  26.546  1.00  0.00     0.031 A 
BRANCH  26  40
ATOM     40  C   UNL A   1      44.662  33.434  29.175  1.00  0.00    -0.014 A 
ATOM     41  C   UNL A   1      45.358  33.774  30.347  1.00  0.00     0.009 A 
ATOM     42  C   UNL A   1      44.316  34.450  28.271  1.00  0.00     0.009 A 
ATOM     43  C   UNL A   1      45.653  35.111  30.629  1.00  0.00     0.001 A 
ATOM     44  C   UNL A   1      44.637  35.781  28.542  1.00  0.00     0.001 A 
ATOM     45  C   UNL A   1      45.291  36.112  29.728  1.00  0.00     0.000 A 
ENDBRANCH  26  40
BRANCH  27  46
ATOM     46  C   UNL A   1      41.036  24.195  27.498  1.00  0.00    -0.014 A 
ATOM     47  C   UNL A   1      41.597  23.104  28.179  1.00  0.00     0.009 A 
ATOM     48  C   UNL A   1      39.997  23.946  26.587  1.00  0.00     0.009 A 
ATOM     49  C   UNL A   1      41.133  21.803  27.957  1.00  0.00     0.001 A 
ATOM     50  C   UNL A   1      39.509  22.650  26.393  1.00  0.00     0.001 A 
ATOM     51  C   UNL A   1      40.080  21.579  27.074  1.00  0.00     0.000 A 
ENDBRANCH  27  46
BRANCH  39  52
ATOM     52  C   UNL A   1      46.940  27.463  25.797  1.00  0.00    -0.014 A 
ATOM     53  C   UNL A   1      47.978  26.775  26.442  1.00  0.00     0.009 A 
ATOM     54  C   UNL A   1      47.027  27.695  24.416  1.00  0.00     0.009 A 
ATOM     55  C   UNL A   1      49.100  26.361  25.724  1.00  0.00     0.001 A 
ATOM     56  C   UNL A   1      48.134  27.251  23.694  1.00  0.00     0.001 A 
ATOM     57  C   UNL A   1      49.173  26.594  24.350  1.00  0.00     0.000 A 
ENDBRANCH  39  52
ENDBRANCH  13  14
ENDBRANCH   6   8
ENDBRANCH   5   6
ENDBRANCH   4   5
ENDBRANCH   3   4
ENDBRANCH   2   3
ENDBRANCH   1   2
BRANCH   1  58
ATOM     58  C   UNL A   1      33.176  33.817  27.804  1.00  0.00     0.188 C 
BRANCH  58  59
ATOM     59  O   UNL A   1      31.971  33.102  27.573  1.00  0.00    -0.376 OA
BRANCH  59  60
ATOM     60  C   UNL A   1      32.048  31.973  26.716  1.00  0.00     0.202 C 
BRANCH  60  61
ATOM     61  C   UNL A   1      32.654  30.670  27.257  1.00  0.00     0.261 C 
BRANCH  61  62
ATOM     62  O   UNL A   1      31.930  29.455  26.983  1.00  0.00    -0.460 OA
BRANCH  62  63
ATOM     63  C   UNL A   1      32.565  28.523  26.221  1.00  0.00     0.339 C 
ATOM     64  O   UNL A   1      33.742  28.187  26.289  1.00  0.00    -0.246 OA
BRANCH  63  65
ATOM     65  C   UNL A   1      31.656  28.050  25.166  1.00  0.00     0.072 A 
ATOM     66  C   UNL A   1      31.081  29.063  24.361  1.00  0.00     0.016 A 
ATOM     67  C   UNL A   1      31.244  26.714  25.022  1.00  0.00     0.054 A 
ATOM     68  C   UNL A   1      30.080  28.779  23.436  1.00  0.00     0.001 A 
ATOM     69  C   UNL A   1      30.193  26.472  24.097  1.00  0.00     0.015 A 
ATOM     70  C   UNL A   1      29.619  27.480  23.317  1.00  0.00     0.001 A 
BRANCH  67  71
ATOM     71  C   UNL A   1      31.701  25.454  25.715  1.00  0.00     0.259 C 
ATOM     72  O   UNL A   1      31.380  25.376  26.908  1.00  0.00    -0.269 OA
BRANCH  71  73
ATOM     73  N   UNL A   1      32.318  24.376  25.080  1.00  0.00    -0.308 N 
ATOM     74  C   UNL A   1      31.793  23.067  24.690  1.00  0.00     0.126 C 
ATOM     75  C   UNL A   1      33.706  24.413  24.719  1.00  0.00     0.047 A 
ATOM     76  C   UNL A   1      31.732  22.950  23.160  1.00  0.00     0.027 C 
ATOM     77  C   UNL A   1      34.047  23.791  23.498  1.00  0.00    -0.024 A 
ATOM     78  C   UNL A   1      34.676  24.610  25.695  1.00  0.00     0.026 A 
ATOM     79  C   UNL A   1      32.938  23.628  22.495  1.00  0.00     0.039 C 
ATOM     80  C   UNL A   1      35.326  23.276  23.301  1.00  0.00     0.006 A 
ATOM     81  C   UNL A   1      35.938  24.043  25.509  1.00  0.00     0.002 A 
ATOM     82  C   UNL A   1      36.258  23.366  24.330  1.00  0.00     0.000 A 
ENDBRANCH  71  73
ENDBRANCH  67  71
ENDBRANCH  63  65
ENDBRANCH  62  63
ENDBRANCH  61  62
ENDBRANCH  60  61
ENDBRANCH  59  60
ENDBRANCH  58  59
ENDBRANCH   1  58
TORSDOF 19
ENDMDL
MODEL 3
REMARK VINA RESULT:     -10.2      3.453      8.210
REMARK SMILES O=C(OCCOCCOCCOC(=O)c1ccccc1C(=O)N1CCCc2ccccc21)c1ccc(-c2c3nc(c(-c4ccccc4)c4ccc([nH]4)c(-c4ccccc4)c4nc(c(-c5ccccc5)c5ccc2[nH]5)C=C4)C=C3)cc1
REMARK SMILES IDX 7 1 6 2 5 3 4 4 3 5 2 6 1 7 33 8 34 9 80 10 35 11 79 12
REMARK SMILES IDX 36 13 37 14 38 15 73 16 39 17 78 18 72 19 74 20 40 21 77 22
REMARK SMILES IDX 71 23 70 24 41 26 63 27 48 28 62 29 49 30 52 31 61 32 75 33
REMARK SMILES IDX 50 34 51 35 60 37 76 38 53 39 42 40 43 41 47 42 44 43 46 44
REMARK SMILES IDX 45 45 64 46 65 47 69 48 66 49 68 50 67 51 54 52 55 53 59 54
REMARK SMILES IDX 56 55 58 56 57 57 8 58 9 59 10 60 11 61 12 62 13 63 14 64
REMARK SMILES IDX 15 65 16 66 20 67 17 68 19 69 18 70 21 71 22 72 23 73 24 74
REMARK SMILES IDX 32 75 25 76 27 77 31 78 26 79 28 80 30 81 29 82
REMARK H PARENT 74 25 52 36
REMARK Flexibility Score: inf
ROOT
ATOM      1  C   UNL A   1      35.464  33.380  28.083  1.00  0.00     0.188 C 
ENDROOT
BRANCH   1   2
ATOM      2  O   UNL A   1      35.403  34.225  29.240  1.00  0.00    -0.376 OA
BRANCH   2   3
ATOM      3  C   UNL A   1      34.437  33.779  30.206  1.00  0.00     0.202 C 
BRANCH   3   4
ATOM      4  C   UNL A   1      34.925  33.684  31.666  1.00  0.00     0.261 C 
BRANCH   4   5
ATOM      5  O   UNL A   1      35.175  32.340  32.109  1.00  0.00    -0.460 OA
BRANCH   5   6
ATOM      6  C   UNL A   1      36.277  31.818  32.701  1.00  0.00     0.338 C 
ATOM      7  O   UNL A   1      36.410  31.981  33.914  1.00  0.00    -0.246 OA
BRANCH   6   8
ATOM      8  C   UNL A   1      37.361  31.072  31.980  1.00  0.00     0.060 A 
ATOM      9  C   UNL A   1      38.434  30.409  32.576  1.00  0.00     0.016 A 
ATOM     10  C   UNL A   1      37.270  31.024  30.574  1.00  0.00     0.016 A 
ATOM     11  C   UNL A   1      39.447  29.834  31.818  1.00  0.00     0.010 A 
ATOM     12  C   UNL A   1      38.262  30.412  29.800  1.00  0.00     0.010 A 
ATOM     13  C   UNL A   1      39.386  29.869  30.427  1.00  0.00    -0.014 A 
BRANCH  13  14
ATOM     14  C   UNL A   1      40.610  29.526  29.679  1.00  0.00     0.031 A 
ATOM     15  C   UNL A   1      40.666  28.185  29.009  1.00  0.00     0.074 A 
ATOM     16  C   UNL A   1      41.569  30.446  29.484  1.00  0.00     0.049 A 
ATOM     17  N   UNL A   1      41.584  27.689  28.227  1.00  0.00    -0.248 NA
ATOM     18  C   UNL A   1      39.517  27.291  29.236  1.00  0.00     0.031 C 
ATOM     19  C   UNL A   1      41.538  31.809  30.011  1.00  0.00     0.029 A 
ATOM     20  N   UNL A   1      42.734  30.388  28.768  1.00  0.00    -0.354 N 
ATOM     21  C   UNL A   1      41.135  26.421  27.884  1.00  0.00     0.074 A 
ATOM     22  C   UNL A   1      39.870  26.216  28.552  1.00  0.00     0.031 C 
ATOM     23  C   UNL A   1      42.630  32.465  29.585  1.00  0.00     0.029 A 
ATOM     24  C   UNL A   1      43.449  31.562  28.785  1.00  0.00     0.049 A 
ATOM     25  H   UNL A   1      43.031  29.584  28.285  1.00  0.00     0.167 HD
ATOM     26  C   UNL A   1      41.729  25.504  27.087  1.00  0.00     0.031 A 
ATOM     27  C   UNL A   1      44.636  31.858  28.218  1.00  0.00     0.031 A 
ATOM     28  C   UNL A   1      43.000  25.715  26.453  1.00  0.00     0.049 A 
ATOM     29  C   UNL A   1      45.315  30.786  27.407  1.00  0.00     0.074 A 
ATOM     30  C   UNL A   1      43.733  24.845  25.669  1.00  0.00     0.029 A 
ATOM     31  N   UNL A   1      43.730  26.893  26.545  1.00  0.00    -0.354 N 
ATOM     32  N   UNL A   1      44.879  29.590  27.087  1.00  0.00    -0.248 NA
ATOM     33  C   UNL A   1      46.646  31.103  26.874  1.00  0.00     0.031 C 
ATOM     34  C   UNL A   1      44.933  25.480  25.329  1.00  0.00     0.029 A 
ATOM     35  C   UNL A   1      44.918  26.765  25.853  1.00  0.00     0.049 A 
ATOM     36  H   UNL A   1      43.442  27.699  27.032  1.00  0.00     0.167 HD
ATOM     37  C   UNL A   1      45.868  29.025  26.293  1.00  0.00     0.074 A 
ATOM     38  C   UNL A   1      46.912  30.022  26.157  1.00  0.00     0.031 C 
ATOM     39  C   UNL A   1      45.920  27.792  25.729  1.00  0.00     0.031 A 
BRANCH  26  40
ATOM     40  C   UNL A   1      41.038  24.178  26.954  1.00  0.00    -0.014 A 
ATOM     41  C   UNL A   1      39.815  24.048  26.274  1.00  0.00     0.009 A 
ATOM     42  C   UNL A   1      41.591  23.051  27.580  1.00  0.00     0.009 A 
ATOM     43  C   UNL A   1      39.138  22.825  26.270  1.00  0.00     0.001 A 
ATOM     44  C   UNL A   1      40.926  21.824  27.550  1.00  0.00     0.001 A 
ATOM     45  C   UNL A   1      39.693  21.716  26.908  1.00  0.00     0.000 A 
ENDBRANCH  26  40
BRANCH  27  46
ATOM     46  C   UNL A   1      45.258  33.203  28.389  1.00  0.00    -0.014 A 
ATOM     47  C   UNL A   1      45.016  34.231  27.465  1.00  0.00     0.009 A 
ATOM     48  C   UNL A   1      46.113  33.470  29.470  1.00  0.00     0.009 A 
ATOM     49  C   UNL A   1      45.611  35.488  27.616  1.00  0.00     0.001 A 
ATOM     50  C   UNL A   1      46.678  34.737  29.641  1.00  0.00     0.001 A 
ATOM     51  C   UNL A   1      46.430  35.744  28.713  1.00  0.00     0.000 A 
ENDBRANCH  27  46
BRANCH  39  52
ATOM     52  C   UNL A   1      47.122  27.488  24.882  1.00  0.00    -0.014 A 
ATOM     53  C   UNL A   1      47.143  27.786  23.513  1.00  0.00     0.009 A 
ATOM     54  C   UNL A   1      48.259  26.923  25.479  1.00  0.00     0.009 A 
ATOM     55  C   UNL A   1      48.271  27.490  22.747  1.00  0.00     0.001 A 
ATOM     56  C   UNL A   1      49.397  26.658  24.718  1.00  0.00     0.001 A 
ATOM     57  C   UNL A   1      49.398  26.931  23.351  1.00  0.00     0.000 A 
ENDBRANCH  39  52
ENDBRANCH  13  14
ENDBRANCH   6   8
ENDBRANCH   5   6
ENDBRANCH   4   5
ENDBRANCH   3   4
ENDBRANCH   2   3
ENDBRANCH   1   2
BRANCH   1  58
ATOM     58  C   UNL A   1      35.131  31.903  28.310  1.00  0.00     0.188 C 
BRANCH  58  59
ATOM     59  O   UNL A   1      34.074  31.333  27.553  1.00  0.00    -0.376 OA
BRANCH  59  60
ATOM     60  C   UNL A   1      33.923  29.923  27.619  1.00  0.00     0.202 C 
BRANCH  60  61
ATOM     61  C   UNL A   1      34.029  29.103  26.326  1.00  0.00     0.261 C 
BRANCH  61  62
ATOM     62  O   UNL A   1      33.452  27.783  26.346  1.00  0.00    -0.460 OA
BRANCH  62  63
ATOM     63  C   UNL A   1      32.120  27.702  26.617  1.00  0.00     0.339 C 
ATOM     64  O   UNL A   1      31.585  27.745  27.718  1.00  0.00    -0.246 OA
BRANCH  63  65
ATOM     65  C   UNL A   1      31.386  27.404  25.377  1.00  0.00     0.072 A 
ATOM     66  C   UNL A   1      31.015  28.533  24.607  1.00  0.00     0.016 A 
ATOM     67  C   UNL A   1      30.937  26.123  25.015  1.00  0.00     0.054 A 
ATOM     68  C   UNL A   1      30.178  28.417  23.500  1.00  0.00     0.001 A 
ATOM     69  C   UNL A   1      30.054  26.052  23.906  1.00  0.00     0.015 A 
ATOM     70  C   UNL A   1      29.678  27.173  23.159  1.00  0.00     0.001 A 
BRANCH  67  71
ATOM     71  C   UNL A   1      31.200  24.769  25.629  1.00  0.00     0.259 C 
ATOM     72  O   UNL A   1      30.518  24.515  26.630  1.00  0.00    -0.269 OA
BRANCH  71  73
ATOM     73  N   UNL A   1      32.031  23.794  25.077  1.00  0.00    -0.308 N 
ATOM     74  C   UNL A   1      31.774  22.392  24.749  1.00  0.00     0.126 C 
ATOM     75  C   UNL A   1      33.402  24.072  24.758  1.00  0.00     0.047 A 
ATOM     76  C   UNL A   1      31.800  22.186  23.227  1.00  0.00     0.027 C 
ATOM     77  C   UNL A   1      33.902  23.462  23.586  1.00  0.00    -0.024 A 
ATOM     78  C   UNL A   1      34.278  24.498  25.749  1.00  0.00     0.026 A 
ATOM     79  C   UNL A   1      32.885  23.042  22.561  1.00  0.00     0.039 C 
ATOM     80  C   UNL A   1      35.262  23.186  23.458  1.00  0.00     0.006 A 
ATOM     81  C   UNL A   1      35.630  24.169  25.635  1.00  0.00     0.002 A 
ATOM     82  C   UNL A   1      36.118  23.502  24.509  1.00  0.00     0.000 A 
ENDBRANCH  71  73
ENDBRANCH  67  71
ENDBRANCH  63  65
ENDBRANCH  62  63
ENDBRANCH  61  62
ENDBRANCH  60  61
ENDBRANCH  59  60
ENDBRANCH  58  59
ENDBRANCH   1  58
TORSDOF 19
ENDMDL
