MODEL 1
REMARK VINA RESULT:      -8.0      0.000      0.000
REMARK SMILES C=CC[N@@H+](CC(=O)OCCOCCOCCOC(=O)c1ccc(-c2c3nc(c(-c4ccccc4)c4ccc([nH]4)c(-c4ccccc4)c4nc(c(-c5ccccc5)c5ccc2[nH]5)C=C4)C=C3)cc1)Cc1ccnc(C#N)c1
REMARK SMILES IDX 12 1 11 2 10 3 9 4 8 5 6 6 7 7 5 8 4 9 3 11 2 12 1 13 68 14
REMARK SMILES IDX 69 15 70 16 76 17 71 18 73 19 72 20 74 21 75 22 13 23 14 24
REMARK SMILES IDX 15 25 16 26 17 27 18 28 19 29 20 30 21 31 67 32 22 33 66 34
REMARK SMILES IDX 23 35 24 36 25 37 60 38 26 39 65 40 59 41 61 42 27 43 64 44
REMARK SMILES IDX 58 45 57 46 28 48 50 49 35 50 49 51 36 52 39 53 48 54 62 55
REMARK SMILES IDX 37 56 38 57 47 59 63 60 40 61 29 62 30 63 34 64 31 65 33 66
REMARK SMILES IDX 32 67 51 68 52 69 56 70 53 71 55 72 54 73 41 74 42 75 46 76
REMARK SMILES IDX 43 77 45 78 44 79
REMARK H PARENT 4 10 61 47 39 58
REMARK Flexibility Score: inf
ROOT
ATOM      1  C   UNL A   1      51.292  24.071  37.784  1.00  0.00     0.188 C 
ENDROOT
BRANCH   1   2
ATOM      2  O   UNL A   1      51.263  24.445  36.319  1.00  0.00    -0.376 OA
BRANCH   2   3
ATOM      3  C   UNL A   1      52.314  23.996  35.465  1.00  0.00     0.202 C 
BRANCH   3   4
ATOM      4  C   UNL A   1      52.706  22.507  35.226  1.00  0.00     0.261 C 
BRANCH   4   5
ATOM      5  O   UNL A   1      51.792  21.590  34.566  1.00  0.00    -0.459 OA
BRANCH   5   6
ATOM      6  C   UNL A   1      51.674  20.359  35.159  1.00  0.00     0.361 C 
ATOM      7  O   UNL A   1      52.524  19.892  35.914  1.00  0.00    -0.245 OA
BRANCH   6   8
ATOM      8  C   UNL A   1      50.425  19.559  34.769  1.00  0.00     0.387 C 
BRANCH   8   9
ATOM      9  N   UNL A   1      49.106  19.982  35.268  1.00  0.00    -0.319 N 
ATOM     10  H   UNL A   1      48.745  19.140  35.718  1.00  0.00     0.349 HD
BRANCH   9  11
ATOM     11  C   UNL A   1      48.048  20.097  34.276  1.00  0.00     0.291 C 
BRANCH  11  12
ATOM     12  C   UNL A   1      46.728  20.619  34.787  1.00  0.00     0.025 C 
ATOM     13  C   UNL A   1      45.652  19.878  35.089  1.00  0.00     0.010 C 
ENDBRANCH  11  12
ENDBRANCH   9  11
BRANCH   9  14
ATOM     14  C   UNL A   1      49.024  20.664  36.550  1.00  0.00     0.299 C 
BRANCH  14  15
ATOM     15  C   UNL A   1      48.886  19.765  37.747  1.00  0.00     0.011 A 
ATOM     16  C   UNL A   1      50.351  19.270  38.678  1.00  0.00     0.030 A 
ATOM     17  C   UNL A   1      47.248  19.262  38.295  1.00  0.00     0.049 A 
ATOM     18  C   UNL A   1      50.133  18.326  40.180  1.00  0.00     0.113 A 
ATOM     19  C   UNL A   1      47.088  18.313  39.794  1.00  0.00     0.140 A 
ATOM     20  N   UNL A   1      48.516  17.813  40.713  1.00  0.00    -0.246 NA
BRANCH  19  21
ATOM     21  C   UNL A   1      45.774  17.948  40.249  1.00  0.00     0.119 C 
ATOM     22  N   UNL A   1      44.692  17.759  40.619  1.00  0.00    -0.191 NA
ENDBRANCH  19  21
ENDBRANCH  14  15
ENDBRANCH   9  14
ENDBRANCH   8   9
ENDBRANCH   6   8
ENDBRANCH   5   6
ENDBRANCH   4   5
ENDBRANCH   3   4
ENDBRANCH   2   3
ENDBRANCH   1   2
BRANCH   1  23
ATOM     23  C   UNL A   1      49.760  23.222  39.091  1.00  0.00     0.188 C 
BRANCH  23  24
ATOM     24  O   UNL A   1      48.709  23.924  40.001  1.00  0.00    -0.376 OA
BRANCH  24  25
ATOM     25  C   UNL A   1      47.653  24.594  39.295  1.00  0.00     0.202 C 
BRANCH  25  26
ATOM     26  C   UNL A   1      47.957  25.490  38.067  1.00  0.00     0.261 C 
BRANCH  26  27
ATOM     27  O   UNL A   1      46.858  26.101  37.369  1.00  0.00    -0.460 OA
BRANCH  27  28
ATOM     28  C   UNL A   1      46.342  25.443  36.300  1.00  0.00     0.338 C 
ATOM     29  O   UNL A   1      46.581  24.295  35.970  1.00  0.00    -0.246 OA
BRANCH  28  30
ATOM     30  C   UNL A   1      45.297  26.303  35.657  1.00  0.00     0.060 A 
ATOM     31  C   UNL A   1      43.967  25.854  35.618  1.00  0.00     0.016 A 
ATOM     32  C   UNL A   1      45.599  27.565  35.132  1.00  0.00     0.016 A 
ATOM     33  C   UNL A   1      42.954  26.654  35.058  1.00  0.00     0.010 A 
ATOM     34  C   UNL A   1      44.593  28.358  34.560  1.00  0.00     0.010 A 
ATOM     35  C   UNL A   1      43.263  27.904  34.500  1.00  0.00    -0.014 A 
BRANCH  35  36
ATOM     36  C   UNL A   1      42.277  28.623  33.641  1.00  0.00     0.031 A 
ATOM     37  C   UNL A   1      41.427  29.683  34.295  1.00  0.00     0.074 A 
ATOM     38  C   UNL A   1      42.103  28.357  32.332  1.00  0.00     0.049 A 
ATOM     39  N   UNL A   1      40.466  30.415  33.791  1.00  0.00    -0.248 NA
ATOM     40  C   UNL A   1      41.705  29.948  35.717  1.00  0.00     0.031 C 
ATOM     41  C   UNL A   1      42.875  27.399  31.544  1.00  0.00     0.029 A 
ATOM     42  N   UNL A   1      41.201  28.878  31.429  1.00  0.00    -0.354 N 
ATOM     43  C   UNL A   1      40.027  31.225  34.832  1.00  0.00     0.074 A 
ATOM     44  C   UNL A   1      40.804  30.874  36.000  1.00  0.00     0.031 C 
ATOM     45  C   UNL A   1      42.411  27.396  30.280  1.00  0.00     0.029 A 
ATOM     46  C   UNL A   1      41.282  28.322  30.172  1.00  0.00     0.049 A 
ATOM     47  H   UNL A   1      40.556  29.584  31.662  1.00  0.00     0.167 HD
ATOM     48  C   UNL A   1      39.065  32.179  34.825  1.00  0.00     0.031 A 
ATOM     49  C   UNL A   1      40.523  28.520  29.072  1.00  0.00     0.031 A 
ATOM     50  C   UNL A   1      38.253  32.505  33.684  1.00  0.00     0.049 A 
ATOM     51  C   UNL A   1      39.379  29.506  29.120  1.00  0.00     0.074 A 
ATOM     52  C   UNL A   1      37.251  33.454  33.585  1.00  0.00     0.029 A 
ATOM     53  N   UNL A   1      38.332  31.875  32.453  1.00  0.00    -0.354 N 
ATOM     54  N   UNL A   1      39.003  30.295  30.099  1.00  0.00    -0.248 NA
ATOM     55  C   UNL A   1      38.554  29.632  27.906  1.00  0.00     0.031 C 
ATOM     56  C   UNL A   1      36.671  33.344  32.318  1.00  0.00     0.029 A 
ATOM     57  C   UNL A   1      37.368  32.386  31.600  1.00  0.00     0.049 A 
ATOM     58  H   UNL A   1      38.978  31.170  32.219  1.00  0.00     0.167 HD
ATOM     59  C   UNL A   1      37.923  31.025  29.610  1.00  0.00     0.074 A 
ATOM     60  C   UNL A   1      37.718  30.605  28.241  1.00  0.00     0.031 C 
ATOM     61  C   UNL A   1      37.166  31.959  30.239  1.00  0.00     0.031 A 
BRANCH  48  62
ATOM     62  C   UNL A   1      38.805  32.900  36.120  1.00  0.00    -0.014 A 
ATOM     63  C   UNL A   1      39.425  34.126  36.415  1.00  0.00     0.009 A 
ATOM     64  C   UNL A   1      37.913  32.350  37.054  1.00  0.00     0.009 A 
ATOM     65  C   UNL A   1      39.191  34.760  37.637  1.00  0.00     0.001 A 
ATOM     66  C   UNL A   1      37.653  33.005  38.259  1.00  0.00     0.001 A 
ATOM     67  C   UNL A   1      38.302  34.202  38.554  1.00  0.00     0.000 A 
ENDBRANCH  48  62
BRANCH  49  68
ATOM     68  C   UNL A   1      40.780  27.746  27.820  1.00  0.00    -0.014 A 
ATOM     69  C   UNL A   1      40.206  26.479  27.621  1.00  0.00     0.009 A 
ATOM     70  C   UNL A   1      41.654  28.245  26.840  1.00  0.00     0.009 A 
ATOM     71  C   UNL A   1      40.523  25.721  26.489  1.00  0.00     0.001 A 
ATOM     72  C   UNL A   1      41.940  27.501  25.691  1.00  0.00     0.001 A 
ATOM     73  C   UNL A   1      41.384  26.235  25.522  1.00  0.00     0.000 A 
ENDBRANCH  49  68
BRANCH  61  74
ATOM     74  C   UNL A   1      36.067  32.621  29.450  1.00  0.00    -0.014 A 
ATOM     75  C   UNL A   1      34.818  32.005  29.269  1.00  0.00     0.009 A 
ATOM     76  C   UNL A   1      36.265  33.910  28.927  1.00  0.00     0.009 A 
ATOM     77  C   UNL A   1      33.807  32.650  28.550  1.00  0.00     0.001 A 
ATOM     78  C   UNL A   1      35.242  34.568  28.241  1.00  0.00     0.001 A 
ATOM     79  C   UNL A   1      34.017  33.932  28.043  1.00  0.00     0.000 A 
ENDBRANCH  61  74
ENDBRANCH  35  36
ENDBRANCH  28  30
ENDBRANCH  27  28
ENDBRANCH  26  27
ENDBRANCH  25  26
ENDBRANCH  24  25
ENDBRANCH  23  24
ENDBRANCH   1  23
TORSDOF 23
ENDMDL
MODEL 2
REMARK VINA RESULT:      -7.4     10.736     18.322
REMARK SMILES C=CC[N@@H+](CC(=O)OCCOCCOCCOC(=O)c1ccc(-c2c3nc(c(-c4ccccc4)c4ccc([nH]4)c(-c4ccccc4)c4nc(c(-c5ccccc5)c5ccc2[nH]5)C=C4)C=C3)cc1)Cc1ccnc(C#N)c1
REMARK SMILES IDX 12 1 11 2 10 3 9 4 8 5 6 6 7 7 5 8 4 9 3 11 2 12 1 13 68 14
REMARK SMILES IDX 69 15 70 16 76 17 71 18 73 19 72 20 74 21 75 22 13 23 14 24
REMARK SMILES IDX 15 25 16 26 17 27 18 28 19 29 20 30 21 31 67 32 22 33 66 34
REMARK SMILES IDX 23 35 24 36 25 37 60 38 26 39 65 40 59 41 61 42 27 43 64 44
REMARK SMILES IDX 58 45 57 46 28 48 50 49 35 50 49 51 36 52 39 53 48 54 62 55
REMARK SMILES IDX 37 56 38 57 47 59 63 60 40 61 29 62 30 63 34 64 31 65 33 66
REMARK SMILES IDX 32 67 51 68 52 69 56 70 53 71 55 72 54 73 41 74 42 75 46 76
REMARK SMILES IDX 43 77 45 78 44 79
REMARK H PARENT 4 10 61 47 39 58
REMARK Flexibility Score: inf
ROOT
ATOM      1  C   UNL A   1      42.313  42.354  23.512  1.00  0.00     0.188 C 
ENDROOT
BRANCH   1   2
ATOM      2  O   UNL A   1      42.405  41.962  22.055  1.00  0.00    -0.376 OA
BRANCH   2   3
ATOM      3  C   UNL A   1      41.896  42.851  21.062  1.00  0.00     0.202 C 
BRANCH   3   4
ATOM      4  C   UNL A   1      42.463  43.011  19.621  1.00  0.00     0.261 C 
BRANCH   4   5
ATOM      5  O   UNL A   1      42.946  44.297  19.146  1.00  0.00    -0.459 OA
BRANCH   5   6
ATOM      6  C   UNL A   1      43.569  44.270  17.924  1.00  0.00     0.361 C 
ATOM      7  O   UNL A   1      43.458  43.335  17.134  1.00  0.00    -0.245 OA
BRANCH   6   8
ATOM      8  C   UNL A   1      44.476  45.467  17.622  1.00  0.00     0.387 C 
BRANCH   8   9
ATOM      9  N   UNL A   1      44.413  46.663  18.479  1.00  0.00    -0.319 N 
ATOM     10  H   UNL A   1      43.922  46.330  19.309  1.00  0.00     0.349 HD
BRANCH   9  11
ATOM     11  C   UNL A   1      43.430  47.670  18.110  1.00  0.00     0.291 C 
BRANCH  11  12
ATOM     12  C   UNL A   1      42.966  47.635  16.675  1.00  0.00     0.025 C 
ATOM     13  C   UNL A   1      41.798  48.104  16.213  1.00  0.00     0.010 C 
ENDBRANCH  11  12
ENDBRANCH   9  11
BRANCH   9  14
ATOM     14  C   UNL A   1      45.554  46.987  19.321  1.00  0.00     0.299 C 
BRANCH  14  15
ATOM     15  C   UNL A   1      46.000  45.888  20.246  1.00  0.00     0.011 A 
ATOM     16  C   UNL A   1      47.325  44.769  19.745  1.00  0.00     0.030 A 
ATOM     17  C   UNL A   1      45.268  45.756  21.884  1.00  0.00     0.049 A 
ATOM     18  C   UNL A   1      47.929  43.574  20.928  1.00  0.00     0.113 A 
ATOM     19  C   UNL A   1      45.902  44.540  23.021  1.00  0.00     0.140 A 
ATOM     20  N   UNL A   1      47.196  43.430  22.541  1.00  0.00    -0.246 NA
BRANCH  19  21
ATOM     21  C   UNL A   1      45.341  44.465  24.342  1.00  0.00     0.119 C 
ATOM     22  N   UNL A   1      44.921  44.507  25.421  1.00  0.00    -0.191 NA
ENDBRANCH  19  21
ENDBRANCH  14  15
ENDBRANCH   9  14
ENDBRANCH   8   9
ENDBRANCH   6   8
ENDBRANCH   5   6
ENDBRANCH   4   5
ENDBRANCH   3   4
ENDBRANCH   2   3
ENDBRANCH   1   2
BRANCH   1  23
ATOM     23  C   UNL A   1      42.700  41.222  25.342  1.00  0.00     0.188 C 
BRANCH  23  24
ATOM     24  O   UNL A   1      41.750  40.859  26.523  1.00  0.00    -0.376 OA
BRANCH  24  25
ATOM     25  C   UNL A   1      42.402  40.278  27.662  1.00  0.00     0.202 C 
BRANCH  25  26
ATOM     26  C   UNL A   1      41.841  39.000  28.337  1.00  0.00     0.261 C 
BRANCH  26  27
ATOM     27  O   UNL A   1      42.728  37.890  28.558  1.00  0.00    -0.460 OA
BRANCH  27  28
ATOM     28  C   UNL A   1      42.658  36.842  27.698  1.00  0.00     0.338 C 
ATOM     29  O   UNL A   1      42.581  36.904  26.484  1.00  0.00    -0.246 OA
BRANCH  28  30
ATOM     30  C   UNL A   1      42.848  35.569  28.465  1.00  0.00     0.060 A 
ATOM     31  C   UNL A   1      44.130  35.001  28.548  1.00  0.00     0.016 A 
ATOM     32  C   UNL A   1      41.790  34.950  29.142  1.00  0.00     0.016 A 
ATOM     33  C   UNL A   1      44.349  33.828  29.293  1.00  0.00     0.010 A 
ATOM     34  C   UNL A   1      42.005  33.772  29.874  1.00  0.00     0.010 A 
ATOM     35  C   UNL A   1      43.282  33.188  29.941  1.00  0.00    -0.014 A 
BRANCH  35  36
ATOM     36  C   UNL A   1      43.431  31.802  30.473  1.00  0.00     0.031 A 
ATOM     37  C   UNL A   1      43.707  31.647  31.948  1.00  0.00     0.074 A 
ATOM     38  C   UNL A   1      43.351  30.700  29.700  1.00  0.00     0.049 A 
ATOM     39  N   UNL A   1      43.927  30.564  32.649  1.00  0.00    -0.248 NA
ATOM     40  C   UNL A   1      43.736  32.892  32.733  1.00  0.00     0.031 C 
ATOM     41  C   UNL A   1      43.044  30.679  28.273  1.00  0.00     0.029 A 
ATOM     42  N   UNL A   1      43.529  29.372  30.022  1.00  0.00    -0.354 N 
ATOM     43  C   UNL A   1      44.120  30.998  33.956  1.00  0.00     0.074 A 
ATOM     44  C   UNL A   1      44.022  32.441  33.943  1.00  0.00     0.031 C 
ATOM     45  C   UNL A   1      43.062  29.403  27.840  1.00  0.00     0.029 A 
ATOM     46  C   UNL A   1      43.419  28.516  28.949  1.00  0.00     0.049 A 
ATOM     47  H   UNL A   1      43.718  29.062  30.937  1.00  0.00     0.167 HD
ATOM     48  C   UNL A   1      44.359  30.268  35.072  1.00  0.00     0.031 A 
ATOM     49  C   UNL A   1      43.606  27.181  28.866  1.00  0.00     0.031 A 
ATOM     50  C   UNL A   1      44.506  28.838  35.091  1.00  0.00     0.049 A 
ATOM     51  C   UNL A   1      43.986  26.400  30.103  1.00  0.00     0.074 A 
ATOM     52  C   UNL A   1      44.753  28.013  36.174  1.00  0.00     0.029 A 
ATOM     53  N   UNL A   1      44.446  28.023  33.972  1.00  0.00    -0.354 N 
ATOM     54  N   UNL A   1      44.124  26.818  31.339  1.00  0.00    -0.248 NA
ATOM     55  C   UNL A   1      44.232  24.957  29.933  1.00  0.00     0.031 C 
ATOM     56  C   UNL A   1      44.920  26.709  35.699  1.00  0.00     0.029 A 
ATOM     57  C   UNL A   1      44.692  26.708  34.333  1.00  0.00     0.049 A 
ATOM     58  H   UNL A   1      44.254  28.332  33.057  1.00  0.00     0.167 HD
ATOM     59  C   UNL A   1      44.444  25.691  32.091  1.00  0.00     0.074 A 
ATOM     60  C   UNL A   1      44.455  24.568  31.180  1.00  0.00     0.031 C 
ATOM     61  C   UNL A   1      44.707  25.596  33.419  1.00  0.00     0.031 A 
BRANCH  48  62
ATOM     62  C   UNL A   1      44.530  31.023  36.362  1.00  0.00    -0.014 A 
ATOM     63  C   UNL A   1      43.443  31.275  37.216  1.00  0.00     0.009 A 
ATOM     64  C   UNL A   1      45.805  31.479  36.735  1.00  0.00     0.009 A 
ATOM     65  C   UNL A   1      43.623  32.005  38.392  1.00  0.00     0.001 A 
ATOM     66  C   UNL A   1      45.987  32.177  37.930  1.00  0.00     0.001 A 
ATOM     67  C   UNL A   1      44.894  32.451  38.750  1.00  0.00     0.000 A 
ENDBRANCH  48  62
BRANCH  49  68
ATOM     68  C   UNL A   1      43.478  26.474  27.555  1.00  0.00    -0.014 A 
ATOM     69  C   UNL A   1      44.575  26.358  26.685  1.00  0.00     0.009 A 
ATOM     70  C   UNL A   1      42.238  25.963  27.140  1.00  0.00     0.009 A 
ATOM     71  C   UNL A   1      44.425  25.775  25.422  1.00  0.00     0.001 A 
ATOM     72  C   UNL A   1      42.099  25.348  25.891  1.00  0.00     0.001 A 
ATOM     73  C   UNL A   1      43.189  25.266  25.029  1.00  0.00     0.000 A 
ENDBRANCH  49  68
BRANCH  61  74
ATOM     74  C   UNL A   1      44.996  24.228  33.982  1.00  0.00    -0.014 A 
ATOM     75  C   UNL A   1      43.968  23.311  34.251  1.00  0.00     0.009 A 
ATOM     76  C   UNL A   1      46.327  23.830  34.193  1.00  0.00     0.009 A 
ATOM     77  C   UNL A   1      44.265  22.041  34.753  1.00  0.00     0.001 A 
ATOM     78  C   UNL A   1      46.623  22.548  34.659  1.00  0.00     0.001 A 
ATOM     79  C   UNL A   1      45.591  21.658  34.950  1.00  0.00     0.000 A 
ENDBRANCH  61  74
ENDBRANCH  35  36
ENDBRANCH  28  30
ENDBRANCH  27  28
ENDBRANCH  26  27
ENDBRANCH  25  26
ENDBRANCH  24  25
ENDBRANCH  23  24
ENDBRANCH   1  23
TORSDOF 23
ENDMDL
MODEL 3
REMARK VINA RESULT:      -7.2      9.400     15.879
REMARK SMILES C=CC[N@@H+](CC(=O)OCCOCCOCCOC(=O)c1ccc(-c2c3nc(c(-c4ccccc4)c4ccc([nH]4)c(-c4ccccc4)c4nc(c(-c5ccccc5)c5ccc2[nH]5)C=C4)C=C3)cc1)Cc1ccnc(C#N)c1
REMARK SMILES IDX 12 1 11 2 10 3 9 4 8 5 6 6 7 7 5 8 4 9 3 11 2 12 1 13 68 14
REMARK SMILES IDX 69 15 70 16 76 17 71 18 73 19 72 20 74 21 75 22 13 23 14 24
REMARK SMILES IDX 15 25 16 26 17 27 18 28 19 29 20 30 21 31 67 32 22 33 66 34
REMARK SMILES IDX 23 35 24 36 25 37 60 38 26 39 65 40 59 41 61 42 27 43 64 44
REMARK SMILES IDX 58 45 57 46 28 48 50 49 35 50 49 51 36 52 39 53 48 54 62 55
REMARK SMILES IDX 37 56 38 57 47 59 63 60 40 61 29 62 30 63 34 64 31 65 33 66
REMARK SMILES IDX 32 67 51 68 52 69 56 70 53 71 55 72 54 73 41 74 42 75 46 76
REMARK SMILES IDX 43 77 45 78 44 79
REMARK H PARENT 4 10 61 47 39 58
REMARK Flexibility Score: inf
ROOT
ATOM      1  C   UNL A   1      34.481  33.813  29.474  1.00  0.00     0.188 C 
ENDROOT
BRANCH   1   2
ATOM      2  O   UNL A   1      34.105  33.184  28.151  1.00  0.00    -0.376 OA
BRANCH   2   3
ATOM      3  C   UNL A   1      34.699  31.941  27.779  1.00  0.00     0.202 C 
BRANCH   3   4
ATOM      4  C   UNL A   1      33.976  30.561  27.778  1.00  0.00     0.261 C 
BRANCH   4   5
ATOM      5  O   UNL A   1      32.571  30.453  27.422  1.00  0.00    -0.459 OA
BRANCH   5   6
ATOM      6  C   UNL A   1      32.216  29.281  26.805  1.00  0.00     0.361 C 
ATOM      7  O   UNL A   1      32.161  28.202  27.391  1.00  0.00    -0.245 OA
BRANCH   6   8
ATOM      8  C   UNL A   1      31.945  29.387  25.299  1.00  0.00     0.387 C 
BRANCH   8   9
ATOM      9  N   UNL A   1      32.052  28.186  24.455  1.00  0.00    -0.319 N 
ATOM     10  H   UNL A   1      32.041  28.564  23.508  1.00  0.00     0.349 HD
BRANCH   9  11
ATOM     11  C   UNL A   1      30.845  27.384  24.318  1.00  0.00     0.291 C 
BRANCH  11  12
ATOM     12  C   UNL A   1      29.799  27.933  23.381  1.00  0.00     0.025 C 
ATOM     13  C   UNL A   1      30.008  28.827  22.403  1.00  0.00     0.010 C 
ENDBRANCH  11  12
ENDBRANCH   9  11
BRANCH   9  14
ATOM     14  C   UNL A   1      33.369  27.629  24.185  1.00  0.00     0.299 C 
BRANCH  14  15
ATOM     15  C   UNL A   1      33.437  26.127  24.168  1.00  0.00     0.011 A 
ATOM     16  C   UNL A   1      33.511  25.245  22.594  1.00  0.00     0.030 A 
ATOM     17  C   UNL A   1      33.537  25.225  25.721  1.00  0.00     0.049 A 
ATOM     18  C   UNL A   1      33.744  23.473  22.617  1.00  0.00     0.113 A 
ATOM     19  C   UNL A   1      33.759  23.459  25.686  1.00  0.00     0.140 A 
ATOM     20  N   UNL A   1      33.825  22.578  24.151  1.00  0.00    -0.246 NA
BRANCH  19  21
ATOM     21  C   UNL A   1      33.878  22.748  26.930  1.00  0.00     0.119 C 
ATOM     22  N   UNL A   1      33.943  22.266  27.982  1.00  0.00    -0.191 NA
ENDBRANCH  19  21
ENDBRANCH  14  15
ENDBRANCH   9  14
ENDBRANCH   8   9
ENDBRANCH   6   8
ENDBRANCH   5   6
ENDBRANCH   4   5
ENDBRANCH   3   4
ENDBRANCH   2   3
ENDBRANCH   1   2
BRANCH   1  23
ATOM     23  C   UNL A   1      34.741  32.948  31.465  1.00  0.00     0.188 C 
BRANCH  23  24
ATOM     24  O   UNL A   1      35.500  31.663  31.914  1.00  0.00    -0.376 OA
BRANCH  24  25
ATOM     25  C   UNL A   1      36.913  31.834  32.100  1.00  0.00     0.202 C 
BRANCH  25  26
ATOM     26  C   UNL A   1      37.476  32.483  33.391  1.00  0.00     0.261 C 
BRANCH  26  27
ATOM     27  O   UNL A   1      38.871  32.828  33.437  1.00  0.00    -0.460 OA
BRANCH  27  28
ATOM     28  C   UNL A   1      39.202  34.141  33.337  1.00  0.00     0.338 C 
ATOM     29  O   UNL A   1      38.684  35.068  33.933  1.00  0.00    -0.246 OA
BRANCH  28  30
ATOM     30  C   UNL A   1      40.426  34.270  32.481  1.00  0.00     0.060 A 
ATOM     31  C   UNL A   1      41.604  34.790  33.041  1.00  0.00     0.016 A 
ATOM     32  C   UNL A   1      40.442  33.845  31.147  1.00  0.00     0.016 A 
ATOM     33  C   UNL A   1      42.781  34.887  32.277  1.00  0.00     0.010 A 
ATOM     34  C   UNL A   1      41.612  33.955  30.379  1.00  0.00     0.010 A 
ATOM     35  C   UNL A   1      42.788  34.495  30.929  1.00  0.00    -0.014 A 
BRANCH  35  36
ATOM     36  C   UNL A   1      43.918  34.868  30.030  1.00  0.00     0.031 A 
ATOM     37  C   UNL A   1      45.018  33.854  29.836  1.00  0.00     0.074 A 
ATOM     38  C   UNL A   1      44.008  36.060  29.409  1.00  0.00     0.049 A 
ATOM     39  N   UNL A   1      46.131  33.945  29.153  1.00  0.00    -0.248 NA
ATOM     40  C   UNL A   1      44.829  32.559  30.511  1.00  0.00     0.031 C 
ATOM     41  C   UNL A   1      43.009  37.125  29.455  1.00  0.00     0.029 A 
ATOM     42  N   UNL A   1      45.006  36.576  28.610  1.00  0.00    -0.354 N 
ATOM     43  C   UNL A   1      46.771  32.721  29.315  1.00  0.00     0.074 A 
ATOM     44  C   UNL A   1      45.939  31.919  30.185  1.00  0.00     0.031 C 
ATOM     45  C   UNL A   1      43.447  38.168  28.725  1.00  0.00     0.029 A 
ATOM     46  C   UNL A   1      44.775  37.866  28.188  1.00  0.00     0.049 A 
ATOM     47  H   UNL A   1      45.813  36.068  28.364  1.00  0.00     0.167 HD
ATOM     48  C   UNL A   1      47.945  32.296  28.791  1.00  0.00     0.031 A 
ATOM     49  C   UNL A   1      45.549  38.709  27.472  1.00  0.00     0.031 A 
ATOM     50  C   UNL A   1      48.805  33.099  27.965  1.00  0.00     0.049 A 
ATOM     51  C   UNL A   1      46.910  38.253  26.995  1.00  0.00     0.074 A 
ATOM     52  C   UNL A   1      50.016  32.754  27.392  1.00  0.00     0.029 A 
ATOM     53  N   UNL A   1      48.557  34.416  27.614  1.00  0.00    -0.354 N 
ATOM     54  N   UNL A   1      47.483  37.080  27.121  1.00  0.00    -0.248 NA
ATOM     55  C   UNL A   1      47.729  39.240  26.270  1.00  0.00     0.031 C 
ATOM     56  C   UNL A   1      50.538  33.886  26.761  1.00  0.00     0.029 A 
ATOM     57  C   UNL A   1      49.613  34.912  26.867  1.00  0.00     0.049 A 
ATOM     58  H   UNL A   1      47.749  34.924  27.858  1.00  0.00     0.167 HD
ATOM     59  C   UNL A   1      48.711  37.181  26.471  1.00  0.00     0.074 A 
ATOM     60  C   UNL A   1      48.789  38.521  25.930  1.00  0.00     0.031 C 
ATOM     61  C   UNL A   1      49.687  36.248  26.336  1.00  0.00     0.031 A 
BRANCH  48  62
ATOM     62  C   UNL A   1      48.393  30.905  29.151  1.00  0.00    -0.014 A 
ATOM     63  C   UNL A   1      49.180  30.658  30.288  1.00  0.00     0.009 A 
ATOM     64  C   UNL A   1      48.008  29.822  28.345  1.00  0.00     0.009 A 
ATOM     65  C   UNL A   1      49.609  29.362  30.583  1.00  0.00     0.001 A 
ATOM     66  C   UNL A   1      48.408  28.523  28.663  1.00  0.00     0.001 A 
ATOM     67  C   UNL A   1      49.218  28.296  29.774  1.00  0.00     0.000 A 
ENDBRANCH  48  62
BRANCH  49  68
ATOM     68  C   UNL A   1      45.092  40.102  27.179  1.00  0.00    -0.014 A 
ATOM     69  C   UNL A   1      44.389  40.401  26.000  1.00  0.00     0.009 A 
ATOM     70  C   UNL A   1      45.411  41.154  28.052  1.00  0.00     0.009 A 
ATOM     71  C   UNL A   1      44.044  41.720  25.690  1.00  0.00     0.001 A 
ATOM     72  C   UNL A   1      45.033  42.468  27.757  1.00  0.00     0.001 A 
ATOM     73  C   UNL A   1      44.361  42.751  26.571  1.00  0.00     0.000 A 
ENDBRANCH  49  68
BRANCH  61  74
ATOM     74  C   UNL A   1      50.913  36.624  25.545  1.00  0.00    -0.014 A 
ATOM     75  C   UNL A   1      51.925  37.427  26.094  1.00  0.00     0.009 A 
ATOM     76  C   UNL A   1      51.084  36.117  24.246  1.00  0.00     0.009 A 
ATOM     77  C   UNL A   1      53.063  37.743  25.347  1.00  0.00     0.001 A 
ATOM     78  C   UNL A   1      52.239  36.404  23.514  1.00  0.00     0.001 A 
ATOM     79  C   UNL A   1      53.222  37.227  24.061  1.00  0.00     0.000 A 
ENDBRANCH  61  74
ENDBRANCH  35  36
ENDBRANCH  28  30
ENDBRANCH  27  28
ENDBRANCH  26  27
ENDBRANCH  25  26
ENDBRANCH  24  25
ENDBRANCH  23  24
ENDBRANCH   1  23
TORSDOF 23
ENDMDL
