MODEL 1
REMARK VINA RESULT:     -10.3      0.000      0.000
REMARK SMILES CC[NH+]1CC[NH+]([C@@H]2CC(=O)N(c3ccc(C(=O)OCCOCCOCCOC(=O)c4ccc(-c5c6nc(c(-c7ccccc7)c7ccc([nH]7)c(-c7ccccc7)c7nc(c(-c8ccccc8)c8ccc5[nH]8)C=C7)C=C6)cc4)cc3)C2=O)CC1
REMARK SMILES IDX 22 1 21 2 20 3 19 4 18 5 16 6 17 7 15 8 12 9 13 10 79 11
REMARK SMILES IDX 14 12 78 13 11 14 7 15 8 16 80 17 9 18 81 19 10 20 6 21 3 22
REMARK SMILES IDX 4 23 83 24 5 26 82 27 2 29 1 30 23 31 24 32 25 33 26 34
REMARK SMILES IDX 27 35 28 36 29 37 30 38 31 39 77 40 32 41 76 42 33 43 34 44
REMARK SMILES IDX 35 45 70 46 36 47 75 48 69 49 71 50 37 51 74 52 68 53 67 54
REMARK SMILES IDX 38 56 60 57 45 58 59 59 46 60 49 61 58 62 72 63 47 64 48 65
REMARK SMILES IDX 57 67 73 68 50 69 39 70 40 71 44 72 41 73 43 74 42 75 61 76
REMARK SMILES IDX 62 77 66 78 63 79 65 80 64 81 51 82 52 83 56 84 53 85 55 86
REMARK SMILES IDX 54 87
REMARK H PARENT 3 25 6 28 71 55 49 66
REMARK Flexibility Score: inf
ROOT
ATOM      1  C   UNL A   1      33.732  29.022  26.467  1.00  0.00     0.188 C 
ENDROOT
BRANCH   1   2
ATOM      2  O   UNL A   1      33.978  28.800  25.091  1.00  0.00    -0.376 OA
BRANCH   2   3
ATOM      3  C   UNL A   1      32.903  28.589  24.189  1.00  0.00     0.202 C 
BRANCH   3   4
ATOM      4  C   UNL A   1      31.506  29.183  24.422  1.00  0.00     0.261 C 
BRANCH   4   5
ATOM      5  O   UNL A   1      30.420  28.272  24.239  1.00  0.00    -0.460 OA
BRANCH   5   6
ATOM      6  C   UNL A   1      30.393  27.645  23.032  1.00  0.00     0.338 C 
ATOM      7  O   UNL A   1      30.253  28.150  21.942  1.00  0.00    -0.246 OA
BRANCH   6   8
ATOM      8  C   UNL A   1      30.774  26.229  23.220  1.00  0.00     0.060 A 
ATOM      9  C   UNL A   1      31.463  23.557  23.714  1.00  0.00     0.052 A 
ATOM     10  C   UNL A   1      30.304  24.104  24.282  1.00  0.00     0.028 A 
ATOM     11  C   UNL A   1      32.223  24.346  22.836  1.00  0.00     0.028 A 
ATOM     12  C   UNL A   1      29.981  25.444  24.065  1.00  0.00     0.018 A 
ATOM     13  C   UNL A   1      31.872  25.673  22.570  1.00  0.00     0.018 A 
BRANCH   9  14
ATOM     14  N   UNL A   1      31.917  22.275  24.117  1.00  0.00    -0.245 N 
ATOM     15  C   UNL A   1      32.972  20.585  25.375  1.00  0.00     0.285 C 
ATOM     16  C   UNL A   1      32.805  20.116  23.939  1.00  0.00     0.176 C 
ATOM     17  C   UNL A   1      32.273  21.942  25.404  1.00  0.00     0.292 C 
ATOM     18  C   UNL A   1      32.161  21.259  23.228  1.00  0.00     0.240 C 
ATOM     19  O   UNL A   1      32.072  22.595  26.422  1.00  0.00    -0.267 OA
ATOM     20  O   UNL A   1      31.975  21.243  22.017  1.00  0.00    -0.274 OA
BRANCH  15  21
ATOM     21  N   UNL A   1      34.323  20.657  25.968  1.00  0.00    -0.315 N 
ATOM     22  N   UNL A   1      36.284  22.844  25.272  1.00  0.00    -0.326 N 
ATOM     23  C   UNL A   1      36.015  21.713  24.368  1.00  0.00     0.324 C 
ATOM     24  C   UNL A   1      35.131  23.068  26.170  1.00  0.00     0.324 C 
ATOM     25  H   UNL A   1      36.424  23.638  24.647  1.00  0.00     0.348 HD
ATOM     26  C   UNL A   1      35.433  20.441  25.027  1.00  0.00     0.325 C 
ATOM     27  C   UNL A   1      34.611  21.787  26.864  1.00  0.00     0.325 C 
ATOM     28  H   UNL A   1      34.270  19.845  26.582  1.00  0.00     0.349 HD
BRANCH  22  29
ATOM     29  C   UNL A   1      37.527  22.767  26.055  1.00  0.00     0.259 C 
ATOM     30  C   UNL A   1      38.265  24.076  26.305  1.00  0.00     0.071 C 
ENDBRANCH  22  29
ENDBRANCH  15  21
ENDBRANCH   9  14
ENDBRANCH   6   8
ENDBRANCH   5   6
ENDBRANCH   4   5
ENDBRANCH   3   4
ENDBRANCH   2   3
ENDBRANCH   1   2
BRANCH   1  31
ATOM     31  C   UNL A   1      33.484  30.445  27.010  1.00  0.00     0.188 C 
BRANCH  31  32
ATOM     32  O   UNL A   1      32.159  30.849  27.252  1.00  0.00    -0.376 OA
BRANCH  32  33
ATOM     33  C   UNL A   1      31.638  32.030  26.666  1.00  0.00     0.202 C 
BRANCH  33  34
ATOM     34  C   UNL A   1      32.139  33.467  26.907  1.00  0.00     0.261 C 
BRANCH  34  35
ATOM     35  O   UNL A   1      32.506  33.842  28.235  1.00  0.00    -0.460 OA
BRANCH  35  36
ATOM     36  C   UNL A   1      33.668  34.532  28.344  1.00  0.00     0.338 C 
ATOM     37  O   UNL A   1      33.829  35.737  28.263  1.00  0.00    -0.246 OA
BRANCH  36  38
ATOM     38  C   UNL A   1      34.734  33.596  28.741  1.00  0.00     0.060 A 
ATOM     39  C   UNL A   1      34.394  32.459  29.487  1.00  0.00     0.016 A 
ATOM     40  C   UNL A   1      36.062  33.861  28.407  1.00  0.00     0.016 A 
ATOM     41  C   UNL A   1      35.392  31.585  29.916  1.00  0.00     0.010 A 
ATOM     42  C   UNL A   1      37.061  32.997  28.858  1.00  0.00     0.010 A 
ATOM     43  C   UNL A   1      36.735  31.869  29.633  1.00  0.00    -0.014 A 
BRANCH  43  44
ATOM     44  C   UNL A   1      37.817  31.091  30.283  1.00  0.00     0.031 A 
ATOM     45  C   UNL A   1      38.116  31.350  31.733  1.00  0.00     0.074 A 
ATOM     46  C   UNL A   1      38.533  30.184  29.597  1.00  0.00     0.049 A 
ATOM     47  N   UNL A   1      39.077  30.874  32.481  1.00  0.00    -0.248 NA
ATOM     48  C   UNL A   1      37.209  32.278  32.431  1.00  0.00     0.031 C 
ATOM     49  C   UNL A   1      38.314  29.807  28.203  1.00  0.00     0.029 A 
ATOM     50  N   UNL A   1      39.610  29.428  29.987  1.00  0.00    -0.354 N 
ATOM     51  C   UNL A   1      38.896  31.447  33.733  1.00  0.00     0.074 A 
ATOM     52  C   UNL A   1      37.753  32.328  33.637  1.00  0.00     0.031 C 
ATOM     53  C   UNL A   1      39.244  28.903  27.846  1.00  0.00     0.029 A 
ATOM     54  C   UNL A   1      40.144  28.670  28.974  1.00  0.00     0.049 A 
ATOM     55  H   UNL A   1      39.965  29.428  30.905  1.00  0.00     0.167 HD
ATOM     56  C   UNL A   1      39.615  31.255  34.864  1.00  0.00     0.031 A 
ATOM     57  C   UNL A   1      41.253  27.904  28.952  1.00  0.00     0.031 A 
ATOM     58  C   UNL A   1      40.767  30.398  34.954  1.00  0.00     0.049 A 
ATOM     59  C   UNL A   1      42.094  27.782  30.197  1.00  0.00     0.074 A 
ATOM     60  C   UNL A   1      41.562  30.137  36.057  1.00  0.00     0.029 A 
ATOM     61  N   UNL A   1      41.291  29.670  33.899  1.00  0.00    -0.354 N 
ATOM     62  N   UNL A   1      41.905  28.311  31.381  1.00  0.00    -0.248 NA
ATOM     63  C   UNL A   1      43.303  26.948  30.101  1.00  0.00     0.031 C 
ATOM     64  C   UNL A   1      42.603  29.295  35.653  1.00  0.00     0.029 A 
ATOM     65  C   UNL A   1      42.417  28.979  34.316  1.00  0.00     0.049 A 
ATOM     66  H   UNL A   1      40.919  29.647  32.988  1.00  0.00     0.167 HD
ATOM     67  C   UNL A   1      42.949  27.851  32.176  1.00  0.00     0.074 A 
ATOM     68  C   UNL A   1      43.760  26.988  31.344  1.00  0.00     0.031 C 
ATOM     69  C   UNL A   1      43.210  28.117  33.479  1.00  0.00     0.031 A 
BRANCH  56  70
ATOM     70  C   UNL A   1      39.192  32.018  36.088  1.00  0.00    -0.014 A 
ATOM     71  C   UNL A   1      39.780  33.249  36.419  1.00  0.00     0.009 A 
ATOM     72  C   UNL A   1      38.173  31.510  36.907  1.00  0.00     0.009 A 
ATOM     73  C   UNL A   1      39.379  33.938  37.565  1.00  0.00     0.001 A 
ATOM     74  C   UNL A   1      37.751  32.216  38.035  1.00  0.00     0.001 A 
ATOM     75  C   UNL A   1      38.361  33.424  38.368  1.00  0.00     0.000 A 
ENDBRANCH  56  70
BRANCH  57  76
ATOM     76  C   UNL A   1      41.662  27.218  27.697  1.00  0.00    -0.014 A 
ATOM     77  C   UNL A   1      41.363  25.863  27.489  1.00  0.00     0.009 A 
ATOM     78  C   UNL A   1      42.389  27.909  26.714  1.00  0.00     0.009 A 
ATOM     79  C   UNL A   1      41.807  25.208  26.339  1.00  0.00     0.001 A 
ATOM     80  C   UNL A   1      42.804  27.260  25.550  1.00  0.00     0.001 A 
ATOM     81  C   UNL A   1      42.523  25.907  25.368  1.00  0.00     0.000 A 
ENDBRANCH  57  76
BRANCH  69  82
ATOM     82  C   UNL A   1      44.393  27.431  34.107  1.00  0.00    -0.014 A 
ATOM     83  C   UNL A   1      44.278  26.161  34.692  1.00  0.00     0.009 A 
ATOM     84  C   UNL A   1      45.654  28.046  34.060  1.00  0.00     0.009 A 
ATOM     85  C   UNL A   1      45.398  25.534  35.242  1.00  0.00     0.001 A 
ATOM     86  C   UNL A   1      46.778  27.403  34.582  1.00  0.00     0.001 A 
ATOM     87  C   UNL A   1      46.647  26.152  35.181  1.00  0.00     0.000 A 
ENDBRANCH  69  82
ENDBRANCH  43  44
ENDBRANCH  36  38
ENDBRANCH  35  36
ENDBRANCH  34  35
ENDBRANCH  33  34
ENDBRANCH  32  33
ENDBRANCH  31  32
ENDBRANCH   1  31
TORSDOF 20
ENDMDL
MODEL 2
REMARK VINA RESULT:     -10.2      0.701      5.683
REMARK SMILES CC[NH+]1CC[NH+]([C@@H]2CC(=O)N(c3ccc(C(=O)OCCOCCOCCOC(=O)c4ccc(-c5c6nc(c(-c7ccccc7)c7ccc([nH]7)c(-c7ccccc7)c7nc(c(-c8ccccc8)c8ccc5[nH]8)C=C7)C=C6)cc4)cc3)C2=O)CC1
REMARK SMILES IDX 22 1 21 2 20 3 19 4 18 5 16 6 17 7 15 8 12 9 13 10 79 11
REMARK SMILES IDX 14 12 78 13 11 14 7 15 8 16 80 17 9 18 81 19 10 20 6 21 3 22
REMARK SMILES IDX 4 23 83 24 5 26 82 27 2 29 1 30 23 31 24 32 25 33 26 34
REMARK SMILES IDX 27 35 28 36 29 37 30 38 31 39 77 40 32 41 76 42 33 43 34 44
REMARK SMILES IDX 35 45 70 46 36 47 75 48 69 49 71 50 37 51 74 52 68 53 67 54
REMARK SMILES IDX 38 56 60 57 45 58 59 59 46 60 49 61 58 62 72 63 47 64 48 65
REMARK SMILES IDX 57 67 73 68 50 69 39 70 40 71 44 72 41 73 43 74 42 75 61 76
REMARK SMILES IDX 62 77 66 78 63 79 65 80 64 81 51 82 52 83 56 84 53 85 55 86
REMARK SMILES IDX 54 87
REMARK H PARENT 3 25 6 28 71 55 49 66
REMARK Flexibility Score: inf
ROOT
ATOM      1  C   UNL A   1      33.914  28.849  26.545  1.00  0.00     0.188 C 
ENDROOT
BRANCH   1   2
ATOM      2  O   UNL A   1      34.293  28.920  25.183  1.00  0.00    -0.376 OA
BRANCH   2   3
ATOM      3  C   UNL A   1      33.410  28.478  24.164  1.00  0.00     0.202 C 
BRANCH   3   4
ATOM      4  C   UNL A   1      32.082  29.188  23.861  1.00  0.00     0.261 C 
BRANCH   4   5
ATOM      5  O   UNL A   1      30.910  28.389  24.046  1.00  0.00    -0.460 OA
BRANCH   5   6
ATOM      6  C   UNL A   1      30.536  27.659  22.961  1.00  0.00     0.338 C 
ATOM      7  O   UNL A   1      30.124  28.071  21.901  1.00  0.00    -0.246 OA
BRANCH   6   8
ATOM      8  C   UNL A   1      30.903  26.245  23.188  1.00  0.00     0.060 A 
ATOM      9  C   UNL A   1      31.581  23.584  23.755  1.00  0.00     0.052 A 
ATOM     10  C   UNL A   1      30.491  24.188  24.396  1.00  0.00     0.028 A 
ATOM     11  C   UNL A   1      32.273  24.310  22.771  1.00  0.00     0.028 A 
ATOM     12  C   UNL A   1      30.176  25.523  24.141  1.00  0.00     0.018 A 
ATOM     13  C   UNL A   1      31.926  25.630  22.470  1.00  0.00     0.018 A 
BRANCH   9  14
ATOM     14  N   UNL A   1      32.044  22.314  24.181  1.00  0.00    -0.245 N 
ATOM     15  C   UNL A   1      33.142  20.659  25.449  1.00  0.00     0.285 C 
ATOM     16  C   UNL A   1      32.911  20.143  24.038  1.00  0.00     0.176 C 
ATOM     17  C   UNL A   1      32.453  22.021  25.462  1.00  0.00     0.292 C 
ATOM     18  C   UNL A   1      32.244  21.267  23.317  1.00  0.00     0.240 C 
ATOM     19  O   UNL A   1      32.299  22.709  26.465  1.00  0.00    -0.267 OA
ATOM     20  O   UNL A   1      32.007  21.211  22.116  1.00  0.00    -0.274 OA
BRANCH  15  21
ATOM     21  N   UNL A   1      34.517  20.741  25.982  1.00  0.00    -0.315 N 
ATOM     22  N   UNL A   1      36.478  22.853  25.087  1.00  0.00    -0.326 N 
ATOM     23  C   UNL A   1      36.155  21.680  24.259  1.00  0.00     0.324 C 
ATOM     24  C   UNL A   1      35.367  23.145  26.018  1.00  0.00     0.324 C 
ATOM     25  H   UNL A   1      36.604  23.610  24.415  1.00  0.00     0.348 HD
ATOM     26  C   UNL A   1      35.584  20.455  25.010  1.00  0.00     0.325 C 
ATOM     27  C   UNL A   1      34.858  21.913  26.802  1.00  0.00     0.325 C 
ATOM     28  H   UNL A   1      34.479  19.964  26.640  1.00  0.00     0.349 HD
BRANCH  22  29
ATOM     29  C   UNL A   1      37.752  22.798  25.822  1.00  0.00     0.259 C 
ATOM     30  C   UNL A   1      38.160  24.052  26.586  1.00  0.00     0.071 C 
ENDBRANCH  22  29
ENDBRANCH  15  21
ENDBRANCH   9  14
ENDBRANCH   6   8
ENDBRANCH   5   6
ENDBRANCH   4   5
ENDBRANCH   3   4
ENDBRANCH   2   3
ENDBRANCH   1   2
BRANCH   1  31
ATOM     31  C   UNL A   1      33.482  30.113  27.316  1.00  0.00     0.188 C 
BRANCH  31  32
ATOM     32  O   UNL A   1      32.130  30.498  27.268  1.00  0.00    -0.376 OA
BRANCH  32  33
ATOM     33  C   UNL A   1      31.722  31.639  26.533  1.00  0.00     0.202 C 
BRANCH  33  34
ATOM     34  C   UNL A   1      31.986  33.109  26.908  1.00  0.00     0.261 C 
BRANCH  34  35
ATOM     35  O   UNL A   1      32.250  33.423  28.275  1.00  0.00    -0.460 OA
BRANCH  35  36
ATOM     36  C   UNL A   1      33.218  34.350  28.482  1.00  0.00     0.338 C 
ATOM     37  O   UNL A   1      33.111  35.562  28.435  1.00  0.00    -0.246 OA
BRANCH  36  38
ATOM     38  C   UNL A   1      34.436  33.661  28.942  1.00  0.00     0.060 A 
ATOM     39  C   UNL A   1      34.307  32.482  29.688  1.00  0.00     0.016 A 
ATOM     40  C   UNL A   1      35.694  34.197  28.666  1.00  0.00     0.016 A 
ATOM     41  C   UNL A   1      35.444  31.839  30.177  1.00  0.00     0.010 A 
ATOM     42  C   UNL A   1      36.829  33.565  29.175  1.00  0.00     0.010 A 
ATOM     43  C   UNL A   1      36.710  32.398  29.952  1.00  0.00    -0.014 A 
BRANCH  43  44
ATOM     44  C   UNL A   1      37.898  31.868  30.662  1.00  0.00     0.031 A 
ATOM     45  C   UNL A   1      38.727  30.812  29.985  1.00  0.00     0.074 A 
ATOM     46  C   UNL A   1      38.228  32.302  31.890  1.00  0.00     0.049 A 
ATOM     47  N   UNL A   1      39.741  30.129  30.449  1.00  0.00    -0.248 NA
ATOM     48  C   UNL A   1      38.356  30.481  28.599  1.00  0.00     0.031 C 
ATOM     49  C   UNL A   1      37.536  33.352  32.635  1.00  0.00     0.029 A 
ATOM     50  N   UNL A   1      39.228  31.889  32.736  1.00  0.00    -0.354 N 
ATOM     51  C   UNL A   1      40.124  29.282  29.417  1.00  0.00     0.074 A 
ATOM     52  C   UNL A   1      39.219  29.517  28.314  1.00  0.00     0.031 C 
ATOM     53  C   UNL A   1      38.121  33.487  33.839  1.00  0.00     0.029 A 
ATOM     54  C   UNL A   1      39.199  32.507  33.962  1.00  0.00     0.049 A 
ATOM     55  H   UNL A   1      39.900  31.215  32.487  1.00  0.00     0.167 HD
ATOM     56  C   UNL A   1      41.144  28.391  29.388  1.00  0.00     0.031 A 
ATOM     57  C   UNL A   1      39.938  32.283  35.067  1.00  0.00     0.031 A 
ATOM     58  C   UNL A   1      42.030  28.140  30.492  1.00  0.00     0.049 A 
ATOM     59  C   UNL A   1      41.003  31.217  35.043  1.00  0.00     0.074 A 
ATOM     60  C   UNL A   1      43.094  27.256  30.559  1.00  0.00     0.029 A 
ATOM     61  N   UNL A   1      41.950  28.767  31.725  1.00  0.00    -0.354 N 
ATOM     62  N   UNL A   1      41.372  30.436  34.058  1.00  0.00    -0.248 NA
ATOM     63  C   UNL A   1      41.759  31.008  36.288  1.00  0.00     0.031 C 
ATOM     64  C   UNL A   1      43.621  27.307  31.853  1.00  0.00     0.029 A 
ATOM     65  C   UNL A   1      42.928  28.271  32.570  1.00  0.00     0.049 A 
ATOM     66  H   UNL A   1      41.296  29.462  31.964  1.00  0.00     0.167 HD
ATOM     67  C   UNL A   1      42.420  29.667  34.552  1.00  0.00     0.074 A 
ATOM     68  C   UNL A   1      42.637  30.086  35.920  1.00  0.00     0.031 C 
ATOM     69  C   UNL A   1      43.139  28.703  33.927  1.00  0.00     0.031 A 
BRANCH  56  70
ATOM     70  C   UNL A   1      41.328  27.596  28.125  1.00  0.00    -0.014 A 
ATOM     71  C   UNL A   1      41.076  26.215  28.090  1.00  0.00     0.009 A 
ATOM     72  C   UNL A   1      41.735  28.243  26.949  1.00  0.00     0.009 A 
ATOM     73  C   UNL A   1      41.261  25.494  26.909  1.00  0.00     0.001 A 
ATOM     74  C   UNL A   1      41.890  27.524  25.762  1.00  0.00     0.001 A 
ATOM     75  C   UNL A   1      41.662  26.150  25.746  1.00  0.00     0.000 A 
ENDBRANCH  56  70
BRANCH  57  76
ATOM     76  C   UNL A   1      39.674  33.056  36.311  1.00  0.00    -0.014 A 
ATOM     77  C   UNL A   1      40.418  34.207  36.612  1.00  0.00     0.009 A 
ATOM     78  C   UNL A   1      38.699  32.622  37.223  1.00  0.00     0.009 A 
ATOM     79  C   UNL A   1      40.211  34.890  37.813  1.00  0.00     0.001 A 
ATOM     80  C   UNL A   1      38.472  33.325  38.408  1.00  0.00     0.001 A 
ATOM     81  C   UNL A   1      39.235  34.452  38.708  1.00  0.00     0.000 A 
ENDBRANCH  57  76
BRANCH  69  82
ATOM     82  C   UNL A   1      44.264  28.065  34.696  1.00  0.00    -0.014 A 
ATOM     83  C   UNL A   1      45.552  28.623  34.709  1.00  0.00     0.009 A 
ATOM     84  C   UNL A   1      44.014  26.917  35.464  1.00  0.00     0.009 A 
ATOM     85  C   UNL A   1      46.571  28.026  35.455  1.00  0.00     0.001 A 
ATOM     86  C   UNL A   1      45.026  26.341  36.233  1.00  0.00     0.001 A 
ATOM     87  C   UNL A   1      46.306  26.892  36.220  1.00  0.00     0.000 A 
ENDBRANCH  69  82
ENDBRANCH  43  44
ENDBRANCH  36  38
ENDBRANCH  35  36
ENDBRANCH  34  35
ENDBRANCH  33  34
ENDBRANCH  32  33
ENDBRANCH  31  32
ENDBRANCH   1  31
TORSDOF 20
ENDMDL
MODEL 3
REMARK VINA RESULT:     -10.1      5.415     10.651
REMARK SMILES CC[NH+]1CC[NH+]([C@@H]2CC(=O)N(c3ccc(C(=O)OCCOCCOCCOC(=O)c4ccc(-c5c6nc(c(-c7ccccc7)c7ccc([nH]7)c(-c7ccccc7)c7nc(c(-c8ccccc8)c8ccc5[nH]8)C=C7)C=C6)cc4)cc3)C2=O)CC1
REMARK SMILES IDX 22 1 21 2 20 3 19 4 18 5 16 6 17 7 15 8 12 9 13 10 79 11
REMARK SMILES IDX 14 12 78 13 11 14 7 15 8 16 80 17 9 18 81 19 10 20 6 21 3 22
REMARK SMILES IDX 4 23 83 24 5 26 82 27 2 29 1 30 23 31 24 32 25 33 26 34
REMARK SMILES IDX 27 35 28 36 29 37 30 38 31 39 77 40 32 41 76 42 33 43 34 44
REMARK SMILES IDX 35 45 70 46 36 47 75 48 69 49 71 50 37 51 74 52 68 53 67 54
REMARK SMILES IDX 38 56 60 57 45 58 59 59 46 60 49 61 58 62 72 63 47 64 48 65
REMARK SMILES IDX 57 67 73 68 50 69 39 70 40 71 44 72 41 73 43 74 42 75 61 76
REMARK SMILES IDX 62 77 66 78 63 79 65 80 64 81 51 82 52 83 56 84 53 85 55 86
REMARK SMILES IDX 54 87
REMARK H PARENT 3 25 6 28 71 55 49 66
REMARK Flexibility Score: inf
ROOT
ATOM      1  C   UNL A   1      46.440  24.091  26.559  1.00  0.00     0.188 C 
ENDROOT
BRANCH   1   2
ATOM      2  O   UNL A   1      45.519  23.087  26.943  1.00  0.00    -0.376 OA
BRANCH   2   3
ATOM      3  C   UNL A   1      44.229  23.435  27.421  1.00  0.00     0.202 C 
BRANCH   3   4
ATOM      4  C   UNL A   1      43.640  24.843  27.250  1.00  0.00     0.261 C 
BRANCH   4   5
ATOM      5  O   UNL A   1      42.309  24.886  26.730  1.00  0.00    -0.460 OA
BRANCH   5   6
ATOM      6  C   UNL A   1      41.992  26.024  26.056  1.00  0.00     0.338 C 
ATOM      7  O   UNL A   1      42.205  26.276  24.892  1.00  0.00    -0.246 OA
BRANCH   6   8
ATOM      8  C   UNL A   1      41.140  26.870  26.920  1.00  0.00     0.060 A 
ATOM      9  C   UNL A   1      39.618  28.575  28.543  1.00  0.00     0.052 A 
ATOM     10  C   UNL A   1      40.205  29.058  27.365  1.00  0.00     0.028 A 
ATOM     11  C   UNL A   1      39.742  27.210  28.849  1.00  0.00     0.028 A 
ATOM     12  C   UNL A   1      40.992  28.218  26.576  1.00  0.00     0.018 A 
ATOM     13  C   UNL A   1      40.482  26.351  28.032  1.00  0.00     0.018 A 
BRANCH   9  14
ATOM     14  N   UNL A   1      39.018  29.474  29.461  1.00  0.00    -0.245 N 
ATOM     15  C   UNL A   1      37.529  31.060  30.367  1.00  0.00     0.285 C 
ATOM     16  C   UNL A   1      38.854  31.130  31.108  1.00  0.00     0.176 C 
ATOM     17  C   UNL A   1      37.708  29.892  29.400  1.00  0.00     0.292 C 
ATOM     18  C   UNL A   1      39.727  30.118  30.443  1.00  0.00     0.240 C 
ATOM     19  O   UNL A   1      36.811  29.424  28.708  1.00  0.00    -0.267 OA
ATOM     20  O   UNL A   1      40.908  29.990  30.741  1.00  0.00    -0.274 OA
BRANCH  15  21
ATOM     21  N   UNL A   1      37.011  32.260  29.679  1.00  0.00    -0.315 N 
ATOM     22  N   UNL A   1      34.360  33.516  30.389  1.00  0.00    -0.326 N 
ATOM     23  C   UNL A   1      34.456  32.283  29.591  1.00  0.00     0.324 C 
ATOM     24  C   UNL A   1      35.566  33.678  31.230  1.00  0.00     0.324 C 
ATOM     25  H   UNL A   1      33.527  33.382  30.962  1.00  0.00     0.348 HD
ATOM     26  C   UNL A   1      35.802  32.045  28.869  1.00  0.00     0.325 C 
ATOM     27  C   UNL A   1      36.898  33.497  30.467  1.00  0.00     0.325 C 
ATOM     28  H   UNL A   1      37.789  32.426  29.042  1.00  0.00     0.349 HD
BRANCH  22  29
ATOM     29  C   UNL A   1      34.096  34.755  29.640  1.00  0.00     0.259 C 
ATOM     30  C   UNL A   1      32.995  35.662  30.176  1.00  0.00     0.071 C 
ENDBRANCH  22  29
ENDBRANCH  15  21
ENDBRANCH   9  14
ENDBRANCH   6   8
ENDBRANCH   5   6
ENDBRANCH   4   5
ENDBRANCH   3   4
ENDBRANCH   2   3
ENDBRANCH   1   2
BRANCH   1  31
ATOM     31  C   UNL A   1      47.396  24.727  27.589  1.00  0.00     0.188 C 
BRANCH  31  32
ATOM     32  O   UNL A   1      48.774  24.467  27.474  1.00  0.00    -0.376 OA
BRANCH  32  33
ATOM     33  C   UNL A   1      49.660  25.443  26.955  1.00  0.00     0.202 C 
BRANCH  33  34
ATOM     34  C   UNL A   1      49.651  26.017  25.526  1.00  0.00     0.261 C 
BRANCH  34  35
ATOM     35  O   UNL A   1      49.043  27.292  25.312  1.00  0.00    -0.460 OA
BRANCH  35  36
ATOM     36  C   UNL A   1      47.749  27.259  24.911  1.00  0.00     0.338 C 
ATOM     37  O   UNL A   1      47.282  26.682  23.944  1.00  0.00    -0.246 OA
BRANCH  36  38
ATOM     38  C   UNL A   1      46.924  27.919  25.937  1.00  0.00     0.060 A 
ATOM     39  C   UNL A   1      47.559  28.542  27.020  1.00  0.00     0.016 A 
ATOM     40  C   UNL A   1      45.532  27.892  25.844  1.00  0.00     0.016 A 
ATOM     41  C   UNL A   1      46.797  29.131  28.028  1.00  0.00     0.010 A 
ATOM     42  C   UNL A   1      44.771  28.462  26.866  1.00  0.00     0.010 A 
ATOM     43  C   UNL A   1      45.398  29.063  27.973  1.00  0.00    -0.014 A 
BRANCH  43  44
ATOM     44  C   UNL A   1      44.583  29.464  29.145  1.00  0.00     0.031 A 
ATOM     45  C   UNL A   1      44.071  30.875  29.213  1.00  0.00     0.074 A 
ATOM     46  C   UNL A   1      44.316  28.600  30.139  1.00  0.00     0.049 A 
ATOM     47  N   UNL A   1      43.433  31.481  30.181  1.00  0.00    -0.248 NA
ATOM     48  C   UNL A   1      44.317  31.717  28.030  1.00  0.00     0.031 C 
ATOM     49  C   UNL A   1      44.714  27.194  30.172  1.00  0.00     0.029 A 
ATOM     50  N   UNL A   1      43.657  28.793  31.327  1.00  0.00    -0.354 N 
ATOM     51  C   UNL A   1      43.208  32.775  29.728  1.00  0.00     0.074 A 
ATOM     52  C   UNL A   1      43.801  32.875  28.413  1.00  0.00     0.031 C 
ATOM     53  C   UNL A   1      44.308  26.655  31.336  1.00  0.00     0.029 A 
ATOM     54  C   UNL A   1      43.660  27.688  32.142  1.00  0.00     0.049 A 
ATOM     55  H   UNL A   1      43.224  29.642  31.572  1.00  0.00     0.167 HD
ATOM     56  C   UNL A   1      42.561  33.789  30.350  1.00  0.00     0.031 A 
ATOM     57  C   UNL A   1      43.218  27.538  33.407  1.00  0.00     0.031 A 
ATOM     58  C   UNL A   1      41.992  33.698  31.667  1.00  0.00     0.049 A 
ATOM     59  C   UNL A   1      42.589  28.709  34.116  1.00  0.00     0.074 A 
ATOM     60  C   UNL A   1      41.316  34.672  32.383  1.00  0.00     0.029 A 
ATOM     61  N   UNL A   1      42.040  32.569  32.470  1.00  0.00    -0.354 N 
ATOM     62  N   UNL A   1      42.363  29.922  33.674  1.00  0.00    -0.248 NA
ATOM     63  C   UNL A   1      42.148  28.486  35.502  1.00  0.00     0.031 C 
ATOM     64  C   UNL A   1      41.005  34.149  33.642  1.00  0.00     0.029 A 
ATOM     65  C   UNL A   1      41.429  32.829  33.685  1.00  0.00     0.049 A 
ATOM     66  H   UNL A   1      42.447  31.711  32.214  1.00  0.00     0.167 HD
ATOM     67  C   UNL A   1      41.727  30.595  34.712  1.00  0.00     0.074 A 
ATOM     68  C   UNL A   1      41.591  29.651  35.801  1.00  0.00     0.031 C 
ATOM     69  C   UNL A   1      41.292  31.878  34.757  1.00  0.00     0.031 A 
BRANCH  56  70
ATOM     70  C   UNL A   1      42.468  35.099  29.618  1.00  0.00    -0.014 A 
ATOM     71  C   UNL A   1      43.437  36.101  29.792  1.00  0.00     0.009 A 
ATOM     72  C   UNL A   1      41.412  35.323  28.723  1.00  0.00     0.009 A 
ATOM     73  C   UNL A   1      43.328  37.314  29.109  1.00  0.00     0.001 A 
ATOM     74  C   UNL A   1      41.323  36.525  28.018  1.00  0.00     0.001 A 
ATOM     75  C   UNL A   1      42.275  37.522  28.219  1.00  0.00     0.000 A 
ENDBRANCH  56  70
BRANCH  57  76
ATOM     76  C   UNL A   1      43.389  26.237  34.109  1.00  0.00    -0.014 A 
ATOM     77  C   UNL A   1      42.274  25.493  34.524  1.00  0.00     0.009 A 
ATOM     78  C   UNL A   1      44.673  25.749  34.399  1.00  0.00     0.009 A 
ATOM     79  C   UNL A   1      42.441  24.306  35.240  1.00  0.00     0.001 A 
ATOM     80  C   UNL A   1      44.837  24.546  35.087  1.00  0.00     0.001 A 
ATOM     81  C   UNL A   1      43.722  23.830  35.517  1.00  0.00     0.000 A 
ENDBRANCH  57  76
BRANCH  69  82
ATOM     82  C   UNL A   1      40.582  32.329  36.004  1.00  0.00    -0.014 A 
ATOM     83  C   UNL A   1      39.195  32.179  36.152  1.00  0.00     0.009 A 
ATOM     84  C   UNL A   1      41.325  32.861  37.070  1.00  0.00     0.009 A 
ATOM     85  C   UNL A   1      38.564  32.581  37.332  1.00  0.00     0.001 A 
ATOM     86  C   UNL A   1      40.697  33.231  38.260  1.00  0.00     0.001 A 
ATOM     87  C   UNL A   1      39.316  33.099  38.386  1.00  0.00     0.000 A 
ENDBRANCH  69  82
ENDBRANCH  43  44
ENDBRANCH  36  38
ENDBRANCH  35  36
ENDBRANCH  34  35
ENDBRANCH  33  34
ENDBRANCH  32  33
ENDBRANCH  31  32
ENDBRANCH   1  31
TORSDOF 20
ENDMDL
