MODEL 1
REMARK VINA RESULT:     -10.4      0.000      0.000
REMARK SMILES O=C(OCCOCCOCCOC(=O)[C@@H]1CC=CC[C@@H]1C(=O)Nc1ccc(Br)cc1Cl)c1ccc(-c2c3nc(c(-c4ccccc4)c4ccc([nH]4)c(-c4ccccc4)c4nc(c(-c5ccccc5)c5ccc2[nH]5)C=C4)C=C3)cc1
REMARK SMILES IDX 7 1 6 2 5 3 4 4 3 5 2 6 1 7 32 8 33 9 79 10 34 11 78 12
REMARK SMILES IDX 35 13 36 14 37 15 72 16 38 17 77 18 71 19 73 20 39 21 76 22
REMARK SMILES IDX 70 23 69 24 40 26 62 27 47 28 61 29 48 30 51 31 60 32 74 33
REMARK SMILES IDX 49 34 50 35 59 37 75 38 52 39 41 40 42 41 46 42 43 43 45 44
REMARK SMILES IDX 44 45 63 46 64 47 68 48 65 49 67 50 66 51 53 52 54 53 58 54
REMARK SMILES IDX 55 55 57 56 56 57 8 58 9 59 10 60 11 61 12 62 13 63 14 64
REMARK SMILES IDX 15 65 16 66 20 67 17 68 19 69 18 70 21 71 22 72 23 73 24 75
REMARK SMILES IDX 25 76 30 77 26 78 29 79 31 80 27 81 28 82
REMARK H PARENT 73 25 51 36 23 74
REMARK Flexibility Score: inf
ROOT
ATOM      1  C   UNL A   1      40.585  20.229  26.483  1.00  0.00     0.188 C 
ENDROOT
BRANCH   1   2
ATOM      2  O   UNL A   1      41.945  20.035  26.898  1.00  0.00    -0.376 OA
BRANCH   2   3
ATOM      3  C   UNL A   1      42.880  19.819  25.831  1.00  0.00     0.202 C 
BRANCH   3   4
ATOM      4  C   UNL A   1      43.844  20.967  25.477  1.00  0.00     0.261 C 
BRANCH   4   5
ATOM      5  O   UNL A   1      43.628  22.194  26.195  1.00  0.00    -0.460 OA
BRANCH   5   6
ATOM      6  C   UNL A   1      43.615  23.473  25.758  1.00  0.00     0.338 C 
ATOM      7  O   UNL A   1      44.134  23.717  24.669  1.00  0.00    -0.246 OA
BRANCH   6   8
ATOM      8  C   UNL A   1      43.033  24.620  26.519  1.00  0.00     0.060 A 
ATOM      9  C   UNL A   1      43.431  25.956  26.421  1.00  0.00     0.016 A 
ATOM     10  C   UNL A   1      41.957  24.320  27.372  1.00  0.00     0.016 A 
ATOM     11  C   UNL A   1      42.861  26.947  27.209  1.00  0.00     0.010 A 
ATOM     12  C   UNL A   1      41.362  25.310  28.155  1.00  0.00     0.010 A 
ATOM     13  C   UNL A   1      41.856  26.618  28.108  1.00  0.00    -0.014 A 
BRANCH  13  14
ATOM     14  C   UNL A   1      41.495  27.586  29.156  1.00  0.00     0.031 A 
ATOM     15  C   UNL A   1      42.301  27.571  30.411  1.00  0.00     0.074 A 
ATOM     16  C   UNL A   1      40.540  28.506  28.959  1.00  0.00     0.049 A 
ATOM     17  N   UNL A   1      42.095  28.205  31.530  1.00  0.00    -0.248 NA
ATOM     18  C   UNL A   1      43.515  26.736  30.395  1.00  0.00     0.031 C 
ATOM     19  C   UNL A   1      39.825  28.704  27.705  1.00  0.00     0.029 A 
ATOM     20  N   UNL A   1      40.005  29.437  29.807  1.00  0.00    -0.354 N 
ATOM     21  C   UNL A   1      43.130  27.815  32.365  1.00  0.00     0.074 A 
ATOM     22  C   UNL A   1      43.958  26.888  31.631  1.00  0.00     0.031 C 
ATOM     23  C   UNL A   1      38.918  29.678  27.876  1.00  0.00     0.029 A 
ATOM     24  C   UNL A   1      38.933  30.098  29.265  1.00  0.00     0.049 A 
ATOM     25  H   UNL A   1      40.354  29.614  30.711  1.00  0.00     0.167 HD
ATOM     26  C   UNL A   1      43.349  28.196  33.643  1.00  0.00     0.031 A 
ATOM     27  C   UNL A   1      38.011  30.891  29.837  1.00  0.00     0.031 A 
ATOM     28  C   UNL A   1      42.481  29.097  34.347  1.00  0.00     0.049 A 
ATOM     29  C   UNL A   1      38.167  31.184  31.296  1.00  0.00     0.074 A 
ATOM     30  C   UNL A   1      42.556  29.531  35.655  1.00  0.00     0.029 A 
ATOM     31  N   UNL A   1      41.357  29.694  33.784  1.00  0.00    -0.354 N 
ATOM     32  N   UNL A   1      39.108  30.769  32.111  1.00  0.00    -0.248 NA
ATOM     33  C   UNL A   1      37.158  32.047  31.916  1.00  0.00     0.031 C 
ATOM     34  C   UNL A   1      41.444  30.344  35.900  1.00  0.00     0.029 A 
ATOM     35  C   UNL A   1      40.712  30.471  34.726  1.00  0.00     0.049 A 
ATOM     36  H   UNL A   1      41.065  29.579  32.851  1.00  0.00     0.167 HD
ATOM     37  C   UNL A   1      38.829  31.347  33.337  1.00  0.00     0.074 A 
ATOM     38  C   UNL A   1      37.624  32.138  33.156  1.00  0.00     0.031 C 
ATOM     39  C   UNL A   1      39.515  31.245  34.502  1.00  0.00     0.031 A 
BRANCH  26  40
ATOM     40  C   UNL A   1      44.499  27.535  34.346  1.00  0.00    -0.014 A 
ATOM     41  C   UNL A   1      44.363  26.291  34.987  1.00  0.00     0.009 A 
ATOM     42  C   UNL A   1      45.718  28.222  34.451  1.00  0.00     0.009 A 
ATOM     43  C   UNL A   1      45.402  25.783  35.769  1.00  0.00     0.001 A 
ATOM     44  C   UNL A   1      46.767  27.696  35.207  1.00  0.00     0.001 A 
ATOM     45  C   UNL A   1      46.601  26.486  35.880  1.00  0.00     0.000 A 
ENDBRANCH  26  40
BRANCH  27  46
ATOM     46  C   UNL A   1      36.848  31.363  29.037  1.00  0.00    -0.014 A 
ATOM     47  C   UNL A   1      35.770  30.517  28.746  1.00  0.00     0.009 A 
ATOM     48  C   UNL A   1      36.781  32.708  28.625  1.00  0.00     0.009 A 
ATOM     49  C   UNL A   1      34.653  31.007  28.059  1.00  0.00     0.001 A 
ATOM     50  C   UNL A   1      35.654  33.200  27.965  1.00  0.00     0.001 A 
ATOM     51  C   UNL A   1      34.591  32.348  27.679  1.00  0.00     0.000 A 
ENDBRANCH  27  46
BRANCH  39  52
ATOM     52  C   UNL A   1      39.008  32.057  35.653  1.00  0.00    -0.014 A 
ATOM     53  C   UNL A   1      38.209  31.487  36.653  1.00  0.00     0.009 A 
ATOM     54  C   UNL A   1      39.411  33.397  35.768  1.00  0.00     0.009 A 
ATOM     55  C   UNL A   1      37.808  32.255  37.747  1.00  0.00     0.001 A 
ATOM     56  C   UNL A   1      39.032  34.151  36.877  1.00  0.00     0.001 A 
ATOM     57  C   UNL A   1      38.229  33.580  37.862  1.00  0.00     0.000 A 
ENDBRANCH  39  52
ENDBRANCH  13  14
ENDBRANCH   6   8
ENDBRANCH   5   6
ENDBRANCH   4   5
ENDBRANCH   3   4
ENDBRANCH   2   3
ENDBRANCH   1   2
BRANCH   1  58
ATOM     58  C   UNL A   1      40.044  21.641  26.701  1.00  0.00     0.188 C 
BRANCH  58  59
ATOM     59  O   UNL A   1      38.802  21.914  26.063  1.00  0.00    -0.376 OA
BRANCH  59  60
ATOM     60  C   UNL A   1      38.254  23.196  26.311  1.00  0.00     0.202 C 
BRANCH  60  61
ATOM     61  C   UNL A   1      37.350  23.763  25.224  1.00  0.00     0.261 C 
BRANCH  61  62
ATOM     62  O   UNL A   1      35.925  23.627  25.427  1.00  0.00    -0.463 OA
BRANCH  62  63
ATOM     63  C   UNL A   1      35.258  22.896  24.474  1.00  0.00     0.310 C 
ATOM     64  O   UNL A   1      35.368  23.050  23.278  1.00  0.00    -0.252 OA
BRANCH  63  65
ATOM     65  C   UNL A   1      34.367  21.836  25.104  1.00  0.00     0.116 C 
ATOM     66  C   UNL A   1      34.945  20.464  24.693  1.00  0.00     0.043 C 
ATOM     67  C   UNL A   1      32.866  22.062  24.825  1.00  0.00     0.097 C 
ATOM     68  C   UNL A   1      33.984  19.322  24.664  1.00  0.00    -0.030 C 
ATOM     69  C   UNL A   1      32.023  20.791  25.089  1.00  0.00     0.041 C 
ATOM     70  C   UNL A   1      32.669  19.468  24.833  1.00  0.00    -0.030 C 
BRANCH  67  71
ATOM     71  C   UNL A   1      32.424  22.604  23.449  1.00  0.00     0.228 C 
ATOM     72  O   UNL A   1      32.564  21.938  22.423  1.00  0.00    -0.274 OA
ATOM     73  N   UNL A   1      31.601  23.724  23.418  1.00  0.00    -0.324 N 
ATOM     74  H   UNL A   1      30.912  23.737  22.714  1.00  0.00     0.169 HD
BRANCH  73  75
ATOM     75  C   UNL A   1      31.635  24.843  24.275  1.00  0.00     0.060 A 
ATOM     76  C   UNL A   1      30.499  25.306  24.926  1.00  0.00     0.029 A 
ATOM     77  C   UNL A   1      32.765  25.658  24.338  1.00  0.00     0.065 A 
ATOM     78  C   UNL A   1      30.609  26.365  25.844  1.00  0.00     0.018 A 
ATOM     79  C   UNL A   1      32.964  26.557  25.383  1.00  0.00     0.038 A 
ATOM     80  Cl  UNL A   1      33.312  26.202  22.763  1.00  0.00    -0.082 Cl
ATOM     81  C   UNL A   1      31.860  26.915  26.138  1.00  0.00     0.019 A 
ATOM     82  Br  UNL A   1      32.034  28.260  27.453  1.00  0.00    -0.051 Br
ENDBRANCH  73  75
ENDBRANCH  67  71
ENDBRANCH  63  65
ENDBRANCH  62  63
ENDBRANCH  61  62
ENDBRANCH  60  61
ENDBRANCH  59  60
ENDBRANCH  58  59
ENDBRANCH   1  58
TORSDOF 19
ENDMDL
MODEL 2
REMARK VINA RESULT:     -10.3      1.907      3.104
REMARK SMILES O=C(OCCOCCOCCOC(=O)[C@@H]1CC=CC[C@@H]1C(=O)Nc1ccc(Br)cc1Cl)c1ccc(-c2c3nc(c(-c4ccccc4)c4ccc([nH]4)c(-c4ccccc4)c4nc(c(-c5ccccc5)c5ccc2[nH]5)C=C4)C=C3)cc1
REMARK SMILES IDX 7 1 6 2 5 3 4 4 3 5 2 6 1 7 32 8 33 9 79 10 34 11 78 12
REMARK SMILES IDX 35 13 36 14 37 15 72 16 38 17 77 18 71 19 73 20 39 21 76 22
REMARK SMILES IDX 70 23 69 24 40 26 62 27 47 28 61 29 48 30 51 31 60 32 74 33
REMARK SMILES IDX 49 34 50 35 59 37 75 38 52 39 41 40 42 41 46 42 43 43 45 44
REMARK SMILES IDX 44 45 63 46 64 47 68 48 65 49 67 50 66 51 53 52 54 53 58 54
REMARK SMILES IDX 55 55 57 56 56 57 8 58 9 59 10 60 11 61 12 62 13 63 14 64
REMARK SMILES IDX 15 65 16 66 20 67 17 68 19 69 18 70 21 71 22 72 23 73 24 75
REMARK SMILES IDX 25 76 30 77 26 78 29 79 31 80 27 81 28 82
REMARK H PARENT 73 25 51 36 23 74
REMARK Flexibility Score: inf
ROOT
ATOM      1  C   UNL A   1      39.749  20.351  25.954  1.00  0.00     0.188 C 
ENDROOT
BRANCH   1   2
ATOM      2  O   UNL A   1      40.417  20.247  27.220  1.00  0.00    -0.376 OA
BRANCH   2   3
ATOM      3  C   UNL A   1      41.838  20.070  27.143  1.00  0.00     0.202 C 
BRANCH   3   4
ATOM      4  C   UNL A   1      42.713  21.333  27.027  1.00  0.00     0.261 C 
BRANCH   4   5
ATOM      5  O   UNL A   1      42.767  21.924  25.718  1.00  0.00    -0.460 OA
BRANCH   5   6
ATOM      6  C   UNL A   1      42.975  23.207  25.345  1.00  0.00     0.338 C 
ATOM      7  O   UNL A   1      43.585  23.412  24.296  1.00  0.00    -0.246 OA
BRANCH   6   8
ATOM      8  C   UNL A   1      42.537  24.399  26.133  1.00  0.00     0.060 A 
ATOM      9  C   UNL A   1      43.155  25.651  26.140  1.00  0.00     0.016 A 
ATOM     10  C   UNL A   1      41.367  24.244  26.896  1.00  0.00     0.016 A 
ATOM     11  C   UNL A   1      42.701  26.686  26.946  1.00  0.00     0.010 A 
ATOM     12  C   UNL A   1      40.887  25.282  27.695  1.00  0.00     0.010 A 
ATOM     13  C   UNL A   1      41.592  26.490  27.758  1.00  0.00    -0.014 A 
BRANCH  13  14
ATOM     14  C   UNL A   1      41.320  27.453  28.835  1.00  0.00     0.031 A 
ATOM     15  C   UNL A   1      42.180  27.384  30.051  1.00  0.00     0.074 A 
ATOM     16  C   UNL A   1      40.398  28.416  28.696  1.00  0.00     0.049 A 
ATOM     17  N   UNL A   1      42.052  28.007  31.188  1.00  0.00    -0.248 NA
ATOM     18  C   UNL A   1      43.356  26.499  29.968  1.00  0.00     0.031 C 
ATOM     19  C   UNL A   1      39.635  28.664  27.478  1.00  0.00     0.029 A 
ATOM     20  N   UNL A   1      39.941  29.354  29.581  1.00  0.00    -0.354 N 
ATOM     21  C   UNL A   1      43.106  27.561  31.969  1.00  0.00     0.074 A 
ATOM     22  C   UNL A   1      43.860  26.612  31.184  1.00  0.00     0.031 C 
ATOM     23  C   UNL A   1      38.779  29.672  27.704  1.00  0.00     0.029 A 
ATOM     24  C   UNL A   1      38.874  30.069  29.097  1.00  0.00     0.049 A 
ATOM     25  H   UNL A   1      40.337  29.502  30.470  1.00  0.00     0.167 HD
ATOM     26  C   UNL A   1      43.398  27.911  33.242  1.00  0.00     0.031 A 
ATOM     27  C   UNL A   1      38.013  30.890  29.723  1.00  0.00     0.031 A 
ATOM     28  C   UNL A   1      42.601  28.835  33.997  1.00  0.00     0.049 A 
ATOM     29  C   UNL A   1      38.247  31.151  31.177  1.00  0.00     0.074 A 
ATOM     30  C   UNL A   1      42.753  29.244  35.307  1.00  0.00     0.029 A 
ATOM     31  N   UNL A   1      41.479  29.488  33.495  1.00  0.00    -0.354 N 
ATOM     32  N   UNL A   1      39.205  30.684  31.942  1.00  0.00    -0.248 NA
ATOM     33  C   UNL A   1      37.305  32.046  31.855  1.00  0.00     0.031 C 
ATOM     34  C   UNL A   1      41.689  30.098  35.614  1.00  0.00     0.029 A 
ATOM     35  C   UNL A   1      40.911  30.276  34.477  1.00  0.00     0.049 A 
ATOM     36  H   UNL A   1      41.141  29.401  32.575  1.00  0.00     0.167 HD
ATOM     37  C   UNL A   1      39.006  31.252  33.188  1.00  0.00     0.074 A 
ATOM     38  C   UNL A   1      37.829  32.096  33.074  1.00  0.00     0.031 C 
ATOM     39  C   UNL A   1      39.739  31.103  34.319  1.00  0.00     0.031 A 
BRANCH  26  40
ATOM     40  C   UNL A   1      44.549  27.191  33.881  1.00  0.00    -0.014 A 
ATOM     41  C   UNL A   1      45.864  27.683  33.812  1.00  0.00     0.009 A 
ATOM     42  C   UNL A   1      44.323  25.942  34.480  1.00  0.00     0.009 A 
ATOM     43  C   UNL A   1      46.932  26.909  34.273  1.00  0.00     0.001 A 
ATOM     44  C   UNL A   1      45.389  25.185  34.969  1.00  0.00     0.001 A 
ATOM     45  C   UNL A   1      46.694  25.662  34.848  1.00  0.00     0.000 A 
ENDBRANCH  26  40
BRANCH  27  46
ATOM     46  C   UNL A   1      36.837  31.423  28.983  1.00  0.00    -0.014 A 
ATOM     47  C   UNL A   1      35.700  30.638  28.755  1.00  0.00     0.009 A 
ATOM     48  C   UNL A   1      36.822  32.769  28.568  1.00  0.00     0.009 A 
ATOM     49  C   UNL A   1      34.576  31.186  28.126  1.00  0.00     0.001 A 
ATOM     50  C   UNL A   1      35.689  33.320  27.967  1.00  0.00     0.001 A 
ATOM     51  C   UNL A   1      34.568  32.528  27.743  1.00  0.00     0.000 A 
ENDBRANCH  27  46
BRANCH  39  52
ATOM     52  C   UNL A   1      39.319  31.916  35.504  1.00  0.00    -0.014 A 
ATOM     53  C   UNL A   1      39.759  33.234  35.678  1.00  0.00     0.009 A 
ATOM     54  C   UNL A   1      38.401  31.366  36.414  1.00  0.00     0.009 A 
ATOM     55  C   UNL A   1      39.297  33.986  36.758  1.00  0.00     0.001 A 
ATOM     56  C   UNL A   1      37.920  32.131  37.474  1.00  0.00     0.001 A 
ATOM     57  C   UNL A   1      38.371  33.438  37.647  1.00  0.00     0.000 A 
ENDBRANCH  39  52
ENDBRANCH  13  14
ENDBRANCH   6   8
ENDBRANCH   5   6
ENDBRANCH   4   5
ENDBRANCH   3   4
ENDBRANCH   2   3
ENDBRANCH   1   2
BRANCH   1  58
ATOM     58  C   UNL A   1      38.961  21.644  25.749  1.00  0.00     0.188 C 
BRANCH  58  59
ATOM     59  O   UNL A   1      37.549  21.485  25.686  1.00  0.00    -0.376 OA
BRANCH  59  60
ATOM     60  C   UNL A   1      36.871  22.374  24.817  1.00  0.00     0.202 C 
BRANCH  60  61
ATOM     61  C   UNL A   1      36.492  23.728  25.403  1.00  0.00     0.261 C 
BRANCH  61  62
ATOM     62  O   UNL A   1      35.140  23.871  25.893  1.00  0.00    -0.463 OA
BRANCH  62  63
ATOM     63  C   UNL A   1      34.461  24.977  25.443  1.00  0.00     0.310 C 
ATOM     64  O   UNL A   1      34.051  25.873  26.147  1.00  0.00    -0.252 OA
BRANCH  63  65
ATOM     65  C   UNL A   1      34.297  24.957  23.931  1.00  0.00     0.116 C 
ATOM     66  C   UNL A   1      33.975  26.404  23.497  1.00  0.00     0.043 C 
ATOM     67  C   UNL A   1      33.330  23.860  23.439  1.00  0.00     0.097 C 
ATOM     68  C   UNL A   1      33.214  26.560  22.223  1.00  0.00    -0.030 C 
ATOM     69  C   UNL A   1      32.845  24.112  21.991  1.00  0.00     0.041 C 
ATOM     70  C   UNL A   1      32.697  25.532  21.549  1.00  0.00    -0.030 C 
BRANCH  67  71
ATOM     71  C   UNL A   1      32.072  23.531  24.271  1.00  0.00     0.228 C 
ATOM     72  O   UNL A   1      31.355  24.420  24.729  1.00  0.00    -0.274 OA
ATOM     73  N   UNL A   1      31.595  22.225  24.251  1.00  0.00    -0.324 N 
ATOM     74  H   UNL A   1      30.616  22.120  24.268  1.00  0.00     0.169 HD
BRANCH  73  75
ATOM     75  C   UNL A   1      32.347  21.033  24.208  1.00  0.00     0.060 A 
ATOM     76  C   UNL A   1      33.503  20.865  24.959  1.00  0.00     0.029 A 
ATOM     77  C   UNL A   1      32.079  20.056  23.250  1.00  0.00     0.065 A 
ATOM     78  C   UNL A   1      34.159  19.621  24.952  1.00  0.00     0.018 A 
ATOM     79  C   UNL A   1      32.563  18.756  23.372  1.00  0.00     0.038 A 
ATOM     80  Cl  UNL A   1      32.027  20.689  21.615  1.00  0.00    -0.082 Cl
ATOM     81  C   UNL A   1      33.625  18.547  24.235  1.00  0.00     0.019 A 
ATOM     82  Br  UNL A   1      34.436  16.843  24.311  1.00  0.00    -0.051 Br
ENDBRANCH  73  75
ENDBRANCH  67  71
ENDBRANCH  63  65
ENDBRANCH  62  63
ENDBRANCH  61  62
ENDBRANCH  60  61
ENDBRANCH  59  60
ENDBRANCH  58  59
ENDBRANCH   1  58
TORSDOF 19
ENDMDL
MODEL 3
REMARK VINA RESULT:     -10.2      4.391      6.611
REMARK SMILES O=C(OCCOCCOCCOC(=O)[C@@H]1CC=CC[C@@H]1C(=O)Nc1ccc(Br)cc1Cl)c1ccc(-c2c3nc(c(-c4ccccc4)c4ccc([nH]4)c(-c4ccccc4)c4nc(c(-c5ccccc5)c5ccc2[nH]5)C=C4)C=C3)cc1
REMARK SMILES IDX 7 1 6 2 5 3 4 4 3 5 2 6 1 7 32 8 33 9 79 10 34 11 78 12
REMARK SMILES IDX 35 13 36 14 37 15 72 16 38 17 77 18 71 19 73 20 39 21 76 22
REMARK SMILES IDX 70 23 69 24 40 26 62 27 47 28 61 29 48 30 51 31 60 32 74 33
REMARK SMILES IDX 49 34 50 35 59 37 75 38 52 39 41 40 42 41 46 42 43 43 45 44
REMARK SMILES IDX 44 45 63 46 64 47 68 48 65 49 67 50 66 51 53 52 54 53 58 54
REMARK SMILES IDX 55 55 57 56 56 57 8 58 9 59 10 60 11 61 12 62 13 63 14 64
REMARK SMILES IDX 15 65 16 66 20 67 17 68 19 69 18 70 21 71 22 72 23 73 24 75
REMARK SMILES IDX 25 76 30 77 26 78 29 79 31 80 27 81 28 82
REMARK H PARENT 73 25 51 36 23 74
REMARK Flexibility Score: inf
ROOT
ATOM      1  C   UNL A   1      39.594  21.252  26.090  1.00  0.00     0.188 C 
ENDROOT
BRANCH   1   2
ATOM      2  O   UNL A   1      40.288  19.998  26.157  1.00  0.00    -0.376 OA
BRANCH   2   3
ATOM      3  C   UNL A   1      41.702  20.098  26.379  1.00  0.00     0.202 C 
BRANCH   3   4
ATOM      4  C   UNL A   1      42.590  18.940  25.884  1.00  0.00     0.261 C 
BRANCH   4   5
ATOM      5  O   UNL A   1      43.271  19.177  24.641  1.00  0.00    -0.460 OA
BRANCH   5   6
ATOM      6  C   UNL A   1      44.490  19.707  24.397  1.00  0.00     0.338 C 
ATOM      7  O   UNL A   1      45.316  19.011  23.807  1.00  0.00    -0.246 OA
BRANCH   6   8
ATOM      8  C   UNL A   1      44.916  21.077  24.817  1.00  0.00     0.060 A 
ATOM      9  C   UNL A   1      45.372  21.441  26.086  1.00  0.00     0.016 A 
ATOM     10  C   UNL A   1      44.895  22.068  23.822  1.00  0.00     0.016 A 
ATOM     11  C   UNL A   1      45.699  22.755  26.396  1.00  0.00     0.010 A 
ATOM     12  C   UNL A   1      45.240  23.388  24.114  1.00  0.00     0.010 A 
ATOM     13  C   UNL A   1      45.592  23.738  25.422  1.00  0.00    -0.014 A 
BRANCH  13  14
ATOM     14  C   UNL A   1      45.616  25.150  25.832  1.00  0.00     0.031 A 
ATOM     15  C   UNL A   1      46.922  25.866  25.753  1.00  0.00     0.074 A 
ATOM     16  C   UNL A   1      44.494  25.797  26.179  1.00  0.00     0.049 A 
ATOM     17  N   UNL A   1      47.242  27.050  26.194  1.00  0.00    -0.248 NA
ATOM     18  C   UNL A   1      48.015  25.153  25.069  1.00  0.00     0.031 C 
ATOM     19  C   UNL A   1      43.155  25.225  26.118  1.00  0.00     0.029 A 
ATOM     20  N   UNL A   1      44.301  27.065  26.654  1.00  0.00    -0.354 N 
ATOM     21  C   UNL A   1      48.581  27.208  25.876  1.00  0.00     0.074 A 
ATOM     22  C   UNL A   1      49.018  26.002  25.213  1.00  0.00     0.031 C 
ATOM     23  C   UNL A   1      42.278  26.133  26.572  1.00  0.00     0.029 A 
ATOM     24  C   UNL A   1      43.005  27.301  27.035  1.00  0.00     0.049 A 
ATOM     25  H   UNL A   1      45.018  27.738  26.716  1.00  0.00     0.167 HD
ATOM     26  C   UNL A   1      49.373  28.272  26.138  1.00  0.00     0.031 A 
ATOM     27  C   UNL A   1      42.470  28.305  27.750  1.00  0.00     0.031 A 
ATOM     28  C   UNL A   1      48.904  29.439  26.829  1.00  0.00     0.049 A 
ATOM     29  C   UNL A   1      43.386  29.408  28.177  1.00  0.00     0.074 A 
ATOM     30  C   UNL A   1      49.606  30.568  27.201  1.00  0.00     0.029 A 
ATOM     31  N   UNL A   1      47.595  29.613  27.266  1.00  0.00    -0.354 N 
ATOM     32  N   UNL A   1      44.669  29.537  27.935  1.00  0.00    -0.248 NA
ATOM     33  C   UNL A   1      42.798  30.500  28.958  1.00  0.00     0.031 C 
ATOM     34  C   UNL A   1      48.735  31.398  27.915  1.00  0.00     0.029 A 
ATOM     35  C   UNL A   1      47.473  30.818  27.929  1.00  0.00     0.049 A 
ATOM     36  H   UNL A   1      46.862  28.971  27.122  1.00  0.00     0.167 HD
ATOM     37  C   UNL A   1      45.043  30.742  28.505  1.00  0.00     0.074 A 
ATOM     38  C   UNL A   1      43.846  31.302  29.109  1.00  0.00     0.031 C 
ATOM     39  C   UNL A   1      46.260  31.338  28.514  1.00  0.00     0.031 A 
BRANCH  26  40
ATOM     40  C   UNL A   1      50.820  28.130  25.767  1.00  0.00    -0.014 A 
ATOM     41  C   UNL A   1      51.309  28.536  24.513  1.00  0.00     0.009 A 
ATOM     42  C   UNL A   1      51.691  27.484  26.658  1.00  0.00     0.009 A 
ATOM     43  C   UNL A   1      52.622  28.240  24.138  1.00  0.00     0.001 A 
ATOM     44  C   UNL A   1      53.011  27.219  26.293  1.00  0.00     0.001 A 
ATOM     45  C   UNL A   1      53.470  27.581  25.027  1.00  0.00     0.000 A 
ENDBRANCH  26  40
BRANCH  27  46
ATOM     46  C   UNL A   1      41.040  28.237  28.156  1.00  0.00    -0.014 A 
ATOM     47  C   UNL A   1      40.637  27.528  29.295  1.00  0.00     0.009 A 
ATOM     48  C   UNL A   1      40.072  28.963  27.435  1.00  0.00     0.009 A 
ATOM     49  C   UNL A   1      39.297  27.544  29.701  1.00  0.00     0.001 A 
ATOM     50  C   UNL A   1      38.742  29.000  27.859  1.00  0.00     0.001 A 
ATOM     51  C   UNL A   1      38.354  28.287  28.989  1.00  0.00     0.000 A 
ENDBRANCH  27  46
BRANCH  39  52
ATOM     52  C   UNL A   1      46.340  32.691  29.148  1.00  0.00    -0.014 A 
ATOM     53  C   UNL A   1      46.692  32.848  30.495  1.00  0.00     0.009 A 
ATOM     54  C   UNL A   1      46.134  33.828  28.350  1.00  0.00     0.009 A 
ATOM     55  C   UNL A   1      46.822  34.126  31.037  1.00  0.00     0.001 A 
ATOM     56  C   UNL A   1      46.294  35.103  28.888  1.00  0.00     0.001 A 
ATOM     57  C   UNL A   1      46.634  35.250  30.232  1.00  0.00     0.000 A 
ENDBRANCH  39  52
ENDBRANCH  13  14
ENDBRANCH   6   8
ENDBRANCH   5   6
ENDBRANCH   4   5
ENDBRANCH   3   4
ENDBRANCH   2   3
ENDBRANCH   1   2
BRANCH   1  58
ATOM     58  C   UNL A   1      40.211  22.371  26.927  1.00  0.00     0.188 C 
BRANCH  58  59
ATOM     59  O   UNL A   1      39.349  23.472  27.189  1.00  0.00    -0.376 OA
BRANCH  59  60
ATOM     60  C   UNL A   1      38.521  23.872  26.113  1.00  0.00     0.202 C 
BRANCH  60  61
ATOM     61  C   UNL A   1      37.020  23.839  26.370  1.00  0.00     0.261 C 
BRANCH  61  62
ATOM     62  O   UNL A   1      36.159  23.932  25.213  1.00  0.00    -0.463 OA
BRANCH  62  63
ATOM     63  C   UNL A   1      35.938  22.755  24.542  1.00  0.00     0.310 C 
ATOM     64  O   UNL A   1      36.535  22.398  23.550  1.00  0.00    -0.252 OA
BRANCH  63  65
ATOM     65  C   UNL A   1      34.854  21.924  25.211  1.00  0.00     0.116 C 
ATOM     66  C   UNL A   1      35.094  20.455  24.795  1.00  0.00     0.043 C 
ATOM     67  C   UNL A   1      33.433  22.480  24.979  1.00  0.00     0.097 C 
ATOM     68  C   UNL A   1      33.902  19.559  24.809  1.00  0.00    -0.030 C 
ATOM     69  C   UNL A   1      32.336  21.431  25.283  1.00  0.00     0.041 C 
ATOM     70  C   UNL A   1      32.660  19.997  25.019  1.00  0.00    -0.030 C 
BRANCH  67  71
ATOM     71  C   UNL A   1      33.078  23.104  23.612  1.00  0.00     0.228 C 
ATOM     72  O   UNL A   1      33.231  22.479  22.563  1.00  0.00    -0.274 OA
ATOM     73  N   UNL A   1      32.310  24.263  23.600  1.00  0.00    -0.324 N 
ATOM     74  H   UNL A   1      31.654  24.341  22.869  1.00  0.00     0.169 HD
BRANCH  73  75
ATOM     75  C   UNL A   1      32.358  25.340  24.510  1.00  0.00     0.060 A 
ATOM     76  C   UNL A   1      33.548  25.984  24.824  1.00  0.00     0.029 A 
ATOM     77  C   UNL A   1      31.250  25.662  25.291  1.00  0.00     0.065 A 
ATOM     78  C   UNL A   1      33.524  27.112  25.662  1.00  0.00     0.018 A 
ATOM     79  C   UNL A   1      31.145  26.887  25.945  1.00  0.00     0.038 A 
ATOM     80  Cl  UNL A   1      30.593  24.287  26.159  1.00  0.00    -0.082 Cl
ATOM     81  C   UNL A   1      32.308  27.613  26.134  1.00  0.00     0.019 A 
ATOM     82  Br  UNL A   1      32.256  29.195  27.167  1.00  0.00    -0.051 Br
ENDBRANCH  73  75
ENDBRANCH  67  71
ENDBRANCH  63  65
ENDBRANCH  62  63
ENDBRANCH  61  62
ENDBRANCH  60  61
ENDBRANCH  59  60
ENDBRANCH  58  59
ENDBRANCH   1  58
TORSDOF 19
ENDMDL
