MODEL 1
REMARK VINA RESULT:     -12.9      0.000      0.000
REMARK SMILES CC(=O)Nc1cnc(N2CC=C(c3ccccc3C)CC2)c(C(=O)OCCOCCOCCOC(=O)c2ccc(-c3c4nc(c(-c5ccccc5)c5ccc([nH]5)c(-c5ccccc5)c5nc(c(-c6ccccc6)c6ccc3[nH]6)C=C5)C=C4)cc2)c1
REMARK SMILES IDX 29 1 28 2 27 3 26 4 25 5 23 6 24 7 22 8 5 9 6 10 85 11 7 12
REMARK SMILES IDX 8 13 4 14 1 15 2 16 3 17 9 19 10 20 21 21 11 22 20 23 12 24
REMARK SMILES IDX 13 25 14 26 18 27 15 28 17 29 19 30 16 31 30 32 31 33 32 34
REMARK SMILES IDX 33 35 34 36 35 37 36 38 37 39 38 40 84 41 39 42 83 43 40 44
REMARK SMILES IDX 41 45 42 46 77 47 43 48 82 49 76 50 78 51 44 52 81 53 75 54
REMARK SMILES IDX 74 55 45 57 67 58 52 59 66 60 53 61 56 62 65 63 79 64 54 65
REMARK SMILES IDX 55 66 64 68 80 69 57 70 46 71 47 72 51 73 48 74 50 75 49 76
REMARK SMILES IDX 68 77 69 78 73 79 70 80 72 81 71 82 58 83 59 84 63 85 60 86
REMARK SMILES IDX 62 87 61 88
REMARK H PARENT 4 18 78 56 56 67
REMARK Flexibility Score: inf
ROOT
ATOM      1  C   UNL A   1      34.587  31.833  28.361  1.00  0.00     0.188 C 
ENDROOT
BRANCH   1   2
ATOM      2  O   UNL A   1      34.208  30.805  27.421  1.00  0.00    -0.376 OA
BRANCH   2   3
ATOM      3  C   UNL A   1      32.916  30.183  27.346  1.00  0.00     0.202 C 
BRANCH   3   4
ATOM      4  C   UNL A   1      32.488  28.700  26.644  1.00  0.00     0.261 C 
BRANCH   4   5
ATOM      5  O   UNL A   1      33.343  27.135  26.446  1.00  0.00    -0.460 OA
BRANCH   5   6
ATOM      6  C   UNL A   1      33.164  25.735  26.030  1.00  0.00     0.342 C 
ATOM      7  O   UNL A   1      32.584  24.819  26.614  1.00  0.00    -0.246 OA
BRANCH   6   8
ATOM      8  C   UNL A   1      33.865  25.142  24.887  1.00  0.00     0.104 A 
ATOM      9  C   UNL A   1      34.849  23.017  24.370  1.00  0.00     0.060 A 
ATOM     10  C   UNL A   1      34.573  23.273  23.036  1.00  0.00     0.139 A 
ATOM     11  C   UNL A   1      34.552  24.001  25.293  1.00  0.00     0.047 A 
ATOM     12  N   UNL A   1      33.905  24.364  22.595  1.00  0.00    -0.236 NA
ATOM     13  C   UNL A   1      33.470  25.278  23.503  1.00  0.00     0.143 A 
BRANCH   9  14
ATOM     14  N   UNL A   1      35.407  21.801  24.771  1.00  0.00    -0.325 N 
ATOM     15  C   UNL A   1      37.673  22.668  25.326  1.00  0.00     0.114 C 
ATOM     16  C   UNL A   1      36.732  21.525  25.003  1.00  0.00     0.221 C 
ATOM     17  O   UNL A   1      37.117  20.357  25.026  1.00  0.00    -0.275 OA
ATOM     18  H   UNL A   1      34.778  21.055  24.904  1.00  0.00     0.169 HD
ENDBRANCH   9  14
BRANCH  13  19
ATOM     19  N   UNL A   1      32.733  26.334  22.929  1.00  0.00    -0.352 N 
ATOM     20  C   UNL A   1      33.279  27.703  23.068  1.00  0.00     0.146 C 
ATOM     21  C   UNL A   1      31.289  26.161  23.070  1.00  0.00     0.123 C 
ATOM     22  C   UNL A   1      32.243  28.822  22.894  1.00  0.00    -0.002 C 
ATOM     23  C   UNL A   1      30.494  27.353  23.627  1.00  0.00     0.057 C 
ATOM     24  C   UNL A   1      30.918  28.713  23.139  1.00  0.00    -0.041 C 
BRANCH  24  25
ATOM     25  C   UNL A   1      29.882  29.814  22.917  1.00  0.00    -0.020 A 
ATOM     26  C   UNL A   1      29.022  29.731  21.792  1.00  0.00     0.008 A 
ATOM     27  C   UNL A   1      29.621  30.899  23.801  1.00  0.00    -0.044 A 
ATOM     28  C   UNL A   1      27.944  30.610  21.576  1.00  0.00     0.001 A 
ATOM     29  C   UNL A   1      28.523  31.773  23.573  1.00  0.00     0.004 A 
ATOM     30  C   UNL A   1      30.428  31.215  25.032  1.00  0.00     0.045 C 
ATOM     31  C   UNL A   1      27.688  31.630  22.474  1.00  0.00     0.000 A 
ENDBRANCH  24  25
ENDBRANCH  13  19
ENDBRANCH   6   8
ENDBRANCH   5   6
ENDBRANCH   4   5
ENDBRANCH   3   4
ENDBRANCH   2   3
ENDBRANCH   1   2
BRANCH   1  32
ATOM     32  C   UNL A   1      34.386  33.331  28.114  1.00  0.00     0.188 C 
BRANCH  32  33
ATOM     33  O   UNL A   1      33.039  33.696  28.318  1.00  0.00    -0.376 OA
BRANCH  33  34
ATOM     34  C   UNL A   1      32.815  34.991  28.837  1.00  0.00     0.202 C 
BRANCH  34  35
ATOM     35  C   UNL A   1      34.018  35.512  29.636  1.00  0.00     0.261 C 
BRANCH  35  36
ATOM     36  O   UNL A   1      33.591  36.093  30.889  1.00  0.00    -0.460 OA
BRANCH  36  37
ATOM     37  C   UNL A   1      33.212  35.206  31.863  1.00  0.00     0.338 C 
ATOM     38  O   UNL A   1      32.113  35.187  32.400  1.00  0.00    -0.246 OA
BRANCH  37  39
ATOM     39  C   UNL A   1      34.394  34.422  32.324  1.00  0.00     0.060 A 
ATOM     40  C   UNL A   1      35.685  34.931  32.510  1.00  0.00     0.016 A 
ATOM     41  C   UNL A   1      34.291  33.079  32.238  1.00  0.00     0.016 A 
ATOM     42  C   UNL A   1      36.876  34.091  32.416  1.00  0.00     0.010 A 
ATOM     43  C   UNL A   1      35.460  32.402  31.900  1.00  0.00     0.010 A 
ATOM     44  C   UNL A   1      36.864  32.767  31.973  1.00  0.00    -0.014 A 
BRANCH  44  45
ATOM     45  C   UNL A   1      38.321  31.888  31.482  1.00  0.00     0.031 A 
ATOM     46  C   UNL A   1      38.636  30.304  30.697  1.00  0.00     0.074 A 
ATOM     47  C   UNL A   1      39.511  32.427  31.858  1.00  0.00     0.049 A 
ATOM     48  N   UNL A   1      39.774  29.634  30.801  1.00  0.00    -0.248 NA
ATOM     49  C   UNL A   1      37.743  29.377  29.861  1.00  0.00     0.031 C 
ATOM     50  C   UNL A   1      40.852  32.029  31.433  1.00  0.00     0.029 A 
ATOM     51  N   UNL A   1      39.765  33.396  32.834  1.00  0.00    -0.354 N 
ATOM     52  C   UNL A   1      39.765  28.506  29.971  1.00  0.00     0.074 A 
ATOM     53  C   UNL A   1      38.495  28.414  29.378  1.00  0.00     0.031 C 
ATOM     54  C   UNL A   1      41.743  32.459  32.335  1.00  0.00     0.029 A 
ATOM     55  C   UNL A   1      41.016  33.104  33.404  1.00  0.00     0.049 A 
ATOM     56  H   UNL A   1      39.176  34.146  33.077  1.00  0.00     0.167 HD
ATOM     57  C   UNL A   1      40.812  27.676  29.742  1.00  0.00     0.031 A 
ATOM     58  C   UNL A   1      41.157  32.873  34.737  1.00  0.00     0.031 A 
ATOM     59  C   UNL A   1      41.922  27.992  30.586  1.00  0.00     0.049 A 
ATOM     60  C   UNL A   1      41.655  31.478  35.066  1.00  0.00     0.074 A 
ATOM     61  C   UNL A   1      43.090  28.707  30.440  1.00  0.00     0.029 A 
ATOM     62  N   UNL A   1      41.709  27.851  31.939  1.00  0.00    -0.354 N 
ATOM     63  N   UNL A   1      42.154  30.638  34.200  1.00  0.00    -0.248 NA
ATOM     64  C   UNL A   1      41.545  30.886  36.403  1.00  0.00     0.031 C 
ATOM     65  C   UNL A   1      43.581  28.992  31.748  1.00  0.00     0.029 A 
ATOM     66  C   UNL A   1      42.736  28.399  32.667  1.00  0.00     0.049 A 
ATOM     67  H   UNL A   1      40.921  27.413  32.335  1.00  0.00     0.167 HD
ATOM     68  C   UNL A   1      42.311  29.412  34.796  1.00  0.00     0.074 A 
ATOM     69  C   UNL A   1      41.959  29.625  36.186  1.00  0.00     0.031 C 
ATOM     70  C   UNL A   1      42.652  28.286  34.106  1.00  0.00     0.031 A 
BRANCH  57  71
ATOM     71  C   UNL A   1      40.802  26.750  28.545  1.00  0.00    -0.014 A 
ATOM     72  C   UNL A   1      41.369  27.205  27.347  1.00  0.00     0.009 A 
ATOM     73  C   UNL A   1      40.097  25.527  28.488  1.00  0.00     0.009 A 
ATOM     74  C   UNL A   1      41.130  26.553  26.129  1.00  0.00     0.001 A 
ATOM     75  C   UNL A   1      39.808  24.902  27.263  1.00  0.00     0.001 A 
ATOM     76  C   UNL A   1      40.310  25.430  26.079  1.00  0.00     0.000 A 
ENDBRANCH  57  71
BRANCH  58  77
ATOM     77  C   UNL A   1      40.275  33.730  35.574  1.00  0.00    -0.014 A 
ATOM     78  C   UNL A   1      39.032  33.210  35.991  1.00  0.00     0.009 A 
ATOM     79  C   UNL A   1      40.786  34.825  36.270  1.00  0.00     0.009 A 
ATOM     80  C   UNL A   1      38.369  33.716  37.118  1.00  0.00     0.001 A 
ATOM     81  C   UNL A   1      40.124  35.314  37.409  1.00  0.00     0.001 A 
ATOM     82  C   UNL A   1      38.931  34.755  37.846  1.00  0.00     0.000 A 
ENDBRANCH  58  77
BRANCH  70  83
ATOM     83  C   UNL A   1      42.894  26.936  34.731  1.00  0.00    -0.014 A 
ATOM     84  C   UNL A   1      44.156  26.335  34.701  1.00  0.00     0.009 A 
ATOM     85  C   UNL A   1      41.818  26.145  35.196  1.00  0.00     0.009 A 
ATOM     86  C   UNL A   1      44.337  25.013  35.130  1.00  0.00     0.001 A 
ATOM     87  C   UNL A   1      41.990  24.821  35.604  1.00  0.00     0.001 A 
ATOM     88  C   UNL A   1      43.254  24.254  35.573  1.00  0.00     0.000 A 
ENDBRANCH  70  83
ENDBRANCH  44  45
ENDBRANCH  37  39
ENDBRANCH  36  37
ENDBRANCH  35  36
ENDBRANCH  34  35
ENDBRANCH  33  34
ENDBRANCH  32  33
ENDBRANCH   1  32
TORSDOF 20
ENDMDL
MODEL 2
REMARK VINA RESULT:     -11.6      4.193      7.737
REMARK SMILES CC(=O)Nc1cnc(N2CC=C(c3ccccc3C)CC2)c(C(=O)OCCOCCOCCOC(=O)c2ccc(-c3c4nc(c(-c5ccccc5)c5ccc([nH]5)c(-c5ccccc5)c5nc(c(-c6ccccc6)c6ccc3[nH]6)C=C5)C=C4)cc2)c1
REMARK SMILES IDX 29 1 28 2 27 3 26 4 25 5 23 6 24 7 22 8 5 9 6 10 85 11 7 12
REMARK SMILES IDX 8 13 4 14 1 15 2 16 3 17 9 19 10 20 21 21 11 22 20 23 12 24
REMARK SMILES IDX 13 25 14 26 18 27 15 28 17 29 19 30 16 31 30 32 31 33 32 34
REMARK SMILES IDX 33 35 34 36 35 37 36 38 37 39 38 40 84 41 39 42 83 43 40 44
REMARK SMILES IDX 41 45 42 46 77 47 43 48 82 49 76 50 78 51 44 52 81 53 75 54
REMARK SMILES IDX 74 55 45 57 67 58 52 59 66 60 53 61 56 62 65 63 79 64 54 65
REMARK SMILES IDX 55 66 64 68 80 69 57 70 46 71 47 72 51 73 48 74 50 75 49 76
REMARK SMILES IDX 68 77 69 78 73 79 70 80 72 81 71 82 58 83 59 84 63 85 60 86
REMARK SMILES IDX 62 87 61 88
REMARK H PARENT 4 18 78 56 56 67
REMARK Flexibility Score: inf
ROOT
ATOM      1  C   UNL A   1      34.695  32.490  28.743  1.00  0.00     0.188 C 
ENDROOT
BRANCH   1   2
ATOM      2  O   UNL A   1      33.921  32.057  27.604  1.00  0.00    -0.376 OA
BRANCH   2   3
ATOM      3  C   UNL A   1      33.305  30.768  27.458  1.00  0.00     0.202 C 
BRANCH   3   4
ATOM      4  C   UNL A   1      33.999  29.309  26.945  1.00  0.00     0.261 C 
BRANCH   4   5
ATOM      5  O   UNL A   1      34.392  28.628  25.333  1.00  0.00    -0.460 OA
BRANCH   5   6
ATOM      6  C   UNL A   1      33.858  28.414  23.978  1.00  0.00     0.342 C 
ATOM      7  O   UNL A   1      34.413  28.574  22.890  1.00  0.00    -0.246 OA
BRANCH   6   8
ATOM      8  C   UNL A   1      32.441  28.157  23.706  1.00  0.00     0.104 A 
ATOM      9  C   UNL A   1      30.712  29.189  22.403  1.00  0.00     0.060 A 
ATOM     10  C   UNL A   1      30.131  27.937  22.280  1.00  0.00     0.139 A 
ATOM     11  C   UNL A   1      31.844  29.303  23.187  1.00  0.00     0.047 A 
ATOM     12  N   UNL A   1      30.675  26.797  22.763  1.00  0.00    -0.236 NA
ATOM     13  C   UNL A   1      31.868  26.863  23.413  1.00  0.00     0.143 A 
BRANCH   9  14
ATOM     14  N   UNL A   1      30.175  30.302  21.752  1.00  0.00    -0.325 N 
ATOM     15  C   UNL A   1      28.830  31.159  23.662  1.00  0.00     0.114 C 
ATOM     16  C   UNL A   1      29.150  31.108  22.182  1.00  0.00     0.221 C 
ATOM     17  O   UNL A   1      28.566  31.834  21.378  1.00  0.00    -0.275 OA
ATOM     18  H   UNL A   1      30.576  30.535  20.884  1.00  0.00     0.169 HD
ENDBRANCH   9  14
BRANCH  13  19
ATOM     19  N   UNL A   1      32.362  25.604  23.810  1.00  0.00    -0.352 N 
ATOM     20  C   UNL A   1      33.383  24.968  22.945  1.00  0.00     0.146 C 
ATOM     21  C   UNL A   1      31.332  24.744  24.388  1.00  0.00     0.123 C 
ATOM     22  C   UNL A   1      33.509  23.449  23.120  1.00  0.00    -0.002 C 
ATOM     23  C   UNL A   1      31.222  23.315  23.832  1.00  0.00     0.057 C 
ATOM     24  C   UNL A   1      32.526  22.621  23.538  1.00  0.00    -0.041 C 
BRANCH  24  25
ATOM     25  C   UNL A   1      32.669  21.116  23.760  1.00  0.00    -0.020 A 
ATOM     26  C   UNL A   1      32.155  20.225  22.784  1.00  0.00     0.008 A 
ATOM     27  C   UNL A   1      33.369  20.498  24.835  1.00  0.00    -0.044 A 
ATOM     28  C   UNL A   1      32.361  18.833  22.821  1.00  0.00     0.001 A 
ATOM     29  C   UNL A   1      33.576  19.092  24.854  1.00  0.00     0.004 A 
ATOM     30  C   UNL A   1      33.961  21.234  26.008  1.00  0.00     0.045 C 
ATOM     31  C   UNL A   1      33.082  18.265  23.855  1.00  0.00     0.000 A 
ENDBRANCH  24  25
ENDBRANCH  13  19
ENDBRANCH   6   8
ENDBRANCH   5   6
ENDBRANCH   4   5
ENDBRANCH   3   4
ENDBRANCH   2   3
ENDBRANCH   1   2
BRANCH   1  32
ATOM     32  C   UNL A   1      36.015  31.843  29.173  1.00  0.00     0.188 C 
BRANCH  32  33
ATOM     33  O   UNL A   1      36.304  32.144  30.520  1.00  0.00    -0.376 OA
BRANCH  33  34
ATOM     34  C   UNL A   1      37.566  31.724  30.998  1.00  0.00     0.202 C 
BRANCH  34  35
ATOM     35  C   UNL A   1      37.716  31.944  32.510  1.00  0.00     0.261 C 
BRANCH  35  36
ATOM     36  O   UNL A   1      38.965  31.395  32.989  1.00  0.00    -0.460 OA
BRANCH  36  37
ATOM     37  C   UNL A   1      38.867  30.262  33.754  1.00  0.00     0.338 C 
ATOM     38  O   UNL A   1      38.453  30.230  34.904  1.00  0.00    -0.246 OA
BRANCH  37  39
ATOM     39  C   UNL A   1      39.541  29.124  33.063  1.00  0.00     0.060 A 
ATOM     40  C   UNL A   1      40.924  28.920  32.991  1.00  0.00     0.016 A 
ATOM     41  C   UNL A   1      38.791  28.434  32.178  1.00  0.00     0.016 A 
ATOM     42  C   UNL A   1      41.547  28.171  31.904  1.00  0.00     0.010 A 
ATOM     43  C   UNL A   1      39.460  27.971  31.048  1.00  0.00     0.010 A 
ATOM     44  C   UNL A   1      40.866  27.739  30.764  1.00  0.00    -0.014 A 
BRANCH  44  45
ATOM     45  C   UNL A   1      41.678  27.195  29.287  1.00  0.00     0.031 A 
ATOM     46  C   UNL A   1      42.277  25.613  28.683  1.00  0.00     0.074 A 
ATOM     47  C   UNL A   1      42.069  28.164  28.417  1.00  0.00     0.049 A 
ATOM     48  N   UNL A   1      43.225  25.475  27.769  1.00  0.00    -0.248 NA
ATOM     49  C   UNL A   1      41.942  24.170  29.082  1.00  0.00     0.031 C 
ATOM     50  C   UNL A   1      42.576  27.998  27.056  1.00  0.00     0.029 A 
ATOM     51  N   UNL A   1      42.213  29.537  28.641  1.00  0.00    -0.354 N 
ATOM     52  C   UNL A   1      43.376  24.130  27.410  1.00  0.00     0.074 A 
ATOM     53  C   UNL A   1      42.528  23.364  28.225  1.00  0.00     0.031 C 
ATOM     54  C   UNL A   1      43.266  29.092  26.709  1.00  0.00     0.029 A 
ATOM     55  C   UNL A   1      43.280  29.985  27.844  1.00  0.00     0.049 A 
ATOM     56  H   UNL A   1      41.668  30.088  29.246  1.00  0.00     0.167 HD
ATOM     57  C   UNL A   1      44.166  23.654  26.416  1.00  0.00     0.031 A 
ATOM     58  C   UNL A   1      44.371  30.593  28.385  1.00  0.00     0.031 A 
ATOM     59  C   UNL A   1      44.977  24.688  25.854  1.00  0.00     0.049 A 
ATOM     60  C   UNL A   1      45.666  29.835  28.165  1.00  0.00     0.074 A 
ATOM     61  C   UNL A   1      44.902  25.496  24.740  1.00  0.00     0.029 A 
ATOM     62  N   UNL A   1      45.882  25.277  26.710  1.00  0.00    -0.354 N 
ATOM     63  N   UNL A   1      45.817  28.838  27.335  1.00  0.00    -0.248 NA
ATOM     64  C   UNL A   1      46.884  30.092  28.940  1.00  0.00     0.031 C 
ATOM     65  C   UNL A   1      45.792  26.590  24.946  1.00  0.00     0.029 A 
ATOM     66  C   UNL A   1      46.436  26.403  26.155  1.00  0.00     0.049 A 
ATOM     67  H   UNL A   1      46.102  24.934  27.607  1.00  0.00     0.167 HD
ATOM     68  C   UNL A   1      47.047  28.264  27.536  1.00  0.00     0.074 A 
ATOM     69  C   UNL A   1      47.698  29.108  28.518  1.00  0.00     0.031 C 
ATOM     70  C   UNL A   1      47.432  27.098  26.941  1.00  0.00     0.031 A 
BRANCH  57  71
ATOM     71  C   UNL A   1      43.947  22.260  25.869  1.00  0.00    -0.014 A 
ATOM     72  C   UNL A   1      42.679  21.680  26.014  1.00  0.00     0.009 A 
ATOM     73  C   UNL A   1      44.975  21.419  25.387  1.00  0.00     0.009 A 
ATOM     74  C   UNL A   1      42.474  20.306  25.825  1.00  0.00     0.001 A 
ATOM     75  C   UNL A   1      44.789  20.034  25.251  1.00  0.00     0.001 A 
ATOM     76  C   UNL A   1      43.539  19.475  25.491  1.00  0.00     0.000 A 
ENDBRANCH  57  71
BRANCH  58  77
ATOM     77  C   UNL A   1      44.035  31.478  29.534  1.00  0.00    -0.014 A 
ATOM     78  C   UNL A   1      43.454  32.735  29.266  1.00  0.00     0.009 A 
ATOM     79  C   UNL A   1      43.902  30.964  30.823  1.00  0.00     0.009 A 
ATOM     80  C   UNL A   1      42.695  33.410  30.231  1.00  0.00     0.001 A 
ATOM     81  C   UNL A   1      43.124  31.639  31.779  1.00  0.00     0.001 A 
ATOM     82  C   UNL A   1      42.507  32.847  31.485  1.00  0.00     0.000 A 
ENDBRANCH  58  77
BRANCH  70  83
ATOM     83  C   UNL A   1      48.793  26.468  27.087  1.00  0.00    -0.014 A 
ATOM     84  C   UNL A   1      49.107  25.658  28.184  1.00  0.00     0.009 A 
ATOM     85  C   UNL A   1      49.858  26.825  26.229  1.00  0.00     0.009 A 
ATOM     86  C   UNL A   1      50.419  25.215  28.402  1.00  0.00     0.001 A 
ATOM     87  C   UNL A   1      51.170  26.405  26.455  1.00  0.00     0.001 A 
ATOM     88  C   UNL A   1      51.450  25.595  27.544  1.00  0.00     0.000 A 
ENDBRANCH  70  83
ENDBRANCH  44  45
ENDBRANCH  37  39
ENDBRANCH  36  37
ENDBRANCH  35  36
ENDBRANCH  34  35
ENDBRANCH  33  34
ENDBRANCH  32  33
ENDBRANCH   1  32
TORSDOF 20
ENDMDL
MODEL 3
REMARK VINA RESULT:     -11.6      1.802      2.685
REMARK SMILES CC(=O)Nc1cnc(N2CC=C(c3ccccc3C)CC2)c(C(=O)OCCOCCOCCOC(=O)c2ccc(-c3c4nc(c(-c5ccccc5)c5ccc([nH]5)c(-c5ccccc5)c5nc(c(-c6ccccc6)c6ccc3[nH]6)C=C5)C=C4)cc2)c1
REMARK SMILES IDX 29 1 28 2 27 3 26 4 25 5 23 6 24 7 22 8 5 9 6 10 85 11 7 12
REMARK SMILES IDX 8 13 4 14 1 15 2 16 3 17 9 19 10 20 21 21 11 22 20 23 12 24
REMARK SMILES IDX 13 25 14 26 18 27 15 28 17 29 19 30 16 31 30 32 31 33 32 34
REMARK SMILES IDX 33 35 34 36 35 37 36 38 37 39 38 40 84 41 39 42 83 43 40 44
REMARK SMILES IDX 41 45 42 46 77 47 43 48 82 49 76 50 78 51 44 52 81 53 75 54
REMARK SMILES IDX 74 55 45 57 67 58 52 59 66 60 53 61 56 62 65 63 79 64 54 65
REMARK SMILES IDX 55 66 64 68 80 69 57 70 46 71 47 72 51 73 48 74 50 75 49 76
REMARK SMILES IDX 68 77 69 78 73 79 70 80 72 81 71 82 58 83 59 84 63 85 60 86
REMARK SMILES IDX 62 87 61 88
REMARK H PARENT 4 18 78 56 56 67
REMARK Flexibility Score: inf
ROOT
ATOM      1  C   UNL A   1      34.702  30.904  27.910  1.00  0.00     0.188 C 
ENDROOT
BRANCH   1   2
ATOM      2  O   UNL A   1      34.153  29.800  27.160  1.00  0.00    -0.376 OA
BRANCH   2   3
ATOM      3  C   UNL A   1      32.767  29.629  26.826  1.00  0.00     0.202 C 
BRANCH   3   4
ATOM      4  C   UNL A   1      31.843  28.207  26.815  1.00  0.00     0.261 C 
BRANCH   4   5
ATOM      5  O   UNL A   1      32.249  26.472  26.613  1.00  0.00    -0.460 OA
BRANCH   5   6
ATOM      6  C   UNL A   1      32.058  25.307  25.733  1.00  0.00     0.342 C 
ATOM      7  O   UNL A   1      31.197  24.429  25.784  1.00  0.00    -0.246 OA
BRANCH   6   8
ATOM      8  C   UNL A   1      33.042  24.889  24.731  1.00  0.00     0.104 A 
ATOM      9  C   UNL A   1      34.135  22.842  24.125  1.00  0.00     0.060 A 
ATOM     10  C   UNL A   1      34.228  23.336  22.833  1.00  0.00     0.139 A 
ATOM     11  C   UNL A   1      33.597  23.665  25.095  1.00  0.00     0.047 A 
ATOM     12  N   UNL A   1      33.702  24.516  22.432  1.00  0.00    -0.236 NA
ATOM     13  C   UNL A   1      33.036  25.280  23.339  1.00  0.00     0.143 A 
BRANCH   9  14
ATOM     14  N   UNL A   1      34.568  21.551  24.437  1.00  0.00    -0.325 N 
ATOM     15  C   UNL A   1      32.408  20.390  24.011  1.00  0.00     0.114 C 
ATOM     16  C   UNL A   1      33.794  20.432  24.623  1.00  0.00     0.221 C 
ATOM     17  O   UNL A   1      34.263  19.456  25.207  1.00  0.00    -0.275 OA
ATOM     18  H   UNL A   1      35.540  21.429  24.535  1.00  0.00     0.169 HD
ENDBRANCH   9  14
BRANCH  13  19
ATOM     19  N   UNL A   1      32.477  26.450  22.787  1.00  0.00    -0.352 N 
ATOM     20  C   UNL A   1      33.016  27.749  23.254  1.00  0.00     0.146 C 
ATOM     21  C   UNL A   1      31.035  26.349  22.579  1.00  0.00     0.123 C 
ATOM     22  C   UNL A   1      32.078  28.943  23.031  1.00  0.00    -0.002 C 
ATOM     23  C   UNL A   1      30.168  27.495  23.125  1.00  0.00     0.057 C 
ATOM     24  C   UNL A   1      30.730  28.882  22.959  1.00  0.00    -0.041 C 
BRANCH  24  25
ATOM     25  C   UNL A   1      29.802  30.066  22.686  1.00  0.00    -0.020 A 
ATOM     26  C   UNL A   1      29.110  30.126  21.451  1.00  0.00     0.008 A 
ATOM     27  C   UNL A   1      29.480  31.098  23.613  1.00  0.00    -0.044 A 
ATOM     28  C   UNL A   1      28.127  31.092  21.161  1.00  0.00     0.001 A 
ATOM     29  C   UNL A   1      28.480  32.061  23.308  1.00  0.00     0.004 A 
ATOM     30  C   UNL A   1      30.119  31.266  24.966  1.00  0.00     0.045 C 
ATOM     31  C   UNL A   1      27.804  32.058  22.096  1.00  0.00     0.000 A 
ENDBRANCH  24  25
ENDBRANCH  13  19
ENDBRANCH   6   8
ENDBRANCH   5   6
ENDBRANCH   4   5
ENDBRANCH   3   4
ENDBRANCH   2   3
ENDBRANCH   1   2
BRANCH   1  32
ATOM     32  C   UNL A   1      34.302  32.367  27.692  1.00  0.00     0.188 C 
BRANCH  32  33
ATOM     33  O   UNL A   1      33.826  32.939  28.891  1.00  0.00    -0.376 OA
BRANCH  33  34
ATOM     34  C   UNL A   1      34.447  34.141  29.299  1.00  0.00     0.202 C 
BRANCH  34  35
ATOM     35  C   UNL A   1      35.781  33.889  30.016  1.00  0.00     0.261 C 
BRANCH  35  36
ATOM     36  O   UNL A   1      35.612  33.947  31.451  1.00  0.00    -0.460 OA
BRANCH  36  37
ATOM     37  C   UNL A   1      35.095  32.822  32.039  1.00  0.00     0.338 C 
ATOM     38  O   UNL A   1      33.936  32.697  32.410  1.00  0.00    -0.246 OA
BRANCH  37  39
ATOM     39  C   UNL A   1      36.195  31.866  32.360  1.00  0.00     0.060 A 
ATOM     40  C   UNL A   1      37.403  32.197  32.984  1.00  0.00     0.016 A 
ATOM     41  C   UNL A   1      36.163  30.681  31.714  1.00  0.00     0.016 A 
ATOM     42  C   UNL A   1      38.622  31.416  32.789  1.00  0.00     0.010 A 
ATOM     43  C   UNL A   1      37.402  30.149  31.364  1.00  0.00     0.010 A 
ATOM     44  C   UNL A   1      38.749  30.391  31.850  1.00  0.00    -0.014 A 
BRANCH  44  45
ATOM     45  C   UNL A   1      40.307  29.723  31.337  1.00  0.00     0.031 A 
ATOM     46  C   UNL A   1      40.813  28.367  30.275  1.00  0.00     0.074 A 
ATOM     47  C   UNL A   1      41.415  30.239  31.934  1.00  0.00     0.049 A 
ATOM     48  N   UNL A   1      41.987  27.758  30.351  1.00  0.00    -0.248 NA
ATOM     49  C   UNL A   1      40.070  27.590  29.179  1.00  0.00     0.031 C 
ATOM     50  C   UNL A   1      42.814  30.021  31.573  1.00  0.00     0.029 A 
ATOM     51  N   UNL A   1      41.508  30.989  33.111  1.00  0.00    -0.354 N 
ATOM     52  C   UNL A   1      42.137  26.836  29.308  1.00  0.00     0.074 A 
ATOM     53  C   UNL A   1      40.935  26.799  28.584  1.00  0.00     0.031 C 
ATOM     54  C   UNL A   1      43.589  30.298  32.630  1.00  0.00     0.029 A 
ATOM     55  C   UNL A   1      42.724  30.655  33.731  1.00  0.00     0.049 A 
ATOM     56  H   UNL A   1      40.842  31.633  33.445  1.00  0.00     0.167 HD
ATOM     57  C   UNL A   1      43.262  26.138  29.017  1.00  0.00     0.031 A 
ATOM     58  C   UNL A   1      42.768  30.151  34.994  1.00  0.00     0.031 A 
ATOM     59  C   UNL A   1      44.267  26.329  30.016  1.00  0.00     0.049 A 
ATOM     60  C   UNL A   1      43.344  28.750  35.074  1.00  0.00     0.074 A 
ATOM     61  C   UNL A   1      45.384  27.126  30.141  1.00  0.00     0.029 A 
ATOM     62  N   UNL A   1      43.951  25.888  31.282  1.00  0.00    -0.354 N 
ATOM     63  N   UNL A   1      43.979  28.146  34.107  1.00  0.00    -0.248 NA
ATOM     64  C   UNL A   1      43.165  27.879  36.240  1.00  0.00     0.031 C 
ATOM     65  C   UNL A   1      45.737  27.151  31.522  1.00  0.00     0.029 A 
ATOM     66  C   UNL A   1      44.865  26.327  32.207  1.00  0.00     0.049 A 
ATOM     67  H   UNL A   1      43.168  25.330  31.497  1.00  0.00     0.167 HD
ATOM     68  C   UNL A   1      44.180  26.832  34.447  1.00  0.00     0.074 A 
ATOM     69  C   UNL A   1      43.695  26.721  35.808  1.00  0.00     0.031 C 
ATOM     70  C   UNL A   1      44.667  25.902  33.575  1.00  0.00     0.031 A 
BRANCH  57  71
ATOM     71  C   UNL A   1      43.428  25.491  27.659  1.00  0.00    -0.014 A 
ATOM     72  C   UNL A   1      43.836  26.294  26.585  1.00  0.00     0.009 A 
ATOM     73  C   UNL A   1      43.024  24.173  27.347  1.00  0.00     0.009 A 
ATOM     74  C   UNL A   1      43.715  25.859  25.257  1.00  0.00     0.001 A 
ATOM     75  C   UNL A   1      42.847  23.755  26.017  1.00  0.00     0.001 A 
ATOM     76  C   UNL A   1      43.175  24.609  24.971  1.00  0.00     0.000 A 
ENDBRANCH  57  71
BRANCH  58  77
ATOM     77  C   UNL A   1      41.752  30.756  35.898  1.00  0.00    -0.014 A 
ATOM     78  C   UNL A   1      42.052  31.986  36.517  1.00  0.00     0.009 A 
ATOM     79  C   UNL A   1      40.414  30.370  35.836  1.00  0.00     0.009 A 
ATOM     80  C   UNL A   1      41.039  32.838  36.980  1.00  0.00     0.001 A 
ATOM     81  C   UNL A   1      39.403  31.238  36.286  1.00  0.00     0.001 A 
ATOM     82  C   UNL A   1      39.708  32.474  36.839  1.00  0.00     0.000 A 
ENDBRANCH  58  77
BRANCH  70  83
ATOM     83  C   UNL A   1      44.959  24.466  33.927  1.00  0.00    -0.014 A 
ATOM     84  C   UNL A   1      43.947  23.600  34.353  1.00  0.00     0.009 A 
ATOM     85  C   UNL A   1      46.289  23.996  34.026  1.00  0.00     0.009 A 
ATOM     86  C   UNL A   1      44.250  22.320  34.839  1.00  0.00     0.001 A 
ATOM     87  C   UNL A   1      46.595  22.731  34.530  1.00  0.00     0.001 A 
ATOM     88  C   UNL A   1      45.572  21.890  34.936  1.00  0.00     0.000 A 
ENDBRANCH  70  83
ENDBRANCH  44  45
ENDBRANCH  37  39
ENDBRANCH  36  37
ENDBRANCH  35  36
ENDBRANCH  34  35
ENDBRANCH  33  34
ENDBRANCH  32  33
ENDBRANCH   1  32
TORSDOF 20
ENDMDL
