MODEL 1
REMARK VINA RESULT:     -10.9      0.000      0.000
REMARK SMILES O=C(Nc1ccc2c(c1)[C@@H]1C=CC[C@@H]1[C@H](C(=O)OCCOCCOCCOC(=O)c1ccc(-c3c4nc(c(-c5ccccc5)c5ccc([nH]5)c(-c5ccccc5)c5nc(c(-c6ccccc6)c6ccc3[nH]6)C=C5)C=C4)cc1)N2)c1ccccc1
REMARK SMILES IDX 22 1 21 2 20 3 19 4 18 5 16 6 17 7 15 8 4 9 5 10 9 11 6 12
REMARK SMILES IDX 8 13 7 14 10 15 78 16 11 17 14 18 12 20 13 21 3 22 1 23 2 24
REMARK SMILES IDX 79 26 80 27 84 28 81 29 83 30 82 31 23 32 24 33 25 34 26 35
REMARK SMILES IDX 27 36 28 37 29 38 30 39 31 40 77 41 32 42 76 43 33 44 34 45
REMARK SMILES IDX 35 46 70 47 36 48 75 49 69 50 71 51 37 52 74 53 68 54 67 55
REMARK SMILES IDX 38 57 60 58 45 59 59 60 46 61 49 62 58 63 72 64 47 65 48 66
REMARK SMILES IDX 57 68 73 69 50 70 39 71 40 72 44 73 41 74 43 75 42 76 61 77
REMARK SMILES IDX 62 78 66 79 63 80 65 81 64 82 51 83 52 84 56 85 53 86 55 87
REMARK SMILES IDX 54 88
REMARK H PARENT 78 19 3 25 71 56 49 67
REMARK Flexibility Score: inf
ROOT
ATOM      1  C   UNL A   1      34.580  30.326  27.262  1.00  0.00     0.188 C 
ENDROOT
BRANCH   1   2
ATOM      2  O   UNL A   1      33.528  29.381  27.087  1.00  0.00    -0.376 OA
BRANCH   2   3
ATOM      3  C   UNL A   1      32.193  29.885  27.120  1.00  0.00     0.202 C 
BRANCH   3   4
ATOM      4  C   UNL A   1      31.647  30.474  25.811  1.00  0.00     0.261 C 
BRANCH   4   5
ATOM      5  O   UNL A   1      31.834  29.628  24.657  1.00  0.00    -0.462 OA
BRANCH   5   6
ATOM      6  C   UNL A   1      30.691  29.255  24.030  1.00  0.00     0.328 C 
ATOM      7  O   UNL A   1      29.818  30.040  23.655  1.00  0.00    -0.250 OA
BRANCH   6   8
ATOM      8  C   UNL A   1      30.569  27.748  23.720  1.00  0.00     0.194 C 
ATOM      9  C   UNL A   1      31.367  22.981  25.456  1.00  0.00     0.041 A 
ATOM     10  C   UNL A   1      30.960  23.754  26.537  1.00  0.00     0.028 A 
ATOM     11  C   UNL A   1      31.387  23.544  24.173  1.00  0.00     0.032 A 
ATOM     12  C   UNL A   1      30.723  25.112  26.355  1.00  0.00     0.028 A 
ATOM     13  C   UNL A   1      31.165  24.919  23.983  1.00  0.00    -0.015 A 
ATOM     14  C   UNL A   1      30.843  25.705  25.094  1.00  0.00     0.039 A 
ATOM     15  C   UNL A   1      31.269  25.554  22.608  1.00  0.00     0.050 C 
ATOM     16  N   UNL A   1      30.715  27.066  24.998  1.00  0.00    -0.372 N 
ATOM     17  C   UNL A   1      32.529  25.176  21.870  1.00  0.00    -0.023 C 
ATOM     18  C   UNL A   1      31.405  27.105  22.618  1.00  0.00     0.038 C 
ATOM     19  H   UNL A   1      30.723  27.602  25.824  1.00  0.00     0.161 HD
ATOM     20  C   UNL A   1      33.429  26.166  21.875  1.00  0.00    -0.030 C 
ATOM     21  C   UNL A   1      32.915  27.370  22.603  1.00  0.00     0.034 C 
BRANCH   9  22
ATOM     22  N   UNL A   1      31.789  21.671  25.735  1.00  0.00    -0.322 N 
ATOM     23  O   UNL A   1      33.140  19.861  25.653  1.00  0.00    -0.269 OA
ATOM     24  C   UNL A   1      33.015  21.078  25.529  1.00  0.00     0.255 C 
ATOM     25  H   UNL A   1      31.105  21.089  26.138  1.00  0.00     0.170 HD
BRANCH  24  26
ATOM     26  C   UNL A   1      34.222  21.896  25.252  1.00  0.00     0.040 A 
ATOM     27  C   UNL A   1      34.707  22.072  23.948  1.00  0.00     0.014 A 
ATOM     28  C   UNL A   1      34.869  22.513  26.327  1.00  0.00     0.014 A 
ATOM     29  C   UNL A   1      35.883  22.791  23.734  1.00  0.00     0.001 A 
ATOM     30  C   UNL A   1      36.038  23.242  26.106  1.00  0.00     0.001 A 
ATOM     31  C   UNL A   1      36.552  23.367  24.814  1.00  0.00     0.000 A 
ENDBRANCH  24  26
ENDBRANCH   9  22
ENDBRANCH   6   8
ENDBRANCH   5   6
ENDBRANCH   4   5
ENDBRANCH   3   4
ENDBRANCH   2   3
ENDBRANCH   1   2
BRANCH   1  32
ATOM     32  C   UNL A   1      34.299  31.501  28.199  1.00  0.00     0.188 C 
BRANCH  32  33
ATOM     33  O   UNL A   1      34.231  32.780  27.584  1.00  0.00    -0.376 OA
BRANCH  33  34
ATOM     34  C   UNL A   1      33.015  33.512  27.766  1.00  0.00     0.202 C 
BRANCH  34  35
ATOM     35  C   UNL A   1      33.094  34.808  28.603  1.00  0.00     0.261 C 
BRANCH  35  36
ATOM     36  O   UNL A   1      32.774  34.673  30.007  1.00  0.00    -0.460 OA
BRANCH  36  37
ATOM     37  C   UNL A   1      33.689  35.093  30.910  1.00  0.00     0.338 C 
ATOM     38  O   UNL A   1      33.519  35.934  31.776  1.00  0.00    -0.246 OA
BRANCH  37  39
ATOM     39  C   UNL A   1      34.861  34.171  30.867  1.00  0.00     0.060 A 
ATOM     40  C   UNL A   1      34.819  33.013  31.660  1.00  0.00     0.016 A 
ATOM     41  C   UNL A   1      35.950  34.383  30.015  1.00  0.00     0.016 A 
ATOM     42  C   UNL A   1      35.880  32.102  31.644  1.00  0.00     0.010 A 
ATOM     43  C   UNL A   1      37.018  33.476  30.008  1.00  0.00     0.010 A 
ATOM     44  C   UNL A   1      37.009  32.350  30.852  1.00  0.00    -0.014 A 
BRANCH  44  45
ATOM     45  C   UNL A   1      38.254  31.568  31.076  1.00  0.00     0.031 A 
ATOM     46  C   UNL A   1      39.202  32.034  32.153  1.00  0.00     0.074 A 
ATOM     47  C   UNL A   1      38.540  30.449  30.385  1.00  0.00     0.049 A 
ATOM     48  N   UNL A   1      40.350  31.531  32.529  1.00  0.00    -0.248 NA
ATOM     49  C   UNL A   1      38.793  33.231  32.907  1.00  0.00     0.031 C 
ATOM     50  C   UNL A   1      37.701  29.847  29.352  1.00  0.00     0.029 A 
ATOM     51  N   UNL A   1      39.634  29.617  30.457  1.00  0.00    -0.354 N 
ATOM     52  C   UNL A   1      40.802  32.352  33.553  1.00  0.00     0.074 A 
ATOM     53  C   UNL A   1      39.823  33.403  33.719  1.00  0.00     0.031 C 
ATOM     54  C   UNL A   1      38.312  28.743  28.884  1.00  0.00     0.029 A 
ATOM     55  C   UNL A   1      39.599  28.577  29.559  1.00  0.00     0.049 A 
ATOM     56  H   UNL A   1      40.373  29.755  31.093  1.00  0.00     0.167 HD
ATOM     57  C   UNL A   1      41.927  32.243  34.301  1.00  0.00     0.031 A 
ATOM     58  C   UNL A   1      40.507  27.614  29.301  1.00  0.00     0.031 A 
ATOM     59  C   UNL A   1      42.917  31.214  34.139  1.00  0.00     0.049 A 
ATOM     60  C   UNL A   1      41.796  27.566  30.084  1.00  0.00     0.074 A 
ATOM     61  C   UNL A   1      44.083  31.021  34.860  1.00  0.00     0.029 A 
ATOM     62  N   UNL A   1      42.866  30.212  33.184  1.00  0.00    -0.354 N 
ATOM     63  N   UNL A   1      42.198  28.333  31.068  1.00  0.00    -0.248 NA
ATOM     64  C   UNL A   1      42.754  26.509  29.721  1.00  0.00     0.031 C 
ATOM     65  C   UNL A   1      44.769  29.938  34.300  1.00  0.00     0.029 A 
ATOM     66  C   UNL A   1      43.996  29.415  33.277  1.00  0.00     0.049 A 
ATOM     67  H   UNL A   1      42.135  30.084  32.536  1.00  0.00     0.167 HD
ATOM     68  C   UNL A   1      43.434  27.830  31.464  1.00  0.00     0.074 A 
ATOM     69  C   UNL A   1      43.709  26.685  30.623  1.00  0.00     0.031 C 
ATOM     70  C   UNL A   1      44.264  28.276  32.438  1.00  0.00     0.031 A 
BRANCH  57  71
ATOM     71  C   UNL A   1      42.162  33.300  35.345  1.00  0.00    -0.014 A 
ATOM     72  C   UNL A   1      42.855  34.484  35.046  1.00  0.00     0.009 A 
ATOM     73  C   UNL A   1      41.659  33.116  36.643  1.00  0.00     0.009 A 
ATOM     74  C   UNL A   1      43.070  35.445  36.035  1.00  0.00     0.001 A 
ATOM     75  C   UNL A   1      41.849  34.093  37.621  1.00  0.00     0.001 A 
ATOM     76  C   UNL A   1      42.562  35.252  37.319  1.00  0.00     0.000 A 
ENDBRANCH  57  71
BRANCH  58  77
ATOM     77  C   UNL A   1      40.253  26.612  28.229  1.00  0.00    -0.014 A 
ATOM     78  C   UNL A   1      39.495  25.458  28.486  1.00  0.00     0.009 A 
ATOM     79  C   UNL A   1      40.811  26.782  26.952  1.00  0.00     0.009 A 
ATOM     80  C   UNL A   1      39.326  24.486  27.497  1.00  0.00     0.001 A 
ATOM     81  C   UNL A   1      40.613  25.824  25.955  1.00  0.00     0.001 A 
ATOM     82  C   UNL A   1      39.879  24.672  26.232  1.00  0.00     0.000 A 
ENDBRANCH  58  77
BRANCH  70  83
ATOM     83  C   UNL A   1      45.531  27.500  32.687  1.00  0.00    -0.014 A 
ATOM     84  C   UNL A   1      45.562  26.401  33.559  1.00  0.00     0.009 A 
ATOM     85  C   UNL A   1      46.705  27.853  32.000  1.00  0.00     0.009 A 
ATOM     86  C   UNL A   1      46.751  25.695  33.766  1.00  0.00     0.001 A 
ATOM     87  C   UNL A   1      47.883  27.126  32.183  1.00  0.00     0.001 A 
ATOM     88  C   UNL A   1      47.907  26.055  33.075  1.00  0.00     0.000 A 
ENDBRANCH  70  83
ENDBRANCH  44  45
ENDBRANCH  37  39
ENDBRANCH  36  37
ENDBRANCH  35  36
ENDBRANCH  34  35
ENDBRANCH  33  34
ENDBRANCH  32  33
ENDBRANCH   1  32
TORSDOF 19
ENDMDL
MODEL 2
REMARK VINA RESULT:     -10.7      2.969      8.678
REMARK SMILES O=C(Nc1ccc2c(c1)[C@@H]1C=CC[C@@H]1[C@H](C(=O)OCCOCCOCCOC(=O)c1ccc(-c3c4nc(c(-c5ccccc5)c5ccc([nH]5)c(-c5ccccc5)c5nc(c(-c6ccccc6)c6ccc3[nH]6)C=C5)C=C4)cc1)N2)c1ccccc1
REMARK SMILES IDX 22 1 21 2 20 3 19 4 18 5 16 6 17 7 15 8 4 9 5 10 9 11 6 12
REMARK SMILES IDX 8 13 7 14 10 15 78 16 11 17 14 18 12 20 13 21 3 22 1 23 2 24
REMARK SMILES IDX 79 26 80 27 84 28 81 29 83 30 82 31 23 32 24 33 25 34 26 35
REMARK SMILES IDX 27 36 28 37 29 38 30 39 31 40 77 41 32 42 76 43 33 44 34 45
REMARK SMILES IDX 35 46 70 47 36 48 75 49 69 50 71 51 37 52 74 53 68 54 67 55
REMARK SMILES IDX 38 57 60 58 45 59 59 60 46 61 49 62 58 63 72 64 47 65 48 66
REMARK SMILES IDX 57 68 73 69 50 70 39 71 40 72 44 73 41 74 43 75 42 76 61 77
REMARK SMILES IDX 62 78 66 79 63 80 65 81 64 82 51 83 52 84 56 85 53 86 55 87
REMARK SMILES IDX 54 88
REMARK H PARENT 78 19 3 25 71 56 49 67
REMARK Flexibility Score: inf
ROOT
ATOM      1  C   UNL A   1      40.148  20.231  26.227  1.00  0.00     0.188 C 
ENDROOT
BRANCH   1   2
ATOM      2  O   UNL A   1      39.108  21.145  25.893  1.00  0.00    -0.376 OA
BRANCH   2   3
ATOM      3  C   UNL A   1      38.015  20.633  25.130  1.00  0.00     0.202 C 
BRANCH   3   4
ATOM      4  C   UNL A   1      37.175  21.659  24.355  1.00  0.00     0.261 C 
BRANCH   4   5
ATOM      5  O   UNL A   1      36.000  22.114  25.058  1.00  0.00    -0.462 OA
BRANCH   5   6
ATOM      6  C   UNL A   1      34.925  21.292  24.966  1.00  0.00     0.328 C 
ATOM      7  O   UNL A   1      34.902  20.132  25.380  1.00  0.00    -0.250 OA
BRANCH   6   8
ATOM      8  C   UNL A   1      33.655  21.932  24.369  1.00  0.00     0.194 C 
ATOM      9  C   UNL A   1      31.513  26.245  22.583  1.00  0.00     0.041 A 
ATOM     10  C   UNL A   1      32.842  26.243  22.179  1.00  0.00     0.028 A 
ATOM     11  C   UNL A   1      30.993  25.129  23.252  1.00  0.00     0.032 A 
ATOM     12  C   UNL A   1      33.675  25.203  22.575  1.00  0.00     0.028 A 
ATOM     13  C   UNL A   1      31.832  24.081  23.671  1.00  0.00    -0.015 A 
ATOM     14  C   UNL A   1      33.187  24.134  23.334  1.00  0.00     0.039 A 
ATOM     15  C   UNL A   1      31.293  22.909  24.471  1.00  0.00     0.050 C 
ATOM     16  N   UNL A   1      34.079  23.201  23.796  1.00  0.00    -0.372 N 
ATOM     17  C   UNL A   1      30.446  23.328  25.645  1.00  0.00    -0.023 C 
ATOM     18  C   UNL A   1      32.381  22.065  25.198  1.00  0.00     0.038 C 
ATOM     19  H   UNL A   1      35.043  23.397  23.738  1.00  0.00     0.161 HD
ATOM     20  C   UNL A   1      31.101  23.208  26.806  1.00  0.00    -0.030 C 
ATOM     21  C   UNL A   1      32.487  22.678  26.599  1.00  0.00     0.034 C 
BRANCH   9  22
ATOM     22  N   UNL A   1      30.774  27.412  22.333  1.00  0.00    -0.322 N 
ATOM     23  O   UNL A   1      29.553  29.248  22.833  1.00  0.00    -0.269 OA
ATOM     24  C   UNL A   1      30.365  28.400  23.201  1.00  0.00     0.255 C 
ATOM     25  H   UNL A   1      30.508  27.544  21.394  1.00  0.00     0.170 HD
BRANCH  24  26
ATOM     26  C   UNL A   1      30.961  28.520  24.554  1.00  0.00     0.040 A 
ATOM     27  C   UNL A   1      31.529  29.721  25.004  1.00  0.00     0.014 A 
ATOM     28  C   UNL A   1      30.933  27.404  25.395  1.00  0.00     0.014 A 
ATOM     29  C   UNL A   1      32.141  29.776  26.256  1.00  0.00     0.001 A 
ATOM     30  C   UNL A   1      31.535  27.467  26.652  1.00  0.00     0.001 A 
ATOM     31  C   UNL A   1      32.151  28.646  27.074  1.00  0.00     0.000 A 
ENDBRANCH  24  26
ENDBRANCH   9  22
ENDBRANCH   6   8
ENDBRANCH   5   6
ENDBRANCH   4   5
ENDBRANCH   3   4
ENDBRANCH   2   3
ENDBRANCH   1   2
BRANCH   1  32
ATOM     32  C   UNL A   1      41.131  20.675  27.310  1.00  0.00     0.188 C 
BRANCH  32  33
ATOM     33  O   UNL A   1      42.473  20.239  27.142  1.00  0.00    -0.376 OA
BRANCH  33  34
ATOM     34  C   UNL A   1      42.982  20.239  25.805  1.00  0.00     0.202 C 
BRANCH  34  35
ATOM     35  C   UNL A   1      43.834  21.454  25.376  1.00  0.00     0.261 C 
BRANCH  35  36
ATOM     36  O   UNL A   1      43.100  22.661  25.065  1.00  0.00    -0.460 OA
BRANCH  36  37
ATOM     37  C   UNL A   1      43.774  23.833  25.070  1.00  0.00     0.338 C 
ATOM     38  O   UNL A   1      44.645  24.172  24.286  1.00  0.00    -0.246 OA
BRANCH  37  39
ATOM     39  C   UNL A   1      43.097  24.769  26.014  1.00  0.00     0.060 A 
ATOM     40  C   UNL A   1      43.602  26.074  26.123  1.00  0.00     0.016 A 
ATOM     41  C   UNL A   1      41.947  24.413  26.725  1.00  0.00     0.016 A 
ATOM     42  C   UNL A   1      42.995  27.002  26.977  1.00  0.00     0.010 A 
ATOM     43  C   UNL A   1      41.346  25.339  27.589  1.00  0.00     0.010 A 
ATOM     44  C   UNL A   1      41.890  26.626  27.752  1.00  0.00    -0.014 A 
BRANCH  44  45
ATOM     45  C   UNL A   1      41.452  27.490  28.881  1.00  0.00     0.031 A 
ATOM     46  C   UNL A   1      42.209  27.398  30.182  1.00  0.00     0.074 A 
ATOM     47  C   UNL A   1      40.439  28.371  28.768  1.00  0.00     0.049 A 
ATOM     48  N   UNL A   1      42.014  28.035  31.308  1.00  0.00    -0.248 NA
ATOM     49  C   UNL A   1      43.340  26.456  30.211  1.00  0.00     0.031 C 
ATOM     50  C   UNL A   1      39.648  28.611  27.564  1.00  0.00     0.029 A 
ATOM     51  N   UNL A   1      39.905  29.231  29.699  1.00  0.00    -0.354 N 
ATOM     52  C   UNL A   1      42.990  27.567  32.178  1.00  0.00     0.074 A 
ATOM     53  C   UNL A   1      43.755  26.570  31.462  1.00  0.00     0.031 C 
ATOM     54  C   UNL A   1      38.727  29.555  27.829  1.00  0.00     0.029 A 
ATOM     55  C   UNL A   1      38.840  29.963  29.230  1.00  0.00     0.049 A 
ATOM     56  H   UNL A   1      40.254  29.315  30.616  1.00  0.00     0.167 HD
ATOM     57  C   UNL A   1      43.240  27.935  33.458  1.00  0.00     0.031 A 
ATOM     58  C   UNL A   1      38.040  30.846  29.861  1.00  0.00     0.031 A 
ATOM     59  C   UNL A   1      42.480  28.912  34.188  1.00  0.00     0.049 A 
ATOM     60  C   UNL A   1      38.279  31.172  31.315  1.00  0.00     0.074 A 
ATOM     61  C   UNL A   1      42.670  29.355  35.486  1.00  0.00     0.029 A 
ATOM     62  N   UNL A   1      41.379  29.590  33.691  1.00  0.00    -0.354 N 
ATOM     63  N   UNL A   1      39.223  30.743  32.118  1.00  0.00    -0.248 NA
ATOM     64  C   UNL A   1      37.344  32.117  31.946  1.00  0.00     0.031 C 
ATOM     65  C   UNL A   1      41.644  30.255  35.795  1.00  0.00     0.029 A 
ATOM     66  C   UNL A   1      40.860  30.425  34.667  1.00  0.00     0.049 A 
ATOM     67  H   UNL A   1      41.020  29.493  32.779  1.00  0.00     0.167 HD
ATOM     68  C   UNL A   1      39.015  31.389  33.332  1.00  0.00     0.074 A 
ATOM     69  C   UNL A   1      37.865  32.251  33.157  1.00  0.00     0.031 C 
ATOM     70  C   UNL A   1      39.716  31.280  34.487  1.00  0.00     0.031 A 
BRANCH  57  71
ATOM     71  C   UNL A   1      44.370  27.238  34.164  1.00  0.00    -0.014 A 
ATOM     72  C   UNL A   1      44.214  25.952  34.706  1.00  0.00     0.009 A 
ATOM     73  C   UNL A   1      45.619  27.872  34.265  1.00  0.00     0.009 A 
ATOM     74  C   UNL A   1      45.276  25.331  35.367  1.00  0.00     0.001 A 
ATOM     75  C   UNL A   1      46.687  27.234  34.898  1.00  0.00     0.001 A 
ATOM     76  C   UNL A   1      46.512  25.970  35.457  1.00  0.00     0.000 A 
ENDBRANCH  57  71
BRANCH  58  77
ATOM     77  C   UNL A   1      36.905  31.481  29.137  1.00  0.00    -0.014 A 
ATOM     78  C   UNL A   1      37.005  32.795  28.652  1.00  0.00     0.009 A 
ATOM     79  C   UNL A   1      35.694  30.790  28.968  1.00  0.00     0.009 A 
ATOM     80  C   UNL A   1      35.910  33.411  28.041  1.00  0.00     0.001 A 
ATOM     81  C   UNL A   1      34.612  31.397  28.327  1.00  0.00     0.001 A 
ATOM     82  C   UNL A   1      34.716  32.710  27.874  1.00  0.00     0.000 A 
ENDBRANCH  58  77
BRANCH  70  83
ATOM     83  C   UNL A   1      39.294  32.147  35.645  1.00  0.00    -0.014 A 
ATOM     84  C   UNL A   1      38.391  31.689  36.617  1.00  0.00     0.009 A 
ATOM     85  C   UNL A   1      39.848  33.430  35.787  1.00  0.00     0.009 A 
ATOM     86  C   UNL A   1      38.022  32.512  37.684  1.00  0.00     0.001 A 
ATOM     87  C   UNL A   1      39.503  34.238  36.872  1.00  0.00     0.001 A 
ATOM     88  C   UNL A   1      38.581  33.782  37.814  1.00  0.00     0.000 A 
ENDBRANCH  70  83
ENDBRANCH  44  45
ENDBRANCH  37  39
ENDBRANCH  36  37
ENDBRANCH  35  36
ENDBRANCH  34  35
ENDBRANCH  33  34
ENDBRANCH  32  33
ENDBRANCH   1  32
TORSDOF 19
ENDMDL
MODEL 3
REMARK VINA RESULT:     -10.7      4.964     10.295
REMARK SMILES O=C(Nc1ccc2c(c1)[C@@H]1C=CC[C@@H]1[C@H](C(=O)OCCOCCOCCOC(=O)c1ccc(-c3c4nc(c(-c5ccccc5)c5ccc([nH]5)c(-c5ccccc5)c5nc(c(-c6ccccc6)c6ccc3[nH]6)C=C5)C=C4)cc1)N2)c1ccccc1
REMARK SMILES IDX 22 1 21 2 20 3 19 4 18 5 16 6 17 7 15 8 4 9 5 10 9 11 6 12
REMARK SMILES IDX 8 13 7 14 10 15 78 16 11 17 14 18 12 20 13 21 3 22 1 23 2 24
REMARK SMILES IDX 79 26 80 27 84 28 81 29 83 30 82 31 23 32 24 33 25 34 26 35
REMARK SMILES IDX 27 36 28 37 29 38 30 39 31 40 77 41 32 42 76 43 33 44 34 45
REMARK SMILES IDX 35 46 70 47 36 48 75 49 69 50 71 51 37 52 74 53 68 54 67 55
REMARK SMILES IDX 38 57 60 58 45 59 59 60 46 61 49 62 58 63 72 64 47 65 48 66
REMARK SMILES IDX 57 68 73 69 50 70 39 71 40 72 44 73 41 74 43 75 42 76 61 77
REMARK SMILES IDX 62 78 66 79 63 80 65 81 64 82 51 83 52 84 56 85 53 86 55 87
REMARK SMILES IDX 54 88
REMARK H PARENT 78 19 3 25 71 56 49 67
REMARK Flexibility Score: inf
ROOT
ATOM      1  C   UNL A   1      40.277  22.076  26.601  1.00  0.00     0.188 C 
ENDROOT
BRANCH   1   2
ATOM      2  O   UNL A   1      39.770  23.404  26.514  1.00  0.00    -0.376 OA
BRANCH   2   3
ATOM      3  C   UNL A   1      38.374  23.550  26.258  1.00  0.00     0.202 C 
BRANCH   3   4
ATOM      4  C   UNL A   1      37.655  22.338  25.645  1.00  0.00     0.261 C 
BRANCH   4   5
ATOM      5  O   UNL A   1      36.229  22.324  25.864  1.00  0.00    -0.462 OA
BRANCH   5   6
ATOM      6  C   UNL A   1      35.547  21.411  25.128  1.00  0.00     0.328 C 
ATOM      7  O   UNL A   1      35.880  20.231  25.006  1.00  0.00    -0.250 OA
BRANCH   6   8
ATOM      8  C   UNL A   1      34.236  21.921  24.495  1.00  0.00     0.194 C 
ATOM      9  C   UNL A   1      31.705  26.006  22.683  1.00  0.00     0.041 A 
ATOM     10  C   UNL A   1      33.040  26.151  22.325  1.00  0.00     0.028 A 
ATOM     11  C   UNL A   1      31.286  24.832  23.322  1.00  0.00     0.032 A 
ATOM     12  C   UNL A   1      33.966  25.200  22.737  1.00  0.00     0.028 A 
ATOM     13  C   UNL A   1      32.218  23.873  23.757  1.00  0.00    -0.015 A 
ATOM     14  C   UNL A   1      33.570  24.075  23.469  1.00  0.00     0.039 A 
ATOM     15  C   UNL A   1      31.781  22.639  24.526  1.00  0.00     0.050 C 
ATOM     16  N   UNL A   1      34.541  23.236  23.950  1.00  0.00    -0.372 N 
ATOM     17  C   UNL A   1      30.856  22.949  25.675  1.00  0.00    -0.023 C 
ATOM     18  C   UNL A   1      32.928  21.905  25.281  1.00  0.00     0.038 C 
ATOM     19  H   UNL A   1      35.479  23.534  23.927  1.00  0.00     0.161 HD
ATOM     20  C   UNL A   1      31.482  22.883  26.856  1.00  0.00    -0.030 C 
ATOM     21  C   UNL A   1      32.922  22.506  26.691  1.00  0.00     0.034 C 
BRANCH   9  22
ATOM     22  N   UNL A   1      30.854  27.091  22.420  1.00  0.00    -0.322 N 
ATOM     23  O   UNL A   1      29.478  28.818  22.900  1.00  0.00    -0.269 OA
ATOM     24  C   UNL A   1      30.373  28.061  23.271  1.00  0.00     0.255 C 
ATOM     25  H   UNL A   1      30.557  27.171  21.484  1.00  0.00     0.170 HD
BRANCH  24  26
ATOM     26  C   UNL A   1      30.984  28.275  24.606  1.00  0.00     0.040 A 
ATOM     27  C   UNL A   1      30.879  27.317  25.625  1.00  0.00     0.014 A 
ATOM     28  C   UNL A   1      31.692  29.459  24.833  1.00  0.00     0.014 A 
ATOM     29  C   UNL A   1      31.408  27.583  26.888  1.00  0.00     0.001 A 
ATOM     30  C   UNL A   1      32.230  29.715  26.094  1.00  0.00     0.001 A 
ATOM     31  C   UNL A   1      32.074  28.785  27.123  1.00  0.00     0.000 A 
ENDBRANCH  24  26
ENDBRANCH   9  22
ENDBRANCH   6   8
ENDBRANCH   5   6
ENDBRANCH   4   5
ENDBRANCH   3   4
ENDBRANCH   2   3
ENDBRANCH   1   2
BRANCH   1  32
ATOM     32  C   UNL A   1      41.240  21.782  27.751  1.00  0.00     0.188 C 
BRANCH  32  33
ATOM     33  O   UNL A   1      42.148  20.710  27.538  1.00  0.00    -0.376 OA
BRANCH  33  34
ATOM     34  C   UNL A   1      41.660  19.600  26.778  1.00  0.00     0.202 C 
BRANCH  34  35
ATOM     35  C   UNL A   1      42.699  18.785  25.976  1.00  0.00     0.261 C 
BRANCH  35  36
ATOM     36  O   UNL A   1      43.099  19.350  24.706  1.00  0.00    -0.460 OA
BRANCH  36  37
ATOM     37  C   UNL A   1      44.417  19.566  24.495  1.00  0.00     0.338 C 
ATOM     38  O   UNL A   1      45.191  18.818  23.922  1.00  0.00    -0.246 OA
BRANCH  37  39
ATOM     39  C   UNL A   1      44.727  20.987  24.824  1.00  0.00     0.060 A 
ATOM     40  C   UNL A   1      45.281  21.266  26.084  1.00  0.00     0.016 A 
ATOM     41  C   UNL A   1      44.556  22.025  23.902  1.00  0.00     0.016 A 
ATOM     42  C   UNL A   1      45.611  22.578  26.440  1.00  0.00     0.010 A 
ATOM     43  C   UNL A   1      44.876  23.341  24.264  1.00  0.00     0.010 A 
ATOM     44  C   UNL A   1      45.368  23.631  25.549  1.00  0.00    -0.014 A 
BRANCH  44  45
ATOM     45  C   UNL A   1      45.411  25.036  26.038  1.00  0.00     0.031 A 
ATOM     46  C   UNL A   1      46.734  25.759  26.008  1.00  0.00     0.074 A 
ATOM     47  C   UNL A   1      44.313  25.688  26.463  1.00  0.00     0.049 A 
ATOM     48  N   UNL A   1      47.029  26.975  26.387  1.00  0.00    -0.248 NA
ATOM     49  C   UNL A   1      47.878  25.000  25.475  1.00  0.00     0.031 C 
ATOM     50  C   UNL A   1      42.959  25.143  26.502  1.00  0.00     0.029 A 
ATOM     51  N   UNL A   1      44.174  26.969  26.947  1.00  0.00    -0.354 N 
ATOM     52  C   UNL A   1      48.389  27.125  26.147  1.00  0.00     0.074 A 
ATOM     53  C   UNL A   1      48.868  25.865  25.620  1.00  0.00     0.031 C 
ATOM     54  C   UNL A   1      42.125  26.081  26.988  1.00  0.00     0.029 A 
ATOM     55  C   UNL A   1      42.891  27.282  27.325  1.00  0.00     0.049 A 
ATOM     56  H   UNL A   1      44.925  27.601  27.017  1.00  0.00     0.167 HD
ATOM     57  C   UNL A   1      49.176  28.211  26.337  1.00  0.00     0.031 A 
ATOM     58  C   UNL A   1      42.393  28.401  27.890  1.00  0.00     0.031 A 
ATOM     59  C   UNL A   1      48.719  29.464  26.874  1.00  0.00     0.049 A 
ATOM     60  C   UNL A   1      43.306  29.568  28.178  1.00  0.00     0.074 A 
ATOM     61  C   UNL A   1      49.445  30.623  27.090  1.00  0.00     0.029 A 
ATOM     62  N   UNL A   1      47.423  29.720  27.289  1.00  0.00    -0.354 N 
ATOM     63  N   UNL A   1      44.584  29.705  27.921  1.00  0.00    -0.248 NA
ATOM     64  C   UNL A   1      42.700  30.740  28.830  1.00  0.00     0.031 C 
ATOM     65  C   UNL A   1      48.601  31.560  27.697  1.00  0.00     0.029 A 
ATOM     66  C   UNL A   1      47.335  31.008  27.791  1.00  0.00     0.049 A 
ATOM     67  H   UNL A   1      46.675  29.081  27.236  1.00  0.00     0.167 HD
ATOM     68  C   UNL A   1      44.925  30.986  28.345  1.00  0.00     0.074 A 
ATOM     69  C   UNL A   1      43.716  31.590  28.863  1.00  0.00     0.031 C 
ATOM     70  C   UNL A   1      46.129  31.605  28.305  1.00  0.00     0.031 A 
BRANCH  57  71
ATOM     71  C   UNL A   1      50.633  28.073  25.993  1.00  0.00    -0.014 A 
ATOM     72  C   UNL A   1      51.099  28.271  24.683  1.00  0.00     0.009 A 
ATOM     73  C   UNL A   1      51.557  27.765  27.005  1.00  0.00     0.009 A 
ATOM     74  C   UNL A   1      52.456  28.127  24.388  1.00  0.00     0.001 A 
ATOM     75  C   UNL A   1      52.917  27.653  26.711  1.00  0.00     0.001 A 
ATOM     76  C   UNL A   1      53.363  27.824  25.402  1.00  0.00     0.000 A 
ENDBRANCH  57  71
BRANCH  58  77
ATOM     77  C   UNL A   1      40.952  28.481  28.254  1.00  0.00    -0.014 A 
ATOM     78  C   UNL A   1      40.494  28.000  29.492  1.00  0.00     0.009 A 
ATOM     79  C   UNL A   1      40.016  28.997  27.344  1.00  0.00     0.009 A 
ATOM     80  C   UNL A   1      39.130  28.008  29.796  1.00  0.00     0.001 A 
ATOM     81  C   UNL A   1      38.657  29.034  27.663  1.00  0.00     0.001 A 
ATOM     82  C   UNL A   1      38.214  28.530  28.884  1.00  0.00     0.000 A 
ENDBRANCH  58  77
BRANCH  70  83
ATOM     83  C   UNL A   1      46.199  33.029  28.791  1.00  0.00    -0.014 A 
ATOM     84  C   UNL A   1      46.451  33.336  30.138  1.00  0.00     0.009 A 
ATOM     85  C   UNL A   1      46.054  34.083  27.873  1.00  0.00     0.009 A 
ATOM     86  C   UNL A   1      46.516  34.667  30.560  1.00  0.00     0.001 A 
ATOM     87  C   UNL A   1      46.153  35.411  28.292  1.00  0.00     0.001 A 
ATOM     88  C   UNL A   1      46.373  35.702  29.637  1.00  0.00     0.000 A 
ENDBRANCH  70  83
ENDBRANCH  44  45
ENDBRANCH  37  39
ENDBRANCH  36  37
ENDBRANCH  35  36
ENDBRANCH  34  35
ENDBRANCH  33  34
ENDBRANCH  32  33
ENDBRANCH   1  32
TORSDOF 19
ENDMDL
