MODEL 1
REMARK VINA RESULT:     -11.9      0.000      0.000
REMARK SMILES O=C(OCCOCCOCCOC(=O)c1ccc(-c2c3nc(c(-c4ccccc4)c4ccc([nH]4)c(-c4ccccc4)c4nc(c(-c5ccccc5)c5ccc2[nH]5)C=C4)C=C3)cc1)C1=Cc2cc(Cl)cc(-c3ccc(O)cc3)c2O[C@@H]1C(F)(F)F
REMARK SMILES IDX 7 1 6 2 5 3 4 4 3 5 2 6 1 7 63 8 64 9 80 10 65 11 79 12
REMARK SMILES IDX 66 13 78 14 67 15 70 16 68 17 69 18 81 19 82 20 83 21 84 22
REMARK SMILES IDX 71 23 72 24 77 25 73 26 76 27 74 28 75 29 8 31 9 32 10 33
REMARK SMILES IDX 11 34 12 35 13 36 14 37 15 38 16 39 62 40 17 41 61 42 18 43
REMARK SMILES IDX 19 44 20 45 55 46 21 47 60 48 54 49 56 50 22 51 59 52 53 53
REMARK SMILES IDX 52 54 23 56 45 57 30 58 44 59 31 60 34 61 43 62 57 63 32 64
REMARK SMILES IDX 33 65 42 67 58 68 35 69 24 70 25 71 29 72 26 73 28 74 27 75
REMARK SMILES IDX 46 76 47 77 51 78 48 79 50 80 49 81 36 82 37 83 41 84 38 85
REMARK SMILES IDX 40 86 39 87
REMARK H PARENT 75 30 56 55 34 66
REMARK Flexibility Score: inf
ROOT
ATOM      1  C   UNL A   1      35.925  20.239  24.969  1.00  0.00     0.188 C 
ENDROOT
BRANCH   1   2
ATOM      2  O   UNL A   1      34.617  20.621  25.628  1.00  0.00    -0.376 OA
BRANCH   2   3
ATOM      3  C   UNL A   1      33.000  20.515  24.909  1.00  0.00     0.202 C 
BRANCH   3   4
ATOM      4  C   UNL A   1      31.383  21.859  25.481  1.00  0.00     0.261 C 
BRANCH   4   5
ATOM      5  O   UNL A   1      31.043  23.201  24.789  1.00  0.00    -0.460 OA
BRANCH   5   6
ATOM      6  C   UNL A   1      31.085  24.246  25.630  1.00  0.00     0.338 C 
ATOM      7  O   UNL A   1      30.374  24.500  26.569  1.00  0.00    -0.246 OA
BRANCH   6   8
ATOM      8  C   UNL A   1      31.849  25.099  24.747  1.00  0.00     0.087 C 
ATOM      9  C   UNL A   1      31.068  26.021  23.954  1.00  0.00     0.027 C 
ATOM     10  C   UNL A   1      33.139  25.587  26.081  1.00  0.00     0.316 C 
ATOM     11  C   UNL A   1      30.990  27.773  24.269  1.00  0.00     0.019 A 
ATOM     12  O   UNL A   1      32.944  27.487  26.558  1.00  0.00    -0.475 OA
ATOM     13  C   UNL A   1      30.090  28.486  23.519  1.00  0.00     0.032 A 
ATOM     14  C   UNL A   1      31.834  28.551  25.566  1.00  0.00     0.135 A 
ATOM     15  C   UNL A   1      29.980  29.836  23.842  1.00  0.00     0.042 A 
ATOM     16  C   UNL A   1      31.694  29.915  25.777  1.00  0.00     0.026 A 
ATOM     17  Cl  UNL A   1      28.855  30.786  22.932  1.00  0.00    -0.084 Cl
ATOM     18  C   UNL A   1      30.737  30.496  24.877  1.00  0.00     0.033 A 
BRANCH  10  19
ATOM     19  C   UNL A   1      34.378  24.727  25.285  1.00  0.00     0.430 C 
ATOM     20  F   UNL A   1      34.367  23.380  25.278  1.00  0.00    -0.167 F 
ATOM     21  F   UNL A   1      34.492  25.145  24.001  1.00  0.00    -0.167 F 
ATOM     22  F   UNL A   1      35.593  25.005  25.854  1.00  0.00    -0.167 F 
ENDBRANCH  10  19
BRANCH  16  23
ATOM     23  C   UNL A   1      32.367  30.865  26.655  1.00  0.00    -0.014 A 
ATOM     24  C   UNL A   1      31.853  32.148  26.882  1.00  0.00     0.012 A 
ATOM     25  C   UNL A   1      33.698  30.618  27.057  1.00  0.00     0.012 A 
ATOM     26  C   UNL A   1      32.598  33.104  27.585  1.00  0.00     0.047 A 
ATOM     27  C   UNL A   1      34.432  31.557  27.792  1.00  0.00     0.047 A 
ATOM     28  C   UNL A   1      33.857  32.784  28.078  1.00  0.00     0.115 A 
BRANCH  28  29
ATOM     29  O   UNL A   1      34.503  33.703  28.848  1.00  0.00    -0.508 OA
ATOM     30  H   UNL A   1      34.292  33.783  29.758  1.00  0.00     0.293 HD
ENDBRANCH  28  29
ENDBRANCH  16  23
ENDBRANCH   6   8
ENDBRANCH   5   6
ENDBRANCH   4   5
ENDBRANCH   3   4
ENDBRANCH   2   3
ENDBRANCH   1   2
BRANCH   1  31
ATOM     31  C   UNL A   1      36.968  21.266  24.491  1.00  0.00     0.188 C 
BRANCH  31  32
ATOM     32  O   UNL A   1      37.353  22.297  25.357  1.00  0.00    -0.376 OA
BRANCH  32  33
ATOM     33  C   UNL A   1      38.729  22.305  25.670  1.00  0.00     0.202 C 
BRANCH  33  34
ATOM     34  C   UNL A   1      39.310  21.176  26.529  1.00  0.00     0.261 C 
BRANCH  34  35
ATOM     35  O   UNL A   1      39.805  20.052  25.783  1.00  0.00    -0.460 OA
BRANCH  35  36
ATOM     36  C   UNL A   1      41.087  19.689  26.023  1.00  0.00     0.338 C 
ATOM     37  O   UNL A   1      41.618  18.617  25.792  1.00  0.00    -0.246 OA
BRANCH  36  38
ATOM     38  C   UNL A   1      41.824  20.882  26.473  1.00  0.00     0.060 A 
ATOM     39  C   UNL A   1      41.999  21.128  27.844  1.00  0.00     0.016 A 
ATOM     40  C   UNL A   1      42.309  21.775  25.521  1.00  0.00     0.016 A 
ATOM     41  C   UNL A   1      42.699  22.257  28.267  1.00  0.00     0.010 A 
ATOM     42  C   UNL A   1      42.964  22.928  25.946  1.00  0.00     0.010 A 
ATOM     43  C   UNL A   1      43.154  23.177  27.318  1.00  0.00    -0.014 A 
BRANCH  43  44
ATOM     44  C   UNL A   1      43.660  24.499  27.740  1.00  0.00     0.031 A 
ATOM     45  C   UNL A   1      42.655  25.528  28.168  1.00  0.00     0.074 A 
ATOM     46  C   UNL A   1      44.969  24.794  27.677  1.00  0.00     0.049 A 
ATOM     47  N   UNL A   1      42.831  26.798  28.424  1.00  0.00    -0.248 NA
ATOM     48  C   UNL A   1      41.263  25.068  28.313  1.00  0.00     0.031 C 
ATOM     49  C   UNL A   1      46.030  23.857  27.317  1.00  0.00     0.029 A 
ATOM     50  N   UNL A   1      45.624  25.982  27.889  1.00  0.00    -0.354 N 
ATOM     51  C   UNL A   1      41.571  27.293  28.728  1.00  0.00     0.074 A 
ATOM     52  C   UNL A   1      40.639  26.193  28.632  1.00  0.00     0.031 C 
ATOM     53  C   UNL A   1      47.205  24.512  27.306  1.00  0.00     0.029 A 
ATOM     54  C   UNL A   1      46.968  25.922  27.608  1.00  0.00     0.049 A 
ATOM     55  H   UNL A   1      45.174  26.796  28.211  1.00  0.00     0.167 HD
ATOM     56  C   UNL A   1      41.224  28.562  29.040  1.00  0.00     0.031 A 
ATOM     57  C   UNL A   1      47.886  26.909  27.554  1.00  0.00     0.031 A 
ATOM     58  C   UNL A   1      42.155  29.653  29.108  1.00  0.00     0.049 A 
ATOM     59  C   UNL A   1      47.450  28.328  27.835  1.00  0.00     0.074 A 
ATOM     60  C   UNL A   1      41.908  30.971  29.449  1.00  0.00     0.029 A 
ATOM     61  N   UNL A   1      43.505  29.559  28.810  1.00  0.00    -0.354 N 
ATOM     62  N   UNL A   1      46.268  28.780  28.179  1.00  0.00    -0.248 NA
ATOM     63  C   UNL A   1      48.476  29.376  27.711  1.00  0.00     0.031 C 
ATOM     64  C   UNL A   1      43.092  31.691  29.276  1.00  0.00     0.029 A 
ATOM     65  C   UNL A   1      44.094  30.806  28.907  1.00  0.00     0.049 A 
ATOM     66  H   UNL A   1      43.973  28.728  28.564  1.00  0.00     0.167 HD
ATOM     67  C   UNL A   1      46.414  30.153  28.332  1.00  0.00     0.074 A 
ATOM     68  C   UNL A   1      47.805  30.458  28.074  1.00  0.00     0.031 C 
ATOM     69  C   UNL A   1      45.482  31.085  28.649  1.00  0.00     0.031 A 
BRANCH  56  70
ATOM     70  C   UNL A   1      39.770  28.858  29.268  1.00  0.00    -0.014 A 
ATOM     71  C   UNL A   1      39.243  29.008  30.559  1.00  0.00     0.009 A 
ATOM     72  C   UNL A   1      38.929  29.058  28.161  1.00  0.00     0.009 A 
ATOM     73  C   UNL A   1      37.898  29.342  30.736  1.00  0.00     0.001 A 
ATOM     74  C   UNL A   1      37.595  29.420  28.341  1.00  0.00     0.001 A 
ATOM     75  C   UNL A   1      37.079  29.557  29.628  1.00  0.00     0.000 A 
ENDBRANCH  56  70
BRANCH  57  76
ATOM     76  C   UNL A   1      49.291  26.623  27.147  1.00  0.00    -0.014 A 
ATOM     77  C   UNL A   1      49.696  26.756  25.809  1.00  0.00     0.009 A 
ATOM     78  C   UNL A   1      50.221  26.142  28.084  1.00  0.00     0.009 A 
ATOM     79  C   UNL A   1      50.980  26.370  25.412  1.00  0.00     0.001 A 
ATOM     80  C   UNL A   1      51.515  25.797  27.694  1.00  0.00     0.001 A 
ATOM     81  C   UNL A   1      51.889  25.894  26.356  1.00  0.00     0.000 A 
ENDBRANCH  57  76
BRANCH  69  82
ATOM     82  C   UNL A   1      45.935  32.514  28.763  1.00  0.00    -0.014 A 
ATOM     83  C   UNL A   1      45.910  33.378  27.658  1.00  0.00     0.009 A 
ATOM     84  C   UNL A   1      46.324  33.020  30.014  1.00  0.00     0.009 A 
ATOM     85  C   UNL A   1      46.293  34.714  27.798  1.00  0.00     0.001 A 
ATOM     86  C   UNL A   1      46.671  34.364  30.159  1.00  0.00     0.001 A 
ATOM     87  C   UNL A   1      46.663  35.207  29.049  1.00  0.00     0.000 A 
ENDBRANCH  69  82
ENDBRANCH  43  44
ENDBRANCH  36  38
ENDBRANCH  35  36
ENDBRANCH  34  35
ENDBRANCH  33  34
ENDBRANCH  32  33
ENDBRANCH  31  32
ENDBRANCH   1  31
TORSDOF 20
ENDMDL
MODEL 2
REMARK VINA RESULT:     -11.9      0.965      5.709
REMARK SMILES O=C(OCCOCCOCCOC(=O)c1ccc(-c2c3nc(c(-c4ccccc4)c4ccc([nH]4)c(-c4ccccc4)c4nc(c(-c5ccccc5)c5ccc2[nH]5)C=C4)C=C3)cc1)C1=Cc2cc(Cl)cc(-c3ccc(O)cc3)c2O[C@@H]1C(F)(F)F
REMARK SMILES IDX 7 1 6 2 5 3 4 4 3 5 2 6 1 7 63 8 64 9 80 10 65 11 79 12
REMARK SMILES IDX 66 13 78 14 67 15 70 16 68 17 69 18 81 19 82 20 83 21 84 22
REMARK SMILES IDX 71 23 72 24 77 25 73 26 76 27 74 28 75 29 8 31 9 32 10 33
REMARK SMILES IDX 11 34 12 35 13 36 14 37 15 38 16 39 62 40 17 41 61 42 18 43
REMARK SMILES IDX 19 44 20 45 55 46 21 47 60 48 54 49 56 50 22 51 59 52 53 53
REMARK SMILES IDX 52 54 23 56 45 57 30 58 44 59 31 60 34 61 43 62 57 63 32 64
REMARK SMILES IDX 33 65 42 67 58 68 35 69 24 70 25 71 29 72 26 73 28 74 27 75
REMARK SMILES IDX 46 76 47 77 51 78 48 79 50 80 49 81 36 82 37 83 41 84 38 85
REMARK SMILES IDX 40 86 39 87
REMARK H PARENT 75 30 56 55 34 66
REMARK Flexibility Score: inf
ROOT
ATOM      1  C   UNL A   1      36.328  19.837  24.784  1.00  0.00     0.188 C 
ENDROOT
BRANCH   1   2
ATOM      2  O   UNL A   1      35.079  20.463  25.365  1.00  0.00    -0.376 OA
BRANCH   2   3
ATOM      3  C   UNL A   1      33.427  20.302  24.742  1.00  0.00     0.202 C 
BRANCH   3   4
ATOM      4  C   UNL A   1      31.769  21.481  25.525  1.00  0.00     0.261 C 
BRANCH   4   5
ATOM      5  O   UNL A   1      31.131  22.707  24.829  1.00  0.00    -0.460 OA
BRANCH   5   6
ATOM      6  C   UNL A   1      31.077  23.787  25.623  1.00  0.00     0.338 C 
ATOM      7  O   UNL A   1      30.270  24.074  26.470  1.00  0.00    -0.246 OA
BRANCH   6   8
ATOM      8  C   UNL A   1      31.925  24.610  24.789  1.00  0.00     0.087 C 
ATOM      9  C   UNL A   1      31.226  25.457  23.847  1.00  0.00     0.027 C 
ATOM     10  C   UNL A   1      33.025  25.218  26.238  1.00  0.00     0.316 C 
ATOM     11  C   UNL A   1      31.067  27.222  24.039  1.00  0.00     0.019 A 
ATOM     12  O   UNL A   1      32.726  27.136  26.565  1.00  0.00    -0.475 OA
ATOM     13  C   UNL A   1      30.251  27.858  23.140  1.00  0.00     0.032 A 
ATOM     14  C   UNL A   1      31.723  28.103  25.378  1.00  0.00     0.135 A 
ATOM     15  C   UNL A   1      30.068  29.222  23.361  1.00  0.00     0.042 A 
ATOM     16  C   UNL A   1      31.525  29.471  25.484  1.00  0.00     0.026 A 
ATOM     17  Cl  UNL A   1      29.042  30.079  22.261  1.00  0.00    -0.084 Cl
ATOM     18  C   UNL A   1      30.673  29.967  24.437  1.00  0.00     0.033 A 
BRANCH  10  19
ATOM     19  C   UNL A   1      34.374  24.352  25.656  1.00  0.00     0.430 C 
ATOM     20  F   UNL A   1      35.561  24.973  25.508  1.00  0.00    -0.167 F 
ATOM     21  F   UNL A   1      34.580  23.241  26.402  1.00  0.00    -0.167 F 
ATOM     22  F   UNL A   1      34.132  23.884  24.391  1.00  0.00    -0.167 F 
ENDBRANCH  10  19
BRANCH  16  23
ATOM     23  C   UNL A   1      32.059  30.494  26.376  1.00  0.00    -0.014 A 
ATOM     24  C   UNL A   1      31.458  31.753  26.496  1.00  0.00     0.012 A 
ATOM     25  C   UNL A   1      33.357  30.340  26.909  1.00  0.00     0.012 A 
ATOM     26  C   UNL A   1      32.079  32.778  27.220  1.00  0.00     0.047 A 
ATOM     27  C   UNL A   1      33.967  31.350  27.665  1.00  0.00     0.047 A 
ATOM     28  C   UNL A   1      33.301  32.552  27.841  1.00  0.00     0.115 A 
BRANCH  28  29
ATOM     29  O   UNL A   1      33.821  33.537  28.625  1.00  0.00    -0.508 OA
ATOM     30  H   UNL A   1      34.749  33.651  28.680  1.00  0.00     0.293 HD
ENDBRANCH  28  29
ENDBRANCH  16  23
ENDBRANCH   6   8
ENDBRANCH   5   6
ENDBRANCH   4   5
ENDBRANCH   3   4
ENDBRANCH   2   3
ENDBRANCH   1   2
BRANCH   1  31
ATOM     31  C   UNL A   1      37.650  20.601  24.587  1.00  0.00     0.188 C 
BRANCH  31  32
ATOM     32  O   UNL A   1      38.022  21.570  25.528  1.00  0.00    -0.376 OA
BRANCH  32  33
ATOM     33  C   UNL A   1      39.324  21.404  26.043  1.00  0.00     0.202 C 
BRANCH  33  34
ATOM     34  C   UNL A   1      39.857  19.990  26.299  1.00  0.00     0.261 C 
BRANCH  34  35
ATOM     35  O   UNL A   1      41.012  19.636  25.521  1.00  0.00    -0.460 OA
BRANCH  35  36
ATOM     36  C   UNL A   1      42.178  19.510  26.199  1.00  0.00     0.338 C 
ATOM     37  O   UNL A   1      42.836  18.500  26.375  1.00  0.00    -0.246 OA
BRANCH  36  38
ATOM     38  C   UNL A   1      42.641  20.858  26.567  1.00  0.00     0.060 A 
ATOM     39  C   UNL A   1      42.525  21.307  27.891  1.00  0.00     0.016 A 
ATOM     40  C   UNL A   1      43.159  21.688  25.575  1.00  0.00     0.016 A 
ATOM     41  C   UNL A   1      42.967  22.584  28.237  1.00  0.00     0.010 A 
ATOM     42  C   UNL A   1      43.554  22.981  25.912  1.00  0.00     0.010 A 
ATOM     43  C   UNL A   1      43.452  23.435  27.239  1.00  0.00    -0.014 A 
BRANCH  43  44
ATOM     44  C   UNL A   1      43.677  24.867  27.523  1.00  0.00     0.031 A 
ATOM     45  C   UNL A   1      45.091  25.327  27.723  1.00  0.00     0.074 A 
ATOM     46  C   UNL A   1      42.645  25.716  27.666  1.00  0.00     0.049 A 
ATOM     47  N   UNL A   1      45.532  26.485  28.139  1.00  0.00    -0.248 NA
ATOM     48  C   UNL A   1      46.150  24.346  27.430  1.00  0.00     0.031 C 
ATOM     49  C   UNL A   1      41.240  25.383  27.452  1.00  0.00     0.029 A 
ATOM     50  N   UNL A   1      42.626  27.033  28.056  1.00  0.00    -0.354 N 
ATOM     51  C   UNL A   1      46.914  26.361  28.187  1.00  0.00     0.074 A 
ATOM     52  C   UNL A   1      47.242  25.022  27.755  1.00  0.00     0.031 C 
ATOM     53  C   UNL A   1      40.488  26.461  27.739  1.00  0.00     0.029 A 
ATOM     54  C   UNL A   1      41.357  27.539  28.206  1.00  0.00     0.049 A 
ATOM     55  H   UNL A   1      43.441  27.561  28.213  1.00  0.00     0.167 HD
ATOM     56  C   UNL A   1      47.823  27.281  28.578  1.00  0.00     0.031 A 
ATOM     57  C   UNL A   1      40.951  28.722  28.710  1.00  0.00     0.031 A 
ATOM     58  C   UNL A   1      47.483  28.601  29.030  1.00  0.00     0.049 A 
ATOM     59  C   UNL A   1      41.989  29.699  29.208  1.00  0.00     0.074 A 
ATOM     60  C   UNL A   1      48.334  29.621  29.416  1.00  0.00     0.029 A 
ATOM     61  N   UNL A   1      46.190  29.077  29.176  1.00  0.00    -0.354 N 
ATOM     62  N   UNL A   1      43.297  29.598  29.196  1.00  0.00    -0.248 NA
ATOM     63  C   UNL A   1      41.494  30.953  29.800  1.00  0.00     0.031 C 
ATOM     64  C   UNL A   1      47.554  30.684  29.876  1.00  0.00     0.029 A 
ATOM     65  C   UNL A   1      46.218  30.357  29.698  1.00  0.00     0.049 A 
ATOM     66  H   UNL A   1      45.373  28.577  28.944  1.00  0.00     0.167 HD
ATOM     67  C   UNL A   1      43.776  30.776  29.754  1.00  0.00     0.074 A 
ATOM     68  C   UNL A   1      42.623  31.592  30.067  1.00  0.00     0.031 C 
ATOM     69  C   UNL A   1      45.057  31.151  29.997  1.00  0.00     0.031 A 
BRANCH  56  70
ATOM     70  C   UNL A   1      49.268  26.877  28.599  1.00  0.00    -0.014 A 
ATOM     71  C   UNL A   1      50.101  27.060  27.485  1.00  0.00     0.009 A 
ATOM     72  C   UNL A   1      49.821  26.367  29.785  1.00  0.00     0.009 A 
ATOM     73  C   UNL A   1      51.455  26.729  27.555  1.00  0.00     0.001 A 
ATOM     74  C   UNL A   1      51.180  26.065  29.862  1.00  0.00     0.001 A 
ATOM     75  C   UNL A   1      51.995  26.242  28.746  1.00  0.00     0.000 A 
ENDBRANCH  56  70
BRANCH  57  76
ATOM     76  C   UNL A   1      39.500  29.034  28.851  1.00  0.00    -0.014 A 
ATOM     77  C   UNL A   1      38.812  28.746  30.040  1.00  0.00     0.009 A 
ATOM     78  C   UNL A   1      38.775  29.555  27.766  1.00  0.00     0.009 A 
ATOM     79  C   UNL A   1      37.427  28.928  30.124  1.00  0.00     0.001 A 
ATOM     80  C   UNL A   1      37.400  29.775  27.865  1.00  0.00     0.001 A 
ATOM     81  C   UNL A   1      36.724  29.445  29.037  1.00  0.00     0.000 A 
ENDBRANCH  57  76
BRANCH  69  82
ATOM     82  C   UNL A   1      45.282  32.509  30.603  1.00  0.00    -0.014 A 
ATOM     83  C   UNL A   1      45.318  32.691  31.994  1.00  0.00     0.009 A 
ATOM     84  C   UNL A   1      45.534  33.609  29.766  1.00  0.00     0.009 A 
ATOM     85  C   UNL A   1      45.574  33.953  32.534  1.00  0.00     0.001 A 
ATOM     86  C   UNL A   1      45.825  34.861  30.308  1.00  0.00     0.001 A 
ATOM     87  C   UNL A   1      45.837  35.033  31.691  1.00  0.00     0.000 A 
ENDBRANCH  69  82
ENDBRANCH  43  44
ENDBRANCH  36  38
ENDBRANCH  35  36
ENDBRANCH  34  35
ENDBRANCH  33  34
ENDBRANCH  32  33
ENDBRANCH  31  32
ENDBRANCH   1  31
TORSDOF 20
ENDMDL
MODEL 3
REMARK VINA RESULT:     -11.3      6.278     13.924
REMARK SMILES O=C(OCCOCCOCCOC(=O)c1ccc(-c2c3nc(c(-c4ccccc4)c4ccc([nH]4)c(-c4ccccc4)c4nc(c(-c5ccccc5)c5ccc2[nH]5)C=C4)C=C3)cc1)C1=Cc2cc(Cl)cc(-c3ccc(O)cc3)c2O[C@@H]1C(F)(F)F
REMARK SMILES IDX 7 1 6 2 5 3 4 4 3 5 2 6 1 7 63 8 64 9 80 10 65 11 79 12
REMARK SMILES IDX 66 13 78 14 67 15 70 16 68 17 69 18 81 19 82 20 83 21 84 22
REMARK SMILES IDX 71 23 72 24 77 25 73 26 76 27 74 28 75 29 8 31 9 32 10 33
REMARK SMILES IDX 11 34 12 35 13 36 14 37 15 38 16 39 62 40 17 41 61 42 18 43
REMARK SMILES IDX 19 44 20 45 55 46 21 47 60 48 54 49 56 50 22 51 59 52 53 53
REMARK SMILES IDX 52 54 23 56 45 57 30 58 44 59 31 60 34 61 43 62 57 63 32 64
REMARK SMILES IDX 33 65 42 67 58 68 35 69 24 70 25 71 29 72 26 73 28 74 27 75
REMARK SMILES IDX 46 76 47 77 51 78 48 79 50 80 49 81 36 82 37 83 41 84 38 85
REMARK SMILES IDX 40 86 39 87
REMARK H PARENT 75 30 56 55 34 66
REMARK Flexibility Score: inf
ROOT
ATOM      1  C   UNL A   1      45.093  33.827  36.214  1.00  0.00     0.188 C 
ENDROOT
BRANCH   1   2
ATOM      2  O   UNL A   1      44.731  33.192  34.890  1.00  0.00    -0.376 OA
BRANCH   2   3
ATOM      3  C   UNL A   1      44.160  34.029  33.435  1.00  0.00     0.202 C 
BRANCH   3   4
ATOM      4  C   UNL A   1      43.163  32.980  31.806  1.00  0.00     0.261 C 
BRANCH   4   5
ATOM      5  O   UNL A   1      43.690  31.707  31.101  1.00  0.00    -0.460 OA
BRANCH   5   6
ATOM      6  C   UNL A   1      43.250  31.590  29.839  1.00  0.00     0.338 C 
ATOM      7  O   UNL A   1      42.127  31.426  29.433  1.00  0.00    -0.246 OA
BRANCH   6   8
ATOM      8  C   UNL A   1      44.534  31.227  29.281  1.00  0.00     0.087 C 
ATOM      9  C   UNL A   1      45.366  30.408  30.134  1.00  0.00     0.027 C 
ATOM     10  C   UNL A   1      43.820  30.704  27.579  1.00  0.00     0.316 C 
ATOM     11  C   UNL A   1      45.657  28.672  29.856  1.00  0.00     0.019 A 
ATOM     12  O   UNL A   1      43.985  28.757  27.338  1.00  0.00    -0.475 OA
ATOM     13  C   UNL A   1      46.348  28.008  30.836  1.00  0.00     0.032 A 
ATOM     14  C   UNL A   1      44.962  27.784  28.542  1.00  0.00     0.135 A 
ATOM     15  C   UNL A   1      46.486  26.635  30.643  1.00  0.00     0.042 A 
ATOM     16  C   UNL A   1      45.198  26.424  28.410  1.00  0.00     0.026 A 
ATOM     17  Cl  UNL A   1      47.346  25.742  31.851  1.00  0.00    -0.084 Cl
ATOM     18  C   UNL A   1      45.967  25.910  29.511  1.00  0.00     0.033 A 
BRANCH  10  19
ATOM     19  C   UNL A   1      44.565  32.022  26.794  1.00  0.00     0.430 C 
ATOM     20  F   UNL A   1      44.901  33.123  27.495  1.00  0.00    -0.167 F 
ATOM     21  F   UNL A   1      45.666  31.610  26.121  1.00  0.00    -0.167 F 
ATOM     22  F   UNL A   1      43.737  32.533  25.830  1.00  0.00    -0.167 F 
ENDBRANCH  10  19
BRANCH  16  23
ATOM     23  C   UNL A   1      44.898  25.452  27.365  1.00  0.00    -0.014 A 
ATOM     24  C   UNL A   1      45.426  25.574  26.074  1.00  0.00     0.012 A 
ATOM     25  C   UNL A   1      43.838  24.538  27.550  1.00  0.00     0.012 A 
ATOM     26  C   UNL A   1      44.991  24.735  25.039  1.00  0.00     0.047 A 
ATOM     27  C   UNL A   1      43.425  23.673  26.529  1.00  0.00     0.047 A 
ATOM     28  C   UNL A   1      44.034  23.759  25.288  1.00  0.00     0.115 A 
BRANCH  28  29
ATOM     29  O   UNL A   1      43.718  22.894  24.285  1.00  0.00    -0.508 OA
ATOM     30  H   UNL A   1      44.388  22.375  23.885  1.00  0.00     0.293 HD
ENDBRANCH  28  29
ENDBRANCH  16  23
ENDBRANCH   6   8
ENDBRANCH   5   6
ENDBRANCH   4   5
ENDBRANCH   3   4
ENDBRANCH   2   3
ENDBRANCH   1   2
BRANCH   1  31
ATOM     31  C   UNL A   1      44.239  34.909  36.900  1.00  0.00     0.188 C 
BRANCH  31  32
ATOM     32  O   UNL A   1      43.275  34.521  37.839  1.00  0.00    -0.376 OA
BRANCH  32  33
ATOM     33  C   UNL A   1      43.237  35.327  38.995  1.00  0.00     0.202 C 
BRANCH  33  34
ATOM     34  C   UNL A   1      41.895  35.891  39.474  1.00  0.00     0.261 C 
BRANCH  34  35
ATOM     35  O   UNL A   1      41.336  36.906  38.624  1.00  0.00    -0.460 OA
BRANCH  35  36
ATOM     36  C   UNL A   1      39.999  36.850  38.419  1.00  0.00     0.338 C 
ATOM     37  O   UNL A   1      39.134  37.549  38.916  1.00  0.00    -0.246 OA
BRANCH  36  38
ATOM     38  C   UNL A   1      39.744  35.887  37.333  1.00  0.00     0.060 A 
ATOM     39  C   UNL A   1      38.927  34.770  37.559  1.00  0.00     0.016 A 
ATOM     40  C   UNL A   1      40.354  36.086  36.098  1.00  0.00     0.016 A 
ATOM     41  C   UNL A   1      38.685  33.861  36.529  1.00  0.00     0.010 A 
ATOM     42  C   UNL A   1      40.153  35.152  35.085  1.00  0.00     0.010 A 
ATOM     43  C   UNL A   1      39.325  34.035  35.298  1.00  0.00    -0.014 A 
BRANCH  43  44
ATOM     44  C   UNL A   1      39.301  32.960  34.285  1.00  0.00     0.031 A 
ATOM     45  C   UNL A   1      40.380  31.919  34.342  1.00  0.00     0.074 A 
ATOM     46  C   UNL A   1      38.384  32.954  33.303  1.00  0.00     0.049 A 
ATOM     47  N   UNL A   1      40.669  30.980  33.479  1.00  0.00    -0.248 NA
ATOM     48  C   UNL A   1      41.262  31.950  35.522  1.00  0.00     0.031 C 
ATOM     49  C   UNL A   1      37.270  33.891  33.179  1.00  0.00     0.029 A 
ATOM     50  N   UNL A   1      38.265  32.140  32.203  1.00  0.00    -0.354 N 
ATOM     51  C   UNL A   1      41.782  30.332  33.996  1.00  0.00     0.074 A 
ATOM     52  C   UNL A   1      42.116  30.975  35.246  1.00  0.00     0.031 C 
ATOM     53  C   UNL A   1      36.593  33.617  32.050  1.00  0.00     0.029 A 
ATOM     54  C   UNL A   1      37.259  32.521  31.348  1.00  0.00     0.049 A 
ATOM     55  H   UNL A   1      38.846  31.362  32.042  1.00  0.00     0.167 HD
ATOM     56  C   UNL A   1      42.472  29.301  33.460  1.00  0.00     0.031 A 
ATOM     57  C   UNL A   1      36.948  32.064  30.118  1.00  0.00     0.031 A 
ATOM     58  C   UNL A   1      42.147  28.685  32.204  1.00  0.00     0.049 A 
ATOM     59  C   UNL A   1      37.787  30.962  29.515  1.00  0.00     0.074 A 
ATOM     60  C   UNL A   1      42.765  27.611  31.589  1.00  0.00     0.029 A 
ATOM     61  N   UNL A   1      41.127  29.101  31.363  1.00  0.00    -0.354 N 
ATOM     62  N   UNL A   1      38.802  30.313  30.034  1.00  0.00    -0.248 NA
ATOM     63  C   UNL A   1      37.442  30.534  28.149  1.00  0.00     0.031 C 
ATOM     64  C   UNL A   1      42.173  27.431  30.337  1.00  0.00     0.029 A 
ATOM     65  C   UNL A   1      41.133  28.339  30.209  1.00  0.00     0.049 A 
ATOM     66  H   UNL A   1      40.494  29.830  31.557  1.00  0.00     0.167 HD
ATOM     67  C   UNL A   1      39.199  29.393  29.072  1.00  0.00     0.074 A 
ATOM     68  C   UNL A   1      38.299  29.544  27.950  1.00  0.00     0.031 C 
ATOM     69  C   UNL A   1      40.224  28.505  29.106  1.00  0.00     0.031 A 
BRANCH  56  70
ATOM     70  C   UNL A   1      43.689  28.814  34.191  1.00  0.00    -0.014 A 
ATOM     71  C   UNL A   1      43.632  27.724  35.072  1.00  0.00     0.009 A 
ATOM     72  C   UNL A   1      44.931  29.418  33.935  1.00  0.00     0.009 A 
ATOM     73  C   UNL A   1      44.793  27.257  35.692  1.00  0.00     0.001 A 
ATOM     74  C   UNL A   1      46.093  28.931  34.533  1.00  0.00     0.001 A 
ATOM     75  C   UNL A   1      46.023  27.854  35.414  1.00  0.00     0.000 A 
ENDBRANCH  56  70
BRANCH  57  76
ATOM     76  C   UNL A   1      35.847  32.685  29.328  1.00  0.00    -0.014 A 
ATOM     77  C   UNL A   1      35.999  33.957  28.754  1.00  0.00     0.009 A 
ATOM     78  C   UNL A   1      34.605  32.038  29.206  1.00  0.00     0.009 A 
ATOM     79  C   UNL A   1      34.923  34.585  28.119  1.00  0.00     0.001 A 
ATOM     80  C   UNL A   1      33.544  32.649  28.536  1.00  0.00     0.001 A 
ATOM     81  C   UNL A   1      33.698  33.929  28.008  1.00  0.00     0.000 A 
ENDBRANCH  57  76
BRANCH  69  82
ATOM     82  C   UNL A   1      40.410  27.610  27.913  1.00  0.00    -0.014 A 
ATOM     83  C   UNL A   1      41.225  27.990  26.835  1.00  0.00     0.009 A 
ATOM     84  C   UNL A   1      39.817  26.337  27.901  1.00  0.00     0.009 A 
ATOM     85  C   UNL A   1      41.420  27.124  25.758  1.00  0.00     0.001 A 
ATOM     86  C   UNL A   1      40.043  25.459  26.840  1.00  0.00     0.001 A 
ATOM     87  C   UNL A   1      40.837  25.857  25.766  1.00  0.00     0.000 A 
ENDBRANCH  69  82
ENDBRANCH  43  44
ENDBRANCH  36  38
ENDBRANCH  35  36
ENDBRANCH  34  35
ENDBRANCH  33  34
ENDBRANCH  32  33
ENDBRANCH  31  32
ENDBRANCH   1  31
TORSDOF 20
ENDMDL
