MODEL 1
REMARK VINA RESULT:      -8.2      0.000      0.000
REMARK SMILES CC1(C)Cc2c(-c3ccccc3)c(-c3ccc(Cl)cc3)c(CC(=O)OCCOCCOCCOC(=O)c3ccc(-c4c5nc(c(-c6ccccc6)c6ccc([nH]6)c(-c6ccccc6)c6nc(c(-c7ccccc7)c7ccc4[nH]7)C=C6)C=C5)cc3)n2C1
REMARK SMILES IDX 29 1 28 2 27 3 26 4 25 5 23 6 24 7 22 8 21 9 1 10 2 11 3 12
REMARK SMILES IDX 4 13 86 14 5 15 85 16 6 17 13 18 7 19 8 20 12 21 9 22 11 23
REMARK SMILES IDX 10 24 14 25 15 26 20 27 16 28 19 29 17 30 18 31 30 32 31 33
REMARK SMILES IDX 32 34 33 35 34 36 35 37 36 38 37 39 38 40 84 41 39 42 83 43
REMARK SMILES IDX 40 44 41 45 42 46 77 47 43 48 82 49 76 50 78 51 44 52 81 53
REMARK SMILES IDX 75 54 74 55 45 57 67 58 52 59 66 60 53 61 56 62 65 63 79 64
REMARK SMILES IDX 54 65 55 66 64 68 80 69 57 70 46 71 47 72 51 73 48 74 50 75
REMARK SMILES IDX 49 76 68 77 69 78 73 79 70 80 72 81 71 82 58 83 59 84 63 85
REMARK SMILES IDX 60 86 62 87 61 88
REMARK H PARENT 78 56 56 67
REMARK Flexibility Score: inf
ROOT
ATOM      1  C   UNL A   1      47.297  27.485  29.784  1.00  0.00     0.188 C 
ENDROOT
BRANCH   1   2
ATOM      2  O   UNL A   1      46.757  26.909  28.620  1.00  0.00    -0.376 OA
BRANCH   2   3
ATOM      3  C   UNL A   1      47.461  25.753  28.214  1.00  0.00     0.202 C 
BRANCH   3   4
ATOM      4  C   UNL A   1      46.632  24.423  28.027  1.00  0.00     0.261 C 
BRANCH   4   5
ATOM      5  O   UNL A   1      45.217  24.506  27.549  1.00  0.00    -0.463 OA
BRANCH   5   6
ATOM      6  C   UNL A   1      44.879  24.603  26.226  1.00  0.00     0.311 C 
ATOM      7  O   UNL A   1      45.692  24.257  25.365  1.00  0.00    -0.252 OA
BRANCH   6   8
ATOM      8  C   UNL A   1      43.363  24.937  25.772  1.00  0.00     0.177 C 
BRANCH   8   9
ATOM      9  C   UNL A   1      42.265  25.808  26.503  1.00  0.00     0.037 A 
ATOM     10  C   UNL A   1      43.709  30.608  26.345  1.00  0.00     0.013 C 
ATOM     11  C   UNL A   1      43.438  29.325  27.141  1.00  0.00    -0.012 C 
ATOM     12  C   UNL A   1      44.304  29.339  28.412  1.00  0.00     0.013 C 
ATOM     13  C   UNL A   1      41.935  29.263  27.525  1.00  0.00     0.063 C 
ATOM     14  C   UNL A   1      43.694  28.021  26.309  1.00  0.00     0.129 C 
ATOM     15  C   UNL A   1      41.586  27.850  27.273  1.00  0.00     0.027 A 
ATOM     16  N   UNL A   1      42.555  27.157  26.634  1.00  0.00    -0.346 N 
ATOM     17  C   UNL A   1      40.556  27.018  27.574  1.00  0.00     0.011 A 
ATOM     18  C   UNL A   1      40.873  25.676  27.003  1.00  0.00     0.011 A 
BRANCH  17  19
ATOM     19  C   UNL A   1      39.524  27.514  28.480  1.00  0.00    -0.016 A 
ATOM     20  C   UNL A   1      39.325  26.953  29.744  1.00  0.00     0.009 A 
ATOM     21  C   UNL A   1      38.781  28.649  28.113  1.00  0.00     0.009 A 
ATOM     22  C   UNL A   1      38.531  27.628  30.680  1.00  0.00     0.001 A 
ATOM     23  C   UNL A   1      38.051  29.358  29.066  1.00  0.00     0.001 A 
ATOM     24  C   UNL A   1      37.944  28.856  30.359  1.00  0.00     0.000 A 
ENDBRANCH  17  19
BRANCH  18  25
ATOM     25  C   UNL A   1      39.900  24.409  27.288  1.00  0.00    -0.016 A 
ATOM     26  C   UNL A   1      40.748  22.780  27.347  1.00  0.00     0.010 A 
ATOM     27  C   UNL A   1      38.254  24.455  26.571  1.00  0.00     0.010 A 
ATOM     28  C   UNL A   1      40.050  21.299  26.511  1.00  0.00     0.021 A 
ATOM     29  C   UNL A   1      37.505  23.010  25.722  1.00  0.00     0.021 A 
ATOM     30  C   UNL A   1      38.436  21.404  25.677  1.00  0.00     0.041 A 
ATOM     31  Cl  UNL A   1      37.862  20.089  24.721  1.00  0.00    -0.084 Cl
ENDBRANCH  18  25
ENDBRANCH   8   9
ENDBRANCH   6   8
ENDBRANCH   5   6
ENDBRANCH   4   5
ENDBRANCH   3   4
ENDBRANCH   2   3
ENDBRANCH   1   2
BRANCH   1  32
ATOM     32  C   UNL A   1      46.666  27.071  31.146  1.00  0.00     0.188 C 
BRANCH  32  33
ATOM     33  O   UNL A   1      45.296  26.796  31.130  1.00  0.00    -0.376 OA
BRANCH  33  34
ATOM     34  C   UNL A   1      44.725  26.096  32.204  1.00  0.00     0.202 C 
BRANCH  34  35
ATOM     35  C   UNL A   1      45.579  25.427  33.274  1.00  0.00     0.261 C 
BRANCH  35  36
ATOM     36  O   UNL A   1      45.819  26.186  34.471  1.00  0.00    -0.460 OA
BRANCH  36  37
ATOM     37  C   UNL A   1      44.854  26.046  35.655  1.00  0.00     0.338 C 
ATOM     38  O   UNL A   1      45.620  25.472  36.446  1.00  0.00    -0.246 OA
BRANCH  37  39
ATOM     39  C   UNL A   1      42.737  26.510  35.631  1.00  0.00     0.060 A 
ATOM     40  C   UNL A   1      41.688  26.266  34.652  1.00  0.00     0.016 A 
ATOM     41  C   UNL A   1      41.990  27.514  36.353  1.00  0.00     0.016 A 
ATOM     42  C   UNL A   1      41.148  27.342  33.899  1.00  0.00     0.010 A 
ATOM     43  C   UNL A   1      41.748  28.686  35.659  1.00  0.00     0.010 A 
ATOM     44  C   UNL A   1      41.501  28.613  34.306  1.00  0.00    -0.014 A 
BRANCH  44  45
ATOM     45  C   UNL A   1      41.177  29.885  33.663  1.00  0.00     0.031 A 
ATOM     46  C   UNL A   1      42.456  30.362  33.059  1.00  0.00     0.074 A 
ATOM     47  C   UNL A   1      39.956  30.435  33.429  1.00  0.00     0.049 A 
ATOM     48  N   UNL A   1      43.384  30.961  33.739  1.00  0.00    -0.248 NA
ATOM     49  C   UNL A   1      42.969  29.722  31.816  1.00  0.00     0.031 C 
ATOM     50  C   UNL A   1      38.598  29.968  33.729  1.00  0.00     0.029 A 
ATOM     51  N   UNL A   1      39.686  31.617  32.792  1.00  0.00    -0.354 N 
ATOM     52  C   UNL A   1      44.449  31.028  32.858  1.00  0.00     0.074 A 
ATOM     53  C   UNL A   1      44.281  29.911  31.980  1.00  0.00     0.031 C 
ATOM     54  C   UNL A   1      37.674  30.734  33.087  1.00  0.00     0.029 A 
ATOM     55  C   UNL A   1      38.347  31.845  32.443  1.00  0.00     0.049 A 
ATOM     56  H   UNL A   1      40.394  32.271  32.590  1.00  0.00     0.167 HD
ATOM     57  C   UNL A   1      45.004  32.237  32.565  1.00  0.00     0.031 A 
ATOM     58  C   UNL A   1      37.867  32.885  31.693  1.00  0.00     0.031 A 
ATOM     59  C   UNL A   1      44.588  33.222  33.542  1.00  0.00     0.049 A 
ATOM     60  C   UNL A   1      38.906  33.945  31.728  1.00  0.00     0.074 A 
ATOM     61  C   UNL A   1      44.665  33.308  34.919  1.00  0.00     0.029 A 
ATOM     62  N   UNL A   1      43.549  34.039  33.157  1.00  0.00    -0.354 N 
ATOM     63  N   UNL A   1      39.215  34.586  32.819  1.00  0.00    -0.248 NA
ATOM     64  C   UNL A   1      39.947  33.878  30.715  1.00  0.00     0.031 C 
ATOM     65  C   UNL A   1      43.403  33.830  35.329  1.00  0.00     0.029 A 
ATOM     66  C   UNL A   1      42.666  34.177  34.196  1.00  0.00     0.049 A 
ATOM     67  H   UNL A   1      43.454  34.458  32.272  1.00  0.00     0.167 HD
ATOM     68  C   UNL A   1      40.602  34.575  32.841  1.00  0.00     0.074 A 
ATOM     69  C   UNL A   1      40.999  34.172  31.487  1.00  0.00     0.031 C 
ATOM     70  C   UNL A   1      41.277  34.552  34.028  1.00  0.00     0.031 A 
BRANCH  57  71
ATOM     71  C   UNL A   1      45.420  32.627  31.159  1.00  0.00    -0.014 A 
ATOM     72  C   UNL A   1      44.404  32.970  30.256  1.00  0.00     0.009 A 
ATOM     73  C   UNL A   1      46.703  32.426  30.607  1.00  0.00     0.009 A 
ATOM     74  C   UNL A   1      44.642  33.016  28.877  1.00  0.00     0.001 A 
ATOM     75  C   UNL A   1      46.952  32.496  29.236  1.00  0.00     0.001 A 
ATOM     76  C   UNL A   1      45.912  32.765  28.367  1.00  0.00     0.000 A 
ENDBRANCH  57  71
BRANCH  58  77
ATOM     77  C   UNL A   1      36.768  32.961  30.682  1.00  0.00    -0.014 A 
ATOM     78  C   UNL A   1      37.032  32.911  29.295  1.00  0.00     0.009 A 
ATOM     79  C   UNL A   1      35.440  32.737  31.082  1.00  0.00     0.009 A 
ATOM     80  C   UNL A   1      36.020  32.614  28.362  1.00  0.00     0.001 A 
ATOM     81  C   UNL A   1      34.433  32.433  30.152  1.00  0.00     0.001 A 
ATOM     82  C   UNL A   1      34.722  32.357  28.793  1.00  0.00     0.000 A 
ENDBRANCH  58  77
BRANCH  70  83
ATOM     83  C   UNL A   1      40.487  34.780  35.300  1.00  0.00    -0.014 A 
ATOM     84  C   UNL A   1      39.804  33.775  36.013  1.00  0.00     0.009 A 
ATOM     85  C   UNL A   1      40.575  36.054  35.878  1.00  0.00     0.009 A 
ATOM     86  C   UNL A   1      39.212  34.055  37.255  1.00  0.00     0.001 A 
ATOM     87  C   UNL A   1      40.006  36.326  37.121  1.00  0.00     0.001 A 
ATOM     88  C   UNL A   1      39.319  35.330  37.808  1.00  0.00     0.000 A 
ENDBRANCH  70  83
ENDBRANCH  44  45
ENDBRANCH  37  39
ENDBRANCH  36  37
ENDBRANCH  35  36
ENDBRANCH  34  35
ENDBRANCH  33  34
ENDBRANCH  32  33
ENDBRANCH   1  32
TORSDOF 20
ENDMDL
MODEL 2
REMARK VINA RESULT:      -8.0     10.699     15.033
REMARK SMILES CC1(C)Cc2c(-c3ccccc3)c(-c3ccc(Cl)cc3)c(CC(=O)OCCOCCOCCOC(=O)c3ccc(-c4c5nc(c(-c6ccccc6)c6ccc([nH]6)c(-c6ccccc6)c6nc(c(-c7ccccc7)c7ccc4[nH]7)C=C6)C=C5)cc3)n2C1
REMARK SMILES IDX 29 1 28 2 27 3 26 4 25 5 23 6 24 7 22 8 21 9 1 10 2 11 3 12
REMARK SMILES IDX 4 13 86 14 5 15 85 16 6 17 13 18 7 19 8 20 12 21 9 22 11 23
REMARK SMILES IDX 10 24 14 25 15 26 20 27 16 28 19 29 17 30 18 31 30 32 31 33
REMARK SMILES IDX 32 34 33 35 34 36 35 37 36 38 37 39 38 40 84 41 39 42 83 43
REMARK SMILES IDX 40 44 41 45 42 46 77 47 43 48 82 49 76 50 78 51 44 52 81 53
REMARK SMILES IDX 75 54 74 55 45 57 67 58 52 59 66 60 53 61 56 62 65 63 79 64
REMARK SMILES IDX 54 65 55 66 64 68 80 69 57 70 46 71 47 72 51 73 48 74 50 75
REMARK SMILES IDX 49 76 68 77 69 78 73 79 70 80 72 81 71 82 58 83 59 84 63 85
REMARK SMILES IDX 60 86 62 87 61 88
REMARK H PARENT 78 56 56 67
REMARK Flexibility Score: inf
ROOT
ATOM      1  C   UNL A   1      46.917  39.611  25.571  1.00  0.00     0.188 C 
ENDROOT
BRANCH   1   2
ATOM      2  O   UNL A   1      45.738  40.247  25.140  1.00  0.00    -0.376 OA
BRANCH   2   3
ATOM      3  C   UNL A   1      46.000  41.442  24.431  1.00  0.00     0.202 C 
BRANCH   3   4
ATOM      4  C   UNL A   1      47.074  41.384  23.276  1.00  0.00     0.261 C 
BRANCH   4   5
ATOM      5  O   UNL A   1      47.250  42.570  22.382  1.00  0.00    -0.463 OA
BRANCH   5   6
ATOM      6  C   UNL A   1      47.322  42.474  21.018  1.00  0.00     0.311 C 
ATOM      7  O   UNL A   1      48.216  41.796  20.504  1.00  0.00    -0.252 OA
BRANCH   6   8
ATOM      8  C   UNL A   1      46.131  43.031  20.077  1.00  0.00     0.177 C 
BRANCH   8   9
ATOM      9  C   UNL A   1      45.792  44.518  19.662  1.00  0.00     0.037 A 
ATOM     10  C   UNL A   1      40.967  44.707  18.307  1.00  0.00     0.013 C 
ATOM     11  C   UNL A   1      42.456  44.786  17.945  1.00  0.00    -0.012 C 
ATOM     12  C   UNL A   1      42.625  44.406  16.464  1.00  0.00     0.013 C 
ATOM     13  C   UNL A   1      42.969  46.231  18.182  1.00  0.00     0.063 C 
ATOM     14  C   UNL A   1      43.358  43.883  18.856  1.00  0.00     0.129 C 
ATOM     15  C   UNL A   1      44.284  46.015  18.822  1.00  0.00     0.027 A 
ATOM     16  N   UNL A   1      44.515  44.730  19.167  1.00  0.00    -0.346 N 
ATOM     17  C   UNL A   1      45.379  46.766  19.106  1.00  0.00     0.011 A 
ATOM     18  C   UNL A   1      46.380  45.878  19.767  1.00  0.00     0.011 A 
BRANCH  17  19
ATOM     19  C   UNL A   1      45.424  48.128  18.583  1.00  0.00    -0.016 A 
ATOM     20  C   UNL A   1      46.145  48.448  17.431  1.00  0.00     0.009 A 
ATOM     21  C   UNL A   1      44.640  49.121  19.196  1.00  0.00     0.009 A 
ATOM     22  C   UNL A   1      45.937  49.686  16.809  1.00  0.00     0.001 A 
ATOM     23  C   UNL A   1      44.378  50.323  18.539  1.00  0.00     0.001 A 
ATOM     24  C   UNL A   1      45.011  50.596  17.331  1.00  0.00     0.000 A 
ENDBRANCH  17  19
BRANCH  18  25
ATOM     25  C   UNL A   1      47.860  46.433  20.130  1.00  0.00    -0.016 A 
ATOM     26  C   UNL A   1      47.890  47.837  21.316  1.00  0.00     0.010 A 
ATOM     27  C   UNL A   1      49.086  46.438  18.818  1.00  0.00     0.010 A 
ATOM     28  C   UNL A   1      48.971  49.300  21.051  1.00  0.00     0.021 A 
ATOM     29  C   UNL A   1      50.192  47.870  18.503  1.00  0.00     0.021 A 
ATOM     30  C   UNL A   1      50.115  49.339  19.636  1.00  0.00     0.041 A 
ATOM     31  Cl  UNL A   1      50.987  50.778  19.259  1.00  0.00    -0.084 Cl
ENDBRANCH  18  25
ENDBRANCH   8   9
ENDBRANCH   6   8
ENDBRANCH   5   6
ENDBRANCH   4   5
ENDBRANCH   3   4
ENDBRANCH   2   3
ENDBRANCH   1   2
BRANCH   1  32
ATOM     32  C   UNL A   1      46.864  38.068  25.771  1.00  0.00     0.188 C 
BRANCH  32  33
ATOM     33  O   UNL A   1      48.057  37.459  26.169  1.00  0.00    -0.376 OA
BRANCH  33  34
ATOM     34  C   UNL A   1      48.376  36.186  25.672  1.00  0.00     0.202 C 
BRANCH  34  35
ATOM     35  C   UNL A   1      47.569  34.950  26.048  1.00  0.00     0.261 C 
BRANCH  35  36
ATOM     36  O   UNL A   1      46.620  34.482  25.074  1.00  0.00    -0.460 OA
BRANCH  36  37
ATOM     37  C   UNL A   1      45.130  34.450  25.435  1.00  0.00     0.338 C 
ATOM     38  O   UNL A   1      44.694  33.996  24.364  1.00  0.00    -0.246 OA
BRANCH  37  39
ATOM     39  C   UNL A   1      44.237  35.281  27.226  1.00  0.00     0.060 A 
ATOM     40  C   UNL A   1      44.694  35.360  28.606  1.00  0.00     0.016 A 
ATOM     41  C   UNL A   1      42.853  35.547  27.547  1.00  0.00     0.016 A 
ATOM     42  C   UNL A   1      44.091  34.553  29.607  1.00  0.00     0.010 A 
ATOM     43  C   UNL A   1      42.216  34.565  28.283  1.00  0.00     0.010 A 
ATOM     44  C   UNL A   1      42.935  33.890  29.245  1.00  0.00    -0.014 A 
BRANCH  44  45
ATOM     45  C   UNL A   1      42.169  32.926  30.032  1.00  0.00     0.031 A 
ATOM     46  C   UNL A   1      42.880  31.624  29.866  1.00  0.00     0.074 A 
ATOM     47  C   UNL A   1      41.170  33.155  30.925  1.00  0.00     0.049 A 
ATOM     48  N   UNL A   1      42.739  30.862  28.826  1.00  0.00    -0.248 NA
ATOM     49  C   UNL A   1      44.160  31.385  30.590  1.00  0.00     0.031 C 
ATOM     50  C   UNL A   1      40.537  34.395  31.388  1.00  0.00     0.029 A 
ATOM     51  N   UNL A   1      40.494  32.227  31.671  1.00  0.00    -0.354 N 
ATOM     52  C   UNL A   1      43.718  29.898  28.985  1.00  0.00     0.074 A 
ATOM     53  C   UNL A   1      44.749  30.532  29.748  1.00  0.00     0.031 C 
ATOM     54  C   UNL A   1      39.749  34.156  32.472  1.00  0.00     0.029 A 
ATOM     55  C   UNL A   1      39.690  32.726  32.707  1.00  0.00     0.049 A 
ATOM     56  H   UNL A   1      40.569  31.262  31.492  1.00  0.00     0.167 HD
ATOM     57  C   UNL A   1      43.369  28.581  28.996  1.00  0.00     0.031 A 
ATOM     58  C   UNL A   1      39.032  31.989  33.655  1.00  0.00     0.031 A 
ATOM     59  C   UNL A   1      42.032  28.419  28.461  1.00  0.00     0.049 A 
ATOM     60  C   UNL A   1      38.931  30.608  33.119  1.00  0.00     0.074 A 
ATOM     61  C   UNL A   1      41.419  28.767  27.273  1.00  0.00     0.029 A 
ATOM     62  N   UNL A   1      41.029  28.295  29.397  1.00  0.00    -0.354 N 
ATOM     63  N   UNL A   1      38.210  30.314  32.074  1.00  0.00    -0.248 NA
ATOM     64  C   UNL A   1      40.043  29.713  33.394  1.00  0.00     0.031 C 
ATOM     65  C   UNL A   1      40.133  29.255  27.648  1.00  0.00     0.029 A 
ATOM     66  C   UNL A   1      39.953  29.054  29.018  1.00  0.00     0.049 A 
ATOM     67  H   UNL A   1      41.078  27.747  30.213  1.00  0.00     0.167 HD
ATOM     68  C   UNL A   1      39.040  29.518  31.299  1.00  0.00     0.074 A 
ATOM     69  C   UNL A   1      40.140  29.136  32.191  1.00  0.00     0.031 C 
ATOM     70  C   UNL A   1      38.942  29.534  29.936  1.00  0.00     0.031 A 
BRANCH  57  71
ATOM     71  C   UNL A   1      43.971  27.583  29.967  1.00  0.00    -0.014 A 
ATOM     72  C   UNL A   1      44.524  26.412  29.432  1.00  0.00     0.009 A 
ATOM     73  C   UNL A   1      43.794  27.605  31.367  1.00  0.00     0.009 A 
ATOM     74  C   UNL A   1      44.795  25.300  30.239  1.00  0.00     0.001 A 
ATOM     75  C   UNL A   1      44.085  26.510  32.181  1.00  0.00     0.001 A 
ATOM     76  C   UNL A   1      44.561  25.345  31.610  1.00  0.00     0.000 A 
ENDBRANCH  57  71
BRANCH  58  77
ATOM     77  C   UNL A   1      38.764  32.241  35.103  1.00  0.00    -0.014 A 
ATOM     78  C   UNL A   1      39.804  32.251  36.059  1.00  0.00     0.009 A 
ATOM     79  C   UNL A   1      37.540  32.810  35.494  1.00  0.00     0.009 A 
ATOM     80  C   UNL A   1      39.634  32.835  37.329  1.00  0.00     0.001 A 
ATOM     81  C   UNL A   1      37.373  33.400  36.757  1.00  0.00     0.001 A 
ATOM     82  C   UNL A   1      38.421  33.427  37.671  1.00  0.00     0.000 A 
ENDBRANCH  58  77
BRANCH  70  83
ATOM     83  C   UNL A   1      37.759  30.249  29.317  1.00  0.00    -0.014 A 
ATOM     84  C   UNL A   1      37.674  31.642  29.122  1.00  0.00     0.009 A 
ATOM     85  C   UNL A   1      36.752  29.444  28.766  1.00  0.00     0.009 A 
ATOM     86  C   UNL A   1      36.597  32.201  28.417  1.00  0.00     0.001 A 
ATOM     87  C   UNL A   1      35.695  29.999  28.046  1.00  0.00     0.001 A 
ATOM     88  C   UNL A   1      35.612  31.377  27.876  1.00  0.00     0.000 A 
ENDBRANCH  70  83
ENDBRANCH  44  45
ENDBRANCH  37  39
ENDBRANCH  36  37
ENDBRANCH  35  36
ENDBRANCH  34  35
ENDBRANCH  33  34
ENDBRANCH  32  33
ENDBRANCH   1  32
TORSDOF 20
ENDMDL
MODEL 3
REMARK VINA RESULT:      -7.9      2.900      6.279
REMARK SMILES CC1(C)Cc2c(-c3ccccc3)c(-c3ccc(Cl)cc3)c(CC(=O)OCCOCCOCCOC(=O)c3ccc(-c4c5nc(c(-c6ccccc6)c6ccc([nH]6)c(-c6ccccc6)c6nc(c(-c7ccccc7)c7ccc4[nH]7)C=C6)C=C5)cc3)n2C1
REMARK SMILES IDX 29 1 28 2 27 3 26 4 25 5 23 6 24 7 22 8 21 9 1 10 2 11 3 12
REMARK SMILES IDX 4 13 86 14 5 15 85 16 6 17 13 18 7 19 8 20 12 21 9 22 11 23
REMARK SMILES IDX 10 24 14 25 15 26 20 27 16 28 19 29 17 30 18 31 30 32 31 33
REMARK SMILES IDX 32 34 33 35 34 36 35 37 36 38 37 39 38 40 84 41 39 42 83 43
REMARK SMILES IDX 40 44 41 45 42 46 77 47 43 48 82 49 76 50 78 51 44 52 81 53
REMARK SMILES IDX 75 54 74 55 45 57 67 58 52 59 66 60 53 61 56 62 65 63 79 64
REMARK SMILES IDX 54 65 55 66 64 68 80 69 57 70 46 71 47 72 51 73 48 74 50 75
REMARK SMILES IDX 49 76 68 77 69 78 73 79 70 80 72 81 71 82 58 83 59 84 63 85
REMARK SMILES IDX 60 86 62 87 61 88
REMARK H PARENT 78 56 56 67
REMARK Flexibility Score: inf
ROOT
ATOM      1  C   UNL A   1      46.369  23.564  24.523  1.00  0.00     0.188 C 
ENDROOT
BRANCH   1   2
ATOM      2  O   UNL A   1      46.405  22.410  25.326  1.00  0.00    -0.376 OA
BRANCH   2   3
ATOM      3  C   UNL A   1      45.629  21.357  24.791  1.00  0.00     0.202 C 
BRANCH   3   4
ATOM      4  C   UNL A   1      44.282  20.996  25.530  1.00  0.00     0.261 C 
BRANCH   4   5
ATOM      5  O   UNL A   1      43.298  20.092  24.856  1.00  0.00    -0.463 OA
BRANCH   5   6
ATOM      6  C   UNL A   1      42.475  19.241  25.542  1.00  0.00     0.311 C 
ATOM      7  O   UNL A   1      42.832  18.074  25.734  1.00  0.00    -0.252 OA
BRANCH   6   8
ATOM      8  C   UNL A   1      41.158  19.784  26.305  1.00  0.00     0.177 C 
BRANCH   8   9
ATOM      9  C   UNL A   1      40.704  21.272  26.588  1.00  0.00     0.037 A 
ATOM     10  C   UNL A   1      35.779  21.606  25.703  1.00  0.00     0.013 C 
ATOM     11  C   UNL A   1      37.225  21.957  25.331  1.00  0.00    -0.012 C 
ATOM     12  C   UNL A   1      37.289  22.256  23.824  1.00  0.00     0.013 C 
ATOM     13  C   UNL A   1      37.677  23.203  26.138  1.00  0.00     0.063 C 
ATOM     14  C   UNL A   1      38.248  20.834  25.718  1.00  0.00     0.129 C 
ATOM     15  C   UNL A   1      39.051  22.850  26.552  1.00  0.00     0.027 A 
ATOM     16  N   UNL A   1      39.380  21.564  26.300  1.00  0.00    -0.346 N 
ATOM     17  C   UNL A   1      40.124  23.500  27.072  1.00  0.00     0.011 A 
ATOM     18  C   UNL A   1      41.224  22.504  27.233  1.00  0.00     0.011 A 
BRANCH  17  19
ATOM     19  C   UNL A   1      40.050  24.954  27.182  1.00  0.00    -0.016 A 
ATOM     20  C   UNL A   1      39.630  25.580  28.358  1.00  0.00     0.009 A 
ATOM     21  C   UNL A   1      40.509  25.744  26.115  1.00  0.00     0.009 A 
ATOM     22  C   UNL A   1      39.840  26.956  28.519  1.00  0.00     0.001 A 
ATOM     23  C   UNL A   1      40.785  27.098  26.302  1.00  0.00     0.001 A 
ATOM     24  C   UNL A   1      40.469  27.700  27.515  1.00  0.00     0.000 A 
ENDBRANCH  17  19
BRANCH  18  25
ATOM     25  C   UNL A   1      42.697  22.978  27.721  1.00  0.00    -0.016 A 
ATOM     26  C   UNL A   1      42.994  22.844  29.529  1.00  0.00     0.010 A 
ATOM     27  C   UNL A   1      43.442  24.370  26.865  1.00  0.00     0.010 A 
ATOM     28  C   UNL A   1      43.823  24.186  30.472  1.00  0.00     0.021 A 
ATOM     29  C   UNL A   1      44.282  25.741  27.752  1.00  0.00     0.021 A 
ATOM     30  C   UNL A   1      44.457  25.652  29.598  1.00  0.00     0.041 A 
ATOM     31  Cl  UNL A   1      45.054  27.005  30.484  1.00  0.00    -0.084 Cl
ENDBRANCH  18  25
ENDBRANCH   8   9
ENDBRANCH   6   8
ENDBRANCH   5   6
ENDBRANCH   4   5
ENDBRANCH   3   4
ENDBRANCH   2   3
ENDBRANCH   1   2
BRANCH   1  32
ATOM     32  C   UNL A   1      46.668  24.927  25.214  1.00  0.00     0.188 C 
BRANCH  32  33
ATOM     33  O   UNL A   1      46.061  26.050  24.647  1.00  0.00    -0.376 OA
BRANCH  33  34
ATOM     34  C   UNL A   1      46.801  27.235  24.513  1.00  0.00     0.202 C 
BRANCH  34  35
ATOM     35  C   UNL A   1      48.244  27.341  24.989  1.00  0.00     0.261 C 
BRANCH  35  36
ATOM     36  O   UNL A   1      48.621  28.574  25.627  1.00  0.00    -0.460 OA
BRANCH  36  37
ATOM     37  C   UNL A   1      48.594  28.665  27.157  1.00  0.00     0.338 C 
ATOM     38  O   UNL A   1      48.499  27.454  27.410  1.00  0.00    -0.246 OA
BRANCH  37  39
ATOM     39  C   UNL A   1      48.467  30.490  28.319  1.00  0.00     0.060 A 
ATOM     40  C   UNL A   1      48.685  30.775  29.730  1.00  0.00     0.016 A 
ATOM     41  C   UNL A   1      47.742  31.714  28.064  1.00  0.00     0.016 A 
ATOM     42  C   UNL A   1      47.585  31.068  30.578  1.00  0.00     0.010 A 
ATOM     43  C   UNL A   1      46.514  31.817  28.692  1.00  0.00     0.010 A 
ATOM     44  C   UNL A   1      46.372  31.288  29.956  1.00  0.00    -0.014 A 
BRANCH  44  45
ATOM     45  C   UNL A   1      45.069  31.508  30.580  1.00  0.00     0.031 A 
ATOM     46  C   UNL A   1      45.272  32.637  31.535  1.00  0.00     0.074 A 
ATOM     47  C   UNL A   1      43.859  30.995  30.232  1.00  0.00     0.049 A 
ATOM     48  N   UNL A   1      45.793  32.488  32.713  1.00  0.00    -0.248 NA
ATOM     49  C   UNL A   1      45.398  34.028  31.017  1.00  0.00     0.031 C 
ATOM     50  C   UNL A   1      43.457  30.077  29.161  1.00  0.00     0.029 A 
ATOM     51  N   UNL A   1      42.649  31.249  30.821  1.00  0.00    -0.354 N 
ATOM     52  C   UNL A   1      45.989  33.785  33.155  1.00  0.00     0.074 A 
ATOM     53  C   UNL A   1      46.167  34.564  31.968  1.00  0.00     0.031 C 
ATOM     54  C   UNL A   1      42.101  30.038  29.046  1.00  0.00     0.029 A 
ATOM     55  C   UNL A   1      41.513  30.807  30.126  1.00  0.00     0.049 A 
ATOM     56  H   UNL A   1      42.579  31.718  31.684  1.00  0.00     0.167 HD
ATOM     57  C   UNL A   1      45.434  34.185  34.334  1.00  0.00     0.031 A 
ATOM     58  C   UNL A   1      40.208  31.062  30.453  1.00  0.00     0.031 A 
ATOM     59  C   UNL A   1      45.025  33.029  35.105  1.00  0.00     0.049 A 
ATOM     60  C   UNL A   1      40.202  31.460  31.884  1.00  0.00     0.074 A 
ATOM     61  C   UNL A   1      45.673  31.903  35.574  1.00  0.00     0.029 A 
ATOM     62  N   UNL A   1      43.689  32.707  35.029  1.00  0.00    -0.354 N 
ATOM     63  N   UNL A   1      40.510  30.632  32.841  1.00  0.00    -0.248 NA
ATOM     64  C   UNL A   1      40.405  32.870  32.174  1.00  0.00     0.031 C 
ATOM     65  C   UNL A   1      44.762  30.829  35.349  1.00  0.00     0.029 A 
ATOM     66  C   UNL A   1      43.551  31.350  34.893  1.00  0.00     0.049 A 
ATOM     67  H   UNL A   1      42.946  33.352  35.067  1.00  0.00     0.167 HD
ATOM     68  C   UNL A   1      41.384  31.349  33.645  1.00  0.00     0.074 A 
ATOM     69  C   UNL A   1      41.237  32.744  33.213  1.00  0.00     0.031 C 
ATOM     70  C   UNL A   1      42.380  30.712  34.330  1.00  0.00     0.031 A 
BRANCH  57  71
ATOM     71  C   UNL A   1      44.778  35.541  34.510  1.00  0.00    -0.014 A 
ATOM     72  C   UNL A   1      43.529  35.739  33.904  1.00  0.00     0.009 A 
ATOM     73  C   UNL A   1      45.420  36.696  35.004  1.00  0.00     0.009 A 
ATOM     74  C   UNL A   1      43.004  37.024  33.723  1.00  0.00     0.001 A 
ATOM     75  C   UNL A   1      44.890  37.977  34.850  1.00  0.00     0.001 A 
ATOM     76  C   UNL A   1      43.692  38.143  34.182  1.00  0.00     0.000 A 
ENDBRANCH  57  71
BRANCH  58  77
ATOM     77  C   UNL A   1      39.002  31.320  29.609  1.00  0.00    -0.014 A 
ATOM     78  C   UNL A   1      38.453  30.320  28.776  1.00  0.00     0.009 A 
ATOM     79  C   UNL A   1      38.190  32.434  29.881  1.00  0.00     0.009 A 
ATOM     80  C   UNL A   1      37.142  30.418  28.271  1.00  0.00     0.001 A 
ATOM     81  C   UNL A   1      36.879  32.527  29.385  1.00  0.00     0.001 A 
ATOM     82  C   UNL A   1      36.348  31.515  28.591  1.00  0.00     0.000 A 
ENDBRANCH  58  77
BRANCH  70  83
ATOM     83  C   UNL A   1      42.354  29.199  34.376  1.00  0.00    -0.014 A 
ATOM     84  C   UNL A   1      42.975  28.354  33.435  1.00  0.00     0.009 A 
ATOM     85  C   UNL A   1      41.799  28.612  35.522  1.00  0.00     0.009 A 
ATOM     86  C   UNL A   1      43.013  26.966  33.635  1.00  0.00     0.001 A 
ATOM     87  C   UNL A   1      41.857  27.234  35.731  1.00  0.00     0.001 A 
ATOM     88  C   UNL A   1      42.458  26.409  34.785  1.00  0.00     0.000 A 
ENDBRANCH  70  83
ENDBRANCH  44  45
ENDBRANCH  37  39
ENDBRANCH  36  37
ENDBRANCH  35  36
ENDBRANCH  34  35
ENDBRANCH  33  34
ENDBRANCH  32  33
ENDBRANCH   1  32
TORSDOF 20
ENDMDL
