MODEL 1
REMARK VINA RESULT:     -10.6      0.000      0.000
REMARK SMILES CS(=O)(=O)c1ccc(/C=C(/C(=O)OCCOCCOCCOC(=O)c2ccc(-c3c4nc(c(-c5ccccc5)c5ccc([nH]5)c(-c5ccccc5)c5nc(c(-c6ccccc6)c6ccc3[nH]6)C=C5)C=C4)cc2)c2ccc(O)cc2)cc1
REMARK SMILES IDX 17 1 16 2 15 3 14 4 13 5 11 6 12 7 10 8 9 9 8 10 5 11 6 12
REMARK SMILES IDX 81 13 7 14 80 15 2 16 1 17 3 18 4 19 73 20 74 21 79 22 75 23
REMARK SMILES IDX 78 24 76 25 77 26 18 28 19 29 20 30 21 31 22 32 23 33 24 34
REMARK SMILES IDX 25 35 26 36 72 37 27 38 71 39 28 40 29 41 30 42 65 43 31 44
REMARK SMILES IDX 70 45 64 46 66 47 32 48 69 49 63 50 62 51 33 53 55 54 40 55
REMARK SMILES IDX 54 56 41 57 44 58 53 59 67 60 42 61 43 62 52 64 68 65 45 66
REMARK SMILES IDX 34 67 35 68 39 69 36 70 38 71 37 72 56 73 57 74 61 75 58 76
REMARK SMILES IDX 60 77 59 78 46 79 47 80 51 81 48 82 50 83 49 84
REMARK H PARENT 77 27 66 52 44 63
REMARK Flexibility Score: inf
ROOT
ATOM      1  C   UNL A   1      35.776  22.239  23.885  1.00  0.00     0.188 C 
ENDROOT
BRANCH   1   2
ATOM      2  O   UNL A   1      35.549  23.452  24.583  1.00  0.00    -0.376 OA
BRANCH   2   3
ATOM      3  C   UNL A   1      35.669  23.391  25.997  1.00  0.00     0.202 C 
BRANCH   3   4
ATOM      4  C   UNL A   1      34.344  23.517  26.756  1.00  0.00     0.261 C 
BRANCH   4   5
ATOM      5  O   UNL A   1      33.176  23.627  25.925  1.00  0.00    -0.460 OA
BRANCH   5   6
ATOM      6  C   UNL A   1      32.038  24.099  26.491  1.00  0.00     0.338 C 
ATOM      7  O   UNL A   1      31.478  23.605  27.457  1.00  0.00    -0.246 OA
BRANCH   6   8
ATOM      8  C   UNL A   1      31.614  25.384  25.831  1.00  0.00     0.067 C 
ATOM      9  C   UNL A   1      30.840  25.338  24.718  1.00  0.00     0.024 C 
BRANCH   9  10
ATOM     10  C   UNL A   1      30.219  26.454  23.965  1.00  0.00    -0.025 A 
ATOM     11  C   UNL A   1      28.924  28.682  22.842  1.00  0.00     0.067 A 
ATOM     12  C   UNL A   1      30.303  28.541  22.702  1.00  0.00     0.021 A 
ATOM     13  C   UNL A   1      28.172  27.673  23.445  1.00  0.00     0.021 A 
ATOM     14  C   UNL A   1      30.939  27.416  23.241  1.00  0.00     0.009 A 
ATOM     15  C   UNL A   1      28.821  26.564  23.998  1.00  0.00     0.009 A 
BRANCH  11  16
ATOM     16  S   UNL A   1      28.124  30.178  22.315  1.00  0.00     0.175 S 
ATOM     17  C   UNL A   1      29.291  31.468  22.667  1.00  0.00     0.163 C 
ATOM     18  O   UNL A   1      26.986  30.390  23.194  1.00  0.00    -0.224 OA
ATOM     19  O   UNL A   1      27.956  30.086  20.880  1.00  0.00    -0.224 OA
ENDBRANCH  11  16
ENDBRANCH   9  10
BRANCH   8  20
ATOM     20  C   UNL A   1      32.062  26.657  26.430  1.00  0.00    -0.011 A 
ATOM     21  C   UNL A   1      33.341  27.150  26.120  1.00  0.00     0.013 A 
ATOM     22  C   UNL A   1      31.193  27.447  27.197  1.00  0.00     0.013 A 
ATOM     23  C   UNL A   1      33.724  28.426  26.531  1.00  0.00     0.047 A 
ATOM     24  C   UNL A   1      31.580  28.727  27.606  1.00  0.00     0.047 A 
ATOM     25  C   UNL A   1      32.838  29.209  27.256  1.00  0.00     0.115 A 
BRANCH  25  26
ATOM     26  O   UNL A   1      33.238  30.467  27.590  1.00  0.00    -0.508 OA
ATOM     27  H   UNL A   1      33.657  30.622  28.414  1.00  0.00     0.293 HD
ENDBRANCH  25  26
ENDBRANCH   8  20
ENDBRANCH   6   8
ENDBRANCH   5   6
ENDBRANCH   4   5
ENDBRANCH   3   4
ENDBRANCH   2   3
ENDBRANCH   1   2
BRANCH   1  28
ATOM     28  C   UNL A   1      35.441  20.976  24.703  1.00  0.00     0.188 C 
BRANCH  28  29
ATOM     29  O   UNL A   1      36.453  20.039  25.050  1.00  0.00    -0.376 OA
BRANCH  29  30
ATOM     30  C   UNL A   1      37.817  20.415  24.965  1.00  0.00     0.202 C 
BRANCH  30  31
ATOM     31  C   UNL A   1      38.875  19.368  25.329  1.00  0.00     0.261 C 
BRANCH  31  32
ATOM     32  O   UNL A   1      39.708  19.720  26.445  1.00  0.00    -0.460 OA
BRANCH  32  33
ATOM     33  C   UNL A   1      41.041  19.659  26.204  1.00  0.00     0.338 C 
ATOM     34  O   UNL A   1      41.651  18.781  25.623  1.00  0.00    -0.246 OA
BRANCH  33  35
ATOM     35  C   UNL A   1      41.686  20.921  26.625  1.00  0.00     0.060 A 
ATOM     36  C   UNL A   1      41.752  21.195  27.997  1.00  0.00     0.016 A 
ATOM     37  C   UNL A   1      42.142  21.856  25.694  1.00  0.00     0.016 A 
ATOM     38  C   UNL A   1      42.244  22.421  28.444  1.00  0.00     0.010 A 
ATOM     39  C   UNL A   1      42.611  23.096  26.140  1.00  0.00     0.010 A 
ATOM     40  C   UNL A   1      42.632  23.395  27.515  1.00  0.00    -0.014 A 
BRANCH  40  41
ATOM     41  C   UNL A   1      42.874  24.782  27.978  1.00  0.00     0.031 A 
ATOM     42  C   UNL A   1      44.293  25.226  28.211  1.00  0.00     0.074 A 
ATOM     43  C   UNL A   1      41.861  25.645  28.161  1.00  0.00     0.049 A 
ATOM     44  N   UNL A   1      44.744  26.390  28.603  1.00  0.00    -0.248 NA
ATOM     45  C   UNL A   1      45.342  24.223  27.965  1.00  0.00     0.031 C 
ATOM     46  C   UNL A   1      40.448  25.355  27.931  1.00  0.00     0.029 A 
ATOM     47  N   UNL A   1      41.875  26.952  28.580  1.00  0.00    -0.354 N 
ATOM     48  C   UNL A   1      46.125  26.260  28.650  1.00  0.00     0.074 A 
ATOM     49  C   UNL A   1      46.438  24.900  28.270  1.00  0.00     0.031 C 
ATOM     50  C   UNL A   1      39.727  26.457  28.205  1.00  0.00     0.029 A 
ATOM     51  C   UNL A   1      40.625  27.516  28.664  1.00  0.00     0.049 A 
ATOM     52  H   UNL A   1      42.702  27.440  28.798  1.00  0.00     0.167 HD
ATOM     53  C   UNL A   1      47.055  27.189  28.980  1.00  0.00     0.031 A 
ATOM     54  C   UNL A   1      40.251  28.741  29.081  1.00  0.00     0.031 A 
ATOM     55  C   UNL A   1      46.751  28.532  29.391  1.00  0.00     0.049 A 
ATOM     56  C   UNL A   1      41.299  29.727  29.528  1.00  0.00     0.074 A 
ATOM     57  C   UNL A   1      47.626  29.543  29.749  1.00  0.00     0.029 A 
ATOM     58  N   UNL A   1      45.471  29.046  29.514  1.00  0.00    -0.354 N 
ATOM     59  N   UNL A   1      42.603  29.602  29.539  1.00  0.00    -0.248 NA
ATOM     60  C   UNL A   1      40.816  31.028  30.017  1.00  0.00     0.031 C 
ATOM     61  C   UNL A   1      46.871  30.654  30.138  1.00  0.00     0.029 A 
ATOM     62  C   UNL A   1      45.530  30.352  29.968  1.00  0.00     0.049 A 
ATOM     63  H   UNL A   1      44.642  28.556  29.308  1.00  0.00     0.167 HD
ATOM     64  C   UNL A   1      43.097  30.815  30.007  1.00  0.00     0.074 A 
ATOM     65  C   UNL A   1      41.953  31.666  30.258  1.00  0.00     0.031 C 
ATOM     66  C   UNL A   1      44.384  31.190  30.209  1.00  0.00     0.031 A 
BRANCH  53  67
ATOM     67  C   UNL A   1      48.493  26.759  28.948  1.00  0.00    -0.014 A 
ATOM     68  C   UNL A   1      49.085  26.116  30.047  1.00  0.00     0.009 A 
ATOM     69  C   UNL A   1      49.261  26.983  27.795  1.00  0.00     0.009 A 
ATOM     70  C   UNL A   1      50.428  25.736  30.002  1.00  0.00     0.001 A 
ATOM     71  C   UNL A   1      50.595  26.579  27.744  1.00  0.00     0.001 A 
ATOM     72  C   UNL A   1      51.180  25.964  28.850  1.00  0.00     0.000 A 
ENDBRANCH  53  67
BRANCH  54  73
ATOM     73  C   UNL A   1      38.812  29.108  29.123  1.00  0.00    -0.014 A 
ATOM     74  C   UNL A   1      38.171  29.629  27.988  1.00  0.00     0.009 A 
ATOM     75  C   UNL A   1      38.079  28.975  30.314  1.00  0.00     0.009 A 
ATOM     76  C   UNL A   1      36.836  30.032  28.051  1.00  0.00     0.001 A 
ATOM     77  C   UNL A   1      36.736  29.354  30.366  1.00  0.00     0.001 A 
ATOM     78  C   UNL A   1      36.119  29.891  29.238  1.00  0.00     0.000 A 
ENDBRANCH  54  73
BRANCH  66  79
ATOM     79  C   UNL A   1      44.630  32.594  30.687  1.00  0.00    -0.014 A 
ATOM     80  C   UNL A   1      44.763  32.889  32.053  1.00  0.00     0.009 A 
ATOM     81  C   UNL A   1      44.781  33.629  29.750  1.00  0.00     0.009 A 
ATOM     82  C   UNL A   1      45.015  34.197  32.470  1.00  0.00     0.001 A 
ATOM     83  C   UNL A   1      45.059  34.930  30.169  1.00  0.00     0.001 A 
ATOM     84  C   UNL A   1      45.166  35.215  31.529  1.00  0.00     0.000 A 
ENDBRANCH  66  79
ENDBRANCH  40  41
ENDBRANCH  33  35
ENDBRANCH  32  33
ENDBRANCH  31  32
ENDBRANCH  30  31
ENDBRANCH  29  30
ENDBRANCH  28  29
ENDBRANCH   1  28
TORSDOF 21
ENDMDL
MODEL 2
REMARK VINA RESULT:     -10.0      3.862      9.580
REMARK SMILES CS(=O)(=O)c1ccc(/C=C(/C(=O)OCCOCCOCCOC(=O)c2ccc(-c3c4nc(c(-c5ccccc5)c5ccc([nH]5)c(-c5ccccc5)c5nc(c(-c6ccccc6)c6ccc3[nH]6)C=C5)C=C4)cc2)c2ccc(O)cc2)cc1
REMARK SMILES IDX 17 1 16 2 15 3 14 4 13 5 11 6 12 7 10 8 9 9 8 10 5 11 6 12
REMARK SMILES IDX 81 13 7 14 80 15 2 16 1 17 3 18 4 19 73 20 74 21 79 22 75 23
REMARK SMILES IDX 78 24 76 25 77 26 18 28 19 29 20 30 21 31 22 32 23 33 24 34
REMARK SMILES IDX 25 35 26 36 72 37 27 38 71 39 28 40 29 41 30 42 65 43 31 44
REMARK SMILES IDX 70 45 64 46 66 47 32 48 69 49 63 50 62 51 33 53 55 54 40 55
REMARK SMILES IDX 54 56 41 57 44 58 53 59 67 60 42 61 43 62 52 64 68 65 45 66
REMARK SMILES IDX 34 67 35 68 39 69 36 70 38 71 37 72 56 73 57 74 61 75 58 76
REMARK SMILES IDX 60 77 59 78 46 79 47 80 51 81 48 82 50 83 49 84
REMARK H PARENT 77 27 66 52 44 63
REMARK Flexibility Score: inf
ROOT
ATOM      1  C   UNL A   1      32.644  28.101  25.514  1.00  0.00     0.188 C 
ENDROOT
BRANCH   1   2
ATOM      2  O   UNL A   1      33.784  27.864  24.703  1.00  0.00    -0.376 OA
BRANCH   2   3
ATOM      3  C   UNL A   1      33.579  27.940  23.300  1.00  0.00     0.202 C 
BRANCH   3   4
ATOM      4  C   UNL A   1      33.094  26.638  22.654  1.00  0.00     0.261 C 
BRANCH   4   5
ATOM      5  O   UNL A   1      33.462  25.438  23.356  1.00  0.00    -0.460 OA
BRANCH   5   6
ATOM      6  C   UNL A   1      32.472  24.709  23.926  1.00  0.00     0.338 C 
ATOM      7  O   UNL A   1      31.335  25.106  24.126  1.00  0.00    -0.246 OA
BRANCH   6   8
ATOM      8  C   UNL A   1      32.935  23.300  24.183  1.00  0.00     0.067 C 
ATOM      9  C   UNL A   1      32.047  22.278  24.083  1.00  0.00     0.024 C 
BRANCH   9  10
ATOM     10  C   UNL A   1      32.288  20.819  24.185  1.00  0.00    -0.025 A 
ATOM     11  C   UNL A   1      33.014  18.103  24.170  1.00  0.00     0.067 A 
ATOM     12  C   UNL A   1      32.992  18.806  25.374  1.00  0.00     0.021 A 
ATOM     13  C   UNL A   1      32.579  18.712  22.993  1.00  0.00     0.021 A 
ATOM     14  C   UNL A   1      32.604  20.151  25.378  1.00  0.00     0.009 A 
ATOM     15  C   UNL A   1      32.215  20.062  23.006  1.00  0.00     0.009 A 
BRANCH  11  16
ATOM     16  S   UNL A   1      33.661  16.450  24.117  1.00  0.00     0.175 S 
ATOM     17  C   UNL A   1      35.136  16.506  25.105  1.00  0.00     0.163 C 
ATOM     18  O   UNL A   1      34.082  16.196  22.750  1.00  0.00    -0.224 OA
ATOM     19  O   UNL A   1      32.697  15.595  24.777  1.00  0.00    -0.224 OA
ENDBRANCH  11  16
ENDBRANCH   9  10
BRANCH   8  20
ATOM     20  C   UNL A   1      34.353  23.084  24.536  1.00  0.00    -0.011 A 
ATOM     21  C   UNL A   1      35.254  22.673  23.540  1.00  0.00     0.013 A 
ATOM     22  C   UNL A   1      34.842  23.404  25.811  1.00  0.00     0.013 A 
ATOM     23  C   UNL A   1      36.622  22.628  23.801  1.00  0.00     0.047 A 
ATOM     24  C   UNL A   1      36.215  23.360  26.070  1.00  0.00     0.047 A 
ATOM     25  C   UNL A   1      37.094  22.985  25.057  1.00  0.00     0.115 A 
BRANCH  25  26
ATOM     26  O   UNL A   1      38.442  22.975  25.249  1.00  0.00    -0.508 OA
ATOM     27  H   UNL A   1      38.795  22.711  26.076  1.00  0.00     0.293 HD
ENDBRANCH  25  26
ENDBRANCH   8  20
ENDBRANCH   6   8
ENDBRANCH   5   6
ENDBRANCH   4   5
ENDBRANCH   3   4
ENDBRANCH   2   3
ENDBRANCH   1   2
BRANCH   1  28
ATOM     28  C   UNL A   1      31.765  29.270  25.028  1.00  0.00     0.188 C 
BRANCH  28  29
ATOM     29  O   UNL A   1      32.000  30.598  25.480  1.00  0.00    -0.376 OA
BRANCH  29  30
ATOM     30  C   UNL A   1      31.817  30.917  26.850  1.00  0.00     0.202 C 
BRANCH  30  31
ATOM     31  C   UNL A   1      31.705  32.396  27.235  1.00  0.00     0.261 C 
BRANCH  31  32
ATOM     32  O   UNL A   1      32.934  33.134  27.139  1.00  0.00    -0.460 OA
BRANCH  32  33
ATOM     33  C   UNL A   1      33.138  34.035  28.131  1.00  0.00     0.338 C 
ATOM     34  O   UNL A   1      32.402  34.943  28.472  1.00  0.00    -0.246 OA
BRANCH  33  35
ATOM     35  C   UNL A   1      34.356  33.679  28.890  1.00  0.00     0.060 A 
ATOM     36  C   UNL A   1      35.590  34.102  28.378  1.00  0.00     0.016 A 
ATOM     37  C   UNL A   1      34.300  32.880  30.033  1.00  0.00     0.016 A 
ATOM     38  C   UNL A   1      36.777  33.697  28.988  1.00  0.00     0.010 A 
ATOM     39  C   UNL A   1      35.491  32.453  30.629  1.00  0.00     0.010 A 
ATOM     40  C   UNL A   1      36.733  32.832  30.089  1.00  0.00    -0.014 A 
BRANCH  40  41
ATOM     41  C   UNL A   1      37.983  32.180  30.547  1.00  0.00     0.031 A 
ATOM     42  C   UNL A   1      38.701  32.756  31.738  1.00  0.00     0.074 A 
ATOM     43  C   UNL A   1      38.459  31.079  29.943  1.00  0.00     0.049 A 
ATOM     44  N   UNL A   1      39.799  32.348  32.321  1.00  0.00    -0.248 NA
ATOM     45  C   UNL A   1      38.097  33.949  32.353  1.00  0.00     0.031 C 
ATOM     46  C   UNL A   1      37.838  30.398  28.809  1.00  0.00     0.029 A 
ATOM     47  N   UNL A   1      39.582  30.337  30.210  1.00  0.00    -0.354 N 
ATOM     48  C   UNL A   1      40.017  33.231  33.370  1.00  0.00     0.074 A 
ATOM     49  C   UNL A   1      38.953  34.210  33.330  1.00  0.00     0.031 C 
ATOM     50  C   UNL A   1      38.586  29.329  28.481  1.00  0.00     0.029 A 
ATOM     51  C   UNL A   1      39.755  29.274  29.357  1.00  0.00     0.049 A 
ATOM     52  H   UNL A   1      40.204  30.545  30.944  1.00  0.00     0.167 HD
ATOM     53  C   UNL A   1      41.014  33.231  34.287  1.00  0.00     0.031 A 
ATOM     54  C   UNL A   1      40.754  28.373  29.282  1.00  0.00     0.031 A 
ATOM     55  C   UNL A   1      42.093  32.283  34.314  1.00  0.00     0.049 A 
ATOM     56  C   UNL A   1      41.898  28.448  30.260  1.00  0.00     0.074 A 
ATOM     57  C   UNL A   1      43.151  32.205  35.202  1.00  0.00     0.029 A 
ATOM     58  N   UNL A   1      42.260  31.255  33.400  1.00  0.00    -0.354 N 
ATOM     59  N   UNL A   1      42.076  29.270  31.265  1.00  0.00    -0.248 NA
ATOM     60  C   UNL A   1      42.977  27.463  30.090  1.00  0.00     0.031 C 
ATOM     61  C   UNL A   1      43.987  31.161  34.795  1.00  0.00     0.029 A 
ATOM     62  C   UNL A   1      43.418  30.554  33.687  1.00  0.00     0.049 A 
ATOM     63  H   UNL A   1      41.645  31.052  32.658  1.00  0.00     0.167 HD
ATOM     64  C   UNL A   1      43.271  28.884  31.864  1.00  0.00     0.074 A 
ATOM     65  C   UNL A   1      43.768  27.747  31.117  1.00  0.00     0.031 C 
ATOM     66  C   UNL A   1      43.899  29.421  32.938  1.00  0.00     0.031 A 
BRANCH  53  67
ATOM     67  C   UNL A   1      40.998  34.326  35.315  1.00  0.00    -0.014 A 
ATOM     68  C   UNL A   1      41.654  35.546  35.088  1.00  0.00     0.009 A 
ATOM     69  C   UNL A   1      40.300  34.140  36.518  1.00  0.00     0.009 A 
ATOM     70  C   UNL A   1      41.639  36.547  36.062  1.00  0.00     0.001 A 
ATOM     71  C   UNL A   1      40.266  35.151  37.479  1.00  0.00     0.001 A 
ATOM     72  C   UNL A   1      40.942  36.350  37.254  1.00  0.00     0.000 A 
ENDBRANCH  53  67
BRANCH  54  73
ATOM     73  C   UNL A   1      40.738  27.326  28.228  1.00  0.00    -0.014 A 
ATOM     74  C   UNL A   1      41.305  27.570  26.967  1.00  0.00     0.009 A 
ATOM     75  C   UNL A   1      40.121  26.087  28.466  1.00  0.00     0.009 A 
ATOM     76  C   UNL A   1      41.231  26.605  25.960  1.00  0.00     0.001 A 
ATOM     77  C   UNL A   1      40.072  25.115  27.465  1.00  0.00     0.001 A 
ATOM     78  C   UNL A   1      40.618  25.379  26.211  1.00  0.00     0.000 A 
ENDBRANCH  54  73
BRANCH  66  79
ATOM     79  C   UNL A   1      45.170  28.765  33.398  1.00  0.00    -0.014 A 
ATOM     80  C   UNL A   1      45.154  27.699  34.310  1.00  0.00     0.009 A 
ATOM     81  C   UNL A   1      46.400  29.190  32.869  1.00  0.00     0.009 A 
ATOM     82  C   UNL A   1      46.348  27.090  34.704  1.00  0.00     0.001 A 
ATOM     83  C   UNL A   1      47.588  28.562  33.245  1.00  0.00     0.001 A 
ATOM     84  C   UNL A   1      47.562  27.519  34.169  1.00  0.00     0.000 A 
ENDBRANCH  66  79
ENDBRANCH  40  41
ENDBRANCH  33  35
ENDBRANCH  32  33
ENDBRANCH  31  32
ENDBRANCH  30  31
ENDBRANCH  29  30
ENDBRANCH  28  29
ENDBRANCH   1  28
TORSDOF 21
ENDMDL
MODEL 3
REMARK VINA RESULT:      -9.3      4.152      7.625
REMARK SMILES CS(=O)(=O)c1ccc(/C=C(/C(=O)OCCOCCOCCOC(=O)c2ccc(-c3c4nc(c(-c5ccccc5)c5ccc([nH]5)c(-c5ccccc5)c5nc(c(-c6ccccc6)c6ccc3[nH]6)C=C5)C=C4)cc2)c2ccc(O)cc2)cc1
REMARK SMILES IDX 17 1 16 2 15 3 14 4 13 5 11 6 12 7 10 8 9 9 8 10 5 11 6 12
REMARK SMILES IDX 81 13 7 14 80 15 2 16 1 17 3 18 4 19 73 20 74 21 79 22 75 23
REMARK SMILES IDX 78 24 76 25 77 26 18 28 19 29 20 30 21 31 22 32 23 33 24 34
REMARK SMILES IDX 25 35 26 36 72 37 27 38 71 39 28 40 29 41 30 42 65 43 31 44
REMARK SMILES IDX 70 45 64 46 66 47 32 48 69 49 63 50 62 51 33 53 55 54 40 55
REMARK SMILES IDX 54 56 41 57 44 58 53 59 67 60 42 61 43 62 52 64 68 65 45 66
REMARK SMILES IDX 34 67 35 68 39 69 36 70 38 71 37 72 56 73 57 74 61 75 58 76
REMARK SMILES IDX 60 77 59 78 46 79 47 80 51 81 48 82 50 83 49 84
REMARK H PARENT 77 27 66 52 44 63
REMARK Flexibility Score: inf
ROOT
ATOM      1  C   UNL A   1      37.524  22.581  25.295  1.00  0.00     0.188 C 
ENDROOT
BRANCH   1   2
ATOM      2  O   UNL A   1      36.903  23.345  24.274  1.00  0.00    -0.376 OA
BRANCH   2   3
ATOM      3  C   UNL A   1      35.563  23.745  24.521  1.00  0.00     0.202 C 
BRANCH   3   4
ATOM      4  C   UNL A   1      34.544  23.227  23.500  1.00  0.00     0.261 C 
BRANCH   4   5
ATOM      5  O   UNL A   1      33.536  24.176  23.112  1.00  0.00    -0.460 OA
BRANCH   5   6
ATOM      6  C   UNL A   1      32.393  24.219  23.839  1.00  0.00     0.338 C 
ATOM      7  O   UNL A   1      31.876  23.260  24.390  1.00  0.00    -0.246 OA
BRANCH   6   8
ATOM      8  C   UNL A   1      31.901  25.636  23.967  1.00  0.00     0.067 C 
ATOM      9  C   UNL A   1      31.055  26.134  23.031  1.00  0.00     0.024 C 
BRANCH   9  10
ATOM     10  C   UNL A   1      30.364  27.446  23.001  1.00  0.00    -0.025 A 
ATOM     11  C   UNL A   1      29.118  29.934  22.607  1.00  0.00     0.067 A 
ATOM     12  C   UNL A   1      28.383  28.867  23.121  1.00  0.00     0.021 A 
ATOM     13  C   UNL A   1      30.489  29.803  22.387  1.00  0.00     0.021 A 
ATOM     14  C   UNL A   1      29.017  27.638  23.339  1.00  0.00     0.009 A 
ATOM     15  C   UNL A   1      31.106  28.563  22.589  1.00  0.00     0.009 A 
BRANCH  11  16
ATOM     16  S   UNL A   1      28.299  31.448  22.166  1.00  0.00     0.175 S 
ATOM     17  C   UNL A   1      27.865  31.250  20.456  1.00  0.00     0.163 C 
ATOM     18  O   UNL A   1      29.291  32.507  22.227  1.00  0.00    -0.224 OA
ATOM     19  O   UNL A   1      27.081  31.515  22.946  1.00  0.00    -0.224 OA
ENDBRANCH  11  16
ENDBRANCH   9  10
BRANCH   8  20
ATOM     20  C   UNL A   1      32.364  26.434  25.121  1.00  0.00    -0.011 A 
ATOM     21  C   UNL A   1      33.636  27.028  25.079  1.00  0.00     0.013 A 
ATOM     22  C   UNL A   1      31.512  26.717  26.199  1.00  0.00     0.013 A 
ATOM     23  C   UNL A   1      34.029  27.923  26.072  1.00  0.00     0.047 A 
ATOM     24  C   UNL A   1      31.909  27.617  27.192  1.00  0.00     0.047 A 
ATOM     25  C   UNL A   1      33.160  28.222  27.111  1.00  0.00     0.115 A 
BRANCH  25  26
ATOM     26  O   UNL A   1      33.569  29.141  28.029  1.00  0.00    -0.508 OA
ATOM     27  H   UNL A   1      33.805  28.866  28.894  1.00  0.00     0.293 HD
ENDBRANCH  25  26
ENDBRANCH   8  20
ENDBRANCH   6   8
ENDBRANCH   5   6
ENDBRANCH   4   5
ENDBRANCH   3   4
ENDBRANCH   2   3
ENDBRANCH   1   2
BRANCH   1  28
ATOM     28  C   UNL A   1      38.486  23.394  26.183  1.00  0.00     0.188 C 
BRANCH  28  29
ATOM     29  O   UNL A   1      39.496  22.750  26.949  1.00  0.00    -0.376 OA
BRANCH  29  30
ATOM     30  C   UNL A   1      40.784  22.552  26.389  1.00  0.00     0.202 C 
BRANCH  30  31
ATOM     31  C   UNL A   1      41.953  23.353  26.975  1.00  0.00     0.261 C 
BRANCH  31  32
ATOM     32  O   UNL A   1      42.424  24.422  26.139  1.00  0.00    -0.460 OA
BRANCH  32  33
ATOM     33  C   UNL A   1      41.627  25.517  26.109  1.00  0.00     0.338 C 
ATOM     34  O   UNL A   1      40.890  25.875  25.208  1.00  0.00    -0.246 OA
BRANCH  33  35
ATOM     35  C   UNL A   1      41.647  26.188  27.426  1.00  0.00     0.060 A 
ATOM     36  C   UNL A   1      40.515  26.058  28.242  1.00  0.00     0.016 A 
ATOM     37  C   UNL A   1      42.715  26.996  27.821  1.00  0.00     0.016 A 
ATOM     38  C   UNL A   1      40.432  26.763  29.442  1.00  0.00     0.010 A 
ATOM     39  C   UNL A   1      42.620  27.724  29.012  1.00  0.00     0.010 A 
ATOM     40  C   UNL A   1      41.464  27.636  29.809  1.00  0.00    -0.014 A 
BRANCH  40  41
ATOM     41  C   UNL A   1      41.244  28.590  30.922  1.00  0.00     0.031 A 
ATOM     42  C   UNL A   1      40.141  29.605  30.792  1.00  0.00     0.074 A 
ATOM     43  C   UNL A   1      41.985  28.541  32.042  1.00  0.00     0.049 A 
ATOM     44  N   UNL A   1      39.758  30.527  31.638  1.00  0.00    -0.248 NA
ATOM     45  C   UNL A   1      39.364  29.572  29.542  1.00  0.00     0.031 C 
ATOM     46  C   UNL A   1      43.054  27.582  32.310  1.00  0.00     0.029 A 
ATOM     47  N   UNL A   1      41.940  29.324  33.168  1.00  0.00    -0.354 N 
ATOM     48  C   UNL A   1      38.699  31.182  31.025  1.00  0.00     0.074 A 
ATOM     49  C   UNL A   1      38.513  30.570  29.728  1.00  0.00     0.031 C 
ATOM     50  C   UNL A   1      43.561  27.828  33.531  1.00  0.00     0.029 A 
ATOM     51  C   UNL A   1      42.877  28.982  34.112  1.00  0.00     0.049 A 
ATOM     52  H   UNL A   1      41.296  30.058  33.289  1.00  0.00     0.167 HD
ATOM     53  C   UNL A   1      37.945  32.204  31.497  1.00  0.00     0.031 A 
ATOM     54  C   UNL A   1      43.161  29.551  35.300  1.00  0.00     0.031 A 
ATOM     55  C   UNL A   1      38.144  32.840  32.770  1.00  0.00     0.049 A 
ATOM     56  C   UNL A   1      42.365  30.743  35.763  1.00  0.00     0.074 A 
ATOM     57  C   UNL A   1      37.433  33.886  33.332  1.00  0.00     0.029 A 
ATOM     58  N   UNL A   1      39.138  32.499  33.673  1.00  0.00    -0.354 N 
ATOM     59  N   UNL A   1      41.347  31.334  35.188  1.00  0.00    -0.248 NA
ATOM     60  C   UNL A   1      42.760  31.342  37.048  1.00  0.00     0.031 C 
ATOM     61  C   UNL A   1      38.030  34.211  34.554  1.00  0.00     0.029 A 
ATOM     62  C   UNL A   1      39.077  33.332  34.777  1.00  0.00     0.049 A 
ATOM     63  H   UNL A   1      39.791  31.773  33.548  1.00  0.00     0.167 HD
ATOM     64  C   UNL A   1      40.962  32.354  36.051  1.00  0.00     0.074 A 
ATOM     65  C   UNL A   1      41.849  32.295  37.194  1.00  0.00     0.031 C 
ATOM     66  C   UNL A   1      39.962  33.259  35.910  1.00  0.00     0.031 A 
BRANCH  53  67
ATOM     67  C   UNL A   1      36.857  32.722  30.601  1.00  0.00    -0.014 A 
ATOM     68  C   UNL A   1      37.117  33.710  29.638  1.00  0.00     0.009 A 
ATOM     69  C   UNL A   1      35.559  32.201  30.710  1.00  0.00     0.009 A 
ATOM     70  C   UNL A   1      36.088  34.188  28.822  1.00  0.00     0.001 A 
ATOM     71  C   UNL A   1      34.539  32.663  29.878  1.00  0.00     0.001 A 
ATOM     72  C   UNL A   1      34.803  33.661  28.941  1.00  0.00     0.000 A 
ENDBRANCH  53  67
BRANCH  54  73
ATOM     73  C   UNL A   1      44.268  29.019  36.137  1.00  0.00    -0.014 A 
ATOM     74  C   UNL A   1      45.572  29.520  36.005  1.00  0.00     0.009 A 
ATOM     75  C   UNL A   1      44.031  27.978  37.050  1.00  0.00     0.009 A 
ATOM     76  C   UNL A   1      46.619  28.972  36.748  1.00  0.00     0.001 A 
ATOM     77  C   UNL A   1      45.075  27.451  37.812  1.00  0.00     0.001 A 
ATOM     78  C   UNL A   1      46.370  27.941  37.653  1.00  0.00     0.000 A 
ENDBRANCH  54  73
BRANCH  66  79
ATOM     79  C   UNL A   1      39.744  34.232  37.034  1.00  0.00    -0.014 A 
ATOM     80  C   UNL A   1      40.244  35.542  36.975  1.00  0.00     0.009 A 
ATOM     81  C   UNL A   1      38.981  33.844  38.148  1.00  0.00     0.009 A 
ATOM     82  C   UNL A   1      40.007  36.435  38.022  1.00  0.00     0.001 A 
ATOM     83  C   UNL A   1      38.724  34.748  39.180  1.00  0.00     0.001 A 
ATOM     84  C   UNL A   1      39.245  36.039  39.121  1.00  0.00     0.000 A 
ENDBRANCH  66  79
ENDBRANCH  40  41
ENDBRANCH  33  35
ENDBRANCH  32  33
ENDBRANCH  31  32
ENDBRANCH  30  31
ENDBRANCH  29  30
ENDBRANCH  28  29
ENDBRANCH   1  28
TORSDOF 21
ENDMDL
