MODEL 1
REMARK VINA RESULT:      -9.4      0.000      0.000
REMARK SMILES CCCC[C@@H](C(=O)OCCOCCOCCOC(=O)c1ccc(-c2c3nc(c(-c4ccccc4)c4ccc([nH]4)c(-c4ccccc4)c4nc(c(-c5ccccc5)c5ccc2[nH]5)C=C4)C=C3)cc1)[C@]1(O)COc2cc(O)ccc21
REMARK SMILES IDX 12 1 11 2 10 3 9 4 8 5 6 6 7 7 5 8 4 9 3 10 2 11 1 12 68 13
REMARK SMILES IDX 70 14 78 15 71 16 72 17 77 18 73 19 76 20 74 21 69 22 75 24
REMARK SMILES IDX 13 26 14 27 15 28 16 29 17 30 18 31 19 32 20 33 21 34 67 35
REMARK SMILES IDX 22 36 66 37 23 38 24 39 25 40 60 41 26 42 65 43 59 44 61 45
REMARK SMILES IDX 27 46 64 47 58 48 57 49 28 51 50 52 35 53 49 54 36 55 39 56
REMARK SMILES IDX 48 57 62 58 37 59 38 60 47 62 63 63 40 64 29 65 30 66 34 67
REMARK SMILES IDX 31 68 33 69 32 70 51 71 52 72 56 73 53 74 55 75 54 76 41 77
REMARK SMILES IDX 42 78 46 79 43 80 45 81 44 82
REMARK H PARENT 69 23 75 25 61 50 39 61
REMARK Flexibility Score: inf
ROOT
ATOM      1  C   UNL A   1      34.911  21.684  24.499  1.00  0.00     0.188 C 
ENDROOT
BRANCH   1   2
ATOM      2  O   UNL A   1      34.310  21.089  25.644  1.00  0.00    -0.376 OA
BRANCH   2   3
ATOM      3  C   UNL A   1      34.485  21.796  26.867  1.00  0.00     0.202 C 
BRANCH   3   4
ATOM      4  C   UNL A   1      33.237  22.557  27.312  1.00  0.00     0.261 C 
BRANCH   4   5
ATOM      5  O   UNL A   1      32.279  22.622  26.238  1.00  0.00    -0.463 OA
BRANCH   5   6
ATOM      6  C   UNL A   1      31.190  23.404  26.367  1.00  0.00     0.312 C 
ATOM      7  O   UNL A   1      30.521  23.505  27.387  1.00  0.00    -0.252 OA
BRANCH   6   8
ATOM      8  C   UNL A   1      30.895  24.195  25.097  1.00  0.00     0.139 C 
BRANCH   8   9
ATOM      9  C   UNL A   1      32.091  24.379  24.124  1.00  0.00     0.019 C 
BRANCH   9  10
ATOM     10  C   UNL A   1      33.360  25.090  24.624  1.00  0.00     0.001 C 
BRANCH  10  11
ATOM     11  C   UNL A   1      33.929  26.184  23.730  1.00  0.00    -0.003 C 
ATOM     12  C   UNL A   1      33.505  26.041  22.278  1.00  0.00     0.004 C 
ENDBRANCH  10  11
ENDBRANCH   9  10
ENDBRANCH   8   9
BRANCH   8  13
ATOM     13  C   UNL A   1      30.066  25.497  25.386  1.00  0.00     0.140 C 
ATOM     14  C   UNL A   1      29.320  26.150  24.186  1.00  0.00     0.270 C 
ATOM     15  C   UNL A   1      30.826  26.732  25.787  1.00  0.00     0.030 A 
ATOM     16  O   UNL A   1      30.156  27.188  23.626  1.00  0.00    -0.490 OA
ATOM     17  C   UNL A   1      30.829  27.639  24.732  1.00  0.00     0.129 A 
ATOM     18  C   UNL A   1      31.478  27.054  26.970  1.00  0.00     0.014 A 
ATOM     19  C   UNL A   1      31.486  28.854  24.792  1.00  0.00     0.093 A 
ATOM     20  C   UNL A   1      32.148  28.281  27.060  1.00  0.00     0.047 A 
ATOM     21  C   UNL A   1      32.151  29.164  25.972  1.00  0.00     0.119 A 
BRANCH  13  22
ATOM     22  O   UNL A   1      29.082  25.182  26.380  1.00  0.00    -0.381 OA
ATOM     23  H   UNL A   1      28.305  25.750  26.257  1.00  0.00     0.212 HD
ENDBRANCH  13  22
BRANCH  21  24
ATOM     24  O   UNL A   1      32.818  30.353  26.030  1.00  0.00    -0.508 OA
ATOM     25  H   UNL A   1      33.729  30.368  26.251  1.00  0.00     0.293 HD
ENDBRANCH  21  24
ENDBRANCH   8  13
ENDBRANCH   6   8
ENDBRANCH   5   6
ENDBRANCH   4   5
ENDBRANCH   3   4
ENDBRANCH   2   3
ENDBRANCH   1   2
BRANCH   1  26
ATOM     26  C   UNL A   1      36.436  21.828  24.612  1.00  0.00     0.188 C 
BRANCH  26  27
ATOM     27  O   UNL A   1      37.185  21.015  25.507  1.00  0.00    -0.376 OA
BRANCH  27  28
ATOM     28  C   UNL A   1      37.764  19.822  25.012  1.00  0.00     0.202 C 
BRANCH  28  29
ATOM     29  C   UNL A   1      39.214  19.548  25.420  1.00  0.00     0.261 C 
BRANCH  29  30
ATOM     30  O   UNL A   1      39.998  20.727  25.674  1.00  0.00    -0.460 OA
BRANCH  30  31
ATOM     31  C   UNL A   1      40.738  20.687  26.809  1.00  0.00     0.338 C 
ATOM     32  O   UNL A   1      41.298  19.712  27.286  1.00  0.00    -0.246 OA
BRANCH  31  33
ATOM     33  C   UNL A   1      40.912  22.046  27.375  1.00  0.00     0.060 A 
ATOM     34  C   UNL A   1      40.210  23.095  26.766  1.00  0.00     0.016 A 
ATOM     35  C   UNL A   1      41.804  22.315  28.416  1.00  0.00     0.016 A 
ATOM     36  C   UNL A   1      40.436  24.416  27.155  1.00  0.00     0.010 A 
ATOM     37  C   UNL A   1      42.044  23.646  28.794  1.00  0.00     0.010 A 
ATOM     38  C   UNL A   1      41.390  24.706  28.138  1.00  0.00    -0.014 A 
BRANCH  38  39
ATOM     39  C   UNL A   1      41.818  26.117  28.330  1.00  0.00     0.031 A 
ATOM     40  C   UNL A   1      43.105  26.576  27.699  1.00  0.00     0.074 A 
ATOM     41  C   UNL A   1      41.058  27.003  28.995  1.00  0.00     0.049 A 
ATOM     42  N   UNL A   1      43.632  27.775  27.666  1.00  0.00    -0.248 NA
ATOM     43  C   UNL A   1      43.899  25.549  27.008  1.00  0.00     0.031 C 
ATOM     44  C   UNL A   1      39.774  26.712  29.622  1.00  0.00     0.029 A 
ATOM     45  N   UNL A   1      41.257  28.340  29.245  1.00  0.00    -0.354 N 
ATOM     46  C   UNL A   1      44.810  27.649  26.942  1.00  0.00     0.074 A 
ATOM     47  C   UNL A   1      44.939  26.252  26.585  1.00  0.00     0.031 C 
ATOM     48  C   UNL A   1      39.295  27.835  30.187  1.00  0.00     0.029 A 
ATOM     49  C   UNL A   1      40.250  28.922  29.974  1.00  0.00     0.049 A 
ATOM     50  H   UNL A   1      42.049  28.834  28.928  1.00  0.00     0.167 HD
ATOM     51  C   UNL A   1      45.702  28.607  26.593  1.00  0.00     0.031 A 
ATOM     52  C   UNL A   1      40.114  30.185  30.424  1.00  0.00     0.031 A 
ATOM     53  C   UNL A   1      45.606  29.991  26.971  1.00  0.00     0.049 A 
ATOM     54  C   UNL A   1      41.166  31.212  30.099  1.00  0.00     0.074 A 
ATOM     55  C   UNL A   1      46.467  31.031  26.660  1.00  0.00     0.029 A 
ATOM     56  N   UNL A   1      44.600  30.528  27.757  1.00  0.00    -0.354 N 
ATOM     57  N   UNL A   1      42.250  31.090  29.373  1.00  0.00    -0.248 NA
ATOM     58  C   UNL A   1      40.962  32.563  30.647  1.00  0.00     0.031 C 
ATOM     59  C   UNL A   1      46.011  32.186  27.305  1.00  0.00     0.029 A 
ATOM     60  C   UNL A   1      44.833  31.877  27.965  1.00  0.00     0.049 A 
ATOM     61  H   UNL A   1      43.833  30.024  28.114  1.00  0.00     0.167 HD
ATOM     62  C   UNL A   1      42.836  32.350  29.347  1.00  0.00     0.074 A 
ATOM     63  C   UNL A   1      41.980  33.226  30.119  1.00  0.00     0.031 C 
ATOM     64  C   UNL A   1      43.980  32.746  28.735  1.00  0.00     0.031 A 
BRANCH  51  65
ATOM     65  C   UNL A   1      46.887  28.171  25.779  1.00  0.00    -0.014 A 
ATOM     66  C   UNL A   1      48.150  28.000  26.368  1.00  0.00     0.009 A 
ATOM     67  C   UNL A   1      46.732  27.908  24.409  1.00  0.00     0.009 A 
ATOM     68  C   UNL A   1      49.242  27.606  25.592  1.00  0.00     0.001 A 
ATOM     69  C   UNL A   1      47.820  27.489  23.643  1.00  0.00     0.001 A 
ATOM     70  C   UNL A   1      49.076  27.347  24.232  1.00  0.00     0.000 A 
ENDBRANCH  51  65
BRANCH  52  71
ATOM     71  C   UNL A   1      38.934  30.564  31.246  1.00  0.00    -0.014 A 
ATOM     72  C   UNL A   1      37.768  31.060  30.642  1.00  0.00     0.009 A 
ATOM     73  C   UNL A   1      38.989  30.477  32.646  1.00  0.00     0.009 A 
ATOM     74  C   UNL A   1      36.695  31.492  31.424  1.00  0.00     0.001 A 
ATOM     75  C   UNL A   1      37.903  30.883  33.425  1.00  0.00     0.001 A 
ATOM     76  C   UNL A   1      36.761  31.401  32.814  1.00  0.00     0.000 A 
ENDBRANCH  52  71
BRANCH  64  77
ATOM     77  C   UNL A   1      44.351  34.200  28.839  1.00  0.00    -0.014 A 
ATOM     78  C   UNL A   1      45.160  34.679  29.881  1.00  0.00     0.009 A 
ATOM     79  C   UNL A   1      43.902  35.102  27.860  1.00  0.00     0.009 A 
ATOM     80  C   UNL A   1      45.475  36.039  29.964  1.00  0.00     0.001 A 
ATOM     81  C   UNL A   1      44.244  36.454  27.928  1.00  0.00     0.001 A 
ATOM     82  C   UNL A   1      45.020  36.923  28.986  1.00  0.00     0.000 A 
ENDBRANCH  64  77
ENDBRANCH  38  39
ENDBRANCH  31  33
ENDBRANCH  30  31
ENDBRANCH  29  30
ENDBRANCH  28  29
ENDBRANCH  27  28
ENDBRANCH  26  27
ENDBRANCH   1  26
TORSDOF 23
ENDMDL
MODEL 2
REMARK VINA RESULT:      -9.3      0.638      5.811
REMARK SMILES CCCC[C@@H](C(=O)OCCOCCOCCOC(=O)c1ccc(-c2c3nc(c(-c4ccccc4)c4ccc([nH]4)c(-c4ccccc4)c4nc(c(-c5ccccc5)c5ccc2[nH]5)C=C4)C=C3)cc1)[C@]1(O)COc2cc(O)ccc21
REMARK SMILES IDX 12 1 11 2 10 3 9 4 8 5 6 6 7 7 5 8 4 9 3 10 2 11 1 12 68 13
REMARK SMILES IDX 70 14 78 15 71 16 72 17 77 18 73 19 76 20 74 21 69 22 75 24
REMARK SMILES IDX 13 26 14 27 15 28 16 29 17 30 18 31 19 32 20 33 21 34 67 35
REMARK SMILES IDX 22 36 66 37 23 38 24 39 25 40 60 41 26 42 65 43 59 44 61 45
REMARK SMILES IDX 27 46 64 47 58 48 57 49 28 51 50 52 35 53 49 54 36 55 39 56
REMARK SMILES IDX 48 57 62 58 37 59 38 60 47 62 63 63 40 64 29 65 30 66 34 67
REMARK SMILES IDX 31 68 33 69 32 70 51 71 52 72 56 73 53 74 55 75 54 76 41 77
REMARK SMILES IDX 42 78 46 79 43 80 45 81 44 82
REMARK H PARENT 69 23 75 25 61 50 39 61
REMARK Flexibility Score: inf
ROOT
ATOM      1  C   UNL A   1      34.932  21.837  24.772  1.00  0.00     0.188 C 
ENDROOT
BRANCH   1   2
ATOM      2  O   UNL A   1      34.418  21.194  25.933  1.00  0.00    -0.376 OA
BRANCH   2   3
ATOM      3  C   UNL A   1      34.422  21.977  27.122  1.00  0.00     0.202 C 
BRANCH   3   4
ATOM      4  C   UNL A   1      33.035  22.476  27.525  1.00  0.00     0.261 C 
BRANCH   4   5
ATOM      5  O   UNL A   1      32.192  22.610  26.364  1.00  0.00    -0.463 OA
BRANCH   5   6
ATOM      6  C   UNL A   1      31.057  23.329  26.447  1.00  0.00     0.312 C 
ATOM      7  O   UNL A   1      30.338  23.384  27.437  1.00  0.00    -0.252 OA
BRANCH   6   8
ATOM      8  C   UNL A   1      30.775  24.113  25.170  1.00  0.00     0.139 C 
BRANCH   8   9
ATOM      9  C   UNL A   1      31.930  24.149  24.133  1.00  0.00     0.019 C 
BRANCH   9  10
ATOM     10  C   UNL A   1      31.980  23.078  23.031  1.00  0.00     0.001 C 
BRANCH  10  11
ATOM     11  C   UNL A   1      32.928  23.337  21.866  1.00  0.00    -0.003 C 
ATOM     12  C   UNL A   1      33.195  24.816  21.640  1.00  0.00     0.004 C 
ENDBRANCH  10  11
ENDBRANCH   9  10
ENDBRANCH   8   9
BRANCH   8  13
ATOM     13  C   UNL A   1      30.099  25.500  25.461  1.00  0.00     0.140 C 
ATOM     14  C   UNL A   1      29.352  26.191  24.283  1.00  0.00     0.270 C 
ATOM     15  C   UNL A   1      31.000  26.663  25.777  1.00  0.00     0.030 A 
ATOM     16  O   UNL A   1      30.253  27.124  23.643  1.00  0.00    -0.490 OA
ATOM     17  C   UNL A   1      31.032  27.535  24.694  1.00  0.00     0.129 A 
ATOM     18  C   UNL A   1      31.749  26.949  26.911  1.00  0.00     0.014 A 
ATOM     19  C   UNL A   1      31.809  28.677  24.677  1.00  0.00     0.093 A 
ATOM     20  C   UNL A   1      32.541  28.104  26.922  1.00  0.00     0.047 A 
ATOM     21  C   UNL A   1      32.569  28.951  25.807  1.00  0.00     0.119 A 
BRANCH  13  22
ATOM     22  O   UNL A   1      29.148  25.315  26.517  1.00  0.00    -0.381 OA
ATOM     23  H   UNL A   1      29.028  26.150  26.996  1.00  0.00     0.212 HD
ENDBRANCH  13  22
BRANCH  21  24
ATOM     24  O   UNL A   1      33.353  30.068  25.788  1.00  0.00    -0.508 OA
ATOM     25  H   UNL A   1      32.962  30.914  25.686  1.00  0.00     0.293 HD
ENDBRANCH  21  24
ENDBRANCH   8  13
ENDBRANCH   6   8
ENDBRANCH   5   6
ENDBRANCH   4   5
ENDBRANCH   3   4
ENDBRANCH   2   3
ENDBRANCH   1   2
BRANCH   1  26
ATOM     26  C   UNL A   1      36.467  21.907  24.740  1.00  0.00     0.188 C 
BRANCH  26  27
ATOM     27  O   UNL A   1      37.258  21.055  25.560  1.00  0.00    -0.376 OA
BRANCH  27  28
ATOM     28  C   UNL A   1      37.670  19.807  25.036  1.00  0.00     0.202 C 
BRANCH  28  29
ATOM     29  C   UNL A   1      39.011  19.266  25.540  1.00  0.00     0.261 C 
BRANCH  29  30
ATOM     30  O   UNL A   1      40.043  20.259  25.682  1.00  0.00    -0.460 OA
BRANCH  30  31
ATOM     31  C   UNL A   1      40.619  20.314  26.907  1.00  0.00     0.338 C 
ATOM     32  O   UNL A   1      41.006  19.370  27.579  1.00  0.00    -0.246 OA
BRANCH  31  33
ATOM     33  C   UNL A   1      40.859  21.718  27.315  1.00  0.00     0.060 A 
ATOM     34  C   UNL A   1      40.263  22.727  26.546  1.00  0.00     0.016 A 
ATOM     35  C   UNL A   1      41.716  22.057  28.366  1.00  0.00     0.016 A 
ATOM     36  C   UNL A   1      40.561  24.068  26.787  1.00  0.00     0.010 A 
ATOM     37  C   UNL A   1      42.030  23.406  28.596  1.00  0.00     0.010 A 
ATOM     38  C   UNL A   1      41.484  24.416  27.782  1.00  0.00    -0.014 A 
BRANCH  38  39
ATOM     39  C   UNL A   1      41.999  25.810  27.828  1.00  0.00     0.031 A 
ATOM     40  C   UNL A   1      41.223  26.845  28.597  1.00  0.00     0.074 A 
ATOM     41  C   UNL A   1      43.167  26.153  27.257  1.00  0.00     0.049 A 
ATOM     42  N   UNL A   1      41.522  28.097  28.840  1.00  0.00    -0.248 NA
ATOM     43  C   UNL A   1      39.943  26.408  29.175  1.00  0.00     0.031 C 
ATOM     44  C   UNL A   1      44.042  25.251  26.517  1.00  0.00     0.029 A 
ATOM     45  N   UNL A   1      43.822  27.360  27.222  1.00  0.00    -0.354 N 
ATOM     46  C   UNL A   1      40.477  28.592  29.608  1.00  0.00     0.074 A 
ATOM     47  C   UNL A   1      39.519  27.519  29.760  1.00  0.00     0.031 C 
ATOM     48  C   UNL A   1      45.122  25.933  26.097  1.00  0.00     0.029 A 
ATOM     49  C   UNL A   1      45.006  27.326  26.526  1.00  0.00     0.049 A 
ATOM     50  H   UNL A   1      43.475  28.175  27.655  1.00  0.00     0.167 HD
ATOM     51  C   UNL A   1      40.327  29.825  30.148  1.00  0.00     0.031 A 
ATOM     52  C   UNL A   1      45.893  28.305  26.262  1.00  0.00     0.031 A 
ATOM     53  C   UNL A   1      41.252  30.913  29.975  1.00  0.00     0.049 A 
ATOM     54  C   UNL A   1      45.659  29.692  26.799  1.00  0.00     0.074 A 
ATOM     55  C   UNL A   1      41.178  32.198  30.488  1.00  0.00     0.029 A 
ATOM     56  N   UNL A   1      42.410  30.852  29.218  1.00  0.00    -0.354 N 
ATOM     57  N   UNL A   1      44.690  30.134  27.563  1.00  0.00    -0.248 NA
ATOM     58  C   UNL A   1      46.657  30.715  26.447  1.00  0.00     0.031 C 
ATOM     59  C   UNL A   1      42.264  32.930  29.996  1.00  0.00     0.029 A 
ATOM     60  C   UNL A   1      43.045  32.084  29.227  1.00  0.00     0.049 A 
ATOM     61  H   UNL A   1      42.734  30.052  28.744  1.00  0.00     0.167 HD
ATOM     62  C   UNL A   1      44.980  31.471  27.811  1.00  0.00     0.074 A 
ATOM     63  C   UNL A   1      46.221  31.765  27.127  1.00  0.00     0.031 C 
ATOM     64  C   UNL A   1      44.280  32.373  28.544  1.00  0.00     0.031 A 
BRANCH  51  65
ATOM     65  C   UNL A   1      39.086  30.068  30.959  1.00  0.00    -0.014 A 
ATOM     66  C   UNL A   1      37.954  30.673  30.391  1.00  0.00     0.009 A 
ATOM     67  C   UNL A   1      39.042  29.667  32.303  1.00  0.00     0.009 A 
ATOM     68  C   UNL A   1      36.814  30.902  31.164  1.00  0.00     0.001 A 
ATOM     69  C   UNL A   1      37.892  29.873  33.065  1.00  0.00     0.001 A 
ATOM     70  C   UNL A   1      36.782  30.498  32.498  1.00  0.00     0.000 A 
ENDBRANCH  51  65
BRANCH  52  71
ATOM     71  C   UNL A   1      47.096  28.022  25.435  1.00  0.00    -0.014 A 
ATOM     72  C   UNL A   1      47.006  27.952  24.036  1.00  0.00     0.009 A 
ATOM     73  C   UNL A   1      48.333  27.770  26.049  1.00  0.00     0.009 A 
ATOM     74  C   UNL A   1      48.122  27.604  23.272  1.00  0.00     0.001 A 
ATOM     75  C   UNL A   1      49.454  27.450  25.280  1.00  0.00     0.001 A 
ATOM     76  C   UNL A   1      49.345  27.356  23.893  1.00  0.00     0.000 A 
ENDBRANCH  52  71
BRANCH  64  77
ATOM     77  C   UNL A   1      44.863  33.752  28.680  1.00  0.00    -0.014 A 
ATOM     78  C   UNL A   1      45.759  34.073  29.712  1.00  0.00     0.009 A 
ATOM     79  C   UNL A   1      44.528  34.743  27.743  1.00  0.00     0.009 A 
ATOM     80  C   UNL A   1      46.273  35.368  29.827  1.00  0.00     0.001 A 
ATOM     81  C   UNL A   1      45.066  36.027  27.842  1.00  0.00     0.001 A 
ATOM     82  C   UNL A   1      45.928  36.342  28.890  1.00  0.00     0.000 A 
ENDBRANCH  64  77
ENDBRANCH  38  39
ENDBRANCH  31  33
ENDBRANCH  30  31
ENDBRANCH  29  30
ENDBRANCH  28  29
ENDBRANCH  27  28
ENDBRANCH  26  27
ENDBRANCH   1  26
TORSDOF 23
ENDMDL
MODEL 3
REMARK VINA RESULT:      -9.1      5.002      8.595
REMARK SMILES CCCC[C@@H](C(=O)OCCOCCOCCOC(=O)c1ccc(-c2c3nc(c(-c4ccccc4)c4ccc([nH]4)c(-c4ccccc4)c4nc(c(-c5ccccc5)c5ccc2[nH]5)C=C4)C=C3)cc1)[C@]1(O)COc2cc(O)ccc21
REMARK SMILES IDX 12 1 11 2 10 3 9 4 8 5 6 6 7 7 5 8 4 9 3 10 2 11 1 12 68 13
REMARK SMILES IDX 70 14 78 15 71 16 72 17 77 18 73 19 76 20 74 21 69 22 75 24
REMARK SMILES IDX 13 26 14 27 15 28 16 29 17 30 18 31 19 32 20 33 21 34 67 35
REMARK SMILES IDX 22 36 66 37 23 38 24 39 25 40 60 41 26 42 65 43 59 44 61 45
REMARK SMILES IDX 27 46 64 47 58 48 57 49 28 51 50 52 35 53 49 54 36 55 39 56
REMARK SMILES IDX 48 57 62 58 37 59 38 60 47 62 63 63 40 64 29 65 30 66 34 67
REMARK SMILES IDX 31 68 33 69 32 70 51 71 52 72 56 73 53 74 55 75 54 76 41 77
REMARK SMILES IDX 42 78 46 79 43 80 45 81 44 82
REMARK H PARENT 69 23 75 25 61 50 39 61
REMARK Flexibility Score: inf
ROOT
ATOM      1  C   UNL A   1      42.822  24.829  25.247  1.00  0.00     0.188 C 
ENDROOT
BRANCH   1   2
ATOM      2  O   UNL A   1      42.436  26.195  25.348  1.00  0.00    -0.376 OA
BRANCH   2   3
ATOM      3  C   UNL A   1      41.225  26.441  26.054  1.00  0.00     0.202 C 
BRANCH   3   4
ATOM      4  C   UNL A   1      41.330  27.586  27.060  1.00  0.00     0.261 C 
BRANCH   4   5
ATOM      5  O   UNL A   1      40.017  28.023  27.463  1.00  0.00    -0.463 OA
BRANCH   5   6
ATOM      6  C   UNL A   1      39.566  27.721  28.695  1.00  0.00     0.312 C 
ATOM      7  O   UNL A   1      39.893  26.729  29.333  1.00  0.00    -0.252 OA
BRANCH   6   8
ATOM      8  C   UNL A   1      38.618  28.784  29.239  1.00  0.00     0.139 C 
BRANCH   8   9
ATOM      9  C   UNL A   1      37.807  29.572  28.175  1.00  0.00     0.019 C 
BRANCH   9  10
ATOM     10  C   UNL A   1      36.309  29.823  28.411  1.00  0.00     0.001 C 
BRANCH  10  11
ATOM     11  C   UNL A   1      35.674  30.966  27.627  1.00  0.00    -0.003 C 
ATOM     12  C   UNL A   1      35.182  32.092  28.518  1.00  0.00     0.004 C 
ENDBRANCH  10  11
ENDBRANCH   9  10
ENDBRANCH   8   9
BRANCH   8  13
ATOM     13  C   UNL A   1      39.290  29.667  30.352  1.00  0.00     0.140 C 
ATOM     14  C   UNL A   1      39.082  29.230  31.831  1.00  0.00     0.270 C 
ATOM     15  C   UNL A   1      38.779  31.071  30.530  1.00  0.00     0.030 A 
ATOM     16  O   UNL A   1      37.960  29.959  32.379  1.00  0.00    -0.490 OA
ATOM     17  C   UNL A   1      38.035  31.149  31.703  1.00  0.00     0.129 A 
ATOM     18  C   UNL A   1      38.934  32.201  29.739  1.00  0.00     0.014 A 
ATOM     19  C   UNL A   1      37.405  32.309  32.112  1.00  0.00     0.093 A 
ATOM     20  C   UNL A   1      38.310  33.392  30.133  1.00  0.00     0.047 A 
ATOM     21  C   UNL A   1      37.548  33.433  31.308  1.00  0.00     0.119 A 
BRANCH  13  22
ATOM     22  O   UNL A   1      40.702  29.685  30.107  1.00  0.00    -0.381 OA
ATOM     23  H   UNL A   1      40.983  30.589  29.896  1.00  0.00     0.212 HD
ENDBRANCH  13  22
BRANCH  21  24
ATOM     24  O   UNL A   1      36.911  34.576  31.696  1.00  0.00    -0.508 OA
ATOM     25  H   UNL A   1      36.668  35.217  31.057  1.00  0.00     0.293 HD
ENDBRANCH  21  24
ENDBRANCH   8  13
ENDBRANCH   6   8
ENDBRANCH   5   6
ENDBRANCH   4   5
ENDBRANCH   3   4
ENDBRANCH   2   3
ENDBRANCH   1   2
BRANCH   1  26
ATOM     26  C   UNL A   1      44.306  24.587  25.565  1.00  0.00     0.188 C 
BRANCH  26  27
ATOM     27  O   UNL A   1      45.325  24.974  24.652  1.00  0.00    -0.376 OA
BRANCH  27  28
ATOM     28  C   UNL A   1      46.668  24.967  25.096  1.00  0.00     0.202 C 
BRANCH  28  29
ATOM     29  C   UNL A   1      47.670  25.756  24.250  1.00  0.00     0.261 C 
BRANCH  29  30
ATOM     30  O   UNL A   1      48.078  27.013  24.820  1.00  0.00    -0.460 OA
BRANCH  30  31
ATOM     31  C   UNL A   1      47.142  27.992  24.775  1.00  0.00     0.338 C 
ATOM     32  O   UNL A   1      46.778  28.614  23.788  1.00  0.00    -0.246 OA
BRANCH  31  33
ATOM     33  C   UNL A   1      46.481  28.153  26.091  1.00  0.00     0.060 A 
ATOM     34  C   UNL A   1      45.080  28.124  26.118  1.00  0.00     0.016 A 
ATOM     35  C   UNL A   1      47.196  28.417  27.262  1.00  0.00     0.016 A 
ATOM     36  C   UNL A   1      44.390  28.411  27.297  1.00  0.00     0.010 A 
ATOM     37  C   UNL A   1      46.501  28.723  28.443  1.00  0.00     0.010 A 
ATOM     38  C   UNL A   1      45.094  28.760  28.456  1.00  0.00    -0.014 A 
BRANCH  38  39
ATOM     39  C   UNL A   1      44.346  29.336  29.605  1.00  0.00     0.031 A 
ATOM     40  C   UNL A   1      43.916  30.777  29.541  1.00  0.00     0.074 A 
ATOM     41  C   UNL A   1      43.991  28.589  30.665  1.00  0.00     0.049 A 
ATOM     42  N   UNL A   1      43.188  31.465  30.386  1.00  0.00    -0.248 NA
ATOM     43  C   UNL A   1      44.360  31.542  28.366  1.00  0.00     0.031 C 
ATOM     44  C   UNL A   1      44.302  27.176  30.844  1.00  0.00     0.029 A 
ATOM     45  N   UNL A   1      43.277  28.922  31.792  1.00  0.00    -0.354 N 
ATOM     46  C   UNL A   1      43.076  32.736  29.839  1.00  0.00     0.074 A 
ATOM     47  C   UNL A   1      43.840  32.736  28.609  1.00  0.00     0.031 C 
ATOM     48  C   UNL A   1      43.784  26.757  32.013  1.00  0.00     0.029 A 
ATOM     49  C   UNL A   1      43.118  27.880  32.671  1.00  0.00     0.049 A 
ATOM     50  H   UNL A   1      42.914  29.824  31.952  1.00  0.00     0.167 HD
ATOM     51  C   UNL A   1      42.393  33.807  30.307  1.00  0.00     0.031 A 
ATOM     52  C   UNL A   1      42.508  27.835  33.872  1.00  0.00     0.031 A 
ATOM     53  C   UNL A   1      41.660  33.834  31.544  1.00  0.00     0.049 A 
ATOM     54  C   UNL A   1      41.831  29.067  34.414  1.00  0.00     0.074 A 
ATOM     55  C   UNL A   1      40.937  34.879  32.096  1.00  0.00     0.029 A 
ATOM     56  N   UNL A   1      41.570  32.775  32.432  1.00  0.00    -0.354 N 
ATOM     57  N   UNL A   1      41.693  30.248  33.863  1.00  0.00    -0.248 NA
ATOM     58  C   UNL A   1      41.210  28.949  35.743  1.00  0.00     0.031 C 
ATOM     59  C   UNL A   1      40.456  34.470  33.344  1.00  0.00     0.029 A 
ATOM     60  C   UNL A   1      40.828  33.150  33.540  1.00  0.00     0.049 A 
ATOM     61  H   UNL A   1      41.973  31.887  32.295  1.00  0.00     0.167 HD
ATOM     62  C   UNL A   1      40.941  31.000  34.760  1.00  0.00     0.074 A 
ATOM     63  C   UNL A   1      40.643  30.138  35.883  1.00  0.00     0.031 C 
ATOM     64  C   UNL A   1      40.533  32.289  34.658  1.00  0.00     0.031 A 
BRANCH  51  65
ATOM     65  C   UNL A   1      42.437  35.060  29.479  1.00  0.00    -0.014 A 
ATOM     66  C   UNL A   1      41.465  35.319  28.501  1.00  0.00     0.009 A 
ATOM     67  C   UNL A   1      43.455  36.002  29.694  1.00  0.00     0.009 A 
ATOM     68  C   UNL A   1      41.530  36.483  27.732  1.00  0.00     0.001 A 
ATOM     69  C   UNL A   1      43.502  37.176  28.942  1.00  0.00     0.001 A 
ATOM     70  C   UNL A   1      42.546  37.412  27.956  1.00  0.00     0.000 A 
ENDBRANCH  51  65
BRANCH  52  71
ATOM     71  C   UNL A   1      42.510  26.578  34.667  1.00  0.00    -0.014 A 
ATOM     72  C   UNL A   1      41.306  26.011  35.114  1.00  0.00     0.009 A 
ATOM     73  C   UNL A   1      43.722  25.967  35.023  1.00  0.00     0.009 A 
ATOM     74  C   UNL A   1      41.319  24.877  35.929  1.00  0.00     0.001 A 
ATOM     75  C   UNL A   1      43.730  24.816  35.814  1.00  0.00     0.001 A 
ATOM     76  C   UNL A   1      42.530  24.279  36.276  1.00  0.00     0.000 A 
ENDBRANCH  52  71
BRANCH  64  77
ATOM     77  C   UNL A   1      39.682  32.834  35.771  1.00  0.00    -0.014 A 
ATOM     78  C   UNL A   1      40.246  33.510  36.865  1.00  0.00     0.009 A 
ATOM     79  C   UNL A   1      38.286  32.690  35.711  1.00  0.00     0.009 A 
ATOM     80  C   UNL A   1      39.433  33.991  37.895  1.00  0.00     0.001 A 
ATOM     81  C   UNL A   1      37.474  33.199  36.727  1.00  0.00     0.001 A 
ATOM     82  C   UNL A   1      38.049  33.838  37.823  1.00  0.00     0.000 A 
ENDBRANCH  64  77
ENDBRANCH  38  39
ENDBRANCH  31  33
ENDBRANCH  30  31
ENDBRANCH  29  30
ENDBRANCH  28  29
ENDBRANCH  27  28
ENDBRANCH  26  27
ENDBRANCH   1  26
TORSDOF 23
ENDMDL
