MODEL 1
REMARK VINA RESULT:     -10.7      0.000      0.000
REMARK SMILES O=C(CCCN1C(=O)c2ccc3c4c(ccc(c24)C1=O)C(=O)NC3=O)OCCOCCOCCOC(=O)c1ccc(-c2c3nc(c(-c4ccccc4)c4ccc([nH]4)c(-c4ccccc4)c4nc(c(-c5ccccc5)c5ccc2[nH]5)C=C4)C=C3)cc1
REMARK SMILES IDX 30 1 29 2 28 3 27 4 26 5 2 6 1 7 3 8 4 9 5 10 6 11 19 12
REMARK SMILES IDX 7 13 20 14 17 15 9 16 8 17 16 18 18 19 10 20 15 21 13 22
REMARK SMILES IDX 11 23 14 24 12 25 21 26 24 27 23 28 22 29 25 30 31 32 32 33
REMARK SMILES IDX 33 34 34 35 35 36 36 37 37 38 38 39 39 40 85 41 40 42 84 43
REMARK SMILES IDX 41 44 42 45 43 46 78 47 44 48 83 49 77 50 79 51 45 52 82 53
REMARK SMILES IDX 76 54 75 55 46 57 68 58 53 59 67 60 54 61 57 62 66 63 80 64
REMARK SMILES IDX 55 65 56 66 65 68 81 69 58 70 47 71 48 72 52 73 49 74 51 75
REMARK SMILES IDX 50 76 69 77 70 78 74 79 71 80 73 81 72 82 59 83 60 84 64 85
REMARK SMILES IDX 61 86 63 87 62 88
REMARK H PARENT 23 31 79 56 57 67
REMARK Flexibility Score: inf
ROOT
ATOM      1  C   UNL A   1      39.953  21.812  26.854  1.00  0.00     0.188 C 
ENDROOT
BRANCH   1   2
ATOM      2  O   UNL A   1      39.031  22.503  26.009  1.00  0.00    -0.376 OA
BRANCH   2   3
ATOM      3  C   UNL A   1      37.844  21.787  25.673  1.00  0.00     0.202 C 
BRANCH   3   4
ATOM      4  C   UNL A   1      37.324  21.988  24.252  1.00  0.00     0.261 C 
BRANCH   4   5
ATOM      5  O   UNL A   1      36.377  23.050  24.000  1.00  0.00    -0.463 OA
BRANCH   5   6
ATOM      6  C   UNL A   1      35.094  22.938  23.618  1.00  0.00     0.305 C 
ATOM      7  O   UNL A   1      34.680  23.603  22.670  1.00  0.00    -0.252 OA
BRANCH   6   8
ATOM      8  C   UNL A   1      34.228  21.877  24.255  1.00  0.00     0.124 C 
BRANCH   8   9
ATOM      9  C   UNL A   1      33.306  22.367  25.366  1.00  0.00     0.034 C 
BRANCH   9  10
ATOM     10  C   UNL A   1      33.435  23.825  25.845  1.00  0.00     0.130 C 
BRANCH  10  11
ATOM     11  N   UNL A   1      32.512  24.836  25.304  1.00  0.00    -0.274 N 
ATOM     12  C   UNL A   1      33.094  25.993  24.775  1.00  0.00     0.261 C 
ATOM     13  C   UNL A   1      31.149  24.752  25.580  1.00  0.00     0.261 C 
ATOM     14  O   UNL A   1      34.290  26.262  24.848  1.00  0.00    -0.269 OA
ATOM     15  C   UNL A   1      32.205  26.939  24.066  1.00  0.00     0.049 A 
ATOM     16  C   UNL A   1      30.265  25.762  24.940  1.00  0.00     0.049 A 
ATOM     17  O   UNL A   1      30.643  23.914  26.319  1.00  0.00    -0.269 OA
ATOM     18  C   UNL A   1      32.759  27.958  23.277  1.00  0.00     0.015 A 
ATOM     19  C   UNL A   1      30.822  26.792  24.174  1.00  0.00     0.009 A 
ATOM     20  C   UNL A   1      28.874  25.657  25.076  1.00  0.00     0.015 A 
ATOM     21  C   UNL A   1      31.929  28.839  22.587  1.00  0.00     0.015 A 
ATOM     22  C   UNL A   1      29.972  27.708  23.502  1.00  0.00     0.009 A 
ATOM     23  C   UNL A   1      28.034  26.571  24.440  1.00  0.00     0.015 A 
ATOM     24  C   UNL A   1      30.542  28.714  22.702  1.00  0.00     0.048 A 
ATOM     25  C   UNL A   1      28.583  27.586  23.650  1.00  0.00     0.048 A 
ATOM     26  C   UNL A   1      29.655  29.638  21.959  1.00  0.00     0.258 C 
ATOM     27  C   UNL A   1      27.688  28.547  22.959  1.00  0.00     0.258 C 
ATOM     28  N   UNL A   1      28.308  29.491  22.170  1.00  0.00    -0.288 N 
ATOM     29  O   UNL A   1      30.110  30.473  21.183  1.00  0.00    -0.269 OA
ATOM     30  O   UNL A   1      26.477  28.493  23.078  1.00  0.00    -0.269 OA
ATOM     31  H   UNL A   1      27.720  30.131  21.708  1.00  0.00     0.173 HD
ENDBRANCH  10  11
ENDBRANCH   9  10
ENDBRANCH   8   9
ENDBRANCH   6   8
ENDBRANCH   5   6
ENDBRANCH   4   5
ENDBRANCH   3   4
ENDBRANCH   2   3
ENDBRANCH   1   2
BRANCH   1  32
ATOM     32  C   UNL A   1      40.383  20.430  26.346  1.00  0.00     0.188 C 
BRANCH  32  33
ATOM     33  O   UNL A   1      41.702  20.438  25.799  1.00  0.00    -0.376 OA
BRANCH  33  34
ATOM     34  C   UNL A   1      42.592  21.320  26.490  1.00  0.00     0.202 C 
BRANCH  34  35
ATOM     35  C   UNL A   1      43.517  22.157  25.580  1.00  0.00     0.261 C 
BRANCH  35  36
ATOM     36  O   UNL A   1      42.922  23.295  24.930  1.00  0.00    -0.460 OA
BRANCH  36  37
ATOM     37  C   UNL A   1      43.589  24.460  25.054  1.00  0.00     0.338 C 
ATOM     38  O   UNL A   1      44.686  24.724  24.579  1.00  0.00    -0.246 OA
BRANCH  37  39
ATOM     39  C   UNL A   1      42.774  25.444  25.793  1.00  0.00     0.060 A 
ATOM     40  C   UNL A   1      43.309  26.714  26.033  1.00  0.00     0.016 A 
ATOM     41  C   UNL A   1      41.571  25.060  26.392  1.00  0.00     0.016 A 
ATOM     42  C   UNL A   1      42.672  27.584  26.922  1.00  0.00     0.010 A 
ATOM     43  C   UNL A   1      40.940  25.929  27.292  1.00  0.00     0.010 A 
ATOM     44  C   UNL A   1      41.517  27.174  27.601  1.00  0.00    -0.014 A 
BRANCH  44  45
ATOM     45  C   UNL A   1      41.067  27.946  28.789  1.00  0.00     0.031 A 
ATOM     46  C   UNL A   1      41.839  27.797  30.076  1.00  0.00     0.074 A 
ATOM     47  C   UNL A   1      40.035  28.806  28.728  1.00  0.00     0.049 A 
ATOM     48  N   UNL A   1      41.685  28.419  31.217  1.00  0.00    -0.248 NA
ATOM     49  C   UNL A   1      42.937  26.816  30.068  1.00  0.00     0.031 C 
ATOM     50  C   UNL A   1      39.231  29.081  27.539  1.00  0.00     0.029 A 
ATOM     51  N   UNL A   1      39.497  29.617  29.697  1.00  0.00    -0.354 N 
ATOM     52  C   UNL A   1      42.666  27.909  32.060  1.00  0.00     0.074 A 
ATOM     53  C   UNL A   1      43.388  26.904  31.310  1.00  0.00     0.031 C 
ATOM     54  C   UNL A   1      38.303  30.005  27.848  1.00  0.00     0.029 A 
ATOM     55  C   UNL A   1      38.437  30.371  29.258  1.00  0.00     0.049 A 
ATOM     56  H   UNL A   1      39.839  29.653  30.619  1.00  0.00     0.167 HD
ATOM     57  C   UNL A   1      42.951  28.247  33.340  1.00  0.00     0.031 A 
ATOM     58  C   UNL A   1      37.665  31.256  29.918  1.00  0.00     0.031 A 
ATOM     59  C   UNL A   1      42.222  29.223  34.104  1.00  0.00     0.049 A 
ATOM     60  C   UNL A   1      37.951  31.560  31.367  1.00  0.00     0.074 A 
ATOM     61  C   UNL A   1      42.438  29.640  35.406  1.00  0.00     0.029 A 
ATOM     62  N   UNL A   1      41.122  29.924  33.636  1.00  0.00    -0.354 N 
ATOM     63  N   UNL A   1      38.909  31.103  32.137  1.00  0.00    -0.248 NA
ATOM     64  C   UNL A   1      37.053  32.517  32.031  1.00  0.00     0.031 C 
ATOM     65  C   UNL A   1      41.434  30.555  35.744  1.00  0.00     0.029 A 
ATOM     66  C   UNL A   1      40.631  30.752  34.632  1.00  0.00     0.049 A 
ATOM     67  H   UNL A   1      40.744  29.846  32.730  1.00  0.00     0.167 HD
ATOM     68  C   UNL A   1      38.755  31.749  33.359  1.00  0.00     0.074 A 
ATOM     69  C   UNL A   1      37.614  32.630  33.227  1.00  0.00     0.031 C 
ATOM     70  C   UNL A   1      39.498  31.629  34.486  1.00  0.00     0.031 A 
BRANCH  57  71
ATOM     71  C   UNL A   1      44.080  27.512  34.007  1.00  0.00    -0.014 A 
ATOM     72  C   UNL A   1      43.917  26.204  34.491  1.00  0.00     0.009 A 
ATOM     73  C   UNL A   1      45.328  28.137  34.150  1.00  0.00     0.009 A 
ATOM     74  C   UNL A   1      44.969  25.555  35.143  1.00  0.00     0.001 A 
ATOM     75  C   UNL A   1      46.386  27.475  34.777  1.00  0.00     0.001 A 
ATOM     76  C   UNL A   1      46.201  26.190  35.283  1.00  0.00     0.000 A 
ENDBRANCH  57  71
BRANCH  58  77
ATOM     77  C   UNL A   1      36.546  31.941  29.218  1.00  0.00    -0.014 A 
ATOM     78  C   UNL A   1      36.716  33.230  28.689  1.00  0.00     0.009 A 
ATOM     79  C   UNL A   1      35.295  31.318  29.098  1.00  0.00     0.009 A 
ATOM     80  C   UNL A   1      35.648  33.891  28.076  1.00  0.00     0.001 A 
ATOM     81  C   UNL A   1      34.235  31.970  28.462  1.00  0.00     0.001 A 
ATOM     82  C   UNL A   1      34.411  33.259  27.960  1.00  0.00     0.000 A 
ENDBRANCH  58  77
BRANCH  70  83
ATOM     83  C   UNL A   1      39.138  32.512  35.651  1.00  0.00    -0.014 A 
ATOM     84  C   UNL A   1      38.370  32.037  36.724  1.00  0.00     0.009 A 
ATOM     85  C   UNL A   1      39.610  33.834  35.686  1.00  0.00     0.009 A 
ATOM     86  C   UNL A   1      38.049  32.881  37.791  1.00  0.00     0.001 A 
ATOM     87  C   UNL A   1      39.314  34.665  36.766  1.00  0.00     0.001 A 
ATOM     88  C   UNL A   1      38.524  34.192  37.812  1.00  0.00     0.000 A 
ENDBRANCH  70  83
ENDBRANCH  44  45
ENDBRANCH  37  39
ENDBRANCH  36  37
ENDBRANCH  35  36
ENDBRANCH  34  35
ENDBRANCH  33  34
ENDBRANCH  32  33
ENDBRANCH   1  32
TORSDOF 20
ENDMDL
MODEL 2
REMARK VINA RESULT:     -10.6      2.754     10.121
REMARK SMILES O=C(CCCN1C(=O)c2ccc3c4c(ccc(c24)C1=O)C(=O)NC3=O)OCCOCCOCCOC(=O)c1ccc(-c2c3nc(c(-c4ccccc4)c4ccc([nH]4)c(-c4ccccc4)c4nc(c(-c5ccccc5)c5ccc2[nH]5)C=C4)C=C3)cc1
REMARK SMILES IDX 30 1 29 2 28 3 27 4 26 5 2 6 1 7 3 8 4 9 5 10 6 11 19 12
REMARK SMILES IDX 7 13 20 14 17 15 9 16 8 17 16 18 18 19 10 20 15 21 13 22
REMARK SMILES IDX 11 23 14 24 12 25 21 26 24 27 23 28 22 29 25 30 31 32 32 33
REMARK SMILES IDX 33 34 34 35 35 36 36 37 37 38 38 39 39 40 85 41 40 42 84 43
REMARK SMILES IDX 41 44 42 45 43 46 78 47 44 48 83 49 77 50 79 51 45 52 82 53
REMARK SMILES IDX 76 54 75 55 46 57 68 58 53 59 67 60 54 61 57 62 66 63 80 64
REMARK SMILES IDX 55 65 56 66 65 68 81 69 58 70 47 71 48 72 52 73 49 74 51 75
REMARK SMILES IDX 50 76 69 77 70 78 74 79 71 80 73 81 72 82 59 83 60 84 64 85
REMARK SMILES IDX 61 86 63 87 62 88
REMARK H PARENT 23 31 79 56 57 67
REMARK Flexibility Score: inf
ROOT
ATOM      1  C   UNL A   1      33.553  27.168  24.837  1.00  0.00     0.188 C 
ENDROOT
BRANCH   1   2
ATOM      2  O   UNL A   1      33.178  25.845  24.454  1.00  0.00    -0.376 OA
BRANCH   2   3
ATOM      3  C   UNL A   1      33.710  25.386  23.213  1.00  0.00     0.202 C 
BRANCH   3   4
ATOM      4  C   UNL A   1      34.035  23.896  23.136  1.00  0.00     0.261 C 
BRANCH   4   5
ATOM      5  O   UNL A   1      35.207  23.402  23.824  1.00  0.00    -0.463 OA
BRANCH   5   6
ATOM      6  C   UNL A   1      35.265  22.789  25.018  1.00  0.00     0.305 C 
ATOM      7  O   UNL A   1      34.732  21.691  25.165  1.00  0.00    -0.252 OA
BRANCH   6   8
ATOM      8  C   UNL A   1      36.122  23.386  26.109  1.00  0.00     0.124 C 
BRANCH   8   9
ATOM      9  C   UNL A   1      37.522  23.812  25.681  1.00  0.00     0.034 C 
BRANCH   9  10
ATOM     10  C   UNL A   1      38.606  23.981  26.761  1.00  0.00     0.130 C 
BRANCH  10  11
ATOM     11  N   UNL A   1      40.008  23.701  26.412  1.00  0.00    -0.274 N 
ATOM     12  C   UNL A   1      40.466  22.402  26.658  1.00  0.00     0.261 C 
ATOM     13  C   UNL A   1      40.878  24.754  26.134  1.00  0.00     0.261 C 
ATOM     14  O   UNL A   1      39.821  21.541  27.249  1.00  0.00    -0.269 OA
ATOM     15  C   UNL A   1      41.811  22.048  26.153  1.00  0.00     0.049 A 
ATOM     16  C   UNL A   1      42.260  24.397  25.714  1.00  0.00     0.049 A 
ATOM     17  O   UNL A   1      40.581  25.940  26.223  1.00  0.00    -0.269 OA
ATOM     18  C   UNL A   1      42.208  20.703  26.114  1.00  0.00     0.015 A 
ATOM     19  C   UNL A   1      42.662  23.057  25.700  1.00  0.00     0.009 A 
ATOM     20  C   UNL A   1      43.144  25.403  25.300  1.00  0.00     0.015 A 
ATOM     21  C   UNL A   1      43.463  20.358  25.617  1.00  0.00     0.015 A 
ATOM     22  C   UNL A   1      43.954  22.714  25.227  1.00  0.00     0.009 A 
ATOM     23  C   UNL A   1      44.426  25.074  24.859  1.00  0.00     0.015 A 
ATOM     24  C   UNL A   1      44.332  21.361  25.178  1.00  0.00     0.048 A 
ATOM     25  C   UNL A   1      44.824  23.734  24.815  1.00  0.00     0.048 A 
ATOM     26  C   UNL A   1      45.661  20.998  24.636  1.00  0.00     0.258 C 
ATOM     27  C   UNL A   1      46.182  23.384  24.330  1.00  0.00     0.258 C 
ATOM     28  N   UNL A   1      46.479  22.041  24.282  1.00  0.00    -0.288 N 
ATOM     29  O   UNL A   1      45.994  19.826  24.496  1.00  0.00    -0.269 OA
ATOM     30  O   UNL A   1      46.978  24.239  23.985  1.00  0.00    -0.269 OA
ATOM     31  H   UNL A   1      47.378  21.801  23.959  1.00  0.00     0.173 HD
ENDBRANCH  10  11
ENDBRANCH   9  10
ENDBRANCH   8   9
ENDBRANCH   6   8
ENDBRANCH   5   6
ENDBRANCH   4   5
ENDBRANCH   3   4
ENDBRANCH   2   3
ENDBRANCH   1   2
BRANCH   1  32
ATOM     32  C   UNL A   1      32.393  28.167  24.933  1.00  0.00     0.188 C 
BRANCH  32  33
ATOM     33  O   UNL A   1      32.843  29.500  25.174  1.00  0.00    -0.376 OA
BRANCH  33  34
ATOM     34  C   UNL A   1      31.960  30.248  26.016  1.00  0.00     0.202 C 
BRANCH  34  35
ATOM     35  C   UNL A   1      32.623  30.878  27.259  1.00  0.00     0.261 C 
BRANCH  35  36
ATOM     36  O   UNL A   1      33.984  30.492  27.528  1.00  0.00    -0.460 OA
BRANCH  36  37
ATOM     37  C   UNL A   1      34.801  31.473  27.962  1.00  0.00     0.338 C 
ATOM     38  O   UNL A   1      34.515  32.657  28.081  1.00  0.00    -0.246 OA
BRANCH  37  39
ATOM     39  C   UNL A   1      36.106  30.915  28.366  1.00  0.00     0.060 A 
ATOM     40  C   UNL A   1      36.134  29.685  29.031  1.00  0.00     0.016 A 
ATOM     41  C   UNL A   1      37.271  31.679  28.244  1.00  0.00     0.016 A 
ATOM     42  C   UNL A   1      37.316  29.242  29.631  1.00  0.00     0.010 A 
ATOM     43  C   UNL A   1      38.452  31.238  28.857  1.00  0.00     0.010 A 
ATOM     44  C   UNL A   1      38.465  30.043  29.598  1.00  0.00    -0.014 A 
BRANCH  44  45
ATOM     45  C   UNL A   1      39.583  29.739  30.529  1.00  0.00     0.031 A 
ATOM     46  C   UNL A   1      39.623  30.453  31.857  1.00  0.00     0.074 A 
ATOM     47  C   UNL A   1      40.515  28.814  30.242  1.00  0.00     0.049 A 
ATOM     48  N   UNL A   1      40.451  30.301  32.860  1.00  0.00    -0.248 NA
ATOM     49  C   UNL A   1      38.583  31.470  32.084  1.00  0.00     0.031 C 
ATOM     50  C   UNL A   1      40.571  28.019  29.017  1.00  0.00     0.029 A 
ATOM     51  N   UNL A   1      41.591  28.381  30.977  1.00  0.00    -0.354 N 
ATOM     52  C   UNL A   1      40.030  31.199  33.835  1.00  0.00     0.074 A 
ATOM     53  C   UNL A   1      38.895  31.914  33.292  1.00  0.00     0.031 C 
ATOM     54  C   UNL A   1      41.626  27.187  29.088  1.00  0.00     0.029 A 
ATOM     55  C   UNL A   1      42.328  27.405  30.352  1.00  0.00     0.049 A 
ATOM     56  H   UNL A   1      41.814  28.738  31.867  1.00  0.00     0.167 HD
ATOM     57  C   UNL A   1      40.534  31.409  35.075  1.00  0.00     0.031 A 
ATOM     58  C   UNL A   1      43.440  26.761  30.756  1.00  0.00     0.031 A 
ATOM     59  C   UNL A   1      41.678  30.726  35.613  1.00  0.00     0.049 A 
ATOM     60  C   UNL A   1      44.030  27.067  32.109  1.00  0.00     0.074 A 
ATOM     61  C   UNL A   1      42.260  30.864  36.862  1.00  0.00     0.029 A 
ATOM     62  N   UNL A   1      42.426  29.783  34.926  1.00  0.00    -0.354 N 
ATOM     63  N   UNL A   1      43.596  27.886  33.037  1.00  0.00    -0.248 NA
ATOM     64  C   UNL A   1      45.258  26.344  32.474  1.00  0.00     0.031 C 
ATOM     65  C   UNL A   1      43.393  30.044  36.909  1.00  0.00     0.029 A 
ATOM     66  C   UNL A   1      43.480  29.350  35.713  1.00  0.00     0.049 A 
ATOM     67  H   UNL A   1      42.236  29.467  34.012  1.00  0.00     0.167 HD
ATOM     68  C   UNL A   1      44.470  27.743  34.109  1.00  0.00     0.074 A 
ATOM     69  C   UNL A   1      45.457  26.759  33.717  1.00  0.00     0.031 C 
ATOM     70  C   UNL A   1      44.452  28.366  35.313  1.00  0.00     0.031 A 
BRANCH  57  71
ATOM     71  C   UNL A   1      39.866  32.463  35.915  1.00  0.00    -0.014 A 
ATOM     72  C   UNL A   1      40.219  33.817  35.806  1.00  0.00     0.009 A 
ATOM     73  C   UNL A   1      38.865  32.093  36.827  1.00  0.00     0.009 A 
ATOM     74  C   UNL A   1      39.613  34.774  36.625  1.00  0.00     0.001 A 
ATOM     75  C   UNL A   1      38.242  33.055  37.624  1.00  0.00     0.001 A 
ATOM     76  C   UNL A   1      38.625  34.391  37.530  1.00  0.00     0.000 A 
ENDBRANCH  57  71
BRANCH  58  77
ATOM     77  C   UNL A   1      44.074  25.742  29.878  1.00  0.00    -0.014 A 
ATOM     78  C   UNL A   1      43.679  24.397  29.942  1.00  0.00     0.009 A 
ATOM     79  C   UNL A   1      45.098  26.107  28.989  1.00  0.00     0.009 A 
ATOM     80  C   UNL A   1      44.313  23.434  29.152  1.00  0.00     0.001 A 
ATOM     81  C   UNL A   1      45.711  25.146  28.182  1.00  0.00     0.001 A 
ATOM     82  C   UNL A   1      45.324  23.810  28.270  1.00  0.00     0.000 A 
ENDBRANCH  58  77
BRANCH  70  83
ATOM     83  C   UNL A   1      45.497  27.961  36.318  1.00  0.00    -0.014 A 
ATOM     84  C   UNL A   1      45.271  26.926  37.238  1.00  0.00     0.009 A 
ATOM     85  C   UNL A   1      46.743  28.609  36.317  1.00  0.00     0.009 A 
ATOM     86  C   UNL A   1      46.259  26.574  38.161  1.00  0.00     0.001 A 
ATOM     87  C   UNL A   1      47.738  28.235  37.220  1.00  0.00     0.001 A 
ATOM     88  C   UNL A   1      47.492  27.226  38.149  1.00  0.00     0.000 A 
ENDBRANCH  70  83
ENDBRANCH  44  45
ENDBRANCH  37  39
ENDBRANCH  36  37
ENDBRANCH  35  36
ENDBRANCH  34  35
ENDBRANCH  33  34
ENDBRANCH  32  33
ENDBRANCH   1  32
TORSDOF 20
ENDMDL
MODEL 3
REMARK VINA RESULT:     -10.5      1.759      2.366
REMARK SMILES O=C(CCCN1C(=O)c2ccc3c4c(ccc(c24)C1=O)C(=O)NC3=O)OCCOCCOCCOC(=O)c1ccc(-c2c3nc(c(-c4ccccc4)c4ccc([nH]4)c(-c4ccccc4)c4nc(c(-c5ccccc5)c5ccc2[nH]5)C=C4)C=C3)cc1
REMARK SMILES IDX 30 1 29 2 28 3 27 4 26 5 2 6 1 7 3 8 4 9 5 10 6 11 19 12
REMARK SMILES IDX 7 13 20 14 17 15 9 16 8 17 16 18 18 19 10 20 15 21 13 22
REMARK SMILES IDX 11 23 14 24 12 25 21 26 24 27 23 28 22 29 25 30 31 32 32 33
REMARK SMILES IDX 33 34 34 35 35 36 36 37 37 38 38 39 39 40 85 41 40 42 84 43
REMARK SMILES IDX 41 44 42 45 43 46 78 47 44 48 83 49 77 50 79 51 45 52 82 53
REMARK SMILES IDX 76 54 75 55 46 57 68 58 53 59 67 60 54 61 57 62 66 63 80 64
REMARK SMILES IDX 55 65 56 66 65 68 81 69 58 70 47 71 48 72 52 73 49 74 51 75
REMARK SMILES IDX 50 76 69 77 70 78 74 79 71 80 73 81 72 82 59 83 60 84 64 85
REMARK SMILES IDX 61 86 63 87 62 88
REMARK H PARENT 23 31 79 56 57 67
REMARK Flexibility Score: inf
ROOT
ATOM      1  C   UNL A   1      38.196  21.011  25.344  1.00  0.00     0.188 C 
ENDROOT
BRANCH   1   2
ATOM      2  O   UNL A   1      36.948  21.124  24.658  1.00  0.00    -0.376 OA
BRANCH   2   3
ATOM      3  C   UNL A   1      35.794  21.234  25.488  1.00  0.00     0.202 C 
BRANCH   3   4
ATOM      4  C   UNL A   1      34.596  20.380  25.082  1.00  0.00     0.261 C 
BRANCH   4   5
ATOM      5  O   UNL A   1      33.875  20.719  23.876  1.00  0.00    -0.463 OA
BRANCH   5   6
ATOM      6  C   UNL A   1      32.590  21.096  23.761  1.00  0.00     0.305 C 
ATOM      7  O   UNL A   1      32.004  20.943  22.692  1.00  0.00    -0.252 OA
BRANCH   6   8
ATOM      8  C   UNL A   1      31.845  21.550  24.994  1.00  0.00     0.124 C 
BRANCH   8   9
ATOM      9  C   UNL A   1      32.164  22.965  25.466  1.00  0.00     0.034 C 
BRANCH   9  10
ATOM     10  C   UNL A   1      32.812  23.948  24.473  1.00  0.00     0.130 C 
BRANCH  10  11
ATOM     11  N   UNL A   1      32.422  25.366  24.520  1.00  0.00    -0.274 N 
ATOM     12  C   UNL A   1      31.669  25.842  23.441  1.00  0.00     0.261 C 
ATOM     13  C   UNL A   1      33.025  26.223  25.438  1.00  0.00     0.261 C 
ATOM     14  O   UNL A   1      31.428  25.195  22.426  1.00  0.00    -0.269 OA
ATOM     15  C   UNL A   1      31.115  27.209  23.549  1.00  0.00     0.049 A 
ATOM     16  C   UNL A   1      32.530  27.625  25.482  1.00  0.00     0.049 A 
ATOM     17  O   UNL A   1      33.934  25.899  26.194  1.00  0.00    -0.269 OA
ATOM     18  C   UNL A   1      30.129  27.635  22.646  1.00  0.00     0.015 A 
ATOM     19  C   UNL A   1      31.565  28.054  24.564  1.00  0.00     0.009 A 
ATOM     20  C   UNL A   1      33.006  28.501  26.467  1.00  0.00     0.015 A 
ATOM     21  C   UNL A   1      29.585  28.913  22.755  1.00  0.00     0.015 A 
ATOM     22  C   UNL A   1      31.040  29.369  24.657  1.00  0.00     0.009 A 
ATOM     23  C   UNL A   1      32.513  29.804  26.546  1.00  0.00     0.015 A 
ATOM     24  C   UNL A   1      30.041  29.775  23.756  1.00  0.00     0.048 A 
ATOM     25  C   UNL A   1      31.528  30.231  25.650  1.00  0.00     0.048 A 
ATOM     26  C   UNL A   1      29.454  31.128  23.885  1.00  0.00     0.258 C 
ATOM     27  C   UNL A   1      30.991  31.610  25.747  1.00  0.00     0.258 C 
ATOM     28  N   UNL A   1      29.996  31.936  24.852  1.00  0.00    -0.288 N 
ATOM     29  O   UNL A   1      28.522  31.490  23.174  1.00  0.00    -0.269 OA
ATOM     30  O   UNL A   1      31.402  32.400  26.578  1.00  0.00    -0.269 OA
ATOM     31  H   UNL A   1      29.635  32.850  24.911  1.00  0.00     0.173 HD
ENDBRANCH  10  11
ENDBRANCH   9  10
ENDBRANCH   8   9
ENDBRANCH   6   8
ENDBRANCH   5   6
ENDBRANCH   4   5
ENDBRANCH   3   4
ENDBRANCH   2   3
ENDBRANCH   1   2
BRANCH   1  32
ATOM     32  C   UNL A   1      38.766  19.590  25.419  1.00  0.00     0.188 C 
BRANCH  32  33
ATOM     33  O   UNL A   1      40.193  19.574  25.389  1.00  0.00    -0.376 OA
BRANCH  33  34
ATOM     34  C   UNL A   1      40.786  19.945  26.637  1.00  0.00     0.202 C 
BRANCH  34  35
ATOM     35  C   UNL A   1      41.822  21.087  26.553  1.00  0.00     0.261 C 
BRANCH  35  36
ATOM     36  O   UNL A   1      41.427  22.260  25.817  1.00  0.00    -0.460 OA
BRANCH  36  37
ATOM     37  C   UNL A   1      42.282  23.303  25.867  1.00  0.00     0.338 C 
ATOM     38  O   UNL A   1      43.410  23.341  25.395  1.00  0.00    -0.246 OA
BRANCH  37  39
ATOM     39  C   UNL A   1      41.641  24.462  26.517  1.00  0.00     0.060 A 
ATOM     40  C   UNL A   1      42.142  25.742  26.253  1.00  0.00     0.016 A 
ATOM     41  C   UNL A   1      40.674  24.274  27.508  1.00  0.00     0.016 A 
ATOM     42  C   UNL A   1      41.721  26.830  27.021  1.00  0.00     0.010 A 
ATOM     43  C   UNL A   1      40.261  25.365  28.286  1.00  0.00     0.010 A 
ATOM     44  C   UNL A   1      40.823  26.637  28.080  1.00  0.00    -0.014 A 
BRANCH  44  45
ATOM     45  C   UNL A   1      40.668  27.710  29.097  1.00  0.00     0.031 A 
ATOM     46  C   UNL A   1      41.674  27.785  30.218  1.00  0.00     0.074 A 
ATOM     47  C   UNL A   1      39.697  28.636  29.011  1.00  0.00     0.049 A 
ATOM     48  N   UNL A   1      41.791  28.670  31.175  1.00  0.00    -0.248 NA
ATOM     49  C   UNL A   1      42.690  26.719  30.257  1.00  0.00     0.031 C 
ATOM     50  C   UNL A   1      38.686  28.708  27.959  1.00  0.00     0.029 A 
ATOM     51  N   UNL A   1      39.415  29.703  29.827  1.00  0.00    -0.354 N 
ATOM     52  C   UNL A   1      42.892  28.271  31.926  1.00  0.00     0.074 A 
ATOM     53  C   UNL A   1      43.387  27.047  31.334  1.00  0.00     0.031 C 
ATOM     54  C   UNL A   1      37.895  29.772  28.190  1.00  0.00     0.029 A 
ATOM     55  C   UNL A   1      38.333  30.442  29.414  1.00  0.00     0.049 A 
ATOM     56  H   UNL A   1      39.937  29.919  30.633  1.00  0.00     0.167 HD
ATOM     57  C   UNL A   1      43.449  28.868  33.007  1.00  0.00     0.031 A 
ATOM     58  C   UNL A   1      37.764  31.534  29.960  1.00  0.00     0.031 A 
ATOM     59  C   UNL A   1      42.947  30.067  33.621  1.00  0.00     0.049 A 
ATOM     60  C   UNL A   1      38.354  32.136  31.209  1.00  0.00     0.074 A 
ATOM     61  C   UNL A   1      43.446  30.753  34.715  1.00  0.00     0.029 A 
ATOM     62  N   UNL A   1      41.817  30.752  33.201  1.00  0.00    -0.354 N 
ATOM     63  N   UNL A   1      39.419  31.774  31.882  1.00  0.00    -0.248 NA
ATOM     64  C   UNL A   1      37.666  33.313  31.764  1.00  0.00     0.031 C 
ATOM     65  C   UNL A   1      42.587  31.822  34.990  1.00  0.00     0.029 A 
ATOM     66  C   UNL A   1      41.588  31.838  34.029  1.00  0.00     0.049 A 
ATOM     67  H   UNL A   1      41.260  30.503  32.427  1.00  0.00     0.167 HD
ATOM     68  C   UNL A   1      39.554  32.701  32.910  1.00  0.00     0.074 A 
ATOM     69  C   UNL A   1      38.463  33.643  32.771  1.00  0.00     0.031 C 
ATOM     70  C   UNL A   1      40.502  32.770  33.877  1.00  0.00     0.031 A 
BRANCH  57  71
ATOM     71  C   UNL A   1      44.645  28.194  33.620  1.00  0.00    -0.014 A 
ATOM     72  C   UNL A   1      44.503  27.231  34.632  1.00  0.00     0.009 A 
ATOM     73  C   UNL A   1      45.933  28.526  33.175  1.00  0.00     0.009 A 
ATOM     74  C   UNL A   1      45.630  26.646  35.214  1.00  0.00     0.001 A 
ATOM     75  C   UNL A   1      47.057  27.920  33.740  1.00  0.00     0.001 A 
ATOM     76  C   UNL A   1      46.905  26.990  34.766  1.00  0.00     0.000 A 
ENDBRANCH  57  71
BRANCH  58  77
ATOM     77  C   UNL A   1      36.568  32.150  29.326  1.00  0.00    -0.014 A 
ATOM     78  C   UNL A   1      35.300  31.569  29.477  1.00  0.00     0.009 A 
ATOM     79  C   UNL A   1      36.695  33.308  28.543  1.00  0.00     0.009 A 
ATOM     80  C   UNL A   1      34.187  32.121  28.838  1.00  0.00     0.001 A 
ATOM     81  C   UNL A   1      35.576  33.873  27.926  1.00  0.00     0.001 A 
ATOM     82  C   UNL A   1      34.325  33.274  28.068  1.00  0.00     0.000 A 
ENDBRANCH  58  77
BRANCH  70  83
ATOM     83  C   UNL A   1      40.437  33.935  34.828  1.00  0.00    -0.014 A 
ATOM     84  C   UNL A   1      39.818  33.826  36.083  1.00  0.00     0.009 A 
ATOM     85  C   UNL A   1      41.040  35.152  34.472  1.00  0.00     0.009 A 
ATOM     86  C   UNL A   1      39.770  34.925  36.944  1.00  0.00     0.001 A 
ATOM     87  C   UNL A   1      41.018  36.239  35.346  1.00  0.00     0.001 A 
ATOM     88  C   UNL A   1      40.374  36.129  36.577  1.00  0.00     0.000 A 
ENDBRANCH  70  83
ENDBRANCH  44  45
ENDBRANCH  37  39
ENDBRANCH  36  37
ENDBRANCH  35  36
ENDBRANCH  34  35
ENDBRANCH  33  34
ENDBRANCH  32  33
ENDBRANCH   1  32
TORSDOF 20
ENDMDL
