MODEL 1
REMARK VINA RESULT:     -10.4      0.000      0.000
REMARK SMILES Cc1cc2c(c(C)c1Br)C=C(C(=O)OCCOCCOCCOC(=O)c1ccc(-c3c4nc(c(-c5ccccc5)c5ccc([nH]5)c(-c5ccccc5)c5nc(c(-c6ccccc6)c6ccc3[nH]6)C=C5)C=C4)cc1)[C@@H](C(F)(F)F)O2
REMARK SMILES IDX 19 1 18 2 17 3 16 4 15 5 14 6 12 7 13 8 11 9 1 10 2 11 3 12
REMARK SMILES IDX 8 13 4 14 6 15 9 16 5 17 79 18 7 19 10 20 74 21 75 22 76 23
REMARK SMILES IDX 77 24 78 25 20 26 21 27 22 28 23 29 24 30 25 31 26 32 27 33
REMARK SMILES IDX 73 34 28 35 72 36 29 37 30 38 31 39 66 40 32 41 71 42 65 43
REMARK SMILES IDX 67 44 33 45 70 46 64 47 63 48 34 50 56 51 41 52 55 53 42 54
REMARK SMILES IDX 45 55 54 56 68 57 43 58 44 59 53 61 69 62 46 63 35 64 36 65
REMARK SMILES IDX 40 66 37 67 39 68 38 69 57 70 58 71 62 72 59 73 61 74 60 75
REMARK SMILES IDX 47 76 48 77 52 78 49 79 51 80 50 81
REMARK H PARENT 67 49 45 60
REMARK Flexibility Score: inf
ROOT
ATOM      1  C   UNL A   1      42.520  19.799  26.112  1.00  0.00     0.188 C 
ENDROOT
BRANCH   1   2
ATOM      2  C   UNL A   1      41.810  20.982  26.804  1.00  0.00     0.188 C 
BRANCH   2   3
ATOM      3  O   UNL A   1      40.919  21.781  26.060  1.00  0.00    -0.376 OA
BRANCH   3   4
ATOM      4  C   UNL A   1      39.549  21.870  26.405  1.00  0.00     0.202 C 
BRANCH   4   5
ATOM      5  C   UNL A   1      38.640  23.075  26.109  1.00  0.00     0.261 C 
BRANCH   5   6
ATOM      6  O   UNL A   1      37.230  22.832  26.075  1.00  0.00    -0.460 OA
BRANCH   6   7
ATOM      7  C   UNL A   1      36.713  22.609  24.842  1.00  0.00     0.338 C 
ATOM      8  O   UNL A   1      37.255  22.025  23.918  1.00  0.00    -0.246 OA
BRANCH   7   9
ATOM      9  C   UNL A   1      35.304  23.047  24.810  1.00  0.00     0.087 C 
ATOM     10  C   UNL A   1      29.511  25.616  26.058  1.00  0.00     0.046 C 
ATOM     11  C   UNL A   1      30.962  25.399  25.716  1.00  0.00    -0.033 A 
ATOM     12  C   UNL A   1      31.331  24.165  25.167  1.00  0.00     0.051 A 
ATOM     13  C   UNL A   1      31.964  26.356  25.979  1.00  0.00     0.024 A 
ATOM     14  C   UNL A   1      32.670  23.850  24.950  1.00  0.00     0.128 A 
ATOM     15  C   UNL A   1      33.330  26.065  25.735  1.00  0.00    -0.026 A 
ATOM     16  Br  UNL A   1      31.437  28.043  26.714  1.00  0.00    -0.050 Br
ATOM     17  C   UNL A   1      33.676  24.770  25.264  1.00  0.00     0.021 A 
ATOM     18  O   UNL A   1      32.891  22.606  24.429  1.00  0.00    -0.475 OA
ATOM     19  C   UNL A   1      34.425  27.083  25.966  1.00  0.00     0.046 C 
ATOM     20  C   UNL A   1      35.062  24.316  25.166  1.00  0.00     0.027 C 
ATOM     21  C   UNL A   1      34.239  22.074  24.397  1.00  0.00     0.316 C 
BRANCH  21  22
ATOM     22  C   UNL A   1      34.274  20.782  25.223  1.00  0.00     0.430 C 
ATOM     23  F   UNL A   1      34.785  21.000  26.459  1.00  0.00    -0.167 F 
ATOM     24  F   UNL A   1      33.033  20.269  25.402  1.00  0.00    -0.167 F 
ATOM     25  F   UNL A   1      35.026  19.825  24.635  1.00  0.00    -0.167 F 
ENDBRANCH  21  22
ENDBRANCH   7   9
ENDBRANCH   6   7
ENDBRANCH   5   6
ENDBRANCH   4   5
ENDBRANCH   3   4
ENDBRANCH   2   3
ENDBRANCH   1   2
BRANCH   1  26
ATOM     26  O   UNL A   1      43.392  20.030  25.029  1.00  0.00    -0.376 OA
BRANCH  26  27
ATOM     27  C   UNL A   1      44.333  21.090  25.111  1.00  0.00     0.202 C 
BRANCH  27  28
ATOM     28  C   UNL A   1      44.322  22.309  24.166  1.00  0.00     0.261 C 
BRANCH  28  29
ATOM     29  O   UNL A   1      43.657  23.486  24.647  1.00  0.00    -0.460 OA
BRANCH  29  30
ATOM     30  C   UNL A   1      44.471  24.490  25.073  1.00  0.00     0.338 C 
ATOM     31  O   UNL A   1      45.527  24.844  24.588  1.00  0.00    -0.246 OA
BRANCH  30  32
ATOM     32  C   UNL A   1      43.768  25.257  26.122  1.00  0.00     0.060 A 
ATOM     33  C   UNL A   1      44.110  26.605  26.305  1.00  0.00     0.016 A 
ATOM     34  C   UNL A   1      42.796  24.658  26.922  1.00  0.00     0.016 A 
ATOM     35  C   UNL A   1      43.463  27.364  27.279  1.00  0.00     0.010 A 
ATOM     36  C   UNL A   1      42.175  25.412  27.926  1.00  0.00     0.010 A 
ATOM     37  C   UNL A   1      42.516  26.763  28.117  1.00  0.00    -0.014 A 
BRANCH  37  38
ATOM     38  C   UNL A   1      42.068  27.500  29.323  1.00  0.00     0.031 A 
ATOM     39  C   UNL A   1      40.801  28.304  29.227  1.00  0.00     0.074 A 
ATOM     40  C   UNL A   1      42.715  27.403  30.498  1.00  0.00     0.049 A 
ATOM     41  N   UNL A   1      40.193  29.007  30.146  1.00  0.00    -0.248 NA
ATOM     42  C   UNL A   1      40.123  28.303  27.919  1.00  0.00     0.031 C 
ATOM     43  C   UNL A   1      43.910  26.599  30.748  1.00  0.00     0.029 A 
ATOM     44  N   UNL A   1      42.440  27.984  31.714  1.00  0.00    -0.354 N 
ATOM     45  C   UNL A   1      39.060  29.522  29.532  1.00  0.00     0.074 A 
ATOM     46  C   UNL A   1      39.083  29.087  28.154  1.00  0.00     0.031 C 
ATOM     47  C   UNL A   1      44.262  26.732  32.040  1.00  0.00     0.029 A 
ATOM     48  C   UNL A   1      43.339  27.656  32.701  1.00  0.00     0.049 A 
ATOM     49  H   UNL A   1      41.671  28.579  31.863  1.00  0.00     0.167 HD
ATOM     50  C   UNL A   1      38.076  30.280  30.069  1.00  0.00     0.031 A 
ATOM     51  C   UNL A   1      43.414  28.066  33.983  1.00  0.00     0.031 A 
ATOM     52  C   UNL A   1      38.055  30.732  31.431  1.00  0.00     0.049 A 
ATOM     53  C   UNL A   1      42.379  29.024  34.522  1.00  0.00     0.074 A 
ATOM     54  C   UNL A   1      37.100  31.509  32.061  1.00  0.00     0.029 A 
ATOM     55  N   UNL A   1      39.036  30.457  32.368  1.00  0.00    -0.354 N 
ATOM     56  N   UNL A   1      41.299  29.486  33.939  1.00  0.00    -0.248 NA
ATOM     57  C   UNL A   1      42.575  29.519  35.893  1.00  0.00     0.031 C 
ATOM     58  C   UNL A   1      37.537  31.761  33.364  1.00  0.00     0.029 A 
ATOM     59  C   UNL A   1      38.732  31.087  33.562  1.00  0.00     0.049 A 
ATOM     60  H   UNL A   1      39.830  29.897  32.210  1.00  0.00     0.167 HD
ATOM     61  C   UNL A   1      40.683  30.310  34.874  1.00  0.00     0.074 A 
ATOM     62  C   UNL A   1      41.495  30.269  36.072  1.00  0.00     0.031 C 
ATOM     63  C   UNL A   1      39.547  31.040  34.748  1.00  0.00     0.031 A 
BRANCH  50  64
ATOM     64  C   UNL A   1      36.949  30.690  29.166  1.00  0.00    -0.014 A 
ATOM     65  C   UNL A   1      35.953  29.776  28.789  1.00  0.00     0.009 A 
ATOM     66  C   UNL A   1      36.855  32.021  28.729  1.00  0.00     0.009 A 
ATOM     67  C   UNL A   1      34.899  30.182  27.968  1.00  0.00     0.001 A 
ATOM     68  C   UNL A   1      35.784  32.429  27.935  1.00  0.00     0.001 A 
ATOM     69  C   UNL A   1      34.811  31.509  27.549  1.00  0.00     0.000 A 
ENDBRANCH  50  64
BRANCH  51  70
ATOM     70  C   UNL A   1      44.524  27.594  34.857  1.00  0.00    -0.014 A 
ATOM     71  C   UNL A   1      44.328  26.528  35.748  1.00  0.00     0.009 A 
ATOM     72  C   UNL A   1      45.779  28.222  34.821  1.00  0.00     0.009 A 
ATOM     73  C   UNL A   1      45.362  26.111  36.593  1.00  0.00     0.001 A 
ATOM     74  C   UNL A   1      46.818  27.785  35.646  1.00  0.00     0.001 A 
ATOM     75  C   UNL A   1      46.606  26.735  36.536  1.00  0.00     0.000 A 
ENDBRANCH  51  70
BRANCH  63  76
ATOM     76  C   UNL A   1      39.099  31.867  35.921  1.00  0.00    -0.014 A 
ATOM     77  C   UNL A   1      39.569  33.177  36.099  1.00  0.00     0.009 A 
ATOM     78  C   UNL A   1      38.099  31.381  36.781  1.00  0.00     0.009 A 
ATOM     79  C   UNL A   1      39.051  33.981  37.116  1.00  0.00     0.001 A 
ATOM     80  C   UNL A   1      37.563  32.197  37.778  1.00  0.00     0.001 A 
ATOM     81  C   UNL A   1      38.041  33.495  37.946  1.00  0.00     0.000 A 
ENDBRANCH  63  76
ENDBRANCH  37  38
ENDBRANCH  30  32
ENDBRANCH  29  30
ENDBRANCH  28  29
ENDBRANCH  27  28
ENDBRANCH  26  27
ENDBRANCH   1  26
TORSDOF 18
ENDMDL
MODEL 2
REMARK VINA RESULT:     -10.2      4.678      9.951
REMARK SMILES Cc1cc2c(c(C)c1Br)C=C(C(=O)OCCOCCOCCOC(=O)c1ccc(-c3c4nc(c(-c5ccccc5)c5ccc([nH]5)c(-c5ccccc5)c5nc(c(-c6ccccc6)c6ccc3[nH]6)C=C5)C=C4)cc1)[C@@H](C(F)(F)F)O2
REMARK SMILES IDX 19 1 18 2 17 3 16 4 15 5 14 6 12 7 13 8 11 9 1 10 2 11 3 12
REMARK SMILES IDX 8 13 4 14 6 15 9 16 5 17 79 18 7 19 10 20 74 21 75 22 76 23
REMARK SMILES IDX 77 24 78 25 20 26 21 27 22 28 23 29 24 30 25 31 26 32 27 33
REMARK SMILES IDX 73 34 28 35 72 36 29 37 30 38 31 39 66 40 32 41 71 42 65 43
REMARK SMILES IDX 67 44 33 45 70 46 64 47 63 48 34 50 56 51 41 52 55 53 42 54
REMARK SMILES IDX 45 55 54 56 68 57 43 58 44 59 53 61 69 62 46 63 35 64 36 65
REMARK SMILES IDX 40 66 37 67 39 68 38 69 57 70 58 71 62 72 59 73 61 74 60 75
REMARK SMILES IDX 47 76 48 77 52 78 49 79 51 80 50 81
REMARK H PARENT 67 49 45 60
REMARK Flexibility Score: inf
ROOT
ATOM      1  C   UNL A   1      34.979  33.590  28.036  1.00  0.00     0.188 C 
ENDROOT
BRANCH   1   2
ATOM      2  C   UNL A   1      33.863  32.524  28.021  1.00  0.00     0.188 C 
BRANCH   2   3
ATOM      3  O   UNL A   1      34.030  31.362  27.243  1.00  0.00    -0.376 OA
BRANCH   3   4
ATOM      4  C   UNL A   1      33.043  30.347  27.216  1.00  0.00     0.202 C 
BRANCH   4   5
ATOM      5  C   UNL A   1      32.120  30.045  26.023  1.00  0.00     0.261 C 
BRANCH   5   6
ATOM      6  O   UNL A   1      31.552  28.733  25.958  1.00  0.00    -0.460 OA
BRANCH   6   7
ATOM      7  C   UNL A   1      31.205  28.315  24.717  1.00  0.00     0.338 C 
ATOM      8  O   UNL A   1      30.414  28.854  23.960  1.00  0.00    -0.246 OA
BRANCH   7   9
ATOM      9  C   UNL A   1      32.048  27.168  24.326  1.00  0.00     0.087 C 
ATOM     10  C   UNL A   1      36.160  22.191  24.140  1.00  0.00     0.046 C 
ATOM     11  C   UNL A   1      34.980  23.094  24.393  1.00  0.00    -0.033 A 
ATOM     12  C   UNL A   1      34.747  24.139  23.490  1.00  0.00     0.051 A 
ATOM     13  C   UNL A   1      34.146  22.969  25.523  1.00  0.00     0.024 A 
ATOM     14  C   UNL A   1      33.757  25.087  23.734  1.00  0.00     0.128 A 
ATOM     15  C   UNL A   1      33.112  23.906  25.771  1.00  0.00    -0.026 A 
ATOM     16  Br  UNL A   1      34.472  21.524  26.736  1.00  0.00    -0.050 Br
ATOM     17  C   UNL A   1      32.964  25.006  24.884  1.00  0.00     0.021 A 
ATOM     18  O   UNL A   1      33.649  26.063  22.784  1.00  0.00    -0.475 OA
ATOM     19  C   UNL A   1      32.173  23.778  26.951  1.00  0.00     0.046 C 
ATOM     20  C   UNL A   1      32.058  26.120  25.160  1.00  0.00     0.027 C 
ATOM     21  C   UNL A   1      32.837  27.234  23.052  1.00  0.00     0.316 C 
BRANCH  21  22
ATOM     22  C   UNL A   1      33.733  28.477  22.980  1.00  0.00     0.430 C 
ATOM     23  F   UNL A   1      34.648  28.369  21.986  1.00  0.00    -0.167 F 
ATOM     24  F   UNL A   1      33.015  29.597  22.727  1.00  0.00    -0.167 F 
ATOM     25  F   UNL A   1      34.408  28.682  24.134  1.00  0.00    -0.167 F 
ENDBRANCH  21  22
ENDBRANCH   7   9
ENDBRANCH   6   7
ENDBRANCH   5   6
ENDBRANCH   4   5
ENDBRANCH   3   4
ENDBRANCH   2   3
ENDBRANCH   1   2
BRANCH   1  26
ATOM     26  O   UNL A   1      35.031  34.549  29.067  1.00  0.00    -0.376 OA
BRANCH  26  27
ATOM     27  C   UNL A   1      34.031  34.537  30.075  1.00  0.00     0.202 C 
BRANCH  27  28
ATOM     28  C   UNL A   1      34.285  34.050  31.516  1.00  0.00     0.261 C 
BRANCH  28  29
ATOM     29  O   UNL A   1      34.583  32.656  31.679  1.00  0.00    -0.460 OA
BRANCH  29  30
ATOM     30  C   UNL A   1      35.585  32.366  32.552  1.00  0.00     0.338 C 
ATOM     31  O   UNL A   1      35.583  32.512  33.758  1.00  0.00    -0.246 OA
BRANCH  30  32
ATOM     32  C   UNL A   1      36.641  31.624  31.833  1.00  0.00     0.060 A 
ATOM     33  C   UNL A   1      37.685  31.057  32.578  1.00  0.00     0.016 A 
ATOM     34  C   UNL A   1      36.613  31.498  30.444  1.00  0.00     0.016 A 
ATOM     35  C   UNL A   1      38.695  30.343  31.936  1.00  0.00     0.010 A 
ATOM     36  C   UNL A   1      37.651  30.815  29.797  1.00  0.00     0.010 A 
ATOM     37  C   UNL A   1      38.702  30.246  30.539  1.00  0.00    -0.014 A 
BRANCH  37  38
ATOM     38  C   UNL A   1      39.927  29.748  29.869  1.00  0.00     0.031 A 
ATOM     39  C   UNL A   1      41.101  30.682  29.763  1.00  0.00     0.074 A 
ATOM     40  C   UNL A   1      40.035  28.480  29.433  1.00  0.00     0.049 A 
ATOM     41  N   UNL A   1      42.285  30.471  29.251  1.00  0.00    -0.248 NA
ATOM     42  C   UNL A   1      40.915  32.031  30.324  1.00  0.00     0.031 C 
ATOM     43  C   UNL A   1      39.002  27.452  29.542  1.00  0.00     0.029 A 
ATOM     44  N   UNL A   1      41.085  27.839  28.818  1.00  0.00    -0.354 N 
ATOM     45  C   UNL A   1      42.986  31.655  29.436  1.00  0.00     0.074 A 
ATOM     46  C   UNL A   1      42.087  32.592  30.069  1.00  0.00     0.031 C 
ATOM     47  C   UNL A   1      39.472  26.306  29.017  1.00  0.00     0.029 A 
ATOM     48  C   UNL A   1      40.826  26.527  28.505  1.00  0.00     0.049 A 
ATOM     49  H   UNL A   1      41.942  28.280  28.621  1.00  0.00     0.167 HD
ATOM     50  C   UNL A   1      44.271  31.936  29.120  1.00  0.00     0.031 A 
ATOM     51  C   UNL A   1      41.588  25.615  27.866  1.00  0.00     0.031 A 
ATOM     52  C   UNL A   1      45.165  31.017  28.473  1.00  0.00     0.049 A 
ATOM     53  C   UNL A   1      42.972  25.996  27.400  1.00  0.00     0.074 A 
ATOM     54  C   UNL A   1      46.484  31.217  28.109  1.00  0.00     0.029 A 
ATOM     55  N   UNL A   1      44.829  29.731  28.087  1.00  0.00    -0.354 N 
ATOM     56  N   UNL A   1      43.633  27.111  27.600  1.00  0.00    -0.248 NA
ATOM     57  C   UNL A   1      43.713  24.996  26.616  1.00  0.00     0.031 C 
ATOM     58  C   UNL A   1      46.928  30.073  27.441  1.00  0.00     0.029 A 
ATOM     59  C   UNL A   1      45.904  29.139  27.447  1.00  0.00     0.049 A 
ATOM     60  H   UNL A   1      43.958  29.301  28.243  1.00  0.00     0.167 HD
ATOM     61  C   UNL A   1      44.867  26.938  26.983  1.00  0.00     0.074 A 
ATOM     62  C   UNL A   1      44.875  25.606  26.420  1.00  0.00     0.031 C 
ATOM     63  C   UNL A   1      45.901  27.812  26.888  1.00  0.00     0.031 A 
BRANCH  50  64
ATOM     64  C   UNL A   1      44.779  33.309  29.448  1.00  0.00    -0.014 A 
ATOM     65  C   UNL A   1      45.164  33.646  30.755  1.00  0.00     0.009 A 
ATOM     66  C   UNL A   1      44.922  34.263  28.428  1.00  0.00     0.009 A 
ATOM     67  C   UNL A   1      45.658  34.921  31.038  1.00  0.00     0.001 A 
ATOM     68  C   UNL A   1      45.444  35.525  28.709  1.00  0.00     0.001 A 
ATOM     69  C   UNL A   1      45.804  35.856  30.015  1.00  0.00     0.000 A 
ENDBRANCH  50  64
BRANCH  51  70
ATOM     70  C   UNL A   1      41.060  24.248  27.605  1.00  0.00    -0.014 A 
ATOM     71  C   UNL A   1      41.593  23.135  28.273  1.00  0.00     0.009 A 
ATOM     72  C   UNL A   1      40.033  24.044  26.668  1.00  0.00     0.009 A 
ATOM     73  C   UNL A   1      41.119  21.848  27.998  1.00  0.00     0.001 A 
ATOM     74  C   UNL A   1      39.543  22.761  26.416  1.00  0.00     0.001 A 
ATOM     75  C   UNL A   1      40.091  21.663  27.076  1.00  0.00     0.000 A 
ENDBRANCH  51  70
BRANCH  63  76
ATOM     76  C   UNL A   1      47.134  27.377  26.146  1.00  0.00    -0.014 A 
ATOM     77  C   UNL A   1      48.196  26.755  26.820  1.00  0.00     0.009 A 
ATOM     78  C   UNL A   1      47.180  27.471  24.745  1.00  0.00     0.009 A 
ATOM     79  C   UNL A   1      49.280  26.240  26.107  1.00  0.00     0.001 A 
ATOM     80  C   UNL A   1      48.251  26.929  24.033  1.00  0.00     0.001 A 
ATOM     81  C   UNL A   1      49.301  26.317  24.714  1.00  0.00     0.000 A 
ENDBRANCH  63  76
ENDBRANCH  37  38
ENDBRANCH  30  32
ENDBRANCH  29  30
ENDBRANCH  28  29
ENDBRANCH  27  28
ENDBRANCH  26  27
ENDBRANCH   1  26
TORSDOF 18
ENDMDL
MODEL 3
REMARK VINA RESULT:     -10.1      4.047      9.493
REMARK SMILES Cc1cc2c(c(C)c1Br)C=C(C(=O)OCCOCCOCCOC(=O)c1ccc(-c3c4nc(c(-c5ccccc5)c5ccc([nH]5)c(-c5ccccc5)c5nc(c(-c6ccccc6)c6ccc3[nH]6)C=C5)C=C4)cc1)[C@@H](C(F)(F)F)O2
REMARK SMILES IDX 19 1 18 2 17 3 16 4 15 5 14 6 12 7 13 8 11 9 1 10 2 11 3 12
REMARK SMILES IDX 8 13 4 14 6 15 9 16 5 17 79 18 7 19 10 20 74 21 75 22 76 23
REMARK SMILES IDX 77 24 78 25 20 26 21 27 22 28 23 29 24 30 25 31 26 32 27 33
REMARK SMILES IDX 73 34 28 35 72 36 29 37 30 38 31 39 66 40 32 41 71 42 65 43
REMARK SMILES IDX 67 44 33 45 70 46 64 47 63 48 34 50 56 51 41 52 55 53 42 54
REMARK SMILES IDX 45 55 54 56 68 57 43 58 44 59 53 61 69 62 46 63 35 64 36 65
REMARK SMILES IDX 40 66 37 67 39 68 38 69 57 70 58 71 62 72 59 73 61 74 60 75
REMARK SMILES IDX 47 76 48 77 52 78 49 79 51 80 50 81
REMARK H PARENT 67 49 45 60
REMARK Flexibility Score: inf
ROOT
ATOM      1  C   UNL A   1      33.958  33.497  28.194  1.00  0.00     0.188 C 
ENDROOT
BRANCH   1   2
ATOM      2  C   UNL A   1      33.884  31.965  28.016  1.00  0.00     0.188 C 
BRANCH   2   3
ATOM      3  O   UNL A   1      34.970  31.286  27.430  1.00  0.00    -0.376 OA
BRANCH   3   4
ATOM      4  C   UNL A   1      35.057  29.873  27.461  1.00  0.00     0.202 C 
BRANCH   4   5
ATOM      5  C   UNL A   1      33.856  28.913  27.413  1.00  0.00     0.261 C 
BRANCH   5   6
ATOM      6  O   UNL A   1      33.001  29.000  26.269  1.00  0.00    -0.460 OA
BRANCH   6   7
ATOM      7  C   UNL A   1      33.392  28.264  25.200  1.00  0.00     0.338 C 
ATOM      8  O   UNL A   1      34.055  28.650  24.251  1.00  0.00    -0.246 OA
BRANCH   7   9
ATOM      9  C   UNL A   1      33.029  26.849  25.413  1.00  0.00     0.087 C 
ATOM     10  C   UNL A   1      32.460  20.420  25.164  1.00  0.00     0.046 C 
ATOM     11  C   UNL A   1      32.953  21.829  25.368  1.00  0.00    -0.033 A 
ATOM     12  C   UNL A   1      32.000  22.839  25.553  1.00  0.00     0.051 A 
ATOM     13  C   UNL A   1      34.318  22.180  25.320  1.00  0.00     0.024 A 
ATOM     14  C   UNL A   1      32.379  24.177  25.615  1.00  0.00     0.128 A 
ATOM     15  C   UNL A   1      34.725  23.534  25.414  1.00  0.00    -0.026 A 
ATOM     16  Br  UNL A   1      35.606  20.783  25.083  1.00  0.00    -0.050 Br
ATOM     17  C   UNL A   1      33.726  24.540  25.508  1.00  0.00     0.021 A 
ATOM     18  O   UNL A   1      31.347  25.059  25.777  1.00  0.00    -0.475 OA
ATOM     19  C   UNL A   1      36.183  23.941  25.409  1.00  0.00     0.046 C 
ATOM     20  C   UNL A   1      34.037  25.966  25.417  1.00  0.00     0.027 C 
ATOM     21  C   UNL A   1      31.588  26.478  25.604  1.00  0.00     0.316 C 
BRANCH  21  22
ATOM     22  C   UNL A   1      30.697  26.989  24.464  1.00  0.00     0.430 C 
ATOM     23  F   UNL A   1      31.270  26.775  23.255  1.00  0.00    -0.167 F 
ATOM     24  F   UNL A   1      29.500  26.355  24.443  1.00  0.00    -0.167 F 
ATOM     25  F   UNL A   1      30.450  28.314  24.569  1.00  0.00    -0.167 F 
ENDBRANCH  21  22
ENDBRANCH   7   9
ENDBRANCH   6   7
ENDBRANCH   5   6
ENDBRANCH   4   5
ENDBRANCH   3   4
ENDBRANCH   2   3
ENDBRANCH   1   2
BRANCH   1  26
ATOM     26  O   UNL A   1      32.802  34.229  28.532  1.00  0.00    -0.376 OA
BRANCH  26  27
ATOM     27  C   UNL A   1      32.936  35.574  28.967  1.00  0.00     0.202 C 
BRANCH  27  28
ATOM     28  C   UNL A   1      32.855  35.999  30.447  1.00  0.00     0.261 C 
BRANCH  28  29
ATOM     29  O   UNL A   1      33.997  35.699  31.263  1.00  0.00    -0.460 OA
BRANCH  29  30
ATOM     30  C   UNL A   1      33.867  34.620  32.082  1.00  0.00     0.338 C 
ATOM     31  O   UNL A   1      32.893  34.294  32.730  1.00  0.00    -0.246 OA
BRANCH  30  32
ATOM     32  C   UNL A   1      35.047  33.748  31.907  1.00  0.00     0.060 A 
ATOM     33  C   UNL A   1      35.115  32.560  32.649  1.00  0.00     0.016 A 
ATOM     34  C   UNL A   1      36.078  34.098  31.036  1.00  0.00     0.016 A 
ATOM     35  C   UNL A   1      36.208  31.707  32.506  1.00  0.00     0.010 A 
ATOM     36  C   UNL A   1      37.195  33.260  30.923  1.00  0.00     0.010 A 
ATOM     37  C   UNL A   1      37.270  32.068  31.667  1.00  0.00    -0.014 A 
BRANCH  37  38
ATOM     38  C   UNL A   1      38.537  31.304  31.759  1.00  0.00     0.031 A 
ATOM     39  C   UNL A   1      39.490  31.652  32.869  1.00  0.00     0.074 A 
ATOM     40  C   UNL A   1      38.811  30.276  30.935  1.00  0.00     0.049 A 
ATOM     41  N   UNL A   1      40.641  31.112  33.174  1.00  0.00    -0.248 NA
ATOM     42  C   UNL A   1      39.080  32.749  33.762  1.00  0.00     0.031 C 
ATOM     43  C   UNL A   1      37.940  29.787  29.868  1.00  0.00     0.029 A 
ATOM     44  N   UNL A   1      39.906  29.446  30.884  1.00  0.00    -0.354 N 
ATOM     45  C   UNL A   1      41.087  31.796  34.296  1.00  0.00     0.074 A 
ATOM     46  C   UNL A   1      40.107  32.815  34.596  1.00  0.00     0.031 C 
ATOM     47  C   UNL A   1      38.534  28.737  29.271  1.00  0.00     0.029 A 
ATOM     48  C   UNL A   1      39.838  28.500  29.890  1.00  0.00     0.049 A 
ATOM     49  H   UNL A   1      40.667  29.524  31.503  1.00  0.00     0.167 HD
ATOM     50  C   UNL A   1      42.207  31.588  35.025  1.00  0.00     0.031 A 
ATOM     51  C   UNL A   1      40.733  27.562  29.516  1.00  0.00     0.031 A 
ATOM     52  C   UNL A   1      43.195  30.591  34.723  1.00  0.00     0.049 A 
ATOM     53  C   UNL A   1      42.040  27.440  30.261  1.00  0.00     0.074 A 
ATOM     54  C   UNL A   1      44.366  30.311  35.404  1.00  0.00     0.029 A 
ATOM     55  N   UNL A   1      43.133  29.719  33.649  1.00  0.00    -0.354 N 
ATOM     56  N   UNL A   1      42.441  28.077  31.335  1.00  0.00    -0.248 NA
ATOM     57  C   UNL A   1      43.019  26.474  29.740  1.00  0.00     0.031 C 
ATOM     58  C   UNL A   1      45.047  29.313  34.702  1.00  0.00     0.029 A 
ATOM     59  C   UNL A   1      44.268  28.929  33.622  1.00  0.00     0.049 A 
ATOM     60  H   UNL A   1      42.393  29.669  33.002  1.00  0.00     0.167 HD
ATOM     61  C   UNL A   1      43.706  27.577  31.625  1.00  0.00     0.074 A 
ATOM     62  C   UNL A   1      44.000  26.570  30.628  1.00  0.00     0.031 C 
ATOM     63  C   UNL A   1      44.552  27.929  32.625  1.00  0.00     0.031 A 
BRANCH  50  64
ATOM     64  C   UNL A   1      42.436  32.478  36.211  1.00  0.00    -0.014 A 
ATOM     65  C   UNL A   1      41.999  32.106  37.492  1.00  0.00     0.009 A 
ATOM     66  C   UNL A   1      43.141  33.682  36.054  1.00  0.00     0.009 A 
ATOM     67  C   UNL A   1      42.242  32.936  38.588  1.00  0.00     0.001 A 
ATOM     68  C   UNL A   1      43.408  34.493  37.156  1.00  0.00     0.001 A 
ATOM     69  C   UNL A   1      42.953  34.124  38.421  1.00  0.00     0.000 A 
ENDBRANCH  50  64
BRANCH  51  70
ATOM     70  C   UNL A   1      40.442  26.668  28.363  1.00  0.00    -0.014 A 
ATOM     71  C   UNL A   1      39.646  25.523  28.528  1.00  0.00     0.009 A 
ATOM     72  C   UNL A   1      40.976  26.940  27.093  1.00  0.00     0.009 A 
ATOM     73  C   UNL A   1      39.405  24.665  27.450  1.00  0.00     0.001 A 
ATOM     74  C   UNL A   1      40.711  26.096  26.012  1.00  0.00     0.001 A 
ATOM     75  C   UNL A   1      39.931  24.956  26.193  1.00  0.00     0.000 A 
ENDBRANCH  51  70
BRANCH  63  76
ATOM     76  C   UNL A   1      45.883  27.236  32.709  1.00  0.00    -0.014 A 
ATOM     77  C   UNL A   1      46.015  26.013  33.383  1.00  0.00     0.009 A 
ATOM     78  C   UNL A   1      46.983  27.742  31.997  1.00  0.00     0.009 A 
ATOM     79  C   UNL A   1      47.223  25.313  33.347  1.00  0.00     0.001 A 
ATOM     80  C   UNL A   1      48.181  27.026  31.939  1.00  0.00     0.001 A 
ATOM     81  C   UNL A   1      48.300  25.814  32.615  1.00  0.00     0.000 A 
ENDBRANCH  63  76
ENDBRANCH  37  38
ENDBRANCH  30  32
ENDBRANCH  29  30
ENDBRANCH  28  29
ENDBRANCH  27  28
ENDBRANCH  26  27
ENDBRANCH   1  26
TORSDOF 18
ENDMDL
