MODEL 1
REMARK VINA RESULT:      -9.4      0.000      0.000
REMARK SMILES CC[C@](C)(Nc1cccc(Br)c1)C(=O)OCCOCCOCCOC(=O)c1ccc(-c2c3nc(c(-c4ccccc4)c4ccc([nH]4)c(-c4ccccc4)c4nc(c(-c5ccccc5)c5ccc2[nH]5)C=C4)C=C3)cc1
REMARK SMILES IDX 19 1 18 2 17 3 16 4 15 5 13 6 14 7 3 8 4 9 2 10 1 11 5 12
REMARK SMILES IDX 6 14 7 15 12 16 8 17 10 18 9 19 11 20 20 21 21 22 22 23
REMARK SMILES IDX 23 24 24 25 25 26 26 27 27 28 28 29 74 30 29 31 73 32 30 33
REMARK SMILES IDX 31 34 32 35 67 36 33 37 72 38 66 39 68 40 34 41 71 42 65 43
REMARK SMILES IDX 64 44 35 46 57 47 42 48 56 49 43 50 46 51 55 52 69 53 44 54
REMARK SMILES IDX 45 55 54 57 70 58 47 59 36 60 37 61 41 62 38 63 40 64 39 65
REMARK SMILES IDX 58 66 59 67 63 68 60 69 62 70 61 71 48 72 49 73 53 74 50 75
REMARK SMILES IDX 52 76 51 77
REMARK H PARENT 5 13 68 45 46 56
REMARK Flexibility Score: inf
ROOT
ATOM      1  C   UNL A   1      40.175  21.310  26.035  1.00  0.00     0.188 C 
ENDROOT
BRANCH   1   2
ATOM      2  O   UNL A   1      38.843  21.517  26.486  1.00  0.00    -0.376 OA
BRANCH   2   3
ATOM      3  C   UNL A   1      37.921  22.215  25.655  1.00  0.00     0.202 C 
BRANCH   3   4
ATOM      4  C   UNL A   1      37.371  21.449  24.453  1.00  0.00     0.261 C 
BRANCH   4   5
ATOM      5  O   UNL A   1      35.931  21.432  24.404  1.00  0.00    -0.462 OA
BRANCH   5   6
ATOM      6  C   UNL A   1      35.311  22.599  24.110  1.00  0.00     0.331 C 
ATOM      7  O   UNL A   1      35.598  23.261  23.113  1.00  0.00    -0.249 OA
BRANCH   6   8
ATOM      8  C   UNL A   1      34.312  23.108  25.184  1.00  0.00     0.132 C 
ATOM      9  C   UNL A   1      34.877  24.487  25.642  1.00  0.00     0.047 C 
BRANCH   8  10
ATOM     10  C   UNL A   1      34.281  22.120  26.372  1.00  0.00     0.037 C 
ATOM     11  C   UNL A   1      33.277  22.457  27.471  1.00  0.00     0.007 C 
ENDBRANCH   8  10
BRANCH   8  12
ATOM     12  N   UNL A   1      32.908  23.440  24.821  1.00  0.00    -0.370 N 
ATOM     13  H   UNL A   1      32.468  22.694  24.351  1.00  0.00     0.161 HD
BRANCH  12  14
ATOM     14  C   UNL A   1      32.065  24.511  24.968  1.00  0.00     0.036 A 
ATOM     15  C   UNL A   1      31.303  24.796  26.098  1.00  0.00     0.026 A 
ATOM     16  C   UNL A   1      31.915  25.371  23.862  1.00  0.00     0.041 A 
ATOM     17  C   UNL A   1      30.381  25.855  26.111  1.00  0.00     0.003 A 
ATOM     18  C   UNL A   1      31.016  26.439  23.877  1.00  0.00     0.020 A 
ATOM     19  C   UNL A   1      30.228  26.673  24.994  1.00  0.00     0.016 A 
ATOM     20  Br  UNL A   1      30.884  27.582  22.377  1.00  0.00    -0.051 Br
ENDBRANCH  12  14
ENDBRANCH   8  12
ENDBRANCH   6   8
ENDBRANCH   5   6
ENDBRANCH   4   5
ENDBRANCH   3   4
ENDBRANCH   2   3
ENDBRANCH   1   2
BRANCH   1  21
ATOM     21  C   UNL A   1      40.830  19.949  26.282  1.00  0.00     0.188 C 
BRANCH  21  22
ATOM     22  O   UNL A   1      41.847  19.544  25.377  1.00  0.00    -0.376 OA
BRANCH  22  23
ATOM     23  C   UNL A   1      43.170  19.472  25.889  1.00  0.00     0.202 C 
BRANCH  23  24
ATOM     24  C   UNL A   1      44.040  20.624  25.392  1.00  0.00     0.261 C 
BRANCH  24  25
ATOM     25  O   UNL A   1      43.698  21.819  26.114  1.00  0.00    -0.460 OA
BRANCH  25  26
ATOM     26  C   UNL A   1      43.435  22.914  25.364  1.00  0.00     0.338 C 
ATOM     27  O   UNL A   1      43.392  23.002  24.150  1.00  0.00    -0.246 OA
BRANCH  26  28
ATOM     28  C   UNL A   1      43.001  23.989  26.273  1.00  0.00     0.060 A 
ATOM     29  C   UNL A   1      43.514  25.279  26.075  1.00  0.00     0.016 A 
ATOM     30  C   UNL A   1      42.077  23.735  27.287  1.00  0.00     0.016 A 
ATOM     31  C   UNL A   1      43.104  26.325  26.901  1.00  0.00     0.010 A 
ATOM     32  C   UNL A   1      41.680  24.776  28.120  1.00  0.00     0.010 A 
ATOM     33  C   UNL A   1      42.202  26.070  27.941  1.00  0.00    -0.014 A 
BRANCH  33  34
ATOM     34  C   UNL A   1      41.872  27.108  28.941  1.00  0.00     0.031 A 
ATOM     35  C   UNL A   1      42.646  27.133  30.226  1.00  0.00     0.074 A 
ATOM     36  C   UNL A   1      40.845  27.952  28.737  1.00  0.00     0.049 A 
ATOM     37  N   UNL A   1      42.407  27.802  31.322  1.00  0.00    -0.248 NA
ATOM     38  C   UNL A   1      43.843  26.277  30.287  1.00  0.00     0.031 C 
ATOM     39  C   UNL A   1      40.049  28.044  27.514  1.00  0.00     0.029 A 
ATOM     40  N   UNL A   1      40.275  28.871  29.581  1.00  0.00    -0.354 N 
ATOM     41  C   UNL A   1      43.406  27.430  32.211  1.00  0.00     0.074 A 
ATOM     42  C   UNL A   1      44.251  26.473  31.531  1.00  0.00     0.031 C 
ATOM     43  C   UNL A   1      39.068  28.943  27.701  1.00  0.00     0.029 A 
ATOM     44  C   UNL A   1      39.140  29.452  29.068  1.00  0.00     0.049 A 
ATOM     45  H   UNL A   1      40.642  29.093  30.467  1.00  0.00     0.167 HD
ATOM     46  C   UNL A   1      43.594  27.844  33.485  1.00  0.00     0.031 A 
ATOM     47  C   UNL A   1      38.237  30.259  29.657  1.00  0.00     0.031 A 
ATOM     48  C   UNL A   1      42.744  28.789  34.156  1.00  0.00     0.049 A 
ATOM     49  C   UNL A   1      38.426  30.640  31.103  1.00  0.00     0.074 A 
ATOM     50  C   UNL A   1      42.869  29.305  35.434  1.00  0.00     0.029 A 
ATOM     51  N   UNL A   1      41.603  29.349  33.605  1.00  0.00    -0.354 N 
ATOM     52  N   UNL A   1      39.394  30.316  31.925  1.00  0.00    -0.248 NA
ATOM     53  C   UNL A   1      37.389  31.492  31.704  1.00  0.00     0.031 C 
ATOM     54  C   UNL A   1      41.769  30.132  35.678  1.00  0.00     0.029 A 
ATOM     55  C   UNL A   1      40.991  30.175  34.532  1.00  0.00     0.049 A 
ATOM     56  H   UNL A   1      41.275  29.185  32.691  1.00  0.00     0.167 HD
ATOM     57  C   UNL A   1      39.094  30.938  33.130  1.00  0.00     0.074 A 
ATOM     58  C   UNL A   1      37.866  31.677  32.927  1.00  0.00     0.031 C 
ATOM     59  C   UNL A   1      39.769  30.900  34.305  1.00  0.00     0.031 A 
BRANCH  46  60
ATOM     60  C   UNL A   1      44.737  27.249  34.254  1.00  0.00    -0.014 A 
ATOM     61  C   UNL A   1      44.561  26.117  35.064  1.00  0.00     0.009 A 
ATOM     62  C   UNL A   1      46.023  27.796  34.115  1.00  0.00     0.009 A 
ATOM     63  C   UNL A   1      45.651  25.555  35.733  1.00  0.00     0.001 A 
ATOM     64  C   UNL A   1      47.112  27.218  34.766  1.00  0.00     0.001 A 
ATOM     65  C   UNL A   1      46.925  26.101  35.578  1.00  0.00     0.000 A 
ENDBRANCH  46  60
BRANCH  47  66
ATOM     66  C   UNL A   1      37.031  30.713  28.913  1.00  0.00    -0.014 A 
ATOM     67  C   UNL A   1      36.841  32.072  28.619  1.00  0.00     0.009 A 
ATOM     68  C   UNL A   1      36.040  29.793  28.537  1.00  0.00     0.009 A 
ATOM     69  C   UNL A   1      35.667  32.503  27.994  1.00  0.00     0.001 A 
ATOM     70  C   UNL A   1      34.882  30.223  27.884  1.00  0.00     0.001 A 
ATOM     71  C   UNL A   1      34.691  31.578  27.626  1.00  0.00     0.000 A 
ENDBRANCH  47  66
BRANCH  59  72
ATOM     72  C   UNL A   1      39.209  31.697  35.448  1.00  0.00    -0.014 A 
ATOM     73  C   UNL A   1      38.261  31.143  36.321  1.00  0.00     0.009 A 
ATOM     74  C   UNL A   1      39.677  33.000  35.685  1.00  0.00     0.009 A 
ATOM     75  C   UNL A   1      37.772  31.889  37.396  1.00  0.00     0.001 A 
ATOM     76  C   UNL A   1      39.209  33.732  36.776  1.00  0.00     0.001 A 
ATOM     77  C   UNL A   1      38.251  33.180  37.624  1.00  0.00     0.000 A 
ENDBRANCH  59  72
ENDBRANCH  33  34
ENDBRANCH  26  28
ENDBRANCH  25  26
ENDBRANCH  24  25
ENDBRANCH  23  24
ENDBRANCH  22  23
ENDBRANCH  21  22
ENDBRANCH   1  21
TORSDOF 20
ENDMDL
MODEL 2
REMARK VINA RESULT:      -9.3      2.649      7.045
REMARK SMILES CC[C@](C)(Nc1cccc(Br)c1)C(=O)OCCOCCOCCOC(=O)c1ccc(-c2c3nc(c(-c4ccccc4)c4ccc([nH]4)c(-c4ccccc4)c4nc(c(-c5ccccc5)c5ccc2[nH]5)C=C4)C=C3)cc1
REMARK SMILES IDX 19 1 18 2 17 3 16 4 15 5 13 6 14 7 3 8 4 9 2 10 1 11 5 12
REMARK SMILES IDX 6 14 7 15 12 16 8 17 10 18 9 19 11 20 20 21 21 22 22 23
REMARK SMILES IDX 23 24 24 25 25 26 26 27 27 28 28 29 74 30 29 31 73 32 30 33
REMARK SMILES IDX 31 34 32 35 67 36 33 37 72 38 66 39 68 40 34 41 71 42 65 43
REMARK SMILES IDX 64 44 35 46 57 47 42 48 56 49 43 50 46 51 55 52 69 53 44 54
REMARK SMILES IDX 45 55 54 57 70 58 47 59 36 60 37 61 41 62 38 63 40 64 39 65
REMARK SMILES IDX 58 66 59 67 63 68 60 69 62 70 61 71 48 72 49 73 53 74 50 75
REMARK SMILES IDX 52 76 51 77
REMARK H PARENT 5 13 68 45 46 56
REMARK Flexibility Score: inf
ROOT
ATOM      1  C   UNL A   1      38.509  22.195  25.674  1.00  0.00     0.188 C 
ENDROOT
BRANCH   1   2
ATOM      2  O   UNL A   1      37.259  21.518  25.639  1.00  0.00    -0.376 OA
BRANCH   2   3
ATOM      3  C   UNL A   1      36.503  21.504  24.433  1.00  0.00     0.202 C 
BRANCH   3   4
ATOM      4  C   UNL A   1      36.336  22.843  23.716  1.00  0.00     0.261 C 
BRANCH   4   5
ATOM      5  O   UNL A   1      35.119  23.527  24.073  1.00  0.00    -0.462 OA
BRANCH   5   6
ATOM      6  C   UNL A   1      33.954  22.946  23.702  1.00  0.00     0.331 C 
ATOM      7  O   UNL A   1      33.588  22.901  22.527  1.00  0.00    -0.249 OA
BRANCH   6   8
ATOM      8  C   UNL A   1      33.054  22.459  24.870  1.00  0.00     0.132 C 
ATOM      9  C   UNL A   1      31.627  22.987  24.529  1.00  0.00     0.047 C 
BRANCH   8  10
ATOM     10  C   UNL A   1      33.551  23.074  26.197  1.00  0.00     0.037 C 
ATOM     11  C   UNL A   1      33.162  22.303  27.456  1.00  0.00     0.007 C 
ENDBRANCH   8  10
BRANCH   8  12
ATOM     12  N   UNL A   1      32.816  21.007  25.092  1.00  0.00    -0.370 N 
ATOM     13  H   UNL A   1      32.505  20.827  26.010  1.00  0.00     0.161 HD
BRANCH  12  14
ATOM     14  C   UNL A   1      32.915  19.855  24.357  1.00  0.00     0.036 A 
ATOM     15  C   UNL A   1      32.278  19.607  23.144  1.00  0.00     0.026 A 
ATOM     16  C   UNL A   1      33.687  18.808  24.899  1.00  0.00     0.041 A 
ATOM     17  C   UNL A   1      32.351  18.351  22.522  1.00  0.00     0.003 A 
ATOM     18  C   UNL A   1      33.781  17.563  24.273  1.00  0.00     0.020 A 
ATOM     19  C   UNL A   1      33.095  17.321  23.092  1.00  0.00     0.016 A 
ATOM     20  Br  UNL A   1      34.862  16.208  25.027  1.00  0.00    -0.051 Br
ENDBRANCH  12  14
ENDBRANCH   8  12
ENDBRANCH   6   8
ENDBRANCH   5   6
ENDBRANCH   4   5
ENDBRANCH   3   4
ENDBRANCH   2   3
ENDBRANCH   1   2
BRANCH   1  21
ATOM     21  C   UNL A   1      39.693  21.515  26.364  1.00  0.00     0.188 C 
BRANCH  21  22
ATOM     22  O   UNL A   1      40.388  22.265  27.350  1.00  0.00    -0.376 OA
BRANCH  22  23
ATOM     23  C   UNL A   1      41.807  22.226  27.305  1.00  0.00     0.202 C 
BRANCH  23  24
ATOM     24  C   UNL A   1      42.398  23.511  26.732  1.00  0.00     0.261 C 
BRANCH  24  25
ATOM     25  O   UNL A   1      41.330  24.358  26.275  1.00  0.00    -0.460 OA
BRANCH  25  26
ATOM     26  C   UNL A   1      41.666  25.637  25.986  1.00  0.00     0.338 C 
ATOM     27  O   UNL A   1      42.055  26.093  24.926  1.00  0.00    -0.246 OA
BRANCH  26  28
ATOM     28  C   UNL A   1      41.295  26.471  27.143  1.00  0.00     0.060 A 
ATOM     29  C   UNL A   1      42.001  27.662  27.361  1.00  0.00     0.016 A 
ATOM     30  C   UNL A   1      40.243  26.099  27.982  1.00  0.00     0.016 A 
ATOM     31  C   UNL A   1      41.658  28.488  28.432  1.00  0.00     0.010 A 
ATOM     32  C   UNL A   1      39.912  26.916  29.058  1.00  0.00     0.010 A 
ATOM     33  C   UNL A   1      40.625  28.105  29.297  1.00  0.00    -0.014 A 
BRANCH  33  34
ATOM     34  C   UNL A   1      40.342  28.861  30.534  1.00  0.00     0.031 A 
ATOM     35  C   UNL A   1      39.289  29.930  30.492  1.00  0.00     0.074 A 
ATOM     36  C   UNL A   1      41.071  28.655  31.645  1.00  0.00     0.049 A 
ATOM     37  N   UNL A   1      39.011  30.851  31.374  1.00  0.00    -0.248 NA
ATOM     38  C   UNL A   1      38.445  29.971  29.285  1.00  0.00     0.031 C 
ATOM     39  C   UNL A   1      42.092  27.621  31.812  1.00  0.00     0.029 A 
ATOM     40  N   UNL A   1      41.085  29.339  32.834  1.00  0.00    -0.354 N 
ATOM     41  C   UNL A   1      37.980  31.598  30.821  1.00  0.00     0.074 A 
ATOM     42  C   UNL A   1      37.684  31.028  29.526  1.00  0.00     0.031 C 
ATOM     43  C   UNL A   1      42.659  27.763  33.022  1.00  0.00     0.029 A 
ATOM     44  C   UNL A   1      42.076  28.924  33.690  1.00  0.00     0.049 A 
ATOM     45  H   UNL A   1      40.447  30.057  33.053  1.00  0.00     0.167 HD
ATOM     46  C   UNL A   1      37.345  32.672  31.346  1.00  0.00     0.031 A 
ATOM     47  C   UNL A   1      42.495  29.456  34.855  1.00  0.00     0.031 A 
ATOM     48  C   UNL A   1      37.651  33.238  32.630  1.00  0.00     0.049 A 
ATOM     49  C   UNL A   1      41.824  30.700  35.376  1.00  0.00     0.074 A 
ATOM     50  C   UNL A   1      37.040  34.301  33.271  1.00  0.00     0.029 A 
ATOM     51  N   UNL A   1      38.665  32.793  33.464  1.00  0.00    -0.354 N 
ATOM     52  N   UNL A   1      40.823  31.377  34.867  1.00  0.00    -0.248 NA
ATOM     53  C   UNL A   1      42.348  31.258  36.632  1.00  0.00     0.031 C 
ATOM     54  C   UNL A   1      37.724  34.538  34.467  1.00  0.00     0.029 A 
ATOM     55  C   UNL A   1      38.723  33.586  34.596  1.00  0.00     0.049 A 
ATOM     56  H   UNL A   1      39.255  32.027  33.279  1.00  0.00     0.167 HD
ATOM     57  C   UNL A   1      40.587  32.426  35.747  1.00  0.00     0.074 A 
ATOM     58  C   UNL A   1      41.533  32.284  36.833  1.00  0.00     0.031 C 
ATOM     59  C   UNL A   1      39.673  33.424  35.664  1.00  0.00     0.031 A 
BRANCH  46  60
ATOM     60  C   UNL A   1      36.283  33.332  30.515  1.00  0.00    -0.014 A 
ATOM     61  C   UNL A   1      36.599  34.002  29.324  1.00  0.00     0.009 A 
ATOM     62  C   UNL A   1      34.938  33.227  30.904  1.00  0.00     0.009 A 
ATOM     63  C   UNL A   1      35.587  34.568  28.546  1.00  0.00     0.001 A 
ATOM     64  C   UNL A   1      33.928  33.774  30.112  1.00  0.00     0.001 A 
ATOM     65  C   UNL A   1      34.253  34.448  28.936  1.00  0.00     0.000 A 
ENDBRANCH  46  60
BRANCH  47  66
ATOM     66  C   UNL A   1      43.651  28.866  35.582  1.00  0.00    -0.014 A 
ATOM     67  C   UNL A   1      44.964  29.259  35.279  1.00  0.00     0.009 A 
ATOM     68  C   UNL A   1      43.449  27.869  36.549  1.00  0.00     0.009 A 
ATOM     69  C   UNL A   1      46.050  28.641  35.905  1.00  0.00     0.001 A 
ATOM     70  C   UNL A   1      44.535  27.277  37.197  1.00  0.00     0.001 A 
ATOM     71  C   UNL A   1      45.835  27.654  36.865  1.00  0.00     0.000 A 
ENDBRANCH  47  66
BRANCH  59  72
ATOM     72  C   UNL A   1      39.637  34.421  36.787  1.00  0.00    -0.014 A 
ATOM     73  C   UNL A   1      40.281  35.661  36.676  1.00  0.00     0.009 A 
ATOM     74  C   UNL A   1      38.903  34.134  37.949  1.00  0.00     0.009 A 
ATOM     75  C   UNL A   1      40.213  36.587  37.719  1.00  0.00     0.001 A 
ATOM     76  C   UNL A   1      38.813  35.071  38.978  1.00  0.00     0.001 A 
ATOM     77  C   UNL A   1      39.475  36.293  38.865  1.00  0.00     0.000 A 
ENDBRANCH  59  72
ENDBRANCH  33  34
ENDBRANCH  26  28
ENDBRANCH  25  26
ENDBRANCH  24  25
ENDBRANCH  23  24
ENDBRANCH  22  23
ENDBRANCH  21  22
ENDBRANCH   1  21
TORSDOF 20
ENDMDL
MODEL 3
REMARK VINA RESULT:      -9.1      5.225     11.283
REMARK SMILES CC[C@](C)(Nc1cccc(Br)c1)C(=O)OCCOCCOCCOC(=O)c1ccc(-c2c3nc(c(-c4ccccc4)c4ccc([nH]4)c(-c4ccccc4)c4nc(c(-c5ccccc5)c5ccc2[nH]5)C=C4)C=C3)cc1
REMARK SMILES IDX 19 1 18 2 17 3 16 4 15 5 13 6 14 7 3 8 4 9 2 10 1 11 5 12
REMARK SMILES IDX 6 14 7 15 12 16 8 17 10 18 9 19 11 20 20 21 21 22 22 23
REMARK SMILES IDX 23 24 24 25 25 26 26 27 27 28 28 29 74 30 29 31 73 32 30 33
REMARK SMILES IDX 31 34 32 35 67 36 33 37 72 38 66 39 68 40 34 41 71 42 65 43
REMARK SMILES IDX 64 44 35 46 57 47 42 48 56 49 43 50 46 51 55 52 69 53 44 54
REMARK SMILES IDX 45 55 54 57 70 58 47 59 36 60 37 61 41 62 38 63 40 64 39 65
REMARK SMILES IDX 58 66 59 67 63 68 60 69 62 70 61 71 48 72 49 73 53 74 50 75
REMARK SMILES IDX 52 76 51 77
REMARK H PARENT 5 13 68 45 46 56
REMARK Flexibility Score: inf
ROOT
ATOM      1  C   UNL A   1      33.739  35.436  31.761  1.00  0.00     0.188 C 
ENDROOT
BRANCH   1   2
ATOM      2  O   UNL A   1      34.773  35.873  32.634  1.00  0.00    -0.376 OA
BRANCH   2   3
ATOM      3  C   UNL A   1      34.924  35.255  33.908  1.00  0.00     0.202 C 
BRANCH   3   4
ATOM      4  C   UNL A   1      35.097  33.737  33.914  1.00  0.00     0.261 C 
BRANCH   4   5
ATOM      5  O   UNL A   1      36.475  33.324  33.820  1.00  0.00    -0.462 OA
BRANCH   5   6
ATOM      6  C   UNL A   1      37.123  33.073  34.981  1.00  0.00     0.331 C 
ATOM      7  O   UNL A   1      36.648  33.375  36.076  1.00  0.00    -0.249 OA
BRANCH   6   8
ATOM      8  C   UNL A   1      38.558  32.500  34.829  1.00  0.00     0.132 C 
ATOM      9  C   UNL A   1      38.724  31.505  36.018  1.00  0.00     0.047 C 
BRANCH   8  10
ATOM     10  C   UNL A   1      39.588  33.646  34.941  1.00  0.00     0.037 C 
ATOM     11  C   UNL A   1      40.273  34.033  33.632  1.00  0.00     0.007 C 
ENDBRANCH   8  10
BRANCH   8  12
ATOM     12  N   UNL A   1      38.922  31.662  33.654  1.00  0.00    -0.370 N 
ATOM     13  H   UNL A   1      38.647  32.085  32.808  1.00  0.00     0.161 HD
BRANCH  12  14
ATOM     14  C   UNL A   1      39.540  30.458  33.440  1.00  0.00     0.036 A 
ATOM     15  C   UNL A   1      38.930  29.309  32.942  1.00  0.00     0.026 A 
ATOM     16  C   UNL A   1      40.897  30.354  33.804  1.00  0.00     0.041 A 
ATOM     17  C   UNL A   1      39.619  28.089  32.865  1.00  0.00     0.003 A 
ATOM     18  C   UNL A   1      41.594  29.148  33.709  1.00  0.00     0.020 A 
ATOM     19  C   UNL A   1      40.952  28.004  33.260  1.00  0.00     0.016 A 
ATOM     20  Br  UNL A   1      43.424  29.077  34.177  1.00  0.00    -0.051 Br
ENDBRANCH  12  14
ENDBRANCH   8  12
ENDBRANCH   6   8
ENDBRANCH   5   6
ENDBRANCH   4   5
ENDBRANCH   3   4
ENDBRANCH   2   3
ENDBRANCH   1   2
BRANCH   1  21
ATOM     21  C   UNL A   1      34.118  34.607  30.532  1.00  0.00     0.188 C 
BRANCH  21  22
ATOM     22  O   UNL A   1      33.701  35.096  29.266  1.00  0.00    -0.376 OA
BRANCH  22  23
ATOM     23  C   UNL A   1      34.282  34.489  28.120  1.00  0.00     0.202 C 
BRANCH  23  24
ATOM     24  C   UNL A   1      33.944  33.004  28.024  1.00  0.00     0.261 C 
BRANCH  24  25
ATOM     25  O   UNL A   1      35.160  32.252  27.869  1.00  0.00    -0.460 OA
BRANCH  25  26
ATOM     26  C   UNL A   1      35.019  30.914  27.725  1.00  0.00     0.338 C 
ATOM     27  O   UNL A   1      34.076  30.302  27.257  1.00  0.00    -0.246 OA
BRANCH  26  28
ATOM     28  C   UNL A   1      36.311  30.288  28.058  1.00  0.00     0.060 A 
ATOM     29  C   UNL A   1      36.451  29.671  29.310  1.00  0.00     0.016 A 
ATOM     30  C   UNL A   1      37.359  30.280  27.136  1.00  0.00     0.016 A 
ATOM     31  C   UNL A   1      37.651  29.046  29.647  1.00  0.00     0.010 A 
ATOM     32  C   UNL A   1      38.560  29.669  27.479  1.00  0.00     0.010 A 
ATOM     33  C   UNL A   1      38.718  29.063  28.739  1.00  0.00    -0.014 A 
BRANCH  33  34
ATOM     34  C   UNL A   1      40.055  28.563  29.119  1.00  0.00     0.031 A 
ATOM     35  C   UNL A   1      41.032  29.526  29.727  1.00  0.00     0.074 A 
ATOM     36  C   UNL A   1      40.415  27.297  28.845  1.00  0.00     0.049 A 
ATOM     37  N   UNL A   1      42.310  29.379  29.948  1.00  0.00    -0.248 NA
ATOM     38  C   UNL A   1      40.494  30.838  30.128  1.00  0.00     0.031 C 
ATOM     39  C   UNL A   1      39.540  26.264  28.292  1.00  0.00     0.029 A 
ATOM     40  N   UNL A   1      41.634  26.678  28.964  1.00  0.00    -0.354 N 
ATOM     41  C   UNL A   1      42.737  30.585  30.488  1.00  0.00     0.074 A 
ATOM     42  C   UNL A   1      41.584  31.455  30.557  1.00  0.00     0.031 C 
ATOM     43  C   UNL A   1      40.261  25.149  28.084  1.00  0.00     0.029 A 
ATOM     44  C   UNL A   1      41.653  25.406  28.445  1.00  0.00     0.049 A 
ATOM     45  H   UNL A   1      42.418  27.103  29.381  1.00  0.00     0.167 HD
ATOM     46  C   UNL A   1      43.983  30.935  30.880  1.00  0.00     0.031 A 
ATOM     47  C   UNL A   1      42.688  24.569  28.237  1.00  0.00     0.031 A 
ATOM     48  C   UNL A   1      45.125  30.066  30.799  1.00  0.00     0.049 A 
ATOM     49  C   UNL A   1      44.079  25.016  28.608  1.00  0.00     0.074 A 
ATOM     50  C   UNL A   1      46.424  30.311  31.207  1.00  0.00     0.029 A 
ATOM     51  N   UNL A   1      45.104  28.789  30.262  1.00  0.00    -0.354 N 
ATOM     52  N   UNL A   1      44.469  26.142  29.155  1.00  0.00    -0.248 NA
ATOM     53  C   UNL A   1      45.174  24.077  28.324  1.00  0.00     0.031 C 
ATOM     54  C   UNL A   1      47.204  29.203  30.860  1.00  0.00     0.029 A 
ATOM     55  C   UNL A   1      46.378  28.248  30.290  1.00  0.00     0.049 A 
ATOM     56  H   UNL A   1      44.304  28.334  29.912  1.00  0.00     0.167 HD
ATOM     57  C   UNL A   1      45.847  26.039  29.298  1.00  0.00     0.074 A 
ATOM     58  C   UNL A   1      46.223  24.733  28.800  1.00  0.00     0.031 C 
ATOM     59  C   UNL A   1      46.726  26.945  29.790  1.00  0.00     0.031 A 
BRANCH  46  60
ATOM     60  C   UNL A   1      44.190  32.330  31.395  1.00  0.00    -0.014 A 
ATOM     61  C   UNL A   1      44.337  33.416  30.521  1.00  0.00     0.009 A 
ATOM     62  C   UNL A   1      44.174  32.564  32.780  1.00  0.00     0.009 A 
ATOM     63  C   UNL A   1      44.482  34.711  31.025  1.00  0.00     0.001 A 
ATOM     64  C   UNL A   1      44.295  33.861  33.278  1.00  0.00     0.001 A 
ATOM     65  C   UNL A   1      44.453  34.933  32.402  1.00  0.00     0.000 A 
ENDBRANCH  46  60
BRANCH  47  66
ATOM     66  C   UNL A   1      42.473  23.250  27.585  1.00  0.00    -0.014 A 
ATOM     67  C   UNL A   1      42.641  23.100  26.200  1.00  0.00     0.009 A 
ATOM     68  C   UNL A   1      42.051  22.144  28.340  1.00  0.00     0.009 A 
ATOM     69  C   UNL A   1      42.357  21.879  25.581  1.00  0.00     0.001 A 
ATOM     70  C   UNL A   1      41.799  20.917  27.723  1.00  0.00     0.001 A 
ATOM     71  C   UNL A   1      41.939  20.789  26.343  1.00  0.00     0.000 A 
ENDBRANCH  47  66
BRANCH  59  72
ATOM     72  C   UNL A   1      48.174  26.544  29.838  1.00  0.00    -0.014 A 
ATOM     73  C   UNL A   1      49.054  26.884  28.801  1.00  0.00     0.009 A 
ATOM     74  C   UNL A   1      48.671  25.865  30.962  1.00  0.00     0.009 A 
ATOM     75  C   UNL A   1      50.402  26.527  28.876  1.00  0.00     0.001 A 
ATOM     76  C   UNL A   1      50.024  25.536  31.047  1.00  0.00     0.001 A 
ATOM     77  C   UNL A   1      50.886  25.859  30.001  1.00  0.00     0.000 A 
ENDBRANCH  59  72
ENDBRANCH  33  34
ENDBRANCH  26  28
ENDBRANCH  25  26
ENDBRANCH  24  25
ENDBRANCH  23  24
ENDBRANCH  22  23
ENDBRANCH  21  22
ENDBRANCH   1  21
TORSDOF 20
ENDMDL
