MODEL 1
REMARK VINA RESULT:     -11.9      0.000      0.000
REMARK SMILES Cc1ccc(C[C@@H](Cc2cc(F)cc(Br)c2)C(=O)OCCOCCOCCOC(=O)c2ccc(-c3c4nc(c(-c5ccccc5)c5ccc([nH]5)c(-c5ccccc5)c5nc(c(-c6ccccc6)c6ccc3[nH]6)C=C5)C=C4)cc2)cc1
REMARK SMILES IDX 23 1 22 2 21 3 20 4 19 5 17 6 18 7 7 8 6 9 5 10 1 11 2 12
REMARK SMILES IDX 3 13 80 14 4 15 79 16 8 17 9 18 10 19 16 20 11 21 14 22
REMARK SMILES IDX 12 23 13 24 15 25 24 26 25 27 26 28 27 29 28 30 29 31 30 32
REMARK SMILES IDX 31 33 32 34 78 35 33 36 77 37 34 38 35 39 36 40 71 41 37 42
REMARK SMILES IDX 76 43 70 44 72 45 38 46 75 47 69 48 68 49 39 51 61 52 46 53
REMARK SMILES IDX 60 54 47 55 50 56 59 57 73 58 48 59 49 60 58 62 74 63 51 64
REMARK SMILES IDX 40 65 41 66 45 67 42 68 44 69 43 70 62 71 63 72 67 73 64 74
REMARK SMILES IDX 66 75 65 76 52 77 53 78 57 79 54 80 56 81 55 82
REMARK H PARENT 72 50 50 61
REMARK Flexibility Score: inf
ROOT
ATOM      1  C   UNL A   1      41.016  22.711  27.870  1.00  0.00     0.188 C 
ENDROOT
BRANCH   1   2
ATOM      2  O   UNL A   1      39.926  23.633  27.613  1.00  0.00    -0.376 OA
BRANCH   2   3
ATOM      3  C   UNL A   1      38.996  23.661  26.514  1.00  0.00     0.202 C 
BRANCH   3   4
ATOM      4  C   UNL A   1      37.802  22.488  25.977  1.00  0.00     0.261 C 
BRANCH   4   5
ATOM      5  O   UNL A   1      36.953  22.196  24.551  1.00  0.00    -0.463 OA
BRANCH   5   6
ATOM      6  C   UNL A   1      36.313  22.911  23.519  1.00  0.00     0.309 C 
ATOM      7  O   UNL A   1      36.707  23.053  22.363  1.00  0.00    -0.252 OA
BRANCH   6   8
ATOM      8  C   UNL A   1      35.039  23.675  23.727  1.00  0.00     0.108 C 
BRANCH   8   9
ATOM      9  C   UNL A   1      33.972  23.268  22.731  1.00  0.00     0.051 C 
BRANCH   9  10
ATOM     10  C   UNL A   1      33.087  24.459  22.473  1.00  0.00    -0.047 A 
ATOM     11  C   UNL A   1      30.597  27.954  22.575  1.00  0.00     0.044 C 
ATOM     12  C   UNL A   1      31.475  26.743  22.529  1.00  0.00    -0.051 A 
ATOM     13  C   UNL A   1      30.917  25.487  22.776  1.00  0.00     0.004 A 
ATOM     14  C   UNL A   1      32.846  26.853  22.270  1.00  0.00     0.004 A 
ATOM     15  C   UNL A   1      31.707  24.349  22.695  1.00  0.00     0.004 A 
ATOM     16  C   UNL A   1      33.655  25.718  22.258  1.00  0.00     0.004 A 
ENDBRANCH   9  10
ENDBRANCH   8   9
BRANCH   8  17
ATOM     17  C   UNL A   1      34.479  23.806  25.225  1.00  0.00     0.051 C 
BRANCH  17  18
ATOM     18  C   UNL A   1      33.656  24.929  25.797  1.00  0.00    -0.043 A 
ATOM     19  C   UNL A   1      34.185  26.233  25.857  1.00  0.00     0.043 A 
ATOM     20  C   UNL A   1      32.355  24.739  26.210  1.00  0.00     0.019 A 
ATOM     21  C   UNL A   1      33.346  27.328  26.032  1.00  0.00     0.124 A 
ATOM     22  C   UNL A   1      31.520  25.843  26.285  1.00  0.00     0.021 A 
ATOM     23  F   UNL A   1      33.847  28.567  25.952  1.00  0.00    -0.207 F 
ATOM     24  C   UNL A   1      31.989  27.145  26.177  1.00  0.00     0.055 A 
ATOM     25  Br  UNL A   1      29.712  25.460  26.267  1.00  0.00    -0.051 Br
ENDBRANCH  17  18
ENDBRANCH   8  17
ENDBRANCH   6   8
ENDBRANCH   5   6
ENDBRANCH   4   5
ENDBRANCH   3   4
ENDBRANCH   2   3
ENDBRANCH   1   2
BRANCH   1  26
ATOM     26  C   UNL A   1      41.014  21.216  27.525  1.00  0.00     0.188 C 
BRANCH  26  27
ATOM     27  O   UNL A   1      42.302  20.774  27.155  1.00  0.00    -0.376 OA
BRANCH  27  28
ATOM     28  C   UNL A   1      42.465  19.370  27.051  1.00  0.00     0.202 C 
BRANCH  28  29
ATOM     29  C   UNL A   1      42.888  18.889  25.650  1.00  0.00     0.261 C 
BRANCH  29  30
ATOM     30  O   UNL A   1      44.258  19.264  25.365  1.00  0.00    -0.460 OA
BRANCH  30  31
ATOM     31  C   UNL A   1      44.484  19.978  24.217  1.00  0.00     0.338 C 
ATOM     32  O   UNL A   1      44.530  19.495  23.092  1.00  0.00    -0.246 OA
BRANCH  31  33
ATOM     33  C   UNL A   1      44.932  21.370  24.558  1.00  0.00     0.060 A 
ATOM     34  C   UNL A   1      45.804  21.705  25.603  1.00  0.00     0.016 A 
ATOM     35  C   UNL A   1      44.137  22.369  24.110  1.00  0.00     0.016 A 
ATOM     36  C   UNL A   1      45.682  22.959  26.333  1.00  0.00     0.010 A 
ATOM     37  C   UNL A   1      43.881  23.389  25.029  1.00  0.00     0.010 A 
ATOM     38  C   UNL A   1      44.599  23.837  26.174  1.00  0.00    -0.014 A 
BRANCH  38  39
ATOM     39  C   UNL A   1      44.161  25.109  27.233  1.00  0.00     0.031 A 
ATOM     40  C   UNL A   1      42.746  26.093  27.425  1.00  0.00     0.074 A 
ATOM     41  C   UNL A   1      45.090  25.504  28.146  1.00  0.00     0.049 A 
ATOM     42  N   UNL A   1      42.387  26.777  28.512  1.00  0.00    -0.248 NA
ATOM     43  C   UNL A   1      41.695  26.425  26.424  1.00  0.00     0.031 C 
ATOM     44  C   UNL A   1      44.853  26.289  29.356  1.00  0.00     0.029 A 
ATOM     45  N   UNL A   1      46.477  25.453  28.124  1.00  0.00    -0.354 N 
ATOM     46  C   UNL A   1      41.171  27.446  28.322  1.00  0.00     0.074 A 
ATOM     47  C   UNL A   1      40.726  27.092  27.027  1.00  0.00     0.031 C 
ATOM     48  C   UNL A   1      45.956  26.983  29.646  1.00  0.00     0.029 A 
ATOM     49  C   UNL A   1      46.914  26.689  28.613  1.00  0.00     0.049 A 
ATOM     50  H   UNL A   1      47.037  24.700  27.824  1.00  0.00     0.167 HD
ATOM     51  C   UNL A   1      40.665  28.550  28.949  1.00  0.00     0.031 A 
ATOM     52  C   UNL A   1      47.719  27.582  27.979  1.00  0.00     0.031 A 
ATOM     53  C   UNL A   1      41.722  29.384  29.495  1.00  0.00     0.049 A 
ATOM     54  C   UNL A   1      47.284  29.046  28.119  1.00  0.00     0.074 A 
ATOM     55  C   UNL A   1      42.432  29.389  30.676  1.00  0.00     0.029 A 
ATOM     56  N   UNL A   1      42.399  30.255  28.641  1.00  0.00    -0.354 N 
ATOM     57  N   UNL A   1      46.251  29.496  28.800  1.00  0.00    -0.248 NA
ATOM     58  C   UNL A   1      47.957  30.118  27.381  1.00  0.00     0.031 C 
ATOM     59  C   UNL A   1      43.635  30.127  30.452  1.00  0.00     0.029 A 
ATOM     60  C   UNL A   1      43.648  30.609  29.149  1.00  0.00     0.049 A 
ATOM     61  H   UNL A   1      42.040  30.579  27.784  1.00  0.00     0.167 HD
ATOM     62  C   UNL A   1      45.944  30.766  28.334  1.00  0.00     0.074 A 
ATOM     63  C   UNL A   1      47.153  31.163  27.630  1.00  0.00     0.031 C 
ATOM     64  C   UNL A   1      44.667  31.298  28.321  1.00  0.00     0.031 A 
BRANCH  51  65
ATOM     65  C   UNL A   1      39.159  28.919  28.893  1.00  0.00    -0.014 A 
ATOM     66  C   UNL A   1      38.618  29.505  27.736  1.00  0.00     0.009 A 
ATOM     67  C   UNL A   1      38.251  28.848  29.986  1.00  0.00     0.009 A 
ATOM     68  C   UNL A   1      37.277  29.951  27.669  1.00  0.00     0.001 A 
ATOM     69  C   UNL A   1      36.897  29.228  29.909  1.00  0.00     0.001 A 
ATOM     70  C   UNL A   1      36.410  29.794  28.746  1.00  0.00     0.000 A 
ENDBRANCH  51  65
BRANCH  52  71
ATOM     71  C   UNL A   1      48.494  26.960  26.853  1.00  0.00    -0.014 A 
ATOM     72  C   UNL A   1      47.860  26.932  25.590  1.00  0.00     0.009 A 
ATOM     73  C   UNL A   1      49.893  26.825  26.878  1.00  0.00     0.009 A 
ATOM     74  C   UNL A   1      48.601  26.918  24.402  1.00  0.00     0.001 A 
ATOM     75  C   UNL A   1      50.633  26.773  25.681  1.00  0.00     0.001 A 
ATOM     76  C   UNL A   1      49.989  26.862  24.447  1.00  0.00     0.000 A 
ENDBRANCH  52  71
BRANCH  64  77
ATOM     77  C   UNL A   1      44.284  32.469  27.396  1.00  0.00    -0.014 A 
ATOM     78  C   UNL A   1      44.214  32.376  25.990  1.00  0.00     0.009 A 
ATOM     79  C   UNL A   1      43.881  33.710  27.929  1.00  0.00     0.009 A 
ATOM     80  C   UNL A   1      43.909  33.470  25.164  1.00  0.00     0.001 A 
ATOM     81  C   UNL A   1      43.493  34.789  27.111  1.00  0.00     0.001 A 
ATOM     82  C   UNL A   1      43.545  34.681  25.727  1.00  0.00     0.000 A 
ENDBRANCH  64  77
ENDBRANCH  38  39
ENDBRANCH  31  33
ENDBRANCH  30  31
ENDBRANCH  29  30
ENDBRANCH  28  29
ENDBRANCH  27  28
ENDBRANCH  26  27
ENDBRANCH   1  26
TORSDOF 21
ENDMDL
MODEL 2
REMARK VINA RESULT:     -11.5      1.866      2.745
REMARK SMILES Cc1ccc(C[C@@H](Cc2cc(F)cc(Br)c2)C(=O)OCCOCCOCCOC(=O)c2ccc(-c3c4nc(c(-c5ccccc5)c5ccc([nH]5)c(-c5ccccc5)c5nc(c(-c6ccccc6)c6ccc3[nH]6)C=C5)C=C4)cc2)cc1
REMARK SMILES IDX 23 1 22 2 21 3 20 4 19 5 17 6 18 7 7 8 6 9 5 10 1 11 2 12
REMARK SMILES IDX 3 13 80 14 4 15 79 16 8 17 9 18 10 19 16 20 11 21 14 22
REMARK SMILES IDX 12 23 13 24 15 25 24 26 25 27 26 28 27 29 28 30 29 31 30 32
REMARK SMILES IDX 31 33 32 34 78 35 33 36 77 37 34 38 35 39 36 40 71 41 37 42
REMARK SMILES IDX 76 43 70 44 72 45 38 46 75 47 69 48 68 49 39 51 61 52 46 53
REMARK SMILES IDX 60 54 47 55 50 56 59 57 73 58 48 59 49 60 58 62 74 63 51 64
REMARK SMILES IDX 40 65 41 66 45 67 42 68 44 69 43 70 62 71 63 72 67 73 64 74
REMARK SMILES IDX 66 75 65 76 52 77 53 78 57 79 54 80 56 81 55 82
REMARK H PARENT 72 50 50 61
REMARK Flexibility Score: inf
ROOT
ATOM      1  C   UNL A   1      40.893  19.914  26.428  1.00  0.00     0.188 C 
ENDROOT
BRANCH   1   2
ATOM      2  O   UNL A   1      40.369  21.223  26.090  1.00  0.00    -0.376 OA
BRANCH   2   3
ATOM      3  C   UNL A   1      40.036  22.324  26.957  1.00  0.00     0.202 C 
BRANCH   3   4
ATOM      4  C   UNL A   1      39.011  23.729  26.701  1.00  0.00     0.261 C 
BRANCH   4   5
ATOM      5  O   UNL A   1      37.612  24.059  25.821  1.00  0.00    -0.463 OA
BRANCH   5   6
ATOM      6  C   UNL A   1      36.727  23.415  24.934  1.00  0.00     0.309 C 
ATOM      7  O   UNL A   1      36.963  23.059  23.781  1.00  0.00    -0.252 OA
BRANCH   6   8
ATOM      8  C   UNL A   1      35.298  23.119  25.283  1.00  0.00     0.108 C 
BRANCH   8   9
ATOM      9  C   UNL A   1      34.819  23.962  26.446  1.00  0.00     0.051 C 
BRANCH   9  10
ATOM     10  C   UNL A   1      33.834  24.975  25.922  1.00  0.00    -0.047 A 
ATOM     11  C   UNL A   1      31.047  28.162  25.214  1.00  0.00     0.044 C 
ATOM     12  C   UNL A   1      32.029  27.057  25.449  1.00  0.00    -0.051 A 
ATOM     13  C   UNL A   1      31.581  25.854  25.998  1.00  0.00     0.004 A 
ATOM     14  C   UNL A   1      33.386  27.220  25.152  1.00  0.00     0.004 A 
ATOM     15  C   UNL A   1      32.467  24.802  26.182  1.00  0.00     0.004 A 
ATOM     16  C   UNL A   1      34.291  26.190  25.403  1.00  0.00     0.004 A 
ENDBRANCH   9  10
ENDBRANCH   8   9
BRANCH   8  17
ATOM     17  C   UNL A   1      34.235  23.043  24.084  1.00  0.00     0.051 C 
BRANCH  17  18
ATOM     18  C   UNL A   1      33.279  21.918  23.782  1.00  0.00    -0.043 A 
ATOM     19  C   UNL A   1      32.629  21.860  22.534  1.00  0.00     0.043 A 
ATOM     20  C   UNL A   1      33.064  20.889  24.673  1.00  0.00     0.019 A 
ATOM     21  C   UNL A   1      32.043  20.677  22.098  1.00  0.00     0.124 A 
ATOM     22  C   UNL A   1      32.564  19.691  24.186  1.00  0.00     0.021 A 
ATOM     23  F   UNL A   1      31.550  20.600  20.856  1.00  0.00    -0.207 F 
ATOM     24  C   UNL A   1      32.070  19.555  22.897  1.00  0.00     0.055 A 
ATOM     25  Br  UNL A   1      32.849  18.225  25.275  1.00  0.00    -0.051 Br
ENDBRANCH  17  18
ENDBRANCH   8  17
ENDBRANCH   6   8
ENDBRANCH   5   6
ENDBRANCH   4   5
ENDBRANCH   3   4
ENDBRANCH   2   3
ENDBRANCH   1   2
BRANCH   1  26
ATOM     26  C   UNL A   1      41.819  19.608  27.614  1.00  0.00     0.188 C 
BRANCH  26  27
ATOM     27  O   UNL A   1      42.744  18.592  27.291  1.00  0.00    -0.376 OA
BRANCH  27  28
ATOM     28  C   UNL A   1      42.992  18.402  25.908  1.00  0.00     0.202 C 
BRANCH  28  29
ATOM     29  C   UNL A   1      44.486  18.407  25.533  1.00  0.00     0.261 C 
BRANCH  29  30
ATOM     30  O   UNL A   1      44.728  19.247  24.379  1.00  0.00    -0.460 OA
BRANCH  30  31
ATOM     31  C   UNL A   1      45.720  20.188  24.488  1.00  0.00     0.338 C 
ATOM     32  O   UNL A   1      46.884  19.945  24.783  1.00  0.00    -0.246 OA
BRANCH  31  33
ATOM     33  C   UNL A   1      45.125  21.566  24.465  1.00  0.00     0.060 A 
ATOM     34  C   UNL A   1      45.856  22.762  24.390  1.00  0.00     0.016 A 
ATOM     35  C   UNL A   1      43.870  21.673  24.957  1.00  0.00     0.016 A 
ATOM     36  C   UNL A   1      45.399  23.983  25.037  1.00  0.00     0.010 A 
ATOM     37  C   UNL A   1      43.646  22.766  25.798  1.00  0.00     0.010 A 
ATOM     38  C   UNL A   1      44.307  24.022  25.918  1.00  0.00    -0.014 A 
BRANCH  38  39
ATOM     39  C   UNL A   1      43.932  25.284  27.013  1.00  0.00     0.031 A 
ATOM     40  C   UNL A   1      42.547  26.295  27.269  1.00  0.00     0.074 A 
ATOM     41  C   UNL A   1      44.900  25.641  27.901  1.00  0.00     0.049 A 
ATOM     42  N   UNL A   1      42.240  26.967  28.379  1.00  0.00    -0.248 NA
ATOM     43  C   UNL A   1      41.471  26.668  26.310  1.00  0.00     0.031 C 
ATOM     44  C   UNL A   1      44.720  26.409  29.132  1.00  0.00     0.029 A 
ATOM     45  N   UNL A   1      46.283  25.560  27.832  1.00  0.00    -0.354 N 
ATOM     46  C   UNL A   1      41.033  27.666  28.241  1.00  0.00     0.074 A 
ATOM     47  C   UNL A   1      40.538  27.345  26.956  1.00  0.00     0.031 C 
ATOM     48  C   UNL A   1      45.848  27.073  29.398  1.00  0.00     0.029 A 
ATOM     49  C   UNL A   1      46.764  26.778  28.328  1.00  0.00     0.049 A 
ATOM     50  H   UNL A   1      46.816  24.801  27.501  1.00  0.00     0.167 HD
ATOM     51  C   UNL A   1      40.573  28.768  28.904  1.00  0.00     0.031 A 
ATOM     52  C   UNL A   1      47.567  27.664  27.684  1.00  0.00     0.031 A 
ATOM     53  C   UNL A   1      41.666  29.569  29.429  1.00  0.00     0.049 A 
ATOM     54  C   UNL A   1      47.170  29.134  27.864  1.00  0.00     0.074 A 
ATOM     55  C   UNL A   1      42.415  29.537  30.586  1.00  0.00     0.029 A 
ATOM     56  N   UNL A   1      42.334  30.441  28.568  1.00  0.00    -0.354 N 
ATOM     57  N   UNL A   1      46.171  29.595  28.586  1.00  0.00    -0.248 NA
ATOM     58  C   UNL A   1      47.843  30.204  27.123  1.00  0.00     0.031 C 
ATOM     59  C   UNL A   1      43.626  30.252  30.335  1.00  0.00     0.029 A 
ATOM     60  C   UNL A   1      43.607  30.758  29.041  1.00  0.00     0.049 A 
ATOM     61  H   UNL A   1      41.954  30.788  27.730  1.00  0.00     0.167 HD
ATOM     62  C   UNL A   1      45.877  30.879  28.154  1.00  0.00     0.074 A 
ATOM     63  C   UNL A   1      47.072  31.262  27.417  1.00  0.00     0.031 C 
ATOM     64  C   UNL A   1      44.613  31.439  28.192  1.00  0.00     0.031 A 
BRANCH  51  65
ATOM     65  C   UNL A   1      39.075  29.172  28.905  1.00  0.00    -0.014 A 
ATOM     66  C   UNL A   1      38.291  28.975  30.055  1.00  0.00     0.009 A 
ATOM     67  C   UNL A   1      38.339  29.618  27.772  1.00  0.00     0.009 A 
ATOM     68  C   UNL A   1      36.899  29.232  30.076  1.00  0.00     0.001 A 
ATOM     69  C   UNL A   1      36.969  29.940  27.801  1.00  0.00     0.001 A 
ATOM     70  C   UNL A   1      36.242  29.735  28.958  1.00  0.00     0.000 A 
ENDBRANCH  51  65
BRANCH  52  71
ATOM     71  C   UNL A   1      48.291  27.046  26.522  1.00  0.00    -0.014 A 
ATOM     72  C   UNL A   1      47.629  27.082  25.274  1.00  0.00     0.009 A 
ATOM     73  C   UNL A   1      49.683  26.854  26.509  1.00  0.00     0.009 A 
ATOM     74  C   UNL A   1      48.341  27.075  24.069  1.00  0.00     0.001 A 
ATOM     75  C   UNL A   1      50.394  26.808  25.295  1.00  0.00     0.001 A 
ATOM     76  C   UNL A   1      49.727  26.961  24.079  1.00  0.00     0.000 A 
ENDBRANCH  52  71
BRANCH  64  77
ATOM     77  C   UNL A   1      44.227  32.635  27.301  1.00  0.00    -0.014 A 
ATOM     78  C   UNL A   1      43.965  33.933  27.788  1.00  0.00     0.009 A 
ATOM     79  C   UNL A   1      44.206  32.513  25.896  1.00  0.00     0.009 A 
ATOM     80  C   UNL A   1      43.568  34.996  26.960  1.00  0.00     0.001 A 
ATOM     81  C   UNL A   1      43.890  33.596  25.053  1.00  0.00     0.001 A 
ATOM     82  C   UNL A   1      43.533  34.828  25.587  1.00  0.00     0.000 A 
ENDBRANCH  64  77
ENDBRANCH  38  39
ENDBRANCH  31  33
ENDBRANCH  30  31
ENDBRANCH  29  30
ENDBRANCH  28  29
ENDBRANCH  27  28
ENDBRANCH  26  27
ENDBRANCH   1  26
TORSDOF 21
ENDMDL
MODEL 3
REMARK VINA RESULT:     -11.4      1.934      2.736
REMARK SMILES Cc1ccc(C[C@@H](Cc2cc(F)cc(Br)c2)C(=O)OCCOCCOCCOC(=O)c2ccc(-c3c4nc(c(-c5ccccc5)c5ccc([nH]5)c(-c5ccccc5)c5nc(c(-c6ccccc6)c6ccc3[nH]6)C=C5)C=C4)cc2)cc1
REMARK SMILES IDX 23 1 22 2 21 3 20 4 19 5 17 6 18 7 7 8 6 9 5 10 1 11 2 12
REMARK SMILES IDX 3 13 80 14 4 15 79 16 8 17 9 18 10 19 16 20 11 21 14 22
REMARK SMILES IDX 12 23 13 24 15 25 24 26 25 27 26 28 27 29 28 30 29 31 30 32
REMARK SMILES IDX 31 33 32 34 78 35 33 36 77 37 34 38 35 39 36 40 71 41 37 42
REMARK SMILES IDX 76 43 70 44 72 45 38 46 75 47 69 48 68 49 39 51 61 52 46 53
REMARK SMILES IDX 60 54 47 55 50 56 59 57 73 58 48 59 49 60 58 62 74 63 51 64
REMARK SMILES IDX 40 65 41 66 45 67 42 68 44 69 43 70 62 71 63 72 67 73 64 74
REMARK SMILES IDX 66 75 65 76 52 77 53 78 57 79 54 80 56 81 55 82
REMARK H PARENT 72 50 50 61
REMARK Flexibility Score: inf
ROOT
ATOM      1  C   UNL A   1      40.782  19.296  26.146  1.00  0.00     0.188 C 
ENDROOT
BRANCH   1   2
ATOM      2  O   UNL A   1      39.642  19.663  25.327  1.00  0.00    -0.376 OA
BRANCH   2   3
ATOM      3  C   UNL A   1      38.530  20.521  25.644  1.00  0.00     0.202 C 
BRANCH   3   4
ATOM      4  C   UNL A   1      37.297  21.242  24.620  1.00  0.00     0.261 C 
BRANCH   4   5
ATOM      5  O   UNL A   1      35.626  21.447  24.705  1.00  0.00    -0.463 OA
BRANCH   5   6
ATOM      6  C   UNL A   1      34.630  21.753  25.653  1.00  0.00     0.309 C 
ATOM      7  O   UNL A   1      34.332  21.099  26.651  1.00  0.00    -0.252 OA
BRANCH   6   8
ATOM      8  C   UNL A   1      33.725  22.943  25.528  1.00  0.00     0.108 C 
BRANCH   8   9
ATOM      9  C   UNL A   1      32.377  22.692  26.172  1.00  0.00     0.051 C 
BRANCH   9  10
ATOM     10  C   UNL A   1      31.372  23.619  25.540  1.00  0.00    -0.047 A 
ATOM     11  C   UNL A   1      29.159  26.788  23.673  1.00  0.00     0.044 C 
ATOM     12  C   UNL A   1      29.925  25.673  24.312  1.00  0.00    -0.051 A 
ATOM     13  C   UNL A   1      30.139  25.696  25.691  1.00  0.00     0.004 A 
ATOM     14  C   UNL A   1      30.452  24.626  23.547  1.00  0.00     0.004 A 
ATOM     15  C   UNL A   1      30.810  24.650  26.307  1.00  0.00     0.004 A 
ATOM     16  C   UNL A   1      31.187  23.610  24.154  1.00  0.00     0.004 A 
ENDBRANCH   9  10
ENDBRANCH   8   9
BRANCH   8  17
ATOM     17  C   UNL A   1      34.330  24.386  25.883  1.00  0.00     0.051 C 
BRANCH  17  18
ATOM     18  C   UNL A   1      34.066  25.687  25.172  1.00  0.00    -0.043 A 
ATOM     19  C   UNL A   1      34.067  25.735  23.765  1.00  0.00     0.043 A 
ATOM     20  C   UNL A   1      33.752  26.839  25.859  1.00  0.00     0.019 A 
ATOM     21  C   UNL A   1      33.483  26.803  23.094  1.00  0.00     0.124 A 
ATOM     22  C   UNL A   1      33.086  27.848  25.181  1.00  0.00     0.021 A 
ATOM     23  F   UNL A   1      33.372  26.770  21.761  1.00  0.00    -0.207 F 
ATOM     24  C   UNL A   1      32.920  27.842  23.803  1.00  0.00     0.055 A 
ATOM     25  Br  UNL A   1      32.202  29.063  26.258  1.00  0.00    -0.051 Br
ENDBRANCH  17  18
ENDBRANCH   8  17
ENDBRANCH   6   8
ENDBRANCH   5   6
ENDBRANCH   4   5
ENDBRANCH   3   4
ENDBRANCH   2   3
ENDBRANCH   1   2
BRANCH   1  26
ATOM     26  C   UNL A   1      41.787  20.280  26.761  1.00  0.00     0.188 C 
BRANCH  26  27
ATOM     27  O   UNL A   1      43.112  19.939  26.417  1.00  0.00    -0.376 OA
BRANCH  27  28
ATOM     28  C   UNL A   1      43.259  19.131  25.262  1.00  0.00     0.202 C 
BRANCH  28  29
ATOM     29  C   UNL A   1      44.501  19.469  24.414  1.00  0.00     0.261 C 
BRANCH  29  30
ATOM     30  O   UNL A   1      44.436  20.826  23.917  1.00  0.00    -0.460 OA
BRANCH  30  31
ATOM     31  C   UNL A   1      45.376  21.709  24.383  1.00  0.00     0.338 C 
ATOM     32  O   UNL A   1      46.473  21.390  24.827  1.00  0.00    -0.246 OA
BRANCH  31  33
ATOM     33  C   UNL A   1      44.773  23.076  24.521  1.00  0.00     0.060 A 
ATOM     34  C   UNL A   1      45.467  24.231  24.914  1.00  0.00     0.016 A 
ATOM     35  C   UNL A   1      43.430  23.113  24.682  1.00  0.00     0.016 A 
ATOM     36  C   UNL A   1      44.827  25.288  25.683  1.00  0.00     0.010 A 
ATOM     37  C   UNL A   1      42.968  23.993  25.663  1.00  0.00     0.010 A 
ATOM     38  C   UNL A   1      43.542  25.165  26.234  1.00  0.00    -0.014 A 
BRANCH  38  39
ATOM     39  C   UNL A   1      42.863  26.157  27.454  1.00  0.00     0.031 A 
ATOM     40  C   UNL A   1      41.570  27.311  27.496  1.00  0.00     0.074 A 
ATOM     41  C   UNL A   1      43.425  26.091  28.691  1.00  0.00     0.049 A 
ATOM     42  N   UNL A   1      40.901  27.727  28.572  1.00  0.00    -0.248 NA
ATOM     43  C   UNL A   1      40.992  28.109  26.379  1.00  0.00     0.031 C 
ATOM     44  C   UNL A   1      42.834  26.543  29.949  1.00  0.00     0.029 A 
ATOM     45  N   UNL A   1      44.713  25.772  29.097  1.00  0.00    -0.354 N 
ATOM     46  C   UNL A   1      39.904  28.652  28.234  1.00  0.00     0.074 A 
ATOM     47  C   UNL A   1      39.933  28.764  26.825  1.00  0.00     0.031 C 
ATOM     48  C   UNL A   1      43.812  26.896  30.787  1.00  0.00     0.029 A 
ATOM     49  C   UNL A   1      45.051  26.714  30.077  1.00  0.00     0.049 A 
ATOM     50  H   UNL A   1      45.274  25.036  28.763  1.00  0.00     0.167 HD
ATOM     51  C   UNL A   1      39.305  29.618  28.992  1.00  0.00     0.031 A 
ATOM     52  C   UNL A   1      46.108  27.566  30.063  1.00  0.00     0.031 A 
ATOM     53  C   UNL A   1      40.159  30.040  30.089  1.00  0.00     0.049 A 
ATOM     54  C   UNL A   1      45.785  28.992  30.529  1.00  0.00     0.074 A 
ATOM     55  C   UNL A   1      40.386  29.578  31.367  1.00  0.00     0.029 A 
ATOM     56  N   UNL A   1      41.177  30.960  29.831  1.00  0.00    -0.354 N 
ATOM     57  N   UNL A   1      44.619  29.434  30.953  1.00  0.00    -0.248 NA
ATOM     58  C   UNL A   1      46.774  30.068  30.440  1.00  0.00     0.031 C 
ATOM     59  C   UNL A   1      41.649  30.094  31.794  1.00  0.00     0.029 A 
ATOM     60  C   UNL A   1      42.180  30.903  30.798  1.00  0.00     0.049 A 
ATOM     61  H   UNL A   1      41.186  31.573  29.061  1.00  0.00     0.167 HD
ATOM     62  C   UNL A   1      44.619  30.817  30.857  1.00  0.00     0.074 A 
ATOM     63  C   UNL A   1      46.032  31.143  30.748  1.00  0.00     0.031 C 
ATOM     64  C   UNL A   1      43.488  31.576  30.613  1.00  0.00     0.031 A 
BRANCH  51  65
ATOM     65  C   UNL A   1      37.963  30.281  28.584  1.00  0.00    -0.014 A 
ATOM     66  C   UNL A   1      37.760  31.655  28.798  1.00  0.00     0.009 A 
ATOM     67  C   UNL A   1      36.811  29.591  28.114  1.00  0.00     0.009 A 
ATOM     68  C   UNL A   1      36.522  32.288  28.536  1.00  0.00     0.001 A 
ATOM     69  C   UNL A   1      35.596  30.223  27.787  1.00  0.00     0.001 A 
ATOM     70  C   UNL A   1      35.446  31.579  28.011  1.00  0.00     0.000 A 
ENDBRANCH  51  65
BRANCH  52  71
ATOM     71  C   UNL A   1      47.182  27.137  29.105  1.00  0.00    -0.014 A 
ATOM     72  C   UNL A   1      47.623  25.800  29.209  1.00  0.00     0.009 A 
ATOM     73  C   UNL A   1      47.432  27.808  27.895  1.00  0.00     0.009 A 
ATOM     74  C   UNL A   1      48.158  25.119  28.109  1.00  0.00     0.001 A 
ATOM     75  C   UNL A   1      48.005  27.132  26.801  1.00  0.00     0.001 A 
ATOM     76  C   UNL A   1      48.327  25.779  26.897  1.00  0.00     0.000 A 
ENDBRANCH  52  71
BRANCH  64  77
ATOM     77  C   UNL A   1      43.577  33.008  30.052  1.00  0.00    -0.014 A 
ATOM     78  C   UNL A   1      43.546  33.324  28.677  1.00  0.00     0.009 A 
ATOM     79  C   UNL A   1      43.600  34.123  30.916  1.00  0.00     0.009 A 
ATOM     80  C   UNL A   1      43.677  34.634  28.188  1.00  0.00     0.001 A 
ATOM     81  C   UNL A   1      43.647  35.445  30.434  1.00  0.00     0.001 A 
ATOM     82  C   UNL A   1      43.725  35.699  29.071  1.00  0.00     0.000 A 
ENDBRANCH  64  77
ENDBRANCH  38  39
ENDBRANCH  31  33
ENDBRANCH  30  31
ENDBRANCH  29  30
ENDBRANCH  28  29
ENDBRANCH  27  28
ENDBRANCH  26  27
ENDBRANCH   1  26
TORSDOF 21
ENDMDL
