MODEL 1
REMARK VINA RESULT:      -9.7      0.000      0.000
REMARK SMILES Cc1cc2nc(NC(=O)[C@H]3[C@@H](C(=O)OCCOCCOCCOC(=O)c4ccc(-c5c6nc(c(-c7ccccc7)c7ccc([nH]7)c(-c7ccccc7)c7nc(c(-c8ccccc8)c8ccc5[nH]8)C=C7)C=C6)cc4)[C@@H]4C=C[C@H]3C4)sc2cc1C
REMARK SMILES IDX 18 1 17 2 16 3 15 4 14 5 12 6 13 7 11 8 10 9 77 10 74 11
REMARK SMILES IDX 76 12 78 13 75 14 8 15 7 16 9 18 6 19 1 20 2 21 3 22 82 23
REMARK SMILES IDX 4 24 81 25 83 26 5 27 80 28 79 29 19 30 20 31 21 32 22 33
REMARK SMILES IDX 23 34 24 35 25 36 26 37 27 38 73 39 28 40 72 41 29 42 30 43
REMARK SMILES IDX 31 44 66 45 32 46 71 47 65 48 67 49 33 50 70 51 64 52 63 53
REMARK SMILES IDX 34 55 56 56 41 57 55 58 42 59 45 60 54 61 68 62 43 63 44 64
REMARK SMILES IDX 53 66 69 67 46 68 35 69 36 70 40 71 37 72 39 73 38 74 57 75
REMARK SMILES IDX 58 76 62 77 59 78 61 79 60 80 47 81 48 82 52 83 49 84 51 85
REMARK SMILES IDX 50 86
REMARK H PARENT 7 17 67 54 45 65
REMARK Flexibility Score: inf
ROOT
ATOM      1  C   UNL A   1      33.372  35.535  31.723  1.00  0.00     0.188 C 
ENDROOT
BRANCH   1   2
ATOM      2  O   UNL A   1      34.330  36.183  32.548  1.00  0.00    -0.376 OA
BRANCH   2   3
ATOM      3  C   UNL A   1      34.439  35.665  33.860  1.00  0.00     0.202 C 
BRANCH   3   4
ATOM      4  C   UNL A   1      35.144  34.306  33.914  1.00  0.00     0.261 C 
BRANCH   4   5
ATOM      5  O   UNL A   1      36.298  34.209  34.771  1.00  0.00    -0.463 OA
BRANCH   5   6
ATOM      6  C   UNL A   1      37.481  34.448  34.175  1.00  0.00     0.310 C 
ATOM      7  O   UNL A   1      37.609  35.051  33.114  1.00  0.00    -0.252 OA
BRANCH   6   8
ATOM      8  C   UNL A   1      38.656  33.828  34.887  1.00  0.00     0.119 C 
ATOM      9  C   UNL A   1      39.348  32.716  34.029  1.00  0.00     0.100 C 
ATOM     10  C   UNL A   1      39.726  31.706  35.130  1.00  0.00     0.025 C 
ATOM     11  C   UNL A   1      38.664  33.258  36.331  1.00  0.00     0.027 C 
ATOM     12  C   UNL A   1      40.737  32.274  36.088  1.00  0.00    -0.027 C 
ATOM     13  C   UNL A   1      38.506  31.775  36.072  1.00  0.00     0.017 C 
ATOM     14  C   UNL A   1      40.099  33.181  36.834  1.00  0.00    -0.027 C 
BRANCH   9  15
ATOM     15  C   UNL A   1      38.492  32.319  32.783  1.00  0.00     0.230 C 
ATOM     16  N   UNL A   1      38.917  32.378  31.487  1.00  0.00    -0.302 N 
ATOM     17  H   UNL A   1      38.666  31.634  30.892  1.00  0.00     0.172 HD
ATOM     18  O   UNL A   1      37.447  31.681  32.985  1.00  0.00    -0.274 OA
BRANCH  16  19
ATOM     19  C   UNL A   1      39.659  33.383  30.956  1.00  0.00     0.190 A 
ATOM     20  C   UNL A   1      44.662  34.822  28.230  1.00  0.00     0.044 C 
ATOM     21  C   UNL A   1      43.236  35.017  28.667  1.00  0.00    -0.046 A 
ATOM     22  C   UNL A   1      42.806  34.322  29.797  1.00  0.00     0.033 A 
ATOM     23  C   UNL A   1      42.322  35.851  28.002  1.00  0.00    -0.047 A 
ATOM     24  C   UNL A   1      41.446  34.302  30.141  1.00  0.00     0.084 A 
ATOM     25  C   UNL A   1      40.940  35.811  28.319  1.00  0.00     0.025 A 
ATOM     26  C   UNL A   1      42.783  36.865  26.992  1.00  0.00     0.044 C 
ATOM     27  N   UNL A   1      40.921  33.578  31.175  1.00  0.00    -0.220 NA
ATOM     28  C   UNL A   1      40.512  34.963  29.351  1.00  0.00     0.057 A 
ATOM     29  S   UNL A   1      38.924  34.486  29.885  1.00  0.00    -0.097 S 
ENDBRANCH  16  19
ENDBRANCH   9  15
ENDBRANCH   6   8
ENDBRANCH   5   6
ENDBRANCH   4   5
ENDBRANCH   3   4
ENDBRANCH   2   3
ENDBRANCH   1   2
BRANCH   1  30
ATOM     30  C   UNL A   1      32.788  36.537  30.713  1.00  0.00     0.188 C 
BRANCH  30  31
ATOM     31  O   UNL A   1      32.480  36.087  29.399  1.00  0.00    -0.376 OA
BRANCH  31  32
ATOM     32  C   UNL A   1      33.537  35.497  28.656  1.00  0.00     0.202 C 
BRANCH  32  33
ATOM     33  C   UNL A   1      33.268  34.062  28.179  1.00  0.00     0.261 C 
BRANCH  33  34
ATOM     34  O   UNL A   1      34.381  33.182  28.455  1.00  0.00    -0.460 OA
BRANCH  34  35
ATOM     35  C   UNL A   1      34.245  31.884  28.065  1.00  0.00     0.338 C 
ATOM     36  O   UNL A   1      33.356  31.428  27.395  1.00  0.00    -0.246 OA
BRANCH  35  37
ATOM     37  C   UNL A   1      35.531  31.160  28.338  1.00  0.00     0.060 A 
ATOM     38  C   UNL A   1      36.753  31.781  28.628  1.00  0.00     0.016 A 
ATOM     39  C   UNL A   1      35.502  29.772  28.179  1.00  0.00     0.016 A 
ATOM     40  C   UNL A   1      37.937  31.014  28.724  1.00  0.00     0.010 A 
ATOM     41  C   UNL A   1      36.678  29.018  28.277  1.00  0.00     0.010 A 
ATOM     42  C   UNL A   1      37.921  29.621  28.527  1.00  0.00    -0.014 A 
BRANCH  42  43
ATOM     43  C   UNL A   1      39.029  28.735  28.973  1.00  0.00     0.031 A 
ATOM     44  C   UNL A   1      39.206  28.732  30.422  1.00  0.00     0.074 A 
ATOM     45  C   UNL A   1      39.995  28.031  28.334  1.00  0.00     0.049 A 
ATOM     46  N   UNL A   1      40.206  29.343  30.964  1.00  0.00    -0.248 NA
ATOM     47  C   UNL A   1      38.215  28.198  31.345  1.00  0.00     0.031 C 
ATOM     48  C   UNL A   1      40.569  28.306  27.047  1.00  0.00     0.029 A 
ATOM     49  N   UNL A   1      40.712  26.905  28.714  1.00  0.00    -0.354 N 
ATOM     50  C   UNL A   1      40.114  29.072  32.302  1.00  0.00     0.074 A 
ATOM     51  C   UNL A   1      38.801  28.498  32.510  1.00  0.00     0.031 C 
ATOM     52  C   UNL A   1      41.272  27.253  26.592  1.00  0.00     0.029 A 
ATOM     53  C   UNL A   1      41.316  26.235  27.639  1.00  0.00     0.049 A 
ATOM     54  H   UNL A   1      40.790  26.606  29.649  1.00  0.00     0.167 HD
ATOM     55  C   UNL A   1      41.235  29.101  33.063  1.00  0.00     0.031 A 
ATOM     56  C   UNL A   1      42.403  25.428  27.601  1.00  0.00     0.031 A 
ATOM     57  C   UNL A   1      42.344  29.768  32.418  1.00  0.00     0.049 A 
ATOM     58  C   UNL A   1      43.472  26.024  28.417  1.00  0.00     0.074 A 
ATOM     59  C   UNL A   1      42.648  31.072  32.086  1.00  0.00     0.029 A 
ATOM     60  N   UNL A   1      43.190  28.963  31.696  1.00  0.00    -0.354 N 
ATOM     61  N   UNL A   1      44.108  27.120  28.112  1.00  0.00    -0.248 NA
ATOM     62  C   UNL A   1      43.656  25.548  29.780  1.00  0.00     0.031 C 
ATOM     63  C   UNL A   1      43.581  31.013  31.011  1.00  0.00     0.029 A 
ATOM     64  C   UNL A   1      43.838  29.676  30.712  1.00  0.00     0.049 A 
ATOM     65  H   UNL A   1      43.317  28.000  31.859  1.00  0.00     0.167 HD
ATOM     66  C   UNL A   1      44.386  27.694  29.338  1.00  0.00     0.074 A 
ATOM     67  C   UNL A   1      44.248  26.619  30.308  1.00  0.00     0.031 C 
ATOM     68  C   UNL A   1      44.376  29.045  29.514  1.00  0.00     0.031 A 
BRANCH  55  69
ATOM     69  C   UNL A   1      41.420  28.162  34.210  1.00  0.00    -0.014 A 
ATOM     70  C   UNL A   1      41.556  26.770  34.027  1.00  0.00     0.009 A 
ATOM     71  C   UNL A   1      41.708  28.677  35.480  1.00  0.00     0.009 A 
ATOM     72  C   UNL A   1      41.911  25.922  35.073  1.00  0.00     0.001 A 
ATOM     73  C   UNL A   1      42.102  27.831  36.523  1.00  0.00     0.001 A 
ATOM     74  C   UNL A   1      42.194  26.456  36.321  1.00  0.00     0.000 A 
ENDBRANCH  55  69
BRANCH  56  75
ATOM     75  C   UNL A   1      42.404  24.058  27.045  1.00  0.00    -0.014 A 
ATOM     76  C   UNL A   1      41.602  23.046  27.607  1.00  0.00     0.009 A 
ATOM     77  C   UNL A   1      43.257  23.702  25.989  1.00  0.00     0.009 A 
ATOM     78  C   UNL A   1      41.695  21.718  27.173  1.00  0.00     0.001 A 
ATOM     79  C   UNL A   1      43.348  22.372  25.552  1.00  0.00     0.001 A 
ATOM     80  C   UNL A   1      42.581  21.379  26.156  1.00  0.00     0.000 A 
ENDBRANCH  56  75
BRANCH  68  81
ATOM     81  C   UNL A   1      44.704  29.932  28.337  1.00  0.00    -0.014 A 
ATOM     82  C   UNL A   1      46.056  30.189  28.056  1.00  0.00     0.009 A 
ATOM     83  C   UNL A   1      43.740  30.608  27.577  1.00  0.00     0.009 A 
ATOM     84  C   UNL A   1      46.427  31.115  27.076  1.00  0.00     0.001 A 
ATOM     85  C   UNL A   1      44.106  31.526  26.586  1.00  0.00     0.001 A 
ATOM     86  C   UNL A   1      45.451  31.787  26.345  1.00  0.00     0.000 A 
ENDBRANCH  68  81
ENDBRANCH  42  43
ENDBRANCH  35  37
ENDBRANCH  34  35
ENDBRANCH  33  34
ENDBRANCH  32  33
ENDBRANCH  31  32
ENDBRANCH  30  31
ENDBRANCH   1  30
TORSDOF 19
ENDMDL
MODEL 2
REMARK VINA RESULT:      -9.1      4.374     10.287
REMARK SMILES Cc1cc2nc(NC(=O)[C@H]3[C@@H](C(=O)OCCOCCOCCOC(=O)c4ccc(-c5c6nc(c(-c7ccccc7)c7ccc([nH]7)c(-c7ccccc7)c7nc(c(-c8ccccc8)c8ccc5[nH]8)C=C7)C=C6)cc4)[C@@H]4C=C[C@H]3C4)sc2cc1C
REMARK SMILES IDX 18 1 17 2 16 3 15 4 14 5 12 6 13 7 11 8 10 9 77 10 74 11
REMARK SMILES IDX 76 12 78 13 75 14 8 15 7 16 9 18 6 19 1 20 2 21 3 22 82 23
REMARK SMILES IDX 4 24 81 25 83 26 5 27 80 28 79 29 19 30 20 31 21 32 22 33
REMARK SMILES IDX 23 34 24 35 25 36 26 37 27 38 73 39 28 40 72 41 29 42 30 43
REMARK SMILES IDX 31 44 66 45 32 46 71 47 65 48 67 49 33 50 70 51 64 52 63 53
REMARK SMILES IDX 34 55 56 56 41 57 55 58 42 59 45 60 54 61 68 62 43 63 44 64
REMARK SMILES IDX 53 66 69 67 46 68 35 69 36 70 40 71 37 72 39 73 38 74 57 75
REMARK SMILES IDX 58 76 62 77 59 78 61 79 60 80 47 81 48 82 52 83 49 84 51 85
REMARK SMILES IDX 50 86
REMARK H PARENT 7 17 67 54 45 65
REMARK Flexibility Score: inf
ROOT
ATOM      1  C   UNL A   1      34.511  21.770  24.181  1.00  0.00     0.188 C 
ENDROOT
BRANCH   1   2
ATOM      2  O   UNL A   1      34.100  23.117  23.999  1.00  0.00    -0.376 OA
BRANCH   2   3
ATOM      3  C   UNL A   1      33.489  23.394  22.754  1.00  0.00     0.202 C 
BRANCH   3   4
ATOM      4  C   UNL A   1      32.731  24.726  22.737  1.00  0.00     0.261 C 
BRANCH   4   5
ATOM      5  O   UNL A   1      32.507  25.359  24.012  1.00  0.00    -0.463 OA
BRANCH   5   6
ATOM      6  C   UNL A   1      32.917  26.638  24.102  1.00  0.00     0.310 C 
ATOM      7  O   UNL A   1      33.986  26.986  24.591  1.00  0.00    -0.252 OA
BRANCH   6   8
ATOM      8  C   UNL A   1      31.897  27.637  23.619  1.00  0.00     0.119 C 
ATOM      9  C   UNL A   1      31.234  28.423  24.800  1.00  0.00     0.100 C 
ATOM     10  C   UNL A   1      29.790  28.553  24.276  1.00  0.00     0.025 C 
ATOM     11  C   UNL A   1      30.725  27.360  22.638  1.00  0.00     0.027 C 
ATOM     12  C   UNL A   1      29.718  29.398  23.034  1.00  0.00    -0.027 C 
ATOM     13  C   UNL A   1      29.565  27.187  23.594  1.00  0.00     0.017 C 
ATOM     14  C   UNL A   1      30.246  28.676  22.041  1.00  0.00    -0.027 C 
BRANCH   9  15
ATOM     15  C   UNL A   1      31.570  27.789  26.188  1.00  0.00     0.230 C 
ATOM     16  N   UNL A   1      32.079  28.467  27.259  1.00  0.00    -0.302 N 
ATOM     17  H   UNL A   1      31.717  28.249  28.149  1.00  0.00     0.172 HD
ATOM     18  O   UNL A   1      31.126  26.655  26.423  1.00  0.00    -0.274 OA
BRANCH  16  19
ATOM     19  C   UNL A   1      33.047  29.417  27.190  1.00  0.00     0.190 A 
ATOM     20  C   UNL A   1      34.863  34.661  29.123  1.00  0.00     0.044 C 
ATOM     21  C   UNL A   1      35.021  33.303  28.497  1.00  0.00    -0.046 A 
ATOM     22  C   UNL A   1      33.888  32.713  27.938  1.00  0.00     0.033 A 
ATOM     23  C   UNL A   1      36.237  32.602  28.449  1.00  0.00    -0.047 A 
ATOM     24  C   UNL A   1      33.920  31.374  27.518  1.00  0.00     0.084 A 
ATOM     25  C   UNL A   1      36.274  31.238  28.060  1.00  0.00     0.025 A 
ATOM     26  C   UNL A   1      37.546  33.288  28.731  1.00  0.00     0.044 C 
ATOM     27  N   UNL A   1      32.838  30.687  27.042  1.00  0.00    -0.220 NA
ATOM     28  C   UNL A   1      35.078  30.619  27.669  1.00  0.00     0.057 A 
ATOM     29  S   UNL A   1      34.681  28.956  27.335  1.00  0.00    -0.097 S 
ENDBRANCH  16  19
ENDBRANCH   9  15
ENDBRANCH   6   8
ENDBRANCH   5   6
ENDBRANCH   4   5
ENDBRANCH   3   4
ENDBRANCH   2   3
ENDBRANCH   1   2
BRANCH   1  30
ATOM     30  C   UNL A   1      34.806  21.510  25.669  1.00  0.00     0.188 C 
BRANCH  30  31
ATOM     31  O   UNL A   1      36.154  21.310  26.076  1.00  0.00    -0.376 OA
BRANCH  31  32
ATOM     32  C   UNL A   1      37.104  21.048  25.054  1.00  0.00     0.202 C 
BRANCH  32  33
ATOM     33  C   UNL A   1      38.556  21.394  25.416  1.00  0.00     0.261 C 
BRANCH  33  34
ATOM     34  O   UNL A   1      38.636  22.217  26.603  1.00  0.00    -0.460 OA
BRANCH  34  35
ATOM     35  C   UNL A   1      39.885  22.480  27.079  1.00  0.00     0.338 C 
ATOM     36  O   UNL A   1      40.857  21.782  26.964  1.00  0.00    -0.246 OA
BRANCH  35  37
ATOM     37  C   UNL A   1      39.944  23.918  27.508  1.00  0.00     0.060 A 
ATOM     38  C   UNL A   1      38.922  24.855  27.308  1.00  0.00     0.016 A 
ATOM     39  C   UNL A   1      41.159  24.350  28.046  1.00  0.00     0.016 A 
ATOM     40  C   UNL A   1      39.137  26.219  27.617  1.00  0.00     0.010 A 
ATOM     41  C   UNL A   1      41.363  25.701  28.352  1.00  0.00     0.010 A 
ATOM     42  C   UNL A   1      40.370  26.666  28.123  1.00  0.00    -0.014 A 
BRANCH  42  43
ATOM     43  C   UNL A   1      40.530  27.980  28.802  1.00  0.00     0.031 A 
ATOM     44  C   UNL A   1      41.686  28.731  28.320  1.00  0.00     0.074 A 
ATOM     45  C   UNL A   1      39.926  28.584  29.854  1.00  0.00     0.049 A 
ATOM     46  N   UNL A   1      42.748  28.842  29.047  1.00  0.00    -0.248 NA
ATOM     47  C   UNL A   1      41.789  29.255  26.966  1.00  0.00     0.031 C 
ATOM     48  C   UNL A   1      39.273  27.951  30.966  1.00  0.00     0.029 A 
ATOM     49  N   UNL A   1      39.782  29.924  30.184  1.00  0.00    -0.354 N 
ATOM     50  C   UNL A   1      43.585  29.663  28.341  1.00  0.00     0.074 A 
ATOM     51  C   UNL A   1      43.023  29.768  27.011  1.00  0.00     0.031 C 
ATOM     52  C   UNL A   1      38.531  28.831  31.660  1.00  0.00     0.029 A 
ATOM     53  C   UNL A   1      38.757  30.167  31.111  1.00  0.00     0.049 A 
ATOM     54  H   UNL A   1      40.346  30.636  29.804  1.00  0.00     0.167 HD
ATOM     55  C   UNL A   1      44.515  30.390  29.007  1.00  0.00     0.031 A 
ATOM     56  C   UNL A   1      38.588  31.180  31.993  1.00  0.00     0.031 A 
ATOM     57  C   UNL A   1      44.736  29.931  30.360  1.00  0.00     0.049 A 
ATOM     58  C   UNL A   1      39.870  31.457  32.658  1.00  0.00     0.074 A 
ATOM     59  C   UNL A   1      45.322  28.825  30.938  1.00  0.00     0.029 A 
ATOM     60  N   UNL A   1      43.975  30.535  31.329  1.00  0.00    -0.354 N 
ATOM     61  N   UNL A   1      40.456  30.647  33.495  1.00  0.00    -0.248 NA
ATOM     62  C   UNL A   1      40.690  32.552  32.162  1.00  0.00     0.031 C 
ATOM     63  C   UNL A   1      44.747  28.688  32.235  1.00  0.00     0.029 A 
ATOM     64  C   UNL A   1      43.827  29.718  32.428  1.00  0.00     0.049 A 
ATOM     65  H   UNL A   1      43.584  31.435  31.250  1.00  0.00     0.167 HD
ATOM     66  C   UNL A   1      41.804  30.860  33.274  1.00  0.00     0.074 A 
ATOM     67  C   UNL A   1      41.885  32.142  32.589  1.00  0.00     0.031 C 
ATOM     68  C   UNL A   1      42.711  29.847  33.356  1.00  0.00     0.031 A 
BRANCH  55  69
ATOM     69  C   UNL A   1      44.905  31.758  28.549  1.00  0.00    -0.014 A 
ATOM     70  C   UNL A   1      45.920  31.969  27.593  1.00  0.00     0.009 A 
ATOM     71  C   UNL A   1      44.097  32.851  28.884  1.00  0.00     0.009 A 
ATOM     72  C   UNL A   1      46.155  33.223  27.033  1.00  0.00     0.001 A 
ATOM     73  C   UNL A   1      44.306  34.103  28.295  1.00  0.00     0.001 A 
ATOM     74  C   UNL A   1      45.338  34.289  27.378  1.00  0.00     0.000 A 
ENDBRANCH  55  69
BRANCH  56  75
ATOM     75  C   UNL A   1      37.377  32.025  32.069  1.00  0.00    -0.014 A 
ATOM     76  C   UNL A   1      37.461  33.382  32.434  1.00  0.00     0.009 A 
ATOM     77  C   UNL A   1      36.099  31.487  31.852  1.00  0.00     0.009 A 
ATOM     78  C   UNL A   1      36.311  34.155  32.637  1.00  0.00     0.001 A 
ATOM     79  C   UNL A   1      34.947  32.262  32.051  1.00  0.00     0.001 A 
ATOM     80  C   UNL A   1      35.052  33.589  32.461  1.00  0.00     0.000 A 
ENDBRANCH  56  75
BRANCH  68  81
ATOM     81  C   UNL A   1      42.421  28.687  34.276  1.00  0.00    -0.014 A 
ATOM     82  C   UNL A   1      42.975  28.708  35.566  1.00  0.00     0.009 A 
ATOM     83  C   UNL A   1      41.727  27.534  33.884  1.00  0.00     0.009 A 
ATOM     84  C   UNL A   1      42.869  27.603  36.417  1.00  0.00     0.001 A 
ATOM     85  C   UNL A   1      41.607  26.430  34.735  1.00  0.00     0.001 A 
ATOM     86  C   UNL A   1      42.190  26.462  35.999  1.00  0.00     0.000 A 
ENDBRANCH  68  81
ENDBRANCH  42  43
ENDBRANCH  35  37
ENDBRANCH  34  35
ENDBRANCH  33  34
ENDBRANCH  32  33
ENDBRANCH  31  32
ENDBRANCH  30  31
ENDBRANCH   1  30
TORSDOF 19
ENDMDL
MODEL 3
REMARK VINA RESULT:      -9.1      4.176      8.664
REMARK SMILES Cc1cc2nc(NC(=O)[C@H]3[C@@H](C(=O)OCCOCCOCCOC(=O)c4ccc(-c5c6nc(c(-c7ccccc7)c7ccc([nH]7)c(-c7ccccc7)c7nc(c(-c8ccccc8)c8ccc5[nH]8)C=C7)C=C6)cc4)[C@@H]4C=C[C@H]3C4)sc2cc1C
REMARK SMILES IDX 18 1 17 2 16 3 15 4 14 5 12 6 13 7 11 8 10 9 77 10 74 11
REMARK SMILES IDX 76 12 78 13 75 14 8 15 7 16 9 18 6 19 1 20 2 21 3 22 82 23
REMARK SMILES IDX 4 24 81 25 83 26 5 27 80 28 79 29 19 30 20 31 21 32 22 33
REMARK SMILES IDX 23 34 24 35 25 36 26 37 27 38 73 39 28 40 72 41 29 42 30 43
REMARK SMILES IDX 31 44 66 45 32 46 71 47 65 48 67 49 33 50 70 51 64 52 63 53
REMARK SMILES IDX 34 55 56 56 41 57 55 58 42 59 45 60 54 61 68 62 43 63 44 64
REMARK SMILES IDX 53 66 69 67 46 68 35 69 36 70 40 71 37 72 39 73 38 74 57 75
REMARK SMILES IDX 58 76 62 77 59 78 61 79 60 80 47 81 48 82 52 83 49 84 51 85
REMARK SMILES IDX 50 86
REMARK H PARENT 7 17 67 54 45 65
REMARK Flexibility Score: inf
ROOT
ATOM      1  C   UNL A   1      32.472  26.956  25.721  1.00  0.00     0.188 C 
ENDROOT
BRANCH   1   2
ATOM      2  O   UNL A   1      31.243  26.292  25.460  1.00  0.00    -0.376 OA
BRANCH   2   3
ATOM      3  C   UNL A   1      30.895  25.287  26.392  1.00  0.00     0.202 C 
BRANCH   3   4
ATOM      4  C   UNL A   1      31.108  23.867  25.855  1.00  0.00     0.261 C 
BRANCH   4   5
ATOM      5  O   UNL A   1      32.326  23.628  25.124  1.00  0.00    -0.463 OA
BRANCH   5   6
ATOM      6  C   UNL A   1      33.316  23.045  25.827  1.00  0.00     0.310 C 
ATOM      7  O   UNL A   1      34.130  23.658  26.510  1.00  0.00    -0.252 OA
BRANCH   6   8
ATOM      8  C   UNL A   1      33.398  21.552  25.635  1.00  0.00     0.119 C 
ATOM      9  C   UNL A   1      34.605  21.138  24.727  1.00  0.00     0.100 C 
ATOM     10  C   UNL A   1      33.983  19.961  23.952  1.00  0.00     0.025 C 
ATOM     11  C   UNL A   1      32.244  20.614  25.190  1.00  0.00     0.027 C 
ATOM     12  C   UNL A   1      33.644  18.809  24.858  1.00  0.00    -0.027 C 
ATOM     13  C   UNL A   1      32.539  20.451  23.714  1.00  0.00     0.017 C 
ATOM     14  C   UNL A   1      32.581  19.181  25.579  1.00  0.00    -0.027 C 
BRANCH   9  15
ATOM     15  C   UNL A   1      35.249  22.369  24.011  1.00  0.00     0.230 C 
ATOM     16  N   UNL A   1      36.581  22.674  24.019  1.00  0.00    -0.302 N 
ATOM     17  H   UNL A   1      36.979  22.992  23.176  1.00  0.00     0.172 HD
ATOM     18  O   UNL A   1      34.556  22.977  23.181  1.00  0.00    -0.274 OA
BRANCH  16  19
ATOM     19  C   UNL A   1      37.396  22.573  25.100  1.00  0.00     0.190 A 
ATOM     20  C   UNL A   1      42.459  20.449  27.194  1.00  0.00     0.044 C 
ATOM     21  C   UNL A   1      41.262  21.358  27.170  1.00  0.00    -0.046 A 
ATOM     22  C   UNL A   1      40.129  20.918  26.487  1.00  0.00     0.033 A 
ATOM     23  C   UNL A   1      41.226  22.618  27.790  1.00  0.00    -0.047 A 
ATOM     24  C   UNL A   1      39.056  21.793  26.256  1.00  0.00     0.084 A 
ATOM     25  C   UNL A   1      40.163  23.522  27.535  1.00  0.00     0.025 A 
ATOM     26  C   UNL A   1      42.265  23.021  28.800  1.00  0.00     0.044 C 
ATOM     27  N   UNL A   1      37.946  21.478  25.522  1.00  0.00    -0.220 NA
ATOM     28  C   UNL A   1      39.119  23.111  26.695  1.00  0.00     0.057 A 
ATOM     29  S   UNL A   1      37.781  23.975  25.989  1.00  0.00    -0.097 S 
ENDBRANCH  16  19
ENDBRANCH   9  15
ENDBRANCH   6   8
ENDBRANCH   5   6
ENDBRANCH   4   5
ENDBRANCH   3   4
ENDBRANCH   2   3
ENDBRANCH   1   2
BRANCH   1  30
ATOM     30  C   UNL A   1      32.408  27.654  27.091  1.00  0.00     0.188 C 
BRANCH  30  31
ATOM     31  O   UNL A   1      31.489  28.725  27.273  1.00  0.00    -0.376 OA
BRANCH  31  32
ATOM     32  C   UNL A   1      31.827  29.971  26.682  1.00  0.00     0.202 C 
BRANCH  32  33
ATOM     33  C   UNL A   1      33.334  30.223  26.523  1.00  0.00     0.261 C 
BRANCH  33  34
ATOM     34  O   UNL A   1      33.989  30.414  27.798  1.00  0.00    -0.460 OA
BRANCH  34  35
ATOM     35  C   UNL A   1      34.861  31.457  27.886  1.00  0.00     0.338 C 
ATOM     36  O   UNL A   1      34.578  32.624  27.949  1.00  0.00    -0.246 OA
BRANCH  35  37
ATOM     37  C   UNL A   1      36.226  30.918  28.202  1.00  0.00     0.060 A 
ATOM     38  C   UNL A   1      37.200  31.592  28.950  1.00  0.00     0.016 A 
ATOM     39  C   UNL A   1      36.561  29.700  27.602  1.00  0.00     0.016 A 
ATOM     40  C   UNL A   1      38.506  31.060  29.065  1.00  0.00     0.010 A 
ATOM     41  C   UNL A   1      37.855  29.178  27.723  1.00  0.00     0.010 A 
ATOM     42  C   UNL A   1      38.859  29.854  28.433  1.00  0.00    -0.014 A 
BRANCH  42  43
ATOM     43  C   UNL A   1      40.066  29.073  28.813  1.00  0.00     0.031 A 
ATOM     44  C   UNL A   1      40.213  28.923  30.258  1.00  0.00     0.074 A 
ATOM     45  C   UNL A   1      41.129  28.580  28.134  1.00  0.00     0.049 A 
ATOM     46  N   UNL A   1      41.112  29.590  30.901  1.00  0.00    -0.248 NA
ATOM     47  C   UNL A   1      39.284  28.161  31.080  1.00  0.00     0.031 C 
ATOM     48  C   UNL A   1      41.687  29.076  26.907  1.00  0.00     0.029 A 
ATOM     49  N   UNL A   1      41.982  27.519  28.408  1.00  0.00    -0.354 N 
ATOM     50  C   UNL A   1      41.030  29.155  32.196  1.00  0.00     0.074 A 
ATOM     51  C   UNL A   1      39.801  28.395  32.291  1.00  0.00     0.031 C 
ATOM     52  C   UNL A   1      42.532  28.184  26.360  1.00  0.00     0.029 A 
ATOM     53  C   UNL A   1      42.690  27.064  27.286  1.00  0.00     0.049 A 
ATOM     54  H   UNL A   1      42.080  27.125  29.305  1.00  0.00     0.167 HD
ATOM     55  C   UNL A   1      42.122  29.239  32.994  1.00  0.00     0.031 A 
ATOM     56  C   UNL A   1      43.875  26.415  27.195  1.00  0.00     0.031 A 
ATOM     57  C   UNL A   1      43.145  30.115  32.468  1.00  0.00     0.049 A 
ATOM     58  C   UNL A   1      44.839  27.044  28.110  1.00  0.00     0.074 A 
ATOM     59  C   UNL A   1      43.280  31.477  32.297  1.00  0.00     0.029 A 
ATOM     60  N   UNL A   1      44.105  29.517  31.690  1.00  0.00    -0.354 N 
ATOM     61  N   UNL A   1      45.330  28.242  27.953  1.00  0.00    -0.248 NA
ATOM     62  C   UNL A   1      45.057  26.439  29.416  1.00  0.00     0.031 C 
ATOM     63  C   UNL A   1      44.234  31.667  31.256  1.00  0.00     0.029 A 
ATOM     64  C   UNL A   1      44.672  30.418  30.817  1.00  0.00     0.049 A 
ATOM     65  H   UNL A   1      44.355  28.566  31.747  1.00  0.00     0.167 HD
ATOM     66  C   UNL A   1      45.506  28.699  29.246  1.00  0.00     0.074 A 
ATOM     67  C   UNL A   1      45.492  27.509  30.083  1.00  0.00     0.031 C 
ATOM     68  C   UNL A   1      45.313  30.007  29.574  1.00  0.00     0.031 A 
BRANCH  55  69
ATOM     69  C   UNL A   1      42.408  28.204  34.033  1.00  0.00    -0.014 A 
ATOM     70  C   UNL A   1      41.940  28.321  35.358  1.00  0.00     0.009 A 
ATOM     71  C   UNL A   1      42.943  26.970  33.643  1.00  0.00     0.009 A 
ATOM     72  C   UNL A   1      42.048  27.275  36.271  1.00  0.00     0.001 A 
ATOM     73  C   UNL A   1      43.017  25.905  34.548  1.00  0.00     0.001 A 
ATOM     74  C   UNL A   1      42.578  26.061  35.861  1.00  0.00     0.000 A 
ENDBRANCH  55  69
BRANCH  56  75
ATOM     75  C   UNL A   1      44.070  25.131  26.487  1.00  0.00    -0.014 A 
ATOM     76  C   UNL A   1      43.240  24.764  25.410  1.00  0.00     0.009 A 
ATOM     77  C   UNL A   1      45.036  24.206  26.908  1.00  0.00     0.009 A 
ATOM     78  C   UNL A   1      43.329  23.497  24.821  1.00  0.00     0.001 A 
ATOM     79  C   UNL A   1      45.129  22.938  26.315  1.00  0.00     0.001 A 
ATOM     80  C   UNL A   1      44.265  22.578  25.285  1.00  0.00     0.000 A 
ENDBRANCH  56  75
BRANCH  68  81
ATOM     81  C   UNL A   1      45.543  31.061  28.518  1.00  0.00    -0.014 A 
ATOM     82  C   UNL A   1      46.758  31.767  28.539  1.00  0.00     0.009 A 
ATOM     83  C   UNL A   1      44.574  31.459  27.588  1.00  0.00     0.009 A 
ATOM     84  C   UNL A   1      46.977  32.852  27.685  1.00  0.00     0.001 A 
ATOM     85  C   UNL A   1      44.793  32.536  26.722  1.00  0.00     0.001 A 
ATOM     86  C   UNL A   1      45.992  33.240  26.780  1.00  0.00     0.000 A 
ENDBRANCH  68  81
ENDBRANCH  42  43
ENDBRANCH  35  37
ENDBRANCH  34  35
ENDBRANCH  33  34
ENDBRANCH  32  33
ENDBRANCH  31  32
ENDBRANCH  30  31
ENDBRANCH   1  30
TORSDOF 19
ENDMDL
