MODEL 1
REMARK VINA RESULT:      -9.9      0.000      0.000
REMARK SMILES C[N@@H+](CC(=O)OCCOCCOCCOC(=O)c1ccc(-c2c3nc(c(-c4ccccc4)c4ccc([nH]4)c(-c4ccccc4)c4nc(c(-c5ccccc5)c5ccc2[nH]5)C=C4)C=C3)cc1)Cc1csc(-c2ccco2)n1
REMARK SMILES IDX 10 1 9 2 8 3 7 4 6 5 4 6 5 7 3 8 2 9 1 10 66 12 67 13 68 14
REMARK SMILES IDX 76 15 69 16 70 17 71 18 72 19 75 20 73 21 74 22 11 23 12 24
REMARK SMILES IDX 13 25 14 26 15 27 16 28 17 29 18 30 19 31 65 32 20 33 64 34
REMARK SMILES IDX 21 35 22 36 23 37 58 38 24 39 63 40 57 41 59 42 25 43 62 44
REMARK SMILES IDX 56 45 55 46 26 48 48 49 33 50 47 51 34 52 37 53 46 54 60 55
REMARK SMILES IDX 35 56 36 57 45 59 61 60 38 61 27 62 28 63 32 64 29 65 31 66
REMARK SMILES IDX 30 67 49 68 50 69 54 70 51 71 53 72 52 73 39 74 40 75 44 76
REMARK SMILES IDX 41 77 43 78 42 79
REMARK H PARENT 2 11 59 47 37 58
REMARK Flexibility Score: inf
ROOT
ATOM      1  C   UNL A   1      33.698  35.069  30.012  1.00  0.00     0.188 C 
ENDROOT
BRANCH   1   2
ATOM      2  O   UNL A   1      34.782  34.177  29.348  1.00  0.00    -0.376 OA
BRANCH   2   3
ATOM      3  C   UNL A   1      34.518  32.767  29.213  1.00  0.00     0.202 C 
BRANCH   3   4
ATOM      4  C   UNL A   1      34.155  32.159  27.855  1.00  0.00     0.261 C 
BRANCH   4   5
ATOM      5  O   UNL A   1      33.580  30.841  27.930  1.00  0.00    -0.459 OA
BRANCH   5   6
ATOM      6  C   UNL A   1      32.548  30.601  27.076  1.00  0.00     0.361 C 
ATOM      7  O   UNL A   1      31.837  31.479  26.593  1.00  0.00    -0.245 OA
BRANCH   6   8
ATOM      8  C   UNL A   1      32.300  29.128  26.787  1.00  0.00     0.386 C 
BRANCH   8   9
ATOM      9  N   UNL A   1      33.048  28.467  25.713  1.00  0.00    -0.323 N 
ATOM     10  C   UNL A   1      32.499  28.556  24.376  1.00  0.00     0.333 C 
ATOM     11  H   UNL A   1      33.830  29.124  25.683  1.00  0.00     0.348 HD
BRANCH   9  12
ATOM     12  C   UNL A   1      33.774  27.236  26.013  1.00  0.00     0.320 C 
BRANCH  12  13
ATOM     13  C   UNL A   1      32.972  25.970  25.939  1.00  0.00     0.106 A 
ATOM     14  C   UNL A   1      31.386  25.667  26.570  1.00  0.00     0.097 A 
ATOM     15  N   UNL A   1      33.688  24.414  25.124  1.00  0.00    -0.232 NA
ATOM     16  S   UNL A   1      30.763  23.458  26.265  1.00  0.00    -0.119 S 
ATOM     17  C   UNL A   1      32.785  23.027  25.223  1.00  0.00     0.159 A 
BRANCH  17  18
ATOM     18  C   UNL A   1      33.117  21.731  24.715  1.00  0.00     0.162 A 
ATOM     19  C   UNL A   1      32.276  20.905  23.987  1.00  0.00     0.053 A 
ATOM     20  O   UNL A   1      34.194  21.007  25.145  1.00  0.00    -0.462 OA
ATOM     21  C   UNL A   1      32.788  19.594  24.111  1.00  0.00     0.043 A 
ATOM     22  C   UNL A   1      33.944  19.707  24.843  1.00  0.00     0.196 A 
ENDBRANCH  17  18
ENDBRANCH  12  13
ENDBRANCH   9  12
ENDBRANCH   8   9
ENDBRANCH   6   8
ENDBRANCH   5   6
ENDBRANCH   4   5
ENDBRANCH   3   4
ENDBRANCH   2   3
ENDBRANCH   1   2
BRANCH   1  23
ATOM     23  C   UNL A   1      33.660  36.050  32.021  1.00  0.00     0.188 C 
BRANCH  23  24
ATOM     24  O   UNL A   1      34.876  36.211  32.996  1.00  0.00    -0.376 OA
BRANCH  24  25
ATOM     25  C   UNL A   1      35.613  35.018  33.284  1.00  0.00     0.202 C 
BRANCH  25  26
ATOM     26  C   UNL A   1      34.808  33.799  33.774  1.00  0.00     0.261 C 
BRANCH  26  27
ATOM     27  O   UNL A   1      35.384  32.515  33.480  1.00  0.00    -0.460 OA
BRANCH  27  28
ATOM     28  C   UNL A   1      36.657  32.303  33.891  1.00  0.00     0.338 C 
ATOM     29  O   UNL A   1      37.137  32.625  34.963  1.00  0.00    -0.246 OA
BRANCH  28  30
ATOM     30  C   UNL A   1      37.350  31.446  32.880  1.00  0.00     0.060 A 
ATOM     31  C   UNL A   1      38.265  30.490  33.341  1.00  0.00     0.016 A 
ATOM     32  C   UNL A   1      37.073  31.522  31.507  1.00  0.00     0.016 A 
ATOM     33  C   UNL A   1      38.976  29.692  32.437  1.00  0.00     0.010 A 
ATOM     34  C   UNL A   1      37.786  30.723  30.598  1.00  0.00     0.010 A 
ATOM     35  C   UNL A   1      38.797  29.856  31.055  1.00  0.00    -0.014 A 
BRANCH  35  36
ATOM     36  C   UNL A   1      39.901  29.436  30.142  1.00  0.00     0.031 A 
ATOM     37  C   UNL A   1      41.003  30.446  29.909  1.00  0.00     0.074 A 
ATOM     38  C   UNL A   1      40.010  28.207  29.602  1.00  0.00     0.049 A 
ATOM     39  N   UNL A   1      42.121  30.330  29.236  1.00  0.00    -0.248 NA
ATOM     40  C   UNL A   1      40.813  31.770  30.527  1.00  0.00     0.031 C 
ATOM     41  C   UNL A   1      39.062  27.110  29.770  1.00  0.00     0.029 A 
ATOM     42  N   UNL A   1      40.999  27.675  28.804  1.00  0.00    -0.354 N 
ATOM     43  C   UNL A   1      42.761  31.558  29.361  1.00  0.00     0.074 A 
ATOM     44  C   UNL A   1      41.888  32.420  30.120  1.00  0.00     0.031 C 
ATOM     45  C   UNL A   1      39.519  26.031  29.103  1.00  0.00     0.029 A 
ATOM     46  C   UNL A   1      40.782  26.366  28.441  1.00  0.00     0.049 A 
ATOM     47  H   UNL A   1      41.790  28.187  28.518  1.00  0.00     0.167 HD
ATOM     48  C   UNL A   1      43.978  31.942  28.909  1.00  0.00     0.031 A 
ATOM     49  C   UNL A   1      41.513  25.537  27.664  1.00  0.00     0.031 A 
ATOM     50  C   UNL A   1      44.846  31.111  28.122  1.00  0.00     0.049 A 
ATOM     51  C   UNL A   1      42.819  26.024  27.075  1.00  0.00     0.074 A 
ATOM     52  C   UNL A   1      46.095  31.414  27.610  1.00  0.00     0.029 A 
ATOM     53  N   UNL A   1      44.547  29.820  27.719  1.00  0.00    -0.354 N 
ATOM     54  N   UNL A   1      43.430  27.174  27.236  1.00  0.00    -0.248 NA
ATOM     55  C   UNL A   1      43.545  25.083  26.206  1.00  0.00     0.031 C 
ATOM     56  C   UNL A   1      46.516  30.335  26.827  1.00  0.00     0.029 A 
ATOM     57  C   UNL A   1      45.573  29.326  26.932  1.00  0.00     0.049 A 
ATOM     58  H   UNL A   1      43.728  29.327  27.955  1.00  0.00     0.167 HD
ATOM     59  C   UNL A   1      44.624  27.077  26.525  1.00  0.00     0.074 A 
ATOM     60  C   UNL A   1      44.662  25.749  25.954  1.00  0.00     0.031 C 
ATOM     61  C   UNL A   1      45.602  28.004  26.361  1.00  0.00     0.031 A 
BRANCH  48  62
ATOM     62  C   UNL A   1      44.411  33.350  29.218  1.00  0.00    -0.014 A 
ATOM     63  C   UNL A   1      44.104  34.418  28.358  1.00  0.00     0.009 A 
ATOM     64  C   UNL A   1      45.139  33.610  30.389  1.00  0.00     0.009 A 
ATOM     65  C   UNL A   1      44.560  35.708  28.642  1.00  0.00     0.001 A 
ATOM     66  C   UNL A   1      45.557  34.906  30.690  1.00  0.00     0.001 A 
ATOM     67  C   UNL A   1      45.279  35.951  29.810  1.00  0.00     0.000 A 
ENDBRANCH  48  62
BRANCH  49  68
ATOM     68  C   UNL A   1      41.039  24.153  27.364  1.00  0.00    -0.014 A 
ATOM     69  C   UNL A   1      39.973  23.925  26.475  1.00  0.00     0.009 A 
ATOM     70  C   UNL A   1      41.601  23.051  28.027  1.00  0.00     0.009 A 
ATOM     71  C   UNL A   1      39.462  22.636  26.289  1.00  0.00     0.001 A 
ATOM     72  C   UNL A   1      41.114  21.759  27.810  1.00  0.00     0.001 A 
ATOM     73  C   UNL A   1      40.035  21.554  26.952  1.00  0.00     0.000 A 
ENDBRANCH  49  68
BRANCH  61  74
ATOM     74  C   UNL A   1      46.823  27.598  25.574  1.00  0.00    -0.014 A 
ATOM     75  C   UNL A   1      46.920  27.811  24.190  1.00  0.00     0.009 A 
ATOM     76  C   UNL A   1      47.911  27.009  26.242  1.00  0.00     0.009 A 
ATOM     77  C   UNL A   1      48.049  27.385  23.483  1.00  0.00     0.001 A 
ATOM     78  C   UNL A   1      49.057  26.627  25.542  1.00  0.00     0.001 A 
ATOM     79  C   UNL A   1      49.117  26.798  24.161  1.00  0.00     0.000 A 
ENDBRANCH  61  74
ENDBRANCH  35  36
ENDBRANCH  28  30
ENDBRANCH  27  28
ENDBRANCH  26  27
ENDBRANCH  25  26
ENDBRANCH  24  25
ENDBRANCH  23  24
ENDBRANCH   1  23
TORSDOF 21
ENDMDL
MODEL 2
REMARK VINA RESULT:      -9.6      4.488     10.563
REMARK SMILES C[N@@H+](CC(=O)OCCOCCOCCOC(=O)c1ccc(-c2c3nc(c(-c4ccccc4)c4ccc([nH]4)c(-c4ccccc4)c4nc(c(-c5ccccc5)c5ccc2[nH]5)C=C4)C=C3)cc1)Cc1csc(-c2ccco2)n1
REMARK SMILES IDX 10 1 9 2 8 3 7 4 6 5 4 6 5 7 3 8 2 9 1 10 66 12 67 13 68 14
REMARK SMILES IDX 76 15 69 16 70 17 71 18 72 19 75 20 73 21 74 22 11 23 12 24
REMARK SMILES IDX 13 25 14 26 15 27 16 28 17 29 18 30 19 31 65 32 20 33 64 34
REMARK SMILES IDX 21 35 22 36 23 37 58 38 24 39 63 40 57 41 59 42 25 43 62 44
REMARK SMILES IDX 56 45 55 46 26 48 48 49 33 50 47 51 34 52 37 53 46 54 60 55
REMARK SMILES IDX 35 56 36 57 45 59 61 60 38 61 27 62 28 63 32 64 29 65 31 66
REMARK SMILES IDX 30 67 49 68 50 69 54 70 51 71 53 72 52 73 39 74 40 75 44 76
REMARK SMILES IDX 41 77 43 78 42 79
REMARK H PARENT 2 11 59 47 37 58
REMARK Flexibility Score: inf
ROOT
ATOM      1  C   UNL A   1      42.568  19.220  26.403  1.00  0.00     0.188 C 
ENDROOT
BRANCH   1   2
ATOM      2  O   UNL A   1      41.231  19.899  25.998  1.00  0.00    -0.376 OA
BRANCH   2   3
ATOM      3  C   UNL A   1      41.029  21.280  26.356  1.00  0.00     0.202 C 
BRANCH   3   4
ATOM      4  C   UNL A   1      39.631  21.815  26.676  1.00  0.00     0.261 C 
BRANCH   4   5
ATOM      5  O   UNL A   1      38.837  22.131  25.517  1.00  0.00    -0.459 OA
BRANCH   5   6
ATOM      6  C   UNL A   1      37.798  21.289  25.270  1.00  0.00     0.361 C 
ATOM      7  O   UNL A   1      37.927  20.143  24.843  1.00  0.00    -0.245 OA
BRANCH   6   8
ATOM      8  C   UNL A   1      36.424  21.892  25.523  1.00  0.00     0.386 C 
BRANCH   8   9
ATOM      9  N   UNL A   1      35.930  22.957  24.643  1.00  0.00    -0.323 N 
ATOM     10  C   UNL A   1      36.371  22.929  23.264  1.00  0.00     0.333 C 
ATOM     11  H   UNL A   1      34.965  22.630  24.581  1.00  0.00     0.348 HD
BRANCH   9  12
ATOM     12  C   UNL A   1      35.703  24.286  25.203  1.00  0.00     0.320 C 
BRANCH  12  13
ATOM     13  C   UNL A   1      34.267  24.690  25.365  1.00  0.00     0.106 A 
ATOM     14  C   UNL A   1      33.029  23.902  26.289  1.00  0.00     0.097 A 
ATOM     15  N   UNL A   1      33.577  26.206  24.458  1.00  0.00    -0.232 NA
ATOM     16  S   UNL A   1      30.977  24.935  26.006  1.00  0.00    -0.119 S 
ATOM     17  C   UNL A   1      31.947  26.483  24.585  1.00  0.00     0.159 A 
BRANCH  17  18
ATOM     18  C   UNL A   1      31.190  27.536  23.977  1.00  0.00     0.162 A 
ATOM     19  C   UNL A   1      29.821  27.536  23.773  1.00  0.00     0.053 A 
ATOM     20  O   UNL A   1      31.754  28.538  23.238  1.00  0.00    -0.462 OA
ATOM     21  C   UNL A   1      29.562  28.478  22.752  1.00  0.00     0.043 A 
ATOM     22  C   UNL A   1      30.775  29.045  22.445  1.00  0.00     0.196 A 
ENDBRANCH  17  18
ENDBRANCH  12  13
ENDBRANCH   9  12
ENDBRANCH   8   9
ENDBRANCH   6   8
ENDBRANCH   5   6
ENDBRANCH   4   5
ENDBRANCH   3   4
ENDBRANCH   2   3
ENDBRANCH   1   2
BRANCH   1  23
ATOM     23  C   UNL A   1      44.451  18.916  25.237  1.00  0.00     0.188 C 
BRANCH  23  24
ATOM     24  O   UNL A   1      45.604  19.961  25.052  1.00  0.00    -0.376 OA
BRANCH  24  25
ATOM     25  C   UNL A   1      45.217  21.240  24.537  1.00  0.00     0.202 C 
BRANCH  25  26
ATOM     26  C   UNL A   1      45.891  22.479  25.158  1.00  0.00     0.261 C 
BRANCH  26  27
ATOM     27  O   UNL A   1      45.287  23.743  24.836  1.00  0.00    -0.460 OA
BRANCH  27  28
ATOM     28  C   UNL A   1      43.960  23.870  25.078  1.00  0.00     0.338 C 
ATOM     29  O   UNL A   1      43.055  23.323  24.474  1.00  0.00    -0.246 OA
BRANCH  28  30
ATOM     30  C   UNL A   1      43.777  24.662  26.334  1.00  0.00     0.060 A 
ATOM     31  C   UNL A   1      43.167  24.033  27.428  1.00  0.00     0.016 A 
ATOM     32  C   UNL A   1      44.245  25.977  26.474  1.00  0.00     0.016 A 
ATOM     33  C   UNL A   1      42.928  24.741  28.613  1.00  0.00     0.010 A 
ATOM     34  C   UNL A   1      44.007  26.688  27.661  1.00  0.00     0.010 A 
ATOM     35  C   UNL A   1      43.279  26.096  28.710  1.00  0.00    -0.014 A 
BRANCH  35  36
ATOM     36  C   UNL A   1      42.551  26.946  29.699  1.00  0.00     0.031 A 
ATOM     37  C   UNL A   1      43.201  27.109  31.055  1.00  0.00     0.074 A 
ATOM     38  C   UNL A   1      41.423  27.629  29.424  1.00  0.00     0.049 A 
ATOM     39  N   UNL A   1      42.844  27.849  32.074  1.00  0.00    -0.248 NA
ATOM     40  C   UNL A   1      44.429  26.329  31.285  1.00  0.00     0.031 C 
ATOM     41  C   UNL A   1      40.701  27.618  28.155  1.00  0.00     0.029 A 
ATOM     42  N   UNL A   1      40.694  28.490  30.214  1.00  0.00    -0.354 N 
ATOM     43  C   UNL A   1      43.806  27.626  33.054  1.00  0.00     0.074 A 
ATOM     44  C   UNL A   1      44.726  26.643  32.533  1.00  0.00     0.031 C 
ATOM     45  C   UNL A   1      39.638  28.440  28.249  1.00  0.00     0.029 A 
ATOM     46  C   UNL A   1      39.587  29.020  29.593  1.00  0.00     0.049 A 
ATOM     47  H   UNL A   1      40.941  28.705  31.143  1.00  0.00     0.167 HD
ATOM     48  C   UNL A   1      43.938  28.196  34.274  1.00  0.00     0.031 A 
ATOM     49  C   UNL A   1      38.644  29.870  30.053  1.00  0.00     0.031 A 
ATOM     50  C   UNL A   1      43.014  29.148  34.824  1.00  0.00     0.049 A 
ATOM     51  C   UNL A   1      38.750  30.410  31.463  1.00  0.00     0.074 A 
ATOM     52  C   UNL A   1      43.059  29.776  36.057  1.00  0.00     0.029 A 
ATOM     53  N   UNL A   1      41.871  29.596  34.184  1.00  0.00    -0.354 N 
ATOM     54  N   UNL A   1      39.687  30.221  32.361  1.00  0.00    -0.248 NA
ATOM     55  C   UNL A   1      37.667  31.301  31.914  1.00  0.00     0.031 C 
ATOM     56  C   UNL A   1      41.897  30.541  36.195  1.00  0.00     0.029 A 
ATOM     57  C   UNL A   1      41.180  30.465  35.012  1.00  0.00     0.049 A 
ATOM     58  H   UNL A   1      41.590  29.335  33.278  1.00  0.00     0.167 HD
ATOM     59  C   UNL A   1      39.327  30.997  33.461  1.00  0.00     0.074 A 
ATOM     60  C   UNL A   1      38.101  31.678  33.107  1.00  0.00     0.031 C 
ATOM     61  C   UNL A   1      39.956  31.135  34.656  1.00  0.00     0.031 A 
BRANCH  48  62
ATOM     62  C   UNL A   1      45.107  27.754  35.114  1.00  0.00    -0.014 A 
ATOM     63  C   UNL A   1      46.343  28.419  35.059  1.00  0.00     0.009 A 
ATOM     64  C   UNL A   1      44.966  26.653  35.973  1.00  0.00     0.009 A 
ATOM     65  C   UNL A   1      47.427  27.960  35.811  1.00  0.00     0.001 A 
ATOM     66  C   UNL A   1      46.040  26.223  36.753  1.00  0.00     0.001 A 
ATOM     67  C   UNL A   1      47.272  26.868  36.662  1.00  0.00     0.000 A 
ENDBRANCH  48  62
BRANCH  49  68
ATOM     68  C   UNL A   1      37.488  30.269  29.196  1.00  0.00    -0.014 A 
ATOM     69  C   UNL A   1      37.361  31.582  28.708  1.00  0.00     0.009 A 
ATOM     70  C   UNL A   1      36.458  29.355  28.923  1.00  0.00     0.009 A 
ATOM     71  C   UNL A   1      36.218  31.976  28.004  1.00  0.00     0.001 A 
ATOM     72  C   UNL A   1      35.335  29.740  28.186  1.00  0.00     0.001 A 
ATOM     73  C   UNL A   1      35.209  31.054  27.739  1.00  0.00     0.000 A 
ENDBRANCH  49  68
BRANCH  61  74
ATOM     74  C   UNL A   1      39.360  32.097  35.652  1.00  0.00    -0.014 A 
ATOM     75  C   UNL A   1      39.733  33.450  35.694  1.00  0.00     0.009 A 
ATOM     76  C   UNL A   1      38.384  31.641  36.555  1.00  0.00     0.009 A 
ATOM     77  C   UNL A   1      39.192  34.307  36.658  1.00  0.00     0.001 A 
ATOM     78  C   UNL A   1      37.811  32.509  37.486  1.00  0.00     0.001 A 
ATOM     79  C   UNL A   1      38.229  33.836  37.549  1.00  0.00     0.000 A 
ENDBRANCH  61  74
ENDBRANCH  35  36
ENDBRANCH  28  30
ENDBRANCH  27  28
ENDBRANCH  26  27
ENDBRANCH  25  26
ENDBRANCH  24  25
ENDBRANCH  23  24
ENDBRANCH   1  23
TORSDOF 21
ENDMDL
MODEL 3
REMARK VINA RESULT:      -9.2      4.028      9.784
REMARK SMILES C[N@@H+](CC(=O)OCCOCCOCCOC(=O)c1ccc(-c2c3nc(c(-c4ccccc4)c4ccc([nH]4)c(-c4ccccc4)c4nc(c(-c5ccccc5)c5ccc2[nH]5)C=C4)C=C3)cc1)Cc1csc(-c2ccco2)n1
REMARK SMILES IDX 10 1 9 2 8 3 7 4 6 5 4 6 5 7 3 8 2 9 1 10 66 12 67 13 68 14
REMARK SMILES IDX 76 15 69 16 70 17 71 18 72 19 75 20 73 21 74 22 11 23 12 24
REMARK SMILES IDX 13 25 14 26 15 27 16 28 17 29 18 30 19 31 65 32 20 33 64 34
REMARK SMILES IDX 21 35 22 36 23 37 58 38 24 39 63 40 57 41 59 42 25 43 62 44
REMARK SMILES IDX 56 45 55 46 26 48 48 49 33 50 47 51 34 52 37 53 46 54 60 55
REMARK SMILES IDX 35 56 36 57 45 59 61 60 38 61 27 62 28 63 32 64 29 65 31 66
REMARK SMILES IDX 30 67 49 68 50 69 54 70 51 71 53 72 52 73 39 74 40 75 44 76
REMARK SMILES IDX 41 77 43 78 42 79
REMARK H PARENT 2 11 59 47 37 58
REMARK Flexibility Score: inf
ROOT
ATOM      1  C   UNL A   1      41.768  20.245  27.033  1.00  0.00     0.188 C 
ENDROOT
BRANCH   1   2
ATOM      2  O   UNL A   1      40.933  21.384  26.387  1.00  0.00    -0.376 OA
BRANCH   2   3
ATOM      3  C   UNL A   1      39.529  21.158  26.158  1.00  0.00     0.202 C 
BRANCH   3   4
ATOM      4  C   UNL A   1      38.603  22.302  25.739  1.00  0.00     0.261 C 
BRANCH   4   5
ATOM      5  O   UNL A   1      37.201  22.022  25.903  1.00  0.00    -0.459 OA
BRANCH   5   6
ATOM      6  C   UNL A   1      36.444  22.131  24.777  1.00  0.00     0.361 C 
ATOM      7  O   UNL A   1      36.908  22.216  23.642  1.00  0.00    -0.245 OA
BRANCH   6   8
ATOM      8  C   UNL A   1      34.945  22.186  25.029  1.00  0.00     0.386 C 
BRANCH   8   9
ATOM      9  N   UNL A   1      34.110  23.086  24.226  1.00  0.00    -0.323 N 
ATOM     10  C   UNL A   1      33.369  22.495  23.131  1.00  0.00     0.333 C 
ATOM     11  H   UNL A   1      33.389  23.248  24.930  1.00  0.00     0.348 HD
BRANCH   9  12
ATOM     12  C   UNL A   1      34.557  24.460  24.013  1.00  0.00     0.320 C 
BRANCH  12  13
ATOM     13  C   UNL A   1      33.597  25.532  24.437  1.00  0.00     0.106 A 
ATOM     14  C   UNL A   1      33.325  26.159  26.031  1.00  0.00     0.097 A 
ATOM     15  N   UNL A   1      32.441  26.354  23.177  1.00  0.00    -0.232 NA
ATOM     16  S   UNL A   1      31.596  27.698  26.050  1.00  0.00    -0.119 S 
ATOM     17  C   UNL A   1      31.318  27.420  23.769  1.00  0.00     0.159 A 
BRANCH  17  18
ATOM     18  C   UNL A   1      30.325  28.141  23.030  1.00  0.00     0.162 A 
ATOM     19  C   UNL A   1      30.560  29.233  22.210  1.00  0.00     0.053 A 
ATOM     20  O   UNL A   1      28.985  28.048  23.280  1.00  0.00    -0.462 OA
ATOM     21  C   UNL A   1      29.330  29.917  22.083  1.00  0.00     0.043 A 
ATOM     22  C   UNL A   1      28.408  29.166  22.770  1.00  0.00     0.196 A 
ENDBRANCH  17  18
ENDBRANCH  12  13
ENDBRANCH   9  12
ENDBRANCH   8   9
ENDBRANCH   6   8
ENDBRANCH   5   6
ENDBRANCH   4   5
ENDBRANCH   3   4
ENDBRANCH   2   3
ENDBRANCH   1   2
BRANCH   1  23
ATOM     23  C   UNL A   1      42.597  18.371  26.141  1.00  0.00     0.188 C 
BRANCH  23  24
ATOM     24  O   UNL A   1      44.023  17.774  26.399  1.00  0.00    -0.376 OA
BRANCH  24  25
ATOM     25  C   UNL A   1      45.115  18.469  25.786  1.00  0.00     0.202 C 
BRANCH  25  26
ATOM     26  C   UNL A   1      44.765  19.493  24.689  1.00  0.00     0.261 C 
BRANCH  26  27
ATOM     27  O   UNL A   1      45.302  20.813  24.877  1.00  0.00    -0.460 OA
BRANCH  27  28
ATOM     28  C   UNL A   1      44.734  21.816  24.165  1.00  0.00     0.338 C 
ATOM     29  O   UNL A   1      44.543  21.836  22.962  1.00  0.00    -0.246 OA
BRANCH  28  30
ATOM     30  C   UNL A   1      44.207  22.841  25.119  1.00  0.00     0.060 A 
ATOM     31  C   UNL A   1      43.400  23.865  24.608  1.00  0.00     0.016 A 
ATOM     32  C   UNL A   1      44.440  22.778  26.501  1.00  0.00     0.016 A 
ATOM     33  C   UNL A   1      42.918  24.877  25.447  1.00  0.00     0.010 A 
ATOM     34  C   UNL A   1      43.958  23.792  27.344  1.00  0.00     0.010 A 
ATOM     35  C   UNL A   1      43.257  24.889  26.808  1.00  0.00    -0.014 A 
BRANCH  35  36
ATOM     36  C   UNL A   1      43.223  26.192  27.536  1.00  0.00     0.031 A 
ATOM     37  C   UNL A   1      44.560  26.834  27.832  1.00  0.00     0.074 A 
ATOM     38  C   UNL A   1      42.092  26.851  27.855  1.00  0.00     0.049 A 
ATOM     39  N   UNL A   1      44.833  27.995  28.372  1.00  0.00    -0.248 NA
ATOM     40  C   UNL A   1      45.752  26.054  27.459  1.00  0.00     0.031 C 
ATOM     41  C   UNL A   1      40.730  26.392  27.596  1.00  0.00     0.029 A 
ATOM     42  N   UNL A   1      41.922  28.076  28.462  1.00  0.00    -0.354 N 
ATOM     43  C   UNL A   1      46.222  28.080  28.393  1.00  0.00     0.074 A 
ATOM     44  C   UNL A   1      46.734  26.837  27.868  1.00  0.00     0.031 C 
ATOM     45  C   UNL A   1      39.864  27.328  28.032  1.00  0.00     0.029 A 
ATOM     46  C   UNL A   1      40.606  28.443  28.623  1.00  0.00     0.049 A 
ATOM     47  H   UNL A   1      42.675  28.638  28.755  1.00  0.00     0.167 HD
ATOM     48  C   UNL A   1      47.013  29.103  28.790  1.00  0.00     0.031 A 
ATOM     49  C   UNL A   1      40.064  29.546  29.184  1.00  0.00     0.031 A 
ATOM     50  C   UNL A   1      46.524  30.334  29.348  1.00  0.00     0.049 A 
ATOM     51  C   UNL A   1      40.970  30.631  29.724  1.00  0.00     0.074 A 
ATOM     52  C   UNL A   1      47.250  31.426  29.787  1.00  0.00     0.029 A 
ATOM     53  N   UNL A   1      45.188  30.625  29.558  1.00  0.00    -0.354 N 
ATOM     54  N   UNL A   1      42.279  30.714  29.699  1.00  0.00    -0.248 NA
ATOM     55  C   UNL A   1      40.315  31.787  30.358  1.00  0.00     0.031 C 
ATOM     56  C   UNL A   1      46.355  32.347  30.341  1.00  0.00     0.029 A 
ATOM     57  C   UNL A   1      45.068  31.868  30.157  1.00  0.00     0.049 A 
ATOM     58  H   UNL A   1      44.434  30.038  29.320  1.00  0.00     0.167 HD
ATOM     59  C   UNL A   1      42.597  31.942  30.274  1.00  0.00     0.074 A 
ATOM     60  C   UNL A   1      41.345  32.580  30.613  1.00  0.00     0.031 C 
ATOM     61  C   UNL A   1      43.817  32.495  30.499  1.00  0.00     0.031 A 
BRANCH  48  62
ATOM     62  C   UNL A   1      48.501  28.902  28.678  1.00  0.00    -0.014 A 
ATOM     63  C   UNL A   1      49.202  29.238  27.508  1.00  0.00     0.009 A 
ATOM     64  C   UNL A   1      49.211  28.363  29.763  1.00  0.00     0.009 A 
ATOM     65  C   UNL A   1      50.574  28.996  27.411  1.00  0.00     0.001 A 
ATOM     66  C   UNL A   1      50.588  28.161  29.677  1.00  0.00     0.001 A 
ATOM     67  C   UNL A   1      51.266  28.464  28.497  1.00  0.00     0.000 A 
ENDBRANCH  48  62
BRANCH  49  68
ATOM     68  C   UNL A   1      38.582  29.701  29.294  1.00  0.00    -0.014 A 
ATOM     69  C   UNL A   1      37.831  30.279  28.256  1.00  0.00     0.009 A 
ATOM     70  C   UNL A   1      37.918  29.340  30.477  1.00  0.00     0.009 A 
ATOM     71  C   UNL A   1      36.463  30.525  28.415  1.00  0.00     0.001 A 
ATOM     72  C   UNL A   1      36.543  29.552  30.619  1.00  0.00     0.001 A 
ATOM     73  C   UNL A   1      35.820  30.157  29.594  1.00  0.00     0.000 A 
ENDBRANCH  49  68
BRANCH  61  74
ATOM     74  C   UNL A   1      43.858  33.879  31.094  1.00  0.00    -0.014 A 
ATOM     75  C   UNL A   1      43.819  35.033  30.296  1.00  0.00     0.009 A 
ATOM     76  C   UNL A   1      43.913  34.030  32.491  1.00  0.00     0.009 A 
ATOM     77  C   UNL A   1      43.901  36.302  30.877  1.00  0.00     0.001 A 
ATOM     78  C   UNL A   1      43.948  35.299  33.072  1.00  0.00     0.001 A 
ATOM     79  C   UNL A   1      43.961  36.433  32.264  1.00  0.00     0.000 A 
ENDBRANCH  61  74
ENDBRANCH  35  36
ENDBRANCH  28  30
ENDBRANCH  27  28
ENDBRANCH  26  27
ENDBRANCH  25  26
ENDBRANCH  24  25
ENDBRANCH  23  24
ENDBRANCH   1  23
TORSDOF 21
ENDMDL
