MODEL 1
REMARK VINA RESULT:     -10.6      0.000      0.000
REMARK SMILES CCCN1CCC[C@@]2(CCN(c3ccc(C(=O)OCCOCCOCCOC(=O)c4ccc(-c5c6nc(c(-c7ccccc7)c7ccc([nH]7)c(-c7ccccc7)c7nc(c(-c8ccccc8)c8ccc5[nH]8)C=C7)C=C6)cc4)cn3)C2)C1=O
REMARK SMILES IDX 22 1 21 2 20 3 19 4 18 5 16 6 17 7 15 8 12 9 13 10 79 11
REMARK SMILES IDX 14 12 78 13 11 14 4 15 5 16 81 17 6 18 8 19 82 20 7 21 9 22
REMARK SMILES IDX 80 23 10 24 3 25 2 26 1 27 23 28 24 29 25 30 26 31 27 32
REMARK SMILES IDX 28 33 29 34 30 35 31 36 77 37 32 38 76 39 33 40 34 41 35 42
REMARK SMILES IDX 70 43 36 44 75 45 69 46 71 47 37 48 74 49 68 50 67 51 38 53
REMARK SMILES IDX 60 54 45 55 59 56 46 57 49 58 58 59 72 60 47 61 48 62 57 64
REMARK SMILES IDX 73 65 50 66 39 67 40 68 44 69 41 70 43 71 42 72 61 73 62 74
REMARK SMILES IDX 66 75 63 76 65 77 64 78 51 79 52 80 56 81 53 82 55 83 54 84
REMARK H PARENT 71 52 49 63
REMARK Flexibility Score: inf
ROOT
ATOM      1  C   UNL A   1      45.041  18.831  24.613  1.00  0.00     0.188 C 
ENDROOT
BRANCH   1   2
ATOM      2  O   UNL A   1      44.323  18.337  25.739  1.00  0.00    -0.376 OA
BRANCH   2   3
ATOM      3  C   UNL A   1      42.984  18.757  25.974  1.00  0.00     0.202 C 
BRANCH   3   4
ATOM      4  C   UNL A   1      42.652  20.252  25.893  1.00  0.00     0.261 C 
BRANCH   4   5
ATOM      5  O   UNL A   1      41.248  20.543  25.800  1.00  0.00    -0.460 OA
BRANCH   5   6
ATOM      6  C   UNL A   1      40.700  21.134  26.895  1.00  0.00     0.339 C 
ATOM      7  O   UNL A   1      41.154  21.171  28.016  1.00  0.00    -0.246 OA
BRANCH   6   8
ATOM      8  C   UNL A   1      39.505  21.899  26.491  1.00  0.00     0.078 A 
ATOM      9  C   UNL A   1      37.222  23.155  25.589  1.00  0.00     0.128 A 
ATOM     10  C   UNL A   1      38.138  23.854  26.382  1.00  0.00     0.048 A 
ATOM     11  N   UNL A   1      37.394  21.852  25.301  1.00  0.00    -0.238 NA
ATOM     12  C   UNL A   1      39.287  23.222  26.853  1.00  0.00     0.021 A 
ATOM     13  C   UNL A   1      38.538  21.260  25.730  1.00  0.00     0.129 A 
BRANCH   9  14
ATOM     14  N   UNL A   1      36.207  23.868  24.975  1.00  0.00    -0.356 N 
ATOM     15  N   UNL A   1      32.367  21.989  24.281  1.00  0.00    -0.342 N 
ATOM     16  C   UNL A   1      32.118  21.937  22.847  1.00  0.00     0.119 C 
ATOM     17  C   UNL A   1      32.905  23.130  24.872  1.00  0.00     0.230 C 
ATOM     18  C   UNL A   1      33.218  22.574  22.018  1.00  0.00     0.023 C 
ATOM     19  C   UNL A   1      33.991  23.839  24.051  1.00  0.00     0.069 C 
ATOM     20  O   UNL A   1      32.632  23.464  26.024  1.00  0.00    -0.274 OA
ATOM     21  C   UNL A   1      33.569  23.949  22.581  1.00  0.00     0.021 C 
ATOM     22  C   UNL A   1      34.351  25.208  24.665  1.00  0.00     0.040 C 
ATOM     23  C   UNL A   1      35.297  23.022  24.198  1.00  0.00     0.135 C 
ATOM     24  C   UNL A   1      35.437  24.871  25.692  1.00  0.00     0.119 C 
BRANCH  15  25
ATOM     25  C   UNL A   1      31.772  20.968  25.143  1.00  0.00     0.119 C 
BRANCH  25  26
ATOM     26  C   UNL A   1      32.647  19.748  25.431  1.00  0.00     0.018 C 
ATOM     27  C   UNL A   1      33.742  19.531  24.396  1.00  0.00     0.006 C 
ENDBRANCH  25  26
ENDBRANCH  15  25
ENDBRANCH   9  14
ENDBRANCH   6   8
ENDBRANCH   5   6
ENDBRANCH   4   5
ENDBRANCH   3   4
ENDBRANCH   2   3
ENDBRANCH   1   2
BRANCH   1  28
ATOM     28  C   UNL A   1      46.224  19.803  24.812  1.00  0.00     0.188 C 
BRANCH  28  29
ATOM     29  O   UNL A   1      45.829  21.083  25.256  1.00  0.00    -0.376 OA
BRANCH  29  30
ATOM     30  C   UNL A   1      46.432  22.217  24.659  1.00  0.00     0.202 C 
BRANCH  30  31
ATOM     31  C   UNL A   1      46.222  23.624  25.246  1.00  0.00     0.261 C 
BRANCH  31  32
ATOM     32  O   UNL A   1      45.251  24.466  24.608  1.00  0.00    -0.460 OA
BRANCH  32  33
ATOM     33  C   UNL A   1      43.953  24.099  24.696  1.00  0.00     0.338 C 
ATOM     34  O   UNL A   1      43.414  23.155  24.148  1.00  0.00    -0.246 OA
BRANCH  33  35
ATOM     35  C   UNL A   1      43.309  24.963  25.709  1.00  0.00     0.060 A 
ATOM     36  C   UNL A   1      43.674  26.312  25.786  1.00  0.00     0.016 A 
ATOM     37  C   UNL A   1      42.347  24.442  26.580  1.00  0.00     0.016 A 
ATOM     38  C   UNL A   1      43.093  27.140  26.751  1.00  0.00     0.010 A 
ATOM     39  C   UNL A   1      41.778  25.268  27.555  1.00  0.00     0.010 A 
ATOM     40  C   UNL A   1      42.167  26.616  27.663  1.00  0.00    -0.014 A 
BRANCH  40  41
ATOM     41  C   UNL A   1      41.708  27.432  28.815  1.00  0.00     0.031 A 
ATOM     42  C   UNL A   1      42.443  27.320  30.124  1.00  0.00     0.074 A 
ATOM     43  C   UNL A   1      40.658  28.266  28.707  1.00  0.00     0.049 A 
ATOM     44  N   UNL A   1      42.199  27.910  31.267  1.00  0.00    -0.248 NA
ATOM     45  C   UNL A   1      43.607  26.420  30.146  1.00  0.00     0.031 C 
ATOM     46  C   UNL A   1      39.880  28.496  27.492  1.00  0.00     0.029 A 
ATOM     47  N   UNL A   1      40.063  29.072  29.647  1.00  0.00    -0.354 N 
ATOM     48  C   UNL A   1      43.175  27.448  32.142  1.00  0.00     0.074 A 
ATOM     49  C   UNL A   1      43.995  26.510  31.408  1.00  0.00     0.031 C 
ATOM     50  C   UNL A   1      38.901  29.379  27.762  1.00  0.00     0.029 A 
ATOM     51  C   UNL A   1      38.966  29.751  29.174  1.00  0.00     0.049 A 
ATOM     52  H   UNL A   1      40.392  29.154  30.572  1.00  0.00     0.167 HD
ATOM     53  C   UNL A   1      43.374  27.779  33.441  1.00  0.00     0.031 A 
ATOM     54  C   UNL A   1      38.102  30.563  29.814  1.00  0.00     0.031 A 
ATOM     55  C   UNL A   1      42.552  28.699  34.181  1.00  0.00     0.049 A 
ATOM     56  C   UNL A   1      38.301  30.856  31.279  1.00  0.00     0.074 A 
ATOM     57  C   UNL A   1      42.691  29.113  35.495  1.00  0.00     0.029 A 
ATOM     58  N   UNL A   1      41.431  29.338  33.676  1.00  0.00    -0.354 N 
ATOM     59  N   UNL A   1      39.249  30.444  32.085  1.00  0.00    -0.248 NA
ATOM     60  C   UNL A   1      37.309  31.735  31.919  1.00  0.00     0.031 C 
ATOM     61  C   UNL A   1      41.618  29.957  35.803  1.00  0.00     0.029 A 
ATOM     62  C   UNL A   1      40.848  30.117  34.662  1.00  0.00     0.049 A 
ATOM     63  H   UNL A   1      41.098  29.251  32.754  1.00  0.00     0.167 HD
ATOM     64  C   UNL A   1      38.984  31.034  33.316  1.00  0.00     0.074 A 
ATOM     65  C   UNL A   1      37.797  31.846  33.146  1.00  0.00     0.031 C 
ATOM     66  C   UNL A   1      39.664  30.916  34.482  1.00  0.00     0.031 A 
BRANCH  53  67
ATOM     67  C   UNL A   1      44.511  27.109  34.158  1.00  0.00    -0.014 A 
ATOM     68  C   UNL A   1      45.792  27.684  34.195  1.00  0.00     0.009 A 
ATOM     69  C   UNL A   1      44.289  25.902  34.840  1.00  0.00     0.009 A 
ATOM     70  C   UNL A   1      46.832  27.047  34.876  1.00  0.00     0.001 A 
ATOM     71  C   UNL A   1      45.324  25.283  35.542  1.00  0.00     0.001 A 
ATOM     72  C   UNL A   1      46.595  25.851  35.552  1.00  0.00     0.000 A 
ENDBRANCH  53  67
BRANCH  54  73
ATOM     73  C   UNL A   1      36.943  31.145  29.085  1.00  0.00    -0.014 A 
ATOM     74  C   UNL A   1      35.851  30.345  28.716  1.00  0.00     0.009 A 
ATOM     75  C   UNL A   1      36.944  32.501  28.720  1.00  0.00     0.009 A 
ATOM     76  C   UNL A   1      34.797  30.885  27.973  1.00  0.00     0.001 A 
ATOM     77  C   UNL A   1      35.876  33.044  28.004  1.00  0.00     0.001 A 
ATOM     78  C   UNL A   1      34.808  32.233  27.622  1.00  0.00     0.000 A 
ENDBRANCH  54  73
BRANCH  66  79
ATOM     79  C   UNL A   1      39.160  31.706  35.660  1.00  0.00    -0.014 A 
ATOM     80  C   UNL A   1      38.240  31.160  36.568  1.00  0.00     0.009 A 
ATOM     81  C   UNL A   1      39.643  33.006  35.882  1.00  0.00     0.009 A 
ATOM     82  C   UNL A   1      37.787  31.913  37.653  1.00  0.00     0.001 A 
ATOM     83  C   UNL A   1      39.212  33.744  36.985  1.00  0.00     0.001 A 
ATOM     84  C   UNL A   1      38.276  33.202  37.863  1.00  0.00     0.000 A 
ENDBRANCH  66  79
ENDBRANCH  40  41
ENDBRANCH  33  35
ENDBRANCH  32  33
ENDBRANCH  31  32
ENDBRANCH  30  31
ENDBRANCH  29  30
ENDBRANCH  28  29
ENDBRANCH   1  28
TORSDOF 20
ENDMDL
MODEL 2
REMARK VINA RESULT:     -10.1      0.612      5.651
REMARK SMILES CCCN1CCC[C@@]2(CCN(c3ccc(C(=O)OCCOCCOCCOC(=O)c4ccc(-c5c6nc(c(-c7ccccc7)c7ccc([nH]7)c(-c7ccccc7)c7nc(c(-c8ccccc8)c8ccc5[nH]8)C=C7)C=C6)cc4)cn3)C2)C1=O
REMARK SMILES IDX 22 1 21 2 20 3 19 4 18 5 16 6 17 7 15 8 12 9 13 10 79 11
REMARK SMILES IDX 14 12 78 13 11 14 4 15 5 16 81 17 6 18 8 19 82 20 7 21 9 22
REMARK SMILES IDX 80 23 10 24 3 25 2 26 1 27 23 28 24 29 25 30 26 31 27 32
REMARK SMILES IDX 28 33 29 34 30 35 31 36 77 37 32 38 76 39 33 40 34 41 35 42
REMARK SMILES IDX 70 43 36 44 75 45 69 46 71 47 37 48 74 49 68 50 67 51 38 53
REMARK SMILES IDX 60 54 45 55 59 56 46 57 49 58 58 59 72 60 47 61 48 62 57 64
REMARK SMILES IDX 73 65 50 66 39 67 40 68 44 69 41 70 43 71 42 72 61 73 62 74
REMARK SMILES IDX 66 75 63 76 65 77 64 78 51 79 52 80 56 81 53 82 55 83 54 84
REMARK H PARENT 71 52 49 63
REMARK Flexibility Score: inf
ROOT
ATOM      1  C   UNL A   1      44.896  18.835  24.714  1.00  0.00     0.188 C 
ENDROOT
BRANCH   1   2
ATOM      2  O   UNL A   1      44.066  18.418  25.793  1.00  0.00    -0.376 OA
BRANCH   2   3
ATOM      3  C   UNL A   1      42.737  18.911  25.906  1.00  0.00     0.202 C 
BRANCH   3   4
ATOM      4  C   UNL A   1      42.494  20.421  25.783  1.00  0.00     0.261 C 
BRANCH   4   5
ATOM      5  O   UNL A   1      41.108  20.797  25.740  1.00  0.00    -0.460 OA
BRANCH   5   6
ATOM      6  C   UNL A   1      40.652  21.473  26.828  1.00  0.00     0.339 C 
ATOM      7  O   UNL A   1      41.200  21.598  27.899  1.00  0.00    -0.246 OA
BRANCH   6   8
ATOM      8  C   UNL A   1      39.422  22.204  26.469  1.00  0.00     0.078 A 
ATOM      9  C   UNL A   1      37.072  23.395  25.652  1.00  0.00     0.128 A 
ATOM     10  C   UNL A   1      37.998  24.120  26.410  1.00  0.00     0.048 A 
ATOM     11  N   UNL A   1      37.269  22.096  25.359  1.00  0.00    -0.238 NA
ATOM     12  C   UNL A   1      39.180  23.521  26.838  1.00  0.00     0.021 A 
ATOM     13  C   UNL A   1      38.445  21.537  25.745  1.00  0.00     0.129 A 
BRANCH   9  14
ATOM     14  N   UNL A   1      36.015  24.078  25.077  1.00  0.00    -0.356 N 
ATOM     15  N   UNL A   1      32.414  21.943  23.969  1.00  0.00    -0.342 N 
ATOM     16  C   UNL A   1      32.227  22.044  22.529  1.00  0.00     0.119 C 
ATOM     17  C   UNL A   1      32.811  23.048  24.718  1.00  0.00     0.230 C 
ATOM     18  C   UNL A   1      33.290  22.882  21.838  1.00  0.00     0.023 C 
ATOM     19  C   UNL A   1      33.851  23.953  24.044  1.00  0.00     0.069 C 
ATOM     20  O   UNL A   1      32.461  23.210  25.886  1.00  0.00    -0.274 OA
ATOM     21  C   UNL A   1      33.478  24.203  22.578  1.00  0.00     0.021 C 
ATOM     22  C   UNL A   1      34.047  25.263  24.834  1.00  0.00     0.040 C 
ATOM     23  C   UNL A   1      35.227  23.252  24.159  1.00  0.00     0.135 C 
ATOM     24  C   UNL A   1      35.122  24.907  25.868  1.00  0.00     0.119 C 
BRANCH  15  25
ATOM     25  C   UNL A   1      31.891  20.772  24.672  1.00  0.00     0.119 C 
BRANCH  25  26
ATOM     26  C   UNL A   1      32.537  19.435  24.309  1.00  0.00     0.018 C 
ATOM     27  C   UNL A   1      32.816  18.550  25.517  1.00  0.00     0.006 C 
ENDBRANCH  25  26
ENDBRANCH  15  25
ENDBRANCH   9  14
ENDBRANCH   6   8
ENDBRANCH   5   6
ENDBRANCH   4   5
ENDBRANCH   3   4
ENDBRANCH   2   3
ENDBRANCH   1   2
BRANCH   1  28
ATOM     28  C   UNL A   1      46.012  19.875  24.949  1.00  0.00     0.188 C 
BRANCH  28  29
ATOM     29  O   UNL A   1      45.527  21.190  25.115  1.00  0.00    -0.376 OA
BRANCH  29  30
ATOM     30  C   UNL A   1      46.368  22.267  24.745  1.00  0.00     0.202 C 
BRANCH  30  31
ATOM     31  C   UNL A   1      46.231  23.644  25.420  1.00  0.00     0.261 C 
BRANCH  31  32
ATOM     32  O   UNL A   1      45.355  24.597  24.802  1.00  0.00    -0.460 OA
BRANCH  32  33
ATOM     33  C   UNL A   1      44.031  24.326  24.813  1.00  0.00     0.338 C 
ATOM     34  O   UNL A   1      43.448  23.467  24.179  1.00  0.00    -0.246 OA
BRANCH  33  35
ATOM     35  C   UNL A   1      43.409  25.166  25.861  1.00  0.00     0.060 A 
ATOM     36  C   UNL A   1      43.890  26.463  26.070  1.00  0.00     0.016 A 
ATOM     37  C   UNL A   1      42.352  24.673  26.633  1.00  0.00     0.016 A 
ATOM     38  C   UNL A   1      43.330  27.265  27.068  1.00  0.00     0.010 A 
ATOM     39  C   UNL A   1      41.804  25.470  27.643  1.00  0.00     0.010 A 
ATOM     40  C   UNL A   1      42.307  26.761  27.884  1.00  0.00    -0.014 A 
BRANCH  40  41
ATOM     41  C   UNL A   1      41.856  27.525  29.074  1.00  0.00     0.031 A 
ATOM     42  C   UNL A   1      40.547  28.266  29.010  1.00  0.00     0.074 A 
ATOM     43  C   UNL A   1      42.590  27.561  30.201  1.00  0.00     0.049 A 
ATOM     44  N   UNL A   1      39.975  29.022  29.913  1.00  0.00    -0.248 NA
ATOM     45  C   UNL A   1      39.784  28.139  27.758  1.00  0.00     0.031 C 
ATOM     46  C   UNL A   1      43.857  26.863  30.410  1.00  0.00     0.029 A 
ATOM     47  N   UNL A   1      42.371  28.225  31.384  1.00  0.00    -0.354 N 
ATOM     48  C   UNL A   1      38.790  29.463  29.337  1.00  0.00     0.074 A 
ATOM     49  C   UNL A   1      38.739  28.915  27.999  1.00  0.00     0.031 C 
ATOM     50  C   UNL A   1      44.309  27.143  31.645  1.00  0.00     0.029 A 
ATOM     51  C   UNL A   1      43.381  28.062  32.301  1.00  0.00     0.049 A 
ATOM     52  H   UNL A   1      41.567  28.766  31.557  1.00  0.00     0.167 HD
ATOM     53  C   UNL A   1      37.828  30.250  29.873  1.00  0.00     0.031 A 
ATOM     54  C   UNL A   1      43.547  28.609  33.521  1.00  0.00     0.031 A 
ATOM     55  C   UNL A   1      37.880  30.811  31.197  1.00  0.00     0.049 A 
ATOM     56  C   UNL A   1      42.497  29.543  34.066  1.00  0.00     0.074 A 
ATOM     57  C   UNL A   1      36.941  31.602  31.836  1.00  0.00     0.029 A 
ATOM     58  N   UNL A   1      38.936  30.651  32.080  1.00  0.00    -0.354 N 
ATOM     59  N   UNL A   1      41.363  29.922  33.527  1.00  0.00    -0.248 NA
ATOM     60  C   UNL A   1      42.751  30.120  35.396  1.00  0.00     0.031 C 
ATOM     61  C   UNL A   1      37.455  31.971  33.084  1.00  0.00     0.029 A 
ATOM     62  C   UNL A   1      38.686  31.356  33.246  1.00  0.00     0.049 A 
ATOM     63  H   UNL A   1      39.743  30.115  31.906  1.00  0.00     0.167 HD
ATOM     64  C   UNL A   1      40.758  30.755  34.461  1.00  0.00     0.074 A 
ATOM     65  C   UNL A   1      41.641  30.814  35.607  1.00  0.00     0.031 C 
ATOM     66  C   UNL A   1      39.575  31.412  34.378  1.00  0.00     0.031 A 
BRANCH  53  67
ATOM     67  C   UNL A   1      36.644  30.582  29.009  1.00  0.00    -0.014 A 
ATOM     68  C   UNL A   1      35.825  29.575  28.473  1.00  0.00     0.009 A 
ATOM     69  C   UNL A   1      36.322  31.925  28.759  1.00  0.00     0.009 A 
ATOM     70  C   UNL A   1      34.725  29.908  27.679  1.00  0.00     0.001 A 
ATOM     71  C   UNL A   1      35.206  32.255  27.988  1.00  0.00     0.001 A 
ATOM     72  C   UNL A   1      34.414  31.247  27.443  1.00  0.00     0.000 A 
ENDBRANCH  53  67
BRANCH  54  73
ATOM     73  C   UNL A   1      44.771  28.315  34.313  1.00  0.00    -0.014 A 
ATOM     74  C   UNL A   1      45.929  29.093  34.162  1.00  0.00     0.009 A 
ATOM     75  C   UNL A   1      44.796  27.225  35.198  1.00  0.00     0.009 A 
ATOM     76  C   UNL A   1      47.095  28.769  34.861  1.00  0.00     0.001 A 
ATOM     77  C   UNL A   1      45.955  26.922  35.917  1.00  0.00     0.001 A 
ATOM     78  C   UNL A   1      47.106  27.687  35.740  1.00  0.00     0.000 A 
ENDBRANCH  54  73
BRANCH  66  79
ATOM     79  C   UNL A   1      39.151  32.227  35.569  1.00  0.00    -0.014 A 
ATOM     80  C   UNL A   1      38.229  31.731  36.504  1.00  0.00     0.009 A 
ATOM     81  C   UNL A   1      39.714  33.497  35.777  1.00  0.00     0.009 A 
ATOM     82  C   UNL A   1      37.851  32.507  37.602  1.00  0.00     0.001 A 
ATOM     83  C   UNL A   1      39.357  34.256  36.893  1.00  0.00     0.001 A 
ATOM     84  C   UNL A   1      38.419  33.766  37.798  1.00  0.00     0.000 A 
ENDBRANCH  66  79
ENDBRANCH  40  41
ENDBRANCH  33  35
ENDBRANCH  32  33
ENDBRANCH  31  32
ENDBRANCH  30  31
ENDBRANCH  29  30
ENDBRANCH  28  29
ENDBRANCH   1  28
TORSDOF 20
ENDMDL
MODEL 3
REMARK VINA RESULT:      -9.8      1.797      6.362
REMARK SMILES CCCN1CCC[C@@]2(CCN(c3ccc(C(=O)OCCOCCOCCOC(=O)c4ccc(-c5c6nc(c(-c7ccccc7)c7ccc([nH]7)c(-c7ccccc7)c7nc(c(-c8ccccc8)c8ccc5[nH]8)C=C7)C=C6)cc4)cn3)C2)C1=O
REMARK SMILES IDX 22 1 21 2 20 3 19 4 18 5 16 6 17 7 15 8 12 9 13 10 79 11
REMARK SMILES IDX 14 12 78 13 11 14 4 15 5 16 81 17 6 18 8 19 82 20 7 21 9 22
REMARK SMILES IDX 80 23 10 24 3 25 2 26 1 27 23 28 24 29 25 30 26 31 27 32
REMARK SMILES IDX 28 33 29 34 30 35 31 36 77 37 32 38 76 39 33 40 34 41 35 42
REMARK SMILES IDX 70 43 36 44 75 45 69 46 71 47 37 48 74 49 68 50 67 51 38 53
REMARK SMILES IDX 60 54 45 55 59 56 46 57 49 58 58 59 72 60 47 61 48 62 57 64
REMARK SMILES IDX 73 65 50 66 39 67 40 68 44 69 41 70 43 71 42 72 61 73 62 74
REMARK SMILES IDX 66 75 63 76 65 77 64 78 51 79 52 80 56 81 53 82 55 83 54 84
REMARK H PARENT 71 52 49 63
REMARK Flexibility Score: inf
ROOT
ATOM      1  C   UNL A   1      44.177  19.039  25.179  1.00  0.00     0.188 C 
ENDROOT
BRANCH   1   2
ATOM      2  O   UNL A   1      42.792  19.338  25.033  1.00  0.00    -0.376 OA
BRANCH   2   3
ATOM      3  C   UNL A   1      41.945  19.375  26.174  1.00  0.00     0.202 C 
BRANCH   3   4
ATOM      4  C   UNL A   1      41.316  20.713  26.587  1.00  0.00     0.261 C 
BRANCH   4   5
ATOM      5  O   UNL A   1      40.019  20.957  26.020  1.00  0.00    -0.460 OA
BRANCH   5   6
ATOM      6  C   UNL A   1      39.364  22.046  26.506  1.00  0.00     0.339 C 
ATOM      7  O   UNL A   1      39.775  22.854  27.307  1.00  0.00    -0.246 OA
BRANCH   6   8
ATOM      8  C   UNL A   1      38.091  22.216  25.779  1.00  0.00     0.078 A 
ATOM      9  C   UNL A   1      35.664  22.709  24.567  1.00  0.00     0.128 A 
ATOM     10  C   UNL A   1      36.379  21.548  24.255  1.00  0.00     0.048 A 
ATOM     11  N   UNL A   1      36.163  23.636  25.407  1.00  0.00    -0.238 NA
ATOM     12  C   UNL A   1      37.613  21.299  24.853  1.00  0.00     0.021 A 
ATOM     13  C   UNL A   1      37.345  23.361  26.015  1.00  0.00     0.129 A 
BRANCH   9  14
ATOM     14  N   UNL A   1      34.362  22.821  24.114  1.00  0.00    -0.356 N 
ATOM     15  N   UNL A   1      31.934  26.194  25.332  1.00  0.00    -0.342 N 
ATOM     16  C   UNL A   1      30.789  25.706  26.087  1.00  0.00     0.119 C 
ATOM     17  C   UNL A   1      32.356  25.547  24.173  1.00  0.00     0.230 C 
ATOM     18  C   UNL A   1      30.739  24.192  26.198  1.00  0.00     0.023 C 
ATOM     19  C   UNL A   1      32.281  24.014  24.218  1.00  0.00     0.069 C 
ATOM     20  O   UNL A   1      32.880  26.150  23.238  1.00  0.00    -0.274 OA
ATOM     21  C   UNL A   1      30.949  23.558  24.826  1.00  0.00     0.021 C 
ATOM     22  C   UNL A   1      32.534  23.401  22.826  1.00  0.00     0.040 C 
ATOM     23  C   UNL A   1      33.479  23.511  25.058  1.00  0.00     0.135 C 
ATOM     24  C   UNL A   1      34.059  23.261  22.762  1.00  0.00     0.119 C 
BRANCH  15  25
ATOM     25  C   UNL A   1      32.452  27.533  25.613  1.00  0.00     0.119 C 
BRANCH  25  26
ATOM     26  C   UNL A   1      33.846  27.590  26.237  1.00  0.00     0.018 C 
ATOM     27  C   UNL A   1      34.124  28.888  26.982  1.00  0.00     0.006 C 
ENDBRANCH  25  26
ENDBRANCH  15  25
ENDBRANCH   9  14
ENDBRANCH   6   8
ENDBRANCH   5   6
ENDBRANCH   4   5
ENDBRANCH   3   4
ENDBRANCH   2   3
ENDBRANCH   1   2
BRANCH   1  28
ATOM     28  C   UNL A   1      45.219  20.179  25.202  1.00  0.00     0.188 C 
BRANCH  28  29
ATOM     29  O   UNL A   1      44.741  21.385  24.645  1.00  0.00    -0.376 OA
BRANCH  29  30
ATOM     30  C   UNL A   1      44.714  22.539  25.465  1.00  0.00     0.202 C 
BRANCH  30  31
ATOM     31  C   UNL A   1      43.926  23.791  25.040  1.00  0.00     0.261 C 
BRANCH  31  32
ATOM     32  O   UNL A   1      43.055  24.383  26.014  1.00  0.00    -0.460 OA
BRANCH  32  33
ATOM     33  C   UNL A   1      42.508  25.583  25.715  1.00  0.00     0.338 C 
ATOM     34  O   UNL A   1      42.090  25.954  24.634  1.00  0.00    -0.246 OA
BRANCH  33  35
ATOM     35  C   UNL A   1      42.360  26.337  26.979  1.00  0.00     0.060 A 
ATOM     36  C   UNL A   1      41.536  25.823  27.987  1.00  0.00     0.016 A 
ATOM     37  C   UNL A   1      43.033  27.548  27.167  1.00  0.00     0.016 A 
ATOM     38  C   UNL A   1      41.366  26.531  29.181  1.00  0.00     0.010 A 
ATOM     39  C   UNL A   1      42.848  28.264  28.355  1.00  0.00     0.010 A 
ATOM     40  C   UNL A   1      41.994  27.772  29.358  1.00  0.00    -0.014 A 
BRANCH  40  41
ATOM     41  C   UNL A   1      41.651  28.622  30.527  1.00  0.00     0.031 A 
ATOM     42  C   UNL A   1      40.481  29.563  30.423  1.00  0.00     0.074 A 
ATOM     43  C   UNL A   1      42.362  28.561  31.667  1.00  0.00     0.049 A 
ATOM     44  N   UNL A   1      40.023  30.419  31.301  1.00  0.00    -0.248 NA
ATOM     45  C   UNL A   1      39.729  29.535  29.158  1.00  0.00     0.031 C 
ATOM     46  C   UNL A   1      43.495  27.672  31.914  1.00  0.00     0.029 A 
ATOM     47  N   UNL A   1      42.231  29.275  32.834  1.00  0.00    -0.354 N 
ATOM     48  C   UNL A   1      38.935  31.033  30.693  1.00  0.00     0.074 A 
ATOM     49  C   UNL A   1      38.819  30.474  29.364  1.00  0.00     0.031 C 
ATOM     50  C   UNL A   1      43.965  27.900  33.154  1.00  0.00     0.029 A 
ATOM     51  C   UNL A   1      43.185  28.970  33.774  1.00  0.00     0.049 A 
ATOM     52  H   UNL A   1      41.522  29.942  32.981  1.00  0.00     0.167 HD
ATOM     53  C   UNL A   1      38.103  31.976  31.196  1.00  0.00     0.031 A 
ATOM     54  C   UNL A   1      43.416  29.507  34.988  1.00  0.00     0.031 A 
ATOM     55  C   UNL A   1      38.222  32.548  32.511  1.00  0.00     0.049 A 
ATOM     56  C   UNL A   1      42.521  30.610  35.496  1.00  0.00     0.074 A 
ATOM     57  C   UNL A   1      37.411  33.492  33.117  1.00  0.00     0.029 A 
ATOM     58  N   UNL A   1      39.222  32.237  33.418  1.00  0.00    -0.354 N 
ATOM     59  N   UNL A   1      41.474  31.155  34.927  1.00  0.00    -0.248 NA
ATOM     60  C   UNL A   1      42.842  31.164  36.821  1.00  0.00     0.031 C 
ATOM     61  C   UNL A   1      37.956  33.798  34.369  1.00  0.00     0.029 A 
ATOM     62  C   UNL A   1      39.069  32.997  34.567  1.00  0.00     0.049 A 
ATOM     63  H   UNL A   1      39.935  31.575  33.270  1.00  0.00     0.167 HD
ATOM     64  C   UNL A   1      40.995  32.093  35.834  1.00  0.00     0.074 A 
ATOM     65  C   UNL A   1      41.855  32.032  36.997  1.00  0.00     0.031 C 
ATOM     66  C   UNL A   1      39.935  32.931  35.715  1.00  0.00     0.031 A 
BRANCH  53  67
ATOM     67  C   UNL A   1      37.004  32.477  30.302  1.00  0.00    -0.014 A 
ATOM     68  C   UNL A   1      37.215  33.543  29.412  1.00  0.00     0.009 A 
ATOM     69  C   UNL A   1      35.749  31.848  30.324  1.00  0.00     0.009 A 
ATOM     70  C   UNL A   1      36.180  33.986  28.584  1.00  0.00     0.001 A 
ATOM     71  C   UNL A   1      34.727  32.275  29.476  1.00  0.00     0.001 A 
ATOM     72  C   UNL A   1      34.940  33.348  28.614  1.00  0.00     0.000 A 
ENDBRANCH  53  67
BRANCH  54  73
ATOM     73  C   UNL A   1      44.562  29.035  35.810  1.00  0.00    -0.014 A 
ATOM     74  C   UNL A   1      45.824  29.638  35.697  1.00  0.00     0.009 A 
ATOM     75  C   UNL A   1      44.405  27.950  36.686  1.00  0.00     0.009 A 
ATOM     76  C   UNL A   1      46.912  29.145  36.424  1.00  0.00     0.001 A 
ATOM     77  C   UNL A   1      45.487  27.479  37.434  1.00  0.00     0.001 A 
ATOM     78  C   UNL A   1      46.741  28.070  37.294  1.00  0.00     0.000 A 
ENDBRANCH  54  73
BRANCH  66  79
ATOM     79  C   UNL A   1      39.628  33.827  36.884  1.00  0.00    -0.014 A 
ATOM     80  C   UNL A   1      40.082  35.154  36.927  1.00  0.00     0.009 A 
ATOM     81  C   UNL A   1      38.840  33.344  37.941  1.00  0.00     0.009 A 
ATOM     82  C   UNL A   1      39.784  35.967  38.023  1.00  0.00     0.001 A 
ATOM     83  C   UNL A   1      38.518  34.169  39.020  1.00  0.00     0.001 A 
ATOM     84  C   UNL A   1      38.998  35.475  39.066  1.00  0.00     0.000 A 
ENDBRANCH  66  79
ENDBRANCH  40  41
ENDBRANCH  33  35
ENDBRANCH  32  33
ENDBRANCH  31  32
ENDBRANCH  30  31
ENDBRANCH  29  30
ENDBRANCH  28  29
ENDBRANCH   1  28
TORSDOF 20
ENDMDL
