MODEL 1
REMARK VINA RESULT:     -10.4      0.000      0.000
REMARK SMILES O=C(CCC(=O)N1Cc2[nH]cnc2C[C@H]1C(=O)NCc1ccccc1)OCCOCCOCCOC(=O)c1ccc(-c2c3nc(c(-c4ccccc4)c4ccc([nH]4)c(-c4ccccc4)c4nc(c(-c5ccccc5)c5ccc2[nH]5)C=C4)C=C3)cc1
REMARK SMILES IDX 28 1 27 2 26 3 2 4 1 5 3 6 4 7 5 8 6 9 7 10 8 11 15 12 9 13
REMARK SMILES IDX 14 14 10 15 13 16 11 17 12 19 16 20 17 21 18 22 19 24 20 25
REMARK SMILES IDX 21 26 25 27 22 28 24 29 23 30 29 31 30 32 31 33 32 34 33 35
REMARK SMILES IDX 34 36 35 37 36 38 37 39 38 40 39 41 85 42 40 43 84 44 41 45
REMARK SMILES IDX 42 46 43 47 78 48 44 49 83 50 77 51 79 52 45 53 82 54 76 55
REMARK SMILES IDX 75 56 46 58 68 59 53 60 67 61 54 62 57 63 66 64 80 65 55 66
REMARK SMILES IDX 56 67 65 69 81 70 58 71 47 72 48 73 52 74 49 75 51 76 50 77
REMARK SMILES IDX 69 78 70 79 74 80 71 81 73 82 72 83 59 84 60 85 64 86 61 87
REMARK SMILES IDX 63 88 62 89
REMARK H PARENT 10 18 18 23 79 57 57 68
REMARK Flexibility Score: inf
ROOT
ATOM      1  C   UNL A   1      38.971  21.845  25.808  1.00  0.00     0.202 C 
ENDROOT
BRANCH   1   2
ATOM      2  C   UNL A   1      37.887  22.913  25.791  1.00  0.00     0.261 C 
BRANCH   2   3
ATOM      3  O   UNL A   1      36.700  22.460  25.130  1.00  0.00    -0.463 OA
BRANCH   3   4
ATOM      4  C   UNL A   1      35.946  23.164  24.259  1.00  0.00     0.306 C 
ATOM      5  O   UNL A   1      36.250  23.224  23.070  1.00  0.00    -0.252 OA
BRANCH   4   6
ATOM      6  C   UNL A   1      34.680  23.739  24.765  1.00  0.00     0.132 C 
BRANCH   6   7
ATOM      7  C   UNL A   1      34.665  25.234  24.497  1.00  0.00     0.112 C 
BRANCH   7   8
ATOM      8  C   UNL A   1      33.721  25.716  23.405  1.00  0.00     0.224 C 
ATOM      9  O   UNL A   1      34.026  25.415  22.242  1.00  0.00    -0.275 OA
BRANCH   8  10
ATOM     10  N   UNL A   1      32.571  26.467  23.664  1.00  0.00    -0.324 N 
ATOM     11  C   UNL A   1      31.845  26.873  22.444  1.00  0.00     0.176 C 
ATOM     12  C   UNL A   1      32.040  26.928  25.015  1.00  0.00     0.180 C 
ATOM     13  C   UNL A   1      31.059  28.093  22.670  1.00  0.00     0.058 A 
ATOM     14  C   UNL A   1      31.597  28.416  25.082  1.00  0.00     0.093 C 
ATOM     15  N   UNL A   1      30.218  28.700  21.783  1.00  0.00    -0.347 N 
ATOM     16  C   UNL A   1      30.953  28.821  23.823  1.00  0.00     0.066 A 
ATOM     17  C   UNL A   1      29.665  29.773  22.429  1.00  0.00     0.197 A 
ATOM     18  H   UNL A   1      30.042  28.418  20.855  1.00  0.00     0.167 HD
ATOM     19  N   UNL A   1      30.100  29.875  23.667  1.00  0.00    -0.242 NA
BRANCH  12  20
ATOM     20  C   UNL A   1      31.196  25.992  25.904  1.00  0.00     0.243 C 
ATOM     21  O   UNL A   1      31.336  26.017  27.134  1.00  0.00    -0.273 OA
ATOM     22  N   UNL A   1      30.323  25.068  25.434  1.00  0.00    -0.350 N 
ATOM     23  H   UNL A   1      29.627  24.790  26.073  1.00  0.00     0.163 HD
BRANCH  22  24
ATOM     24  C   UNL A   1      30.258  24.430  24.144  1.00  0.00     0.151 C 
BRANCH  24  25
ATOM     25  C   UNL A   1      31.097  23.176  24.064  1.00  0.00    -0.029 A 
ATOM     26  C   UNL A   1      31.714  22.741  22.877  1.00  0.00     0.005 A 
ATOM     27  C   UNL A   1      31.248  22.393  25.217  1.00  0.00     0.005 A 
ATOM     28  C   UNL A   1      32.411  21.536  22.828  1.00  0.00     0.000 A 
ATOM     29  C   UNL A   1      31.968  21.198  25.174  1.00  0.00     0.000 A 
ATOM     30  C   UNL A   1      32.537  20.764  23.977  1.00  0.00     0.000 A 
ENDBRANCH  24  25
ENDBRANCH  22  24
ENDBRANCH  12  20
ENDBRANCH   8  10
ENDBRANCH   7   8
ENDBRANCH   6   7
ENDBRANCH   4   6
ENDBRANCH   3   4
ENDBRANCH   2   3
ENDBRANCH   1   2
BRANCH   1  31
ATOM     31  O   UNL A   1      39.657  21.562  27.011  1.00  0.00    -0.376 OA
BRANCH  31  32
ATOM     32  C   UNL A   1      40.835  20.771  27.039  1.00  0.00     0.188 C 
BRANCH  32  33
ATOM     33  C   UNL A   1      41.071  19.471  26.206  1.00  0.00     0.188 C 
BRANCH  33  34
ATOM     34  O   UNL A   1      42.112  19.261  25.273  1.00  0.00    -0.376 OA
BRANCH  34  35
ATOM     35  C   UNL A   1      43.422  18.771  25.515  1.00  0.00     0.202 C 
BRANCH  35  36
ATOM     36  C   UNL A   1      44.630  19.077  24.644  1.00  0.00     0.261 C 
BRANCH  36  37
ATOM     37  O   UNL A   1      44.470  20.304  23.978  1.00  0.00    -0.460 OA
BRANCH  37  38
ATOM     38  C   UNL A   1      45.275  21.271  24.460  1.00  0.00     0.338 C 
ATOM     39  O   UNL A   1      46.415  21.161  24.863  1.00  0.00    -0.246 OA
BRANCH  38  40
ATOM     40  C   UNL A   1      44.528  22.530  24.448  1.00  0.00     0.060 A 
ATOM     41  C   UNL A   1      45.331  23.663  24.508  1.00  0.00     0.016 A 
ATOM     42  C   UNL A   1      43.201  22.494  24.890  1.00  0.00     0.016 A 
ATOM     43  C   UNL A   1      44.985  24.570  25.461  1.00  0.00     0.010 A 
ATOM     44  C   UNL A   1      42.856  23.392  25.842  1.00  0.00     0.010 A 
ATOM     45  C   UNL A   1      43.829  24.311  26.206  1.00  0.00    -0.014 A 
BRANCH  45  46
ATOM     46  C   UNL A   1      43.598  25.106  27.369  1.00  0.00     0.031 A 
ATOM     47  C   UNL A   1      42.404  25.927  27.159  1.00  0.00     0.074 A 
ATOM     48  C   UNL A   1      44.376  25.004  28.458  1.00  0.00     0.049 A 
ATOM     49  N   UNL A   1      42.390  27.148  26.745  1.00  0.00    -0.248 NA
ATOM     50  C   UNL A   1      41.109  25.230  27.056  1.00  0.00     0.031 C 
ATOM     51  C   UNL A   1      45.405  24.008  28.773  1.00  0.00     0.029 A 
ATOM     52  N   UNL A   1      44.321  25.745  29.585  1.00  0.00    -0.354 N 
ATOM     53  C   UNL A   1      41.045  27.451  26.629  1.00  0.00     0.074 A 
ATOM     54  C   UNL A   1      40.364  26.189  26.506  1.00  0.00     0.031 C 
ATOM     55  C   UNL A   1      45.673  24.059  30.101  1.00  0.00     0.029 A 
ATOM     56  C   UNL A   1      44.935  25.169  30.685  1.00  0.00     0.049 A 
ATOM     57  H   UNL A   1      43.879  26.624  29.623  1.00  0.00     0.167 HD
ATOM     58  C   UNL A   1      40.595  28.635  27.127  1.00  0.00     0.031 A 
ATOM     59  C   UNL A   1      44.747  25.548  31.975  1.00  0.00     0.031 A 
ATOM     60  C   UNL A   1      41.688  29.574  27.294  1.00  0.00     0.049 A 
ATOM     61  C   UNL A   1      44.150  26.910  31.950  1.00  0.00     0.074 A 
ATOM     62  C   UNL A   1      42.661  30.099  26.468  1.00  0.00     0.029 A 
ATOM     63  N   UNL A   1      42.140  29.758  28.580  1.00  0.00    -0.354 N 
ATOM     64  N   UNL A   1      44.801  27.967  31.555  1.00  0.00    -0.248 NA
ATOM     65  C   UNL A   1      42.698  27.019  31.887  1.00  0.00     0.031 C 
ATOM     66  C   UNL A   1      43.833  30.200  27.278  1.00  0.00     0.029 A 
ATOM     67  C   UNL A   1      43.507  29.803  28.577  1.00  0.00     0.049 A 
ATOM     68  H   UNL A   1      41.570  29.845  29.379  1.00  0.00     0.167 HD
ATOM     69  C   UNL A   1      43.893  28.668  30.771  1.00  0.00     0.074 A 
ATOM     70  C   UNL A   1      42.587  28.094  31.100  1.00  0.00     0.031 C 
ATOM     71  C   UNL A   1      44.322  29.418  29.710  1.00  0.00     0.031 A 
BRANCH  58  72
ATOM     72  C   UNL A   1      39.346  28.705  27.983  1.00  0.00    -0.014 A 
ATOM     73  C   UNL A   1      38.403  29.697  27.671  1.00  0.00     0.009 A 
ATOM     74  C   UNL A   1      39.206  28.082  29.242  1.00  0.00     0.009 A 
ATOM     75  C   UNL A   1      37.472  30.134  28.617  1.00  0.00     0.001 A 
ATOM     76  C   UNL A   1      38.253  28.489  30.175  1.00  0.00     0.001 A 
ATOM     77  C   UNL A   1      37.411  29.544  29.876  1.00  0.00     0.000 A 
ENDBRANCH  58  72
BRANCH  59  78
ATOM     78  C   UNL A   1      44.721  24.703  33.189  1.00  0.00    -0.014 A 
ATOM     79  C   UNL A   1      43.866  23.590  33.263  1.00  0.00     0.009 A 
ATOM     80  C   UNL A   1      45.729  24.816  34.164  1.00  0.00     0.009 A 
ATOM     81  C   UNL A   1      44.042  22.608  34.248  1.00  0.00     0.001 A 
ATOM     82  C   UNL A   1      45.902  23.838  35.151  1.00  0.00     0.001 A 
ATOM     83  C   UNL A   1      45.069  22.725  35.182  1.00  0.00     0.000 A 
ENDBRANCH  59  78
BRANCH  71  84
ATOM     84  C   UNL A   1      45.802  29.692  29.599  1.00  0.00    -0.014 A 
ATOM     85  C   UNL A   1      46.697  28.878  28.880  1.00  0.00     0.009 A 
ATOM     86  C   UNL A   1      46.286  30.889  30.145  1.00  0.00     0.009 A 
ATOM     87  C   UNL A   1      48.044  29.237  28.749  1.00  0.00     0.001 A 
ATOM     88  C   UNL A   1      47.625  31.258  29.998  1.00  0.00     0.001 A 
ATOM     89  C   UNL A   1      48.505  30.428  29.308  1.00  0.00     0.000 A 
ENDBRANCH  71  84
ENDBRANCH  45  46
ENDBRANCH  38  40
ENDBRANCH  37  38
ENDBRANCH  36  37
ENDBRANCH  35  36
ENDBRANCH  34  35
ENDBRANCH  33  34
ENDBRANCH  32  33
ENDBRANCH  31  32
ENDBRANCH   1  31
TORSDOF 23
ENDMDL
MODEL 2
REMARK VINA RESULT:     -10.4      2.707      6.080
REMARK SMILES O=C(CCC(=O)N1Cc2[nH]cnc2C[C@H]1C(=O)NCc1ccccc1)OCCOCCOCCOC(=O)c1ccc(-c2c3nc(c(-c4ccccc4)c4ccc([nH]4)c(-c4ccccc4)c4nc(c(-c5ccccc5)c5ccc2[nH]5)C=C4)C=C3)cc1
REMARK SMILES IDX 28 1 27 2 26 3 2 4 1 5 3 6 4 7 5 8 6 9 7 10 8 11 15 12 9 13
REMARK SMILES IDX 14 14 10 15 13 16 11 17 12 19 16 20 17 21 18 22 19 24 20 25
REMARK SMILES IDX 21 26 25 27 22 28 24 29 23 30 29 31 30 32 31 33 32 34 33 35
REMARK SMILES IDX 34 36 35 37 36 38 37 39 38 40 39 41 85 42 40 43 84 44 41 45
REMARK SMILES IDX 42 46 43 47 78 48 44 49 83 50 77 51 79 52 45 53 82 54 76 55
REMARK SMILES IDX 75 56 46 58 68 59 53 60 67 61 54 62 57 63 66 64 80 65 55 66
REMARK SMILES IDX 56 67 65 69 81 70 58 71 47 72 48 73 52 74 49 75 51 76 50 77
REMARK SMILES IDX 69 78 70 79 74 80 71 81 73 82 72 83 59 84 60 85 64 86 61 87
REMARK SMILES IDX 63 88 62 89
REMARK H PARENT 10 18 18 23 79 57 57 68
REMARK Flexibility Score: inf
ROOT
ATOM      1  C   UNL A   1      39.794  21.282  26.123  1.00  0.00     0.202 C 
ENDROOT
BRANCH   1   2
ATOM      2  C   UNL A   1      38.665  22.302  26.150  1.00  0.00     0.261 C 
BRANCH   2   3
ATOM      3  O   UNL A   1      37.414  21.725  25.762  1.00  0.00    -0.463 OA
BRANCH   3   4
ATOM      4  C   UNL A   1      36.225  22.361  25.681  1.00  0.00     0.306 C 
ATOM      5  O   UNL A   1      36.072  23.311  24.918  1.00  0.00    -0.252 OA
BRANCH   4   6
ATOM      6  C   UNL A   1      35.093  21.785  26.441  1.00  0.00     0.132 C 
BRANCH   6   7
ATOM      7  C   UNL A   1      34.389  22.892  27.208  1.00  0.00     0.112 C 
BRANCH   7   8
ATOM      8  C   UNL A   1      32.977  23.234  26.757  1.00  0.00     0.224 C 
ATOM      9  O   UNL A   1      32.068  22.991  27.564  1.00  0.00    -0.275 OA
BRANCH   8  10
ATOM     10  N   UNL A   1      32.684  23.784  25.506  1.00  0.00    -0.324 N 
ATOM     11  C   UNL A   1      33.221  25.147  25.321  1.00  0.00     0.176 C 
ATOM     12  C   UNL A   1      31.865  23.165  24.382  1.00  0.00     0.180 C 
ATOM     13  C   UNL A   1      32.437  25.901  24.335  1.00  0.00     0.058 A 
ATOM     14  C   UNL A   1      30.817  24.107  23.726  1.00  0.00     0.093 C 
ATOM     15  N   UNL A   1      32.696  27.159  23.872  1.00  0.00    -0.347 N 
ATOM     16  C   UNL A   1      31.342  25.478  23.631  1.00  0.00     0.066 A 
ATOM     17  C   UNL A   1      31.739  27.445  22.936  1.00  0.00     0.197 A 
ATOM     18  H   UNL A   1      33.432  27.749  24.158  1.00  0.00     0.167 HD
ATOM     19  N   UNL A   1      30.899  26.444  22.775  1.00  0.00    -0.242 NA
BRANCH  12  20
ATOM     20  C   UNL A   1      32.493  22.159  23.394  1.00  0.00     0.243 C 
ATOM     21  O   UNL A   1      32.669  22.482  22.212  1.00  0.00    -0.273 OA
ATOM     22  N   UNL A   1      32.825  20.883  23.708  1.00  0.00    -0.350 N 
ATOM     23  H   UNL A   1      33.501  20.473  23.121  1.00  0.00     0.163 HD
BRANCH  22  24
ATOM     24  C   UNL A   1      32.341  20.034  24.767  1.00  0.00     0.151 C 
BRANCH  24  25
ATOM     25  C   UNL A   1      33.056  18.706  24.829  1.00  0.00    -0.029 A 
ATOM     26  C   UNL A   1      34.412  18.548  24.489  1.00  0.00     0.005 A 
ATOM     27  C   UNL A   1      32.333  17.569  25.217  1.00  0.00     0.005 A 
ATOM     28  C   UNL A   1      35.011  17.290  24.481  1.00  0.00     0.000 A 
ATOM     29  C   UNL A   1      32.940  16.312  25.234  1.00  0.00     0.000 A 
ATOM     30  C   UNL A   1      34.274  16.172  24.853  1.00  0.00     0.000 A 
ENDBRANCH  24  25
ENDBRANCH  22  24
ENDBRANCH  12  20
ENDBRANCH   8  10
ENDBRANCH   7   8
ENDBRANCH   6   7
ENDBRANCH   4   6
ENDBRANCH   3   4
ENDBRANCH   2   3
ENDBRANCH   1   2
BRANCH   1  31
ATOM     31  O   UNL A   1      40.363  20.833  27.337  1.00  0.00    -0.376 OA
BRANCH  31  32
ATOM     32  C   UNL A   1      41.606  20.151  27.380  1.00  0.00     0.188 C 
BRANCH  32  33
ATOM     33  C   UNL A   1      42.272  19.407  26.179  1.00  0.00     0.188 C 
BRANCH  33  34
ATOM     34  O   UNL A   1      43.026  20.009  25.145  1.00  0.00    -0.376 OA
BRANCH  34  35
ATOM     35  C   UNL A   1      44.065  20.967  25.261  1.00  0.00     0.202 C 
BRANCH  35  36
ATOM     36  C   UNL A   1      43.887  22.461  25.036  1.00  0.00     0.261 C 
BRANCH  36  37
ATOM     37  O   UNL A   1      42.719  22.927  25.663  1.00  0.00    -0.460 OA
BRANCH  37  38
ATOM     38  C   UNL A   1      42.590  24.267  25.602  1.00  0.00     0.338 C 
ATOM     39  O   UNL A   1      43.197  25.045  24.895  1.00  0.00    -0.246 OA
BRANCH  38  40
ATOM     40  C   UNL A   1      41.577  24.668  26.581  1.00  0.00     0.060 A 
ATOM     41  C   UNL A   1      40.656  25.589  26.095  1.00  0.00     0.016 A 
ATOM     42  C   UNL A   1      41.905  24.538  27.935  1.00  0.00     0.016 A 
ATOM     43  C   UNL A   1      40.471  26.690  26.871  1.00  0.00     0.010 A 
ATOM     44  C   UNL A   1      41.727  25.635  28.708  1.00  0.00     0.010 A 
ATOM     45  C   UNL A   1      41.150  26.735  28.094  1.00  0.00    -0.014 A 
BRANCH  45  46
ATOM     46  C   UNL A   1      41.172  27.981  28.793  1.00  0.00     0.031 A 
ATOM     47  C   UNL A   1      42.330  28.759  28.349  1.00  0.00     0.074 A 
ATOM     48  C   UNL A   1      40.205  28.320  29.661  1.00  0.00     0.049 A 
ATOM     49  N   UNL A   1      43.478  28.805  28.933  1.00  0.00    -0.248 NA
ATOM     50  C   UNL A   1      42.332  29.239  26.955  1.00  0.00     0.031 C 
ATOM     51  C   UNL A   1      38.917  27.668  29.915  1.00  0.00     0.029 A 
ATOM     52  N   UNL A   1      40.145  29.419  30.442  1.00  0.00    -0.354 N 
ATOM     53  C   UNL A   1      44.251  29.594  28.100  1.00  0.00     0.074 A 
ATOM     54  C   UNL A   1      43.624  29.536  26.806  1.00  0.00     0.031 C 
ATOM     55  C   UNL A   1      38.114  28.530  30.584  1.00  0.00     0.029 A 
ATOM     56  C   UNL A   1      38.877  29.725  30.909  1.00  0.00     0.049 A 
ATOM     57  H   UNL A   1      40.938  29.960  30.661  1.00  0.00     0.167 HD
ATOM     58  C   UNL A   1      45.016  30.576  28.650  1.00  0.00     0.031 A 
ATOM     59  C   UNL A   1      38.503  30.921  31.431  1.00  0.00     0.031 A 
ATOM     60  C   UNL A   1      45.230  30.332  30.064  1.00  0.00     0.049 A 
ATOM     61  C   UNL A   1      39.746  31.645  31.807  1.00  0.00     0.074 A 
ATOM     62  C   UNL A   1      45.738  29.287  30.811  1.00  0.00     0.029 A 
ATOM     63  N   UNL A   1      44.484  31.094  30.933  1.00  0.00    -0.354 N 
ATOM     64  N   UNL A   1      40.523  31.269  32.783  1.00  0.00    -0.248 NA
ATOM     65  C   UNL A   1      40.383  32.480  30.797  1.00  0.00     0.031 C 
ATOM     66  C   UNL A   1      44.938  29.243  31.993  1.00  0.00     0.029 A 
ATOM     67  C   UNL A   1      44.029  30.303  31.951  1.00  0.00     0.049 A 
ATOM     68  H   UNL A   1      44.304  32.058  30.837  1.00  0.00     0.167 HD
ATOM     69  C   UNL A   1      41.813  31.410  32.283  1.00  0.00     0.074 A 
ATOM     70  C   UNL A   1      41.667  32.259  31.099  1.00  0.00     0.031 C 
ATOM     71  C   UNL A   1      42.813  30.571  32.691  1.00  0.00     0.031 A 
BRANCH  58  72
ATOM     72  C   UNL A   1      45.035  31.977  28.071  1.00  0.00    -0.014 A 
ATOM     73  C   UNL A   1      43.962  32.822  28.391  1.00  0.00     0.009 A 
ATOM     74  C   UNL A   1      45.857  32.385  26.999  1.00  0.00     0.009 A 
ATOM     75  C   UNL A   1      43.649  33.928  27.594  1.00  0.00     0.001 A 
ATOM     76  C   UNL A   1      45.571  33.510  26.225  1.00  0.00     0.001 A 
ATOM     77  C   UNL A   1      44.442  34.259  26.500  1.00  0.00     0.000 A 
ENDBRANCH  58  72
BRANCH  59  78
ATOM     78  C   UNL A   1      37.200  31.612  31.311  1.00  0.00    -0.014 A 
ATOM     79  C   UNL A   1      36.926  32.751  32.087  1.00  0.00     0.009 A 
ATOM     80  C   UNL A   1      36.333  31.329  30.240  1.00  0.00     0.009 A 
ATOM     81  C   UNL A   1      35.851  33.595  31.776  1.00  0.00     0.001 A 
ATOM     82  C   UNL A   1      35.256  32.169  29.932  1.00  0.00     0.001 A 
ATOM     83  C   UNL A   1      35.025  33.312  30.690  1.00  0.00     0.000 A 
ENDBRANCH  59  78
BRANCH  71  84
ATOM     84  C   UNL A   1      42.550  29.698  33.894  1.00  0.00    -0.014 A 
ATOM     85  C   UNL A   1      42.706  30.131  35.223  1.00  0.00     0.009 A 
ATOM     86  C   UNL A   1      42.007  28.425  33.669  1.00  0.00     0.009 A 
ATOM     87  C   UNL A   1      42.363  29.295  36.293  1.00  0.00     0.001 A 
ATOM     88  C   UNL A   1      41.647  27.599  34.735  1.00  0.00     0.001 A 
ATOM     89  C   UNL A   1      41.833  28.030  36.046  1.00  0.00     0.000 A 
ENDBRANCH  71  84
ENDBRANCH  45  46
ENDBRANCH  38  40
ENDBRANCH  37  38
ENDBRANCH  36  37
ENDBRANCH  35  36
ENDBRANCH  34  35
ENDBRANCH  33  34
ENDBRANCH  32  33
ENDBRANCH  31  32
ENDBRANCH   1  31
TORSDOF 23
ENDMDL
MODEL 3
REMARK VINA RESULT:     -10.1      3.044      6.922
REMARK SMILES O=C(CCC(=O)N1Cc2[nH]cnc2C[C@H]1C(=O)NCc1ccccc1)OCCOCCOCCOC(=O)c1ccc(-c2c3nc(c(-c4ccccc4)c4ccc([nH]4)c(-c4ccccc4)c4nc(c(-c5ccccc5)c5ccc2[nH]5)C=C4)C=C3)cc1
REMARK SMILES IDX 28 1 27 2 26 3 2 4 1 5 3 6 4 7 5 8 6 9 7 10 8 11 15 12 9 13
REMARK SMILES IDX 14 14 10 15 13 16 11 17 12 19 16 20 17 21 18 22 19 24 20 25
REMARK SMILES IDX 21 26 25 27 22 28 24 29 23 30 29 31 30 32 31 33 32 34 33 35
REMARK SMILES IDX 34 36 35 37 36 38 37 39 38 40 39 41 85 42 40 43 84 44 41 45
REMARK SMILES IDX 42 46 43 47 78 48 44 49 83 50 77 51 79 52 45 53 82 54 76 55
REMARK SMILES IDX 75 56 46 58 68 59 53 60 67 61 54 62 57 63 66 64 80 65 55 66
REMARK SMILES IDX 56 67 65 69 81 70 58 71 47 72 48 73 52 74 49 75 51 76 50 77
REMARK SMILES IDX 69 78 70 79 74 80 71 81 73 82 72 83 59 84 60 85 64 86 61 87
REMARK SMILES IDX 63 88 62 89
REMARK H PARENT 10 18 18 23 79 57 57 68
REMARK Flexibility Score: inf
ROOT
ATOM      1  C   UNL A   1      39.840  22.608  26.575  1.00  0.00     0.202 C 
ENDROOT
BRANCH   1   2
ATOM      2  C   UNL A   1      38.472  23.267  26.474  1.00  0.00     0.261 C 
BRANCH   2   3
ATOM      3  O   UNL A   1      37.605  22.562  25.578  1.00  0.00    -0.463 OA
BRANCH   3   4
ATOM      4  C   UNL A   1      36.255  22.608  25.563  1.00  0.00     0.306 C 
ATOM      5  O   UNL A   1      35.636  23.169  26.464  1.00  0.00    -0.252 OA
BRANCH   4   6
ATOM      6  C   UNL A   1      35.570  22.080  24.363  1.00  0.00     0.132 C 
BRANCH   6   7
ATOM      7  C   UNL A   1      34.529  21.058  24.788  1.00  0.00     0.112 C 
BRANCH   7   8
ATOM      8  C   UNL A   1      33.088  21.361  24.404  1.00  0.00     0.224 C 
ATOM      9  O   UNL A   1      32.393  20.391  24.066  1.00  0.00    -0.275 OA
BRANCH   8  10
ATOM     10  N   UNL A   1      32.548  22.650  24.410  1.00  0.00    -0.324 N 
ATOM     11  C   UNL A   1      32.377  23.211  25.765  1.00  0.00     0.176 C 
ATOM     12  C   UNL A   1      32.097  23.480  23.216  1.00  0.00     0.180 C 
ATOM     13  C   UNL A   1      31.312  24.222  25.794  1.00  0.00     0.058 A 
ATOM     14  C   UNL A   1      30.717  24.177  23.374  1.00  0.00     0.093 C 
ATOM     15  N   UNL A   1      30.940  24.987  26.862  1.00  0.00    -0.347 N 
ATOM     16  C   UNL A   1      30.533  24.651  24.755  1.00  0.00     0.066 A 
ATOM     17  C   UNL A   1      29.945  25.820  26.427  1.00  0.00     0.197 A 
ATOM     18  H   UNL A   1      31.317  24.947  27.771  1.00  0.00     0.167 HD
ATOM     19  N   UNL A   1      29.672  25.633  25.153  1.00  0.00    -0.242 NA
BRANCH  12  20
ATOM     20  C   UNL A   1      33.106  24.293  22.379  1.00  0.00     0.243 C 
ATOM     21  O   UNL A   1      33.338  23.969  21.207  1.00  0.00    -0.273 OA
ATOM     22  N   UNL A   1      33.832  25.335  22.853  1.00  0.00    -0.350 N 
ATOM     23  H   UNL A   1      34.165  25.957  22.166  1.00  0.00     0.163 HD
BRANCH  22  24
ATOM     24  C   UNL A   1      34.194  25.671  24.207  1.00  0.00     0.151 C 
BRANCH  24  25
ATOM     25  C   UNL A   1      33.410  26.841  24.751  1.00  0.00    -0.029 A 
ATOM     26  C   UNL A   1      32.547  27.621  23.960  1.00  0.00     0.005 A 
ATOM     27  C   UNL A   1      33.568  27.188  26.100  1.00  0.00     0.005 A 
ATOM     28  C   UNL A   1      31.907  28.742  24.483  1.00  0.00     0.000 A 
ATOM     29  C   UNL A   1      32.906  28.297  26.631  1.00  0.00     0.000 A 
ATOM     30  C   UNL A   1      32.088  29.080  25.819  1.00  0.00     0.000 A 
ENDBRANCH  24  25
ENDBRANCH  22  24
ENDBRANCH  12  20
ENDBRANCH   8  10
ENDBRANCH   7   8
ENDBRANCH   6   7
ENDBRANCH   4   6
ENDBRANCH   3   4
ENDBRANCH   2   3
ENDBRANCH   1   2
BRANCH   1  31
ATOM     31  O   UNL A   1      40.046  21.559  27.500  1.00  0.00    -0.376 OA
BRANCH  31  32
ATOM     32  C   UNL A   1      41.176  20.704  27.431  1.00  0.00     0.188 C 
BRANCH  32  33
ATOM     33  C   UNL A   1      41.748  20.064  26.126  1.00  0.00     0.188 C 
BRANCH  33  34
ATOM     34  O   UNL A   1      42.874  20.520  25.403  1.00  0.00    -0.376 OA
BRANCH  34  35
ATOM     35  C   UNL A   1      43.771  21.566  25.744  1.00  0.00     0.202 C 
BRANCH  35  36
ATOM     36  C   UNL A   1      43.394  23.039  25.797  1.00  0.00     0.261 C 
BRANCH  36  37
ATOM     37  O   UNL A   1      43.279  23.479  27.127  1.00  0.00    -0.460 OA
BRANCH  37  38
ATOM     38  C   UNL A   1      43.367  24.819  27.245  1.00  0.00     0.338 C 
ATOM     39  O   UNL A   1      44.101  25.575  26.642  1.00  0.00    -0.246 OA
BRANCH  38  40
ATOM     40  C   UNL A   1      42.420  25.244  28.276  1.00  0.00     0.060 A 
ATOM     41  C   UNL A   1      41.145  25.517  27.794  1.00  0.00     0.016 A 
ATOM     42  C   UNL A   1      42.949  25.816  29.439  1.00  0.00     0.016 A 
ATOM     43  C   UNL A   1      40.627  26.718  28.168  1.00  0.00     0.010 A 
ATOM     44  C   UNL A   1      42.438  27.014  29.810  1.00  0.00     0.010 A 
ATOM     45  C   UNL A   1      41.382  27.496  29.053  1.00  0.00    -0.014 A 
BRANCH  45  46
ATOM     46  C   UNL A   1      40.981  28.852  29.249  1.00  0.00     0.031 A 
ATOM     47  C   UNL A   1      42.043  29.740  28.772  1.00  0.00     0.074 A 
ATOM     48  C   UNL A   1      39.774  29.166  29.747  1.00  0.00     0.049 A 
ATOM     49  N   UNL A   1      42.966  30.271  29.498  1.00  0.00    -0.248 NA
ATOM     50  C   UNL A   1      42.318  29.754  27.324  1.00  0.00     0.031 C 
ATOM     51  C   UNL A   1      38.614  28.300  29.981  1.00  0.00     0.029 A 
ATOM     52  N   UNL A   1      39.301  30.391  30.056  1.00  0.00    -0.354 N 
ATOM     53  C   UNL A   1      43.764  30.946  28.592  1.00  0.00     0.074 A 
ATOM     54  C   UNL A   1      43.521  30.328  27.315  1.00  0.00     0.031 C 
ATOM     55  C   UNL A   1      37.513  29.075  30.139  1.00  0.00     0.029 A 
ATOM     56  C   UNL A   1      37.920  30.471  30.145  1.00  0.00     0.049 A 
ATOM     57  H   UNL A   1      39.889  31.166  30.206  1.00  0.00     0.167 HD
ATOM     58  C   UNL A   1      44.155  32.217  28.881  1.00  0.00     0.031 A 
ATOM     59  C   UNL A   1      37.201  31.622  30.125  1.00  0.00     0.031 A 
ATOM     60  C   UNL A   1      44.034  32.483  30.302  1.00  0.00     0.049 A 
ATOM     61  C   UNL A   1      38.138  32.734  30.435  1.00  0.00     0.074 A 
ATOM     62  C   UNL A   1      44.519  31.894  31.453  1.00  0.00     0.029 A 
ATOM     63  N   UNL A   1      42.954  33.242  30.689  1.00  0.00    -0.354 N 
ATOM     64  N   UNL A   1      38.690  32.898  31.603  1.00  0.00    -0.248 NA
ATOM     65  C   UNL A   1      38.845  33.360  29.325  1.00  0.00     0.031 C 
ATOM     66  C   UNL A   1      43.461  31.998  32.406  1.00  0.00     0.029 A 
ATOM     67  C   UNL A   1      42.409  32.708  31.823  1.00  0.00     0.049 A 
ATOM     68  H   UNL A   1      42.624  34.045  30.222  1.00  0.00     0.167 HD
ATOM     69  C   UNL A   1      40.013  33.222  31.328  1.00  0.00     0.074 A 
ATOM     70  C   UNL A   1      40.023  33.597  29.913  1.00  0.00     0.031 C 
ATOM     71  C   UNL A   1      41.014  32.850  32.184  1.00  0.00     0.031 A 
BRANCH  58  72
ATOM     72  C   UNL A   1      44.056  33.324  27.851  1.00  0.00    -0.014 A 
ATOM     73  C   UNL A   1      43.274  34.443  28.178  1.00  0.00     0.009 A 
ATOM     74  C   UNL A   1      44.410  33.184  26.492  1.00  0.00     0.009 A 
ATOM     75  C   UNL A   1      42.761  35.283  27.186  1.00  0.00     0.001 A 
ATOM     76  C   UNL A   1      43.932  34.042  25.503  1.00  0.00     0.001 A 
ATOM     77  C   UNL A   1      43.073  35.070  25.847  1.00  0.00     0.000 A 
ENDBRANCH  58  72
BRANCH  59  78
ATOM     78  C   UNL A   1      35.867  31.864  29.531  1.00  0.00    -0.014 A 
ATOM     79  C   UNL A   1      35.129  33.007  29.885  1.00  0.00     0.009 A 
ATOM     80  C   UNL A   1      35.434  31.130  28.412  1.00  0.00     0.009 A 
ATOM     81  C   UNL A   1      34.028  33.420  29.122  1.00  0.00     0.001 A 
ATOM     82  C   UNL A   1      34.332  31.540  27.653  1.00  0.00     0.001 A 
ATOM     83  C   UNL A   1      33.639  32.695  27.998  1.00  0.00     0.000 A 
ENDBRANCH  59  78
BRANCH  71  84
ATOM     84  C   UNL A   1      40.617  32.349  33.551  1.00  0.00    -0.014 A 
ATOM     85  C   UNL A   1      40.333  31.001  33.838  1.00  0.00     0.009 A 
ATOM     86  C   UNL A   1      40.649  33.262  34.615  1.00  0.00     0.009 A 
ATOM     87  C   UNL A   1      40.052  30.592  35.147  1.00  0.00     0.001 A 
ATOM     88  C   UNL A   1      40.389  32.850  35.923  1.00  0.00     0.001 A 
ATOM     89  C   UNL A   1      40.082  31.518  36.188  1.00  0.00     0.000 A 
ENDBRANCH  71  84
ENDBRANCH  45  46
ENDBRANCH  38  40
ENDBRANCH  37  38
ENDBRANCH  36  37
ENDBRANCH  35  36
ENDBRANCH  34  35
ENDBRANCH  33  34
ENDBRANCH  32  33
ENDBRANCH  31  32
ENDBRANCH   1  31
TORSDOF 23
ENDMDL
