MODEL 1
REMARK VINA RESULT:      -8.9      0.000      0.000
REMARK SMILES COc1cc(/C=C/C(=O)OCCOCCOCCOC(=O)c2ccc(-c3c4nc(c(-c5ccccc5)c5ccc([nH]5)c(-c5ccccc5)c5nc(c(-c6ccccc6)c6ccc3[nH]6)C=C5)C=C4)cc2)cc(OC)c1O
REMARK SMILES IDX 14 1 13 2 12 3 11 4 10 5 8 6 9 7 7 8 6 9 5 10 3 11 4 12
REMARK SMILES IDX 74 13 71 14 70 15 2 16 1 17 75 18 72 20 73 21 15 22 16 23
REMARK SMILES IDX 17 24 18 25 19 26 20 27 21 28 22 29 23 30 69 31 24 32 68 33
REMARK SMILES IDX 25 34 26 35 27 36 62 37 28 38 67 39 61 40 63 41 29 42 66 43
REMARK SMILES IDX 60 44 59 45 30 47 52 48 37 49 51 50 38 51 41 52 50 53 64 54
REMARK SMILES IDX 39 55 40 56 49 58 65 59 42 60 31 61 32 62 36 63 33 64 35 65
REMARK SMILES IDX 34 66 53 67 54 68 58 69 55 70 57 71 56 72 43 73 44 74 48 75
REMARK SMILES IDX 45 76 47 77 46 78
REMARK H PARENT 75 19 63 46 41 57
REMARK Flexibility Score: inf
ROOT
ATOM      1  C   UNL A   1      33.250  34.436  28.243  1.00  0.00     0.188 C 
ENDROOT
BRANCH   1   2
ATOM      2  O   UNL A   1      34.380  34.007  27.488  1.00  0.00    -0.376 OA
BRANCH   2   3
ATOM      3  C   UNL A   1      35.231  32.993  28.011  1.00  0.00     0.202 C 
BRANCH   3   4
ATOM      4  C   UNL A   1      34.610  31.680  28.506  1.00  0.00     0.261 C 
BRANCH   4   5
ATOM      5  O   UNL A   1      34.210  30.768  27.468  1.00  0.00    -0.460 OA
BRANCH   5   6
ATOM      6  C   UNL A   1      34.883  29.593  27.440  1.00  0.00     0.330 C 
ATOM      7  O   UNL A   1      35.746  29.232  28.227  1.00  0.00    -0.247 OA
BRANCH   6   8
ATOM      8  C   UNL A   1      34.400  28.677  26.385  1.00  0.00     0.094 C 
ATOM      9  C   UNL A   1      33.876  27.453  26.555  1.00  0.00     0.016 C 
BRANCH   9  10
ATOM     10  C   UNL A   1      33.425  26.628  25.419  1.00  0.00    -0.018 A 
ATOM     11  C   UNL A   1      32.416  24.585  24.518  1.00  0.00     0.165 A 
ATOM     12  C   UNL A   1      32.776  25.400  25.602  1.00  0.00     0.058 A 
ATOM     13  C   UNL A   1      32.685  25.027  23.215  1.00  0.00     0.200 A 
ATOM     14  C   UNL A   1      33.279  26.282  23.003  1.00  0.00     0.165 A 
ATOM     15  C   UNL A   1      33.633  27.071  24.112  1.00  0.00     0.058 A 
BRANCH  11  16
ATOM     16  O   UNL A   1      31.829  23.419  24.930  1.00  0.00    -0.493 OA
ATOM     17  C   UNL A   1      31.066  23.396  26.125  1.00  0.00     0.278 C 
ENDBRANCH  11  16
BRANCH  13  18
ATOM     18  O   UNL A   1      32.387  24.228  22.148  1.00  0.00    -0.502 OA
ATOM     19  H   UNL A   1      32.923  24.253  21.379  1.00  0.00     0.293 HD
ENDBRANCH  13  18
BRANCH  14  20
ATOM     20  O   UNL A   1      33.606  26.883  21.815  1.00  0.00    -0.493 OA
ATOM     21  C   UNL A   1      34.095  28.215  21.824  1.00  0.00     0.278 C 
ENDBRANCH  14  20
ENDBRANCH   9  10
ENDBRANCH   6   8
ENDBRANCH   5   6
ENDBRANCH   4   5
ENDBRANCH   3   4
ENDBRANCH   2   3
ENDBRANCH   1   2
BRANCH   1  22
ATOM     22  C   UNL A   1      33.447  35.285  29.516  1.00  0.00     0.188 C 
BRANCH  22  23
ATOM     23  O   UNL A   1      33.288  34.555  30.714  1.00  0.00    -0.376 OA
BRANCH  23  24
ATOM     24  C   UNL A   1      34.201  34.798  31.769  1.00  0.00     0.202 C 
BRANCH  24  25
ATOM     25  C   UNL A   1      34.824  33.619  32.539  1.00  0.00     0.261 C 
BRANCH  25  26
ATOM     26  O   UNL A   1      36.256  33.573  32.612  1.00  0.00    -0.460 OA
BRANCH  26  27
ATOM     27  C   UNL A   1      36.813  32.527  33.253  1.00  0.00     0.338 C 
ATOM     28  O   UNL A   1      36.501  32.077  34.349  1.00  0.00    -0.246 OA
BRANCH  27  29
ATOM     29  C   UNL A   1      37.789  31.902  32.341  1.00  0.00     0.060 A 
ATOM     30  C   UNL A   1      38.859  31.177  32.878  1.00  0.00     0.016 A 
ATOM     31  C   UNL A   1      37.647  32.036  30.957  1.00  0.00     0.016 A 
ATOM     32  C   UNL A   1      39.805  30.599  32.029  1.00  0.00     0.010 A 
ATOM     33  C   UNL A   1      38.605  31.472  30.109  1.00  0.00     0.010 A 
ATOM     34  C   UNL A   1      39.701  30.770  30.640  1.00  0.00    -0.014 A 
BRANCH  34  35
ATOM     35  C   UNL A   1      40.810  30.348  29.751  1.00  0.00     0.031 A 
ATOM     36  C   UNL A   1      40.753  28.985  29.119  1.00  0.00     0.074 A 
ATOM     37  C   UNL A   1      41.854  31.160  29.505  1.00  0.00     0.049 A 
ATOM     38  N   UNL A   1      41.624  28.393  28.342  1.00  0.00    -0.248 NA
ATOM     39  C   UNL A   1      39.552  28.182  29.403  1.00  0.00     0.031 C 
ATOM     40  C   UNL A   1      42.015  32.516  30.025  1.00  0.00     0.029 A 
ATOM     41  N   UNL A   1      42.985  30.948  28.756  1.00  0.00    -0.354 N 
ATOM     42  C   UNL A   1      41.080  27.149  28.047  1.00  0.00     0.074 A 
ATOM     43  C   UNL A   1      39.818  27.060  28.750  1.00  0.00     0.031 C 
ATOM     44  C   UNL A   1      43.185  33.014  29.585  1.00  0.00     0.029 A 
ATOM     45  C   UNL A   1      43.866  32.001  28.780  1.00  0.00     0.049 A 
ATOM     46  H   UNL A   1      43.150  30.120  28.249  1.00  0.00     0.167 HD
ATOM     47  C   UNL A   1      41.581  26.169  27.259  1.00  0.00     0.031 A 
ATOM     48  C   UNL A   1      45.092  32.125  28.234  1.00  0.00     0.031 A 
ATOM     49  C   UNL A   1      42.844  26.243  26.577  1.00  0.00     0.049 A 
ATOM     50  C   UNL A   1      45.666  30.987  27.431  1.00  0.00     0.074 A 
ATOM     51  C   UNL A   1      43.430  25.305  25.744  1.00  0.00     0.029 A 
ATOM     52  N   UNL A   1      43.723  27.310  26.659  1.00  0.00    -0.354 N 
ATOM     53  N   UNL A   1      45.127  29.830  27.131  1.00  0.00    -0.248 NA
ATOM     54  C   UNL A   1      47.020  31.176  26.888  1.00  0.00     0.031 C 
ATOM     55  C   UNL A   1      44.690  25.783  25.367  1.00  0.00     0.029 A 
ATOM     56  C   UNL A   1      44.860  27.043  25.915  1.00  0.00     0.049 A 
ATOM     57  H   UNL A   1      43.561  28.137  27.170  1.00  0.00     0.167 HD
ATOM     58  C   UNL A   1      46.060  29.169  26.342  1.00  0.00     0.074 A 
ATOM     59  C   UNL A   1      47.194  30.056  26.199  1.00  0.00     0.031 C 
ATOM     60  C   UNL A   1      45.982  27.937  25.781  1.00  0.00     0.031 A 
BRANCH  47  61
ATOM     61  C   UNL A   1      40.769  24.911  27.125  1.00  0.00    -0.014 A 
ATOM     62  C   UNL A   1      39.564  24.895  26.406  1.00  0.00     0.009 A 
ATOM     63  C   UNL A   1      41.231  23.719  27.706  1.00  0.00     0.009 A 
ATOM     64  C   UNL A   1      38.821  23.717  26.299  1.00  0.00     0.001 A 
ATOM     65  C   UNL A   1      40.500  22.538  27.575  1.00  0.00     0.001 A 
ATOM     66  C   UNL A   1      39.291  22.540  26.879  1.00  0.00     0.000 A 
ENDBRANCH  47  61
BRANCH  48  67
ATOM     67  C   UNL A   1      45.878  33.369  28.440  1.00  0.00    -0.014 A 
ATOM     68  C   UNL A   1      45.725  34.466  27.578  1.00  0.00     0.009 A 
ATOM     69  C   UNL A   1      46.809  33.457  29.488  1.00  0.00     0.009 A 
ATOM     70  C   UNL A   1      46.503  35.613  27.746  1.00  0.00     0.001 A 
ATOM     71  C   UNL A   1      47.566  34.616  29.671  1.00  0.00     0.001 A 
ATOM     72  C   UNL A   1      47.419  35.689  28.795  1.00  0.00     0.000 A 
ENDBRANCH  48  67
BRANCH  60  73
ATOM     73  C   UNL A   1      47.135  27.489  24.928  1.00  0.00    -0.014 A 
ATOM     74  C   UNL A   1      47.209  27.821  23.567  1.00  0.00     0.009 A 
ATOM     75  C   UNL A   1      48.189  26.765  25.510  1.00  0.00     0.009 A 
ATOM     76  C   UNL A   1      48.303  27.411  22.799  1.00  0.00     0.001 A 
ATOM     77  C   UNL A   1      49.292  26.381  24.747  1.00  0.00     0.001 A 
ATOM     78  C   UNL A   1      49.345  26.697  23.391  1.00  0.00     0.000 A 
ENDBRANCH  60  73
ENDBRANCH  34  35
ENDBRANCH  27  29
ENDBRANCH  26  27
ENDBRANCH  25  26
ENDBRANCH  24  25
ENDBRANCH  23  24
ENDBRANCH  22  23
ENDBRANCH   1  22
TORSDOF 21
ENDMDL
MODEL 2
REMARK VINA RESULT:      -8.9      4.130      8.028
REMARK SMILES COc1cc(/C=C/C(=O)OCCOCCOCCOC(=O)c2ccc(-c3c4nc(c(-c5ccccc5)c5ccc([nH]5)c(-c5ccccc5)c5nc(c(-c6ccccc6)c6ccc3[nH]6)C=C5)C=C4)cc2)cc(OC)c1O
REMARK SMILES IDX 14 1 13 2 12 3 11 4 10 5 8 6 9 7 7 8 6 9 5 10 3 11 4 12
REMARK SMILES IDX 74 13 71 14 70 15 2 16 1 17 75 18 72 20 73 21 15 22 16 23
REMARK SMILES IDX 17 24 18 25 19 26 20 27 21 28 22 29 23 30 69 31 24 32 68 33
REMARK SMILES IDX 25 34 26 35 27 36 62 37 28 38 67 39 61 40 63 41 29 42 66 43
REMARK SMILES IDX 60 44 59 45 30 47 52 48 37 49 51 50 38 51 41 52 50 53 64 54
REMARK SMILES IDX 39 55 40 56 49 58 65 59 42 60 31 61 32 62 36 63 33 64 35 65
REMARK SMILES IDX 34 66 53 67 54 68 58 69 55 70 57 71 56 72 43 73 44 74 48 75
REMARK SMILES IDX 45 76 47 77 46 78
REMARK H PARENT 75 19 63 46 41 57
REMARK Flexibility Score: inf
ROOT
ATOM      1  C   UNL A   1      32.252  28.388  26.516  1.00  0.00     0.188 C 
ENDROOT
BRANCH   1   2
ATOM      2  O   UNL A   1      32.390  28.056  25.138  1.00  0.00    -0.376 OA
BRANCH   2   3
ATOM      3  C   UNL A   1      32.546  29.095  24.176  1.00  0.00     0.202 C 
BRANCH   3   4
ATOM      4  C   UNL A   1      32.823  28.721  22.714  1.00  0.00     0.261 C 
BRANCH   4   5
ATOM      5  O   UNL A   1      33.882  27.768  22.521  1.00  0.00    -0.460 OA
BRANCH   5   6
ATOM      6  C   UNL A   1      33.495  26.562  22.042  1.00  0.00     0.330 C 
ATOM      7  O   UNL A   1      33.271  26.284  20.872  1.00  0.00    -0.247 OA
BRANCH   6   8
ATOM      8  C   UNL A   1      33.460  25.511  23.081  1.00  0.00     0.094 C 
ATOM      9  C   UNL A   1      34.379  25.284  24.033  1.00  0.00     0.016 C 
BRANCH   9  10
ATOM     10  C   UNL A   1      34.233  24.199  25.022  1.00  0.00    -0.018 A 
ATOM     11  C   UNL A   1      35.016  22.123  26.060  1.00  0.00     0.165 A 
ATOM     12  C   UNL A   1      35.195  23.193  25.170  1.00  0.00     0.058 A 
ATOM     13  C   UNL A   1      33.855  22.078  26.846  1.00  0.00     0.200 A 
ATOM     14  C   UNL A   1      32.904  23.109  26.760  1.00  0.00     0.165 A 
ATOM     15  C   UNL A   1      33.112  24.163  25.853  1.00  0.00     0.058 A 
BRANCH  11  16
ATOM     16  O   UNL A   1      36.061  21.240  26.014  1.00  0.00    -0.493 OA
ATOM     17  C   UNL A   1      36.880  21.175  24.859  1.00  0.00     0.278 C 
ENDBRANCH  11  16
BRANCH  13  18
ATOM     18  O   UNL A   1      33.637  21.021  27.683  1.00  0.00    -0.502 OA
ATOM     19  H   UNL A   1      34.146  20.928  28.464  1.00  0.00     0.293 HD
ENDBRANCH  13  18
BRANCH  14  20
ATOM     20  O   UNL A   1      31.725  23.243  27.447  1.00  0.00    -0.493 OA
ATOM     21  C   UNL A   1      30.498  23.052  26.760  1.00  0.00     0.278 C 
ENDBRANCH  14  20
ENDBRANCH   9  10
ENDBRANCH   6   8
ENDBRANCH   5   6
ENDBRANCH   4   5
ENDBRANCH   3   4
ENDBRANCH   2   3
ENDBRANCH   1   2
BRANCH   1  22
ATOM     22  C   UNL A   1      32.127  29.865  26.949  1.00  0.00     0.188 C 
BRANCH  22  23
ATOM     23  O   UNL A   1      33.253  30.344  27.654  1.00  0.00    -0.376 OA
BRANCH  23  24
ATOM     24  C   UNL A   1      33.692  31.665  27.389  1.00  0.00     0.202 C 
BRANCH  24  25
ATOM     25  C   UNL A   1      32.764  32.859  27.671  1.00  0.00     0.261 C 
BRANCH  25  26
ATOM     26  O   UNL A   1      33.391  34.122  27.941  1.00  0.00    -0.460 OA
BRANCH  26  27
ATOM     27  C   UNL A   1      33.485  34.506  29.229  1.00  0.00     0.338 C 
ATOM     28  O   UNL A   1      32.671  35.159  29.870  1.00  0.00    -0.246 OA
BRANCH  27  29
ATOM     29  C   UNL A   1      34.690  33.878  29.803  1.00  0.00     0.060 A 
ATOM     30  C   UNL A   1      35.943  34.179  29.255  1.00  0.00     0.016 A 
ATOM     31  C   UNL A   1      34.580  32.993  30.879  1.00  0.00     0.016 A 
ATOM     32  C   UNL A   1      37.092  33.575  29.772  1.00  0.00     0.010 A 
ATOM     33  C   UNL A   1      35.729  32.377  31.383  1.00  0.00     0.010 A 
ATOM     34  C   UNL A   1      36.988  32.646  30.819  1.00  0.00    -0.014 A 
BRANCH  34  35
ATOM     35  C   UNL A   1      38.168  31.845  31.225  1.00  0.00     0.031 A 
ATOM     36  C   UNL A   1      38.906  32.225  32.478  1.00  0.00     0.074 A 
ATOM     37  C   UNL A   1      38.581  30.793  30.495  1.00  0.00     0.049 A 
ATOM     38  N   UNL A   1      39.981  31.695  33.003  1.00  0.00    -0.248 NA
ATOM     39  C   UNL A   1      38.357  33.359  33.242  1.00  0.00     0.031 C 
ATOM     40  C   UNL A   1      37.936  30.297  29.281  1.00  0.00     0.029 A 
ATOM     41  N   UNL A   1      39.656  29.958  30.672  1.00  0.00    -0.354 N 
ATOM     42  C   UNL A   1      40.239  32.429  34.153  1.00  0.00     0.074 A 
ATOM     43  C   UNL A   1      39.227  33.460  34.235  1.00  0.00     0.031 C 
ATOM     44  C   UNL A   1      38.635  29.246  28.817  1.00  0.00     0.029 A 
ATOM     45  C   UNL A   1      39.791  29.017  29.681  1.00  0.00     0.049 A 
ATOM     46  H   UNL A   1      40.273  30.026  31.437  1.00  0.00     0.167 HD
ATOM     47  C   UNL A   1      41.228  32.261  35.063  1.00  0.00     0.031 A 
ATOM     48  C   UNL A   1      40.750  28.090  29.483  1.00  0.00     0.031 A 
ATOM     49  C   UNL A   1      42.250  31.254  34.973  1.00  0.00     0.049 A 
ATOM     50  C   UNL A   1      41.888  27.977  30.464  1.00  0.00     0.074 A 
ATOM     51  C   UNL A   1      43.286  30.996  35.855  1.00  0.00     0.029 A 
ATOM     52  N   UNL A   1      42.373  30.346  33.934  1.00  0.00    -0.354 N 
ATOM     53  N   UNL A   1      42.102  28.655  31.566  1.00  0.00    -0.248 NA
ATOM     54  C   UNL A   1      42.915  26.967  30.172  1.00  0.00     0.031 C 
ATOM     55  C   UNL A   1      44.069  29.968  35.320  1.00  0.00     0.029 A 
ATOM     56  C   UNL A   1      43.484  29.545  34.137  1.00  0.00     0.049 A 
ATOM     57  H   UNL A   1      41.760  30.280  33.166  1.00  0.00     0.167 HD
ATOM     58  C   UNL A   1      43.268  28.133  32.113  1.00  0.00     0.074 A 
ATOM     59  C   UNL A   1      43.710  27.075  31.229  1.00  0.00     0.031 C 
ATOM     60  C   UNL A   1      43.912  28.495  33.249  1.00  0.00     0.031 A 
BRANCH  47  61
ATOM     61  C   UNL A   1      41.269  33.220  36.220  1.00  0.00    -0.014 A 
ATOM     62  C   UNL A   1      40.593  32.943  37.419  1.00  0.00     0.009 A 
ATOM     63  C   UNL A   1      42.016  34.403  36.116  1.00  0.00     0.009 A 
ATOM     64  C   UNL A   1      40.638  33.851  38.480  1.00  0.00     0.001 A 
ATOM     65  C   UNL A   1      42.081  35.295  37.188  1.00  0.00     0.001 A 
ATOM     66  C   UNL A   1      41.384  35.022  38.365  1.00  0.00     0.000 A 
ENDBRANCH  47  61
BRANCH  48  67
ATOM     67  C   UNL A   1      40.694  27.201  28.294  1.00  0.00    -0.014 A 
ATOM     68  C   UNL A   1      41.329  27.565  27.096  1.00  0.00     0.009 A 
ATOM     69  C   UNL A   1      39.980  25.993  28.342  1.00  0.00     0.009 A 
ATOM     70  C   UNL A   1      41.230  26.750  25.966  1.00  0.00     0.001 A 
ATOM     71  C   UNL A   1      39.906  25.166  27.219  1.00  0.00     0.001 A 
ATOM     72  C   UNL A   1      40.523  25.549  26.030  1.00  0.00     0.000 A 
ENDBRANCH  48  67
BRANCH  60  73
ATOM     73  C   UNL A   1      45.142  27.718  33.626  1.00  0.00    -0.014 A 
ATOM     74  C   UNL A   1      46.392  28.005  33.054  1.00  0.00     0.009 A 
ATOM     75  C   UNL A   1      45.057  26.716  34.606  1.00  0.00     0.009 A 
ATOM     76  C   UNL A   1      47.525  27.282  33.437  1.00  0.00     0.001 A 
ATOM     77  C   UNL A   1      46.196  26.016  35.006  1.00  0.00     0.001 A 
ATOM     78  C   UNL A   1      47.427  26.294  34.416  1.00  0.00     0.000 A 
ENDBRANCH  60  73
ENDBRANCH  34  35
ENDBRANCH  27  29
ENDBRANCH  26  27
ENDBRANCH  25  26
ENDBRANCH  24  25
ENDBRANCH  23  24
ENDBRANCH  22  23
ENDBRANCH   1  22
TORSDOF 21
ENDMDL
MODEL 3
REMARK VINA RESULT:      -8.9      4.198      6.850
REMARK SMILES COc1cc(/C=C/C(=O)OCCOCCOCCOC(=O)c2ccc(-c3c4nc(c(-c5ccccc5)c5ccc([nH]5)c(-c5ccccc5)c5nc(c(-c6ccccc6)c6ccc3[nH]6)C=C5)C=C4)cc2)cc(OC)c1O
REMARK SMILES IDX 14 1 13 2 12 3 11 4 10 5 8 6 9 7 7 8 6 9 5 10 3 11 4 12
REMARK SMILES IDX 74 13 71 14 70 15 2 16 1 17 75 18 72 20 73 21 15 22 16 23
REMARK SMILES IDX 17 24 18 25 19 26 20 27 21 28 22 29 23 30 69 31 24 32 68 33
REMARK SMILES IDX 25 34 26 35 27 36 62 37 28 38 67 39 61 40 63 41 29 42 66 43
REMARK SMILES IDX 60 44 59 45 30 47 52 48 37 49 51 50 38 51 41 52 50 53 64 54
REMARK SMILES IDX 39 55 40 56 49 58 65 59 42 60 31 61 32 62 36 63 33 64 35 65
REMARK SMILES IDX 34 66 53 67 54 68 58 69 55 70 57 71 56 72 43 73 44 74 48 75
REMARK SMILES IDX 45 76 47 77 46 78
REMARK H PARENT 75 19 63 46 41 57
REMARK Flexibility Score: inf
ROOT
ATOM      1  C   UNL A   1      32.188  28.164  25.775  1.00  0.00     0.188 C 
ENDROOT
BRANCH   1   2
ATOM      2  O   UNL A   1      32.617  27.374  24.670  1.00  0.00    -0.376 OA
BRANCH   2   3
ATOM      3  C   UNL A   1      33.628  27.871  23.800  1.00  0.00     0.202 C 
BRANCH   3   4
ATOM      4  C   UNL A   1      33.511  27.607  22.294  1.00  0.00     0.261 C 
BRANCH   4   5
ATOM      5  O   UNL A   1      33.965  26.311  21.867  1.00  0.00    -0.460 OA
BRANCH   5   6
ATOM      6  C   UNL A   1      32.993  25.469  21.443  1.00  0.00     0.330 C 
ATOM      7  O   UNL A   1      32.368  25.551  20.395  1.00  0.00    -0.247 OA
BRANCH   6   8
ATOM      8  C   UNL A   1      32.799  24.312  22.342  1.00  0.00     0.094 C 
ATOM      9  C   UNL A   1      33.744  23.473  22.796  1.00  0.00     0.016 C 
BRANCH   9  10
ATOM     10  C   UNL A   1      33.428  22.348  23.696  1.00  0.00    -0.018 A 
ATOM     11  C   UNL A   1      33.503  21.273  25.896  1.00  0.00     0.165 A 
ATOM     12  C   UNL A   1      33.738  22.376  25.061  1.00  0.00     0.058 A 
ATOM     13  C   UNL A   1      32.911  20.123  25.355  1.00  0.00     0.200 A 
ATOM     14  C   UNL A   1      32.533  20.093  24.002  1.00  0.00     0.165 A 
ATOM     15  C   UNL A   1      32.790  21.213  23.191  1.00  0.00     0.058 A 
BRANCH  11  16
ATOM     16  O   UNL A   1      33.916  21.508  27.180  1.00  0.00    -0.493 OA
ATOM     17  C   UNL A   1      33.104  22.272  28.055  1.00  0.00     0.278 C 
ENDBRANCH  11  16
BRANCH  13  18
ATOM     18  O   UNL A   1      32.717  19.021  26.138  1.00  0.00    -0.502 OA
ATOM     19  H   UNL A   1      32.914  18.167  25.804  1.00  0.00     0.293 HD
ENDBRANCH  13  18
BRANCH  14  20
ATOM     20  O   UNL A   1      31.940  19.074  23.303  1.00  0.00    -0.493 OA
ATOM     21  C   UNL A   1      32.729  17.973  22.879  1.00  0.00     0.278 C 
ENDBRANCH  14  20
ENDBRANCH   9  10
ENDBRANCH   6   8
ENDBRANCH   5   6
ENDBRANCH   4   5
ENDBRANCH   3   4
ENDBRANCH   2   3
ENDBRANCH   1   2
BRANCH   1  22
ATOM     22  C   UNL A   1      32.695  29.613  25.935  1.00  0.00     0.188 C 
BRANCH  22  23
ATOM     23  O   UNL A   1      33.200  29.897  27.223  1.00  0.00    -0.376 OA
BRANCH  23  24
ATOM     24  C   UNL A   1      33.727  31.190  27.461  1.00  0.00     0.202 C 
BRANCH  24  25
ATOM     25  C   UNL A   1      32.781  32.394  27.623  1.00  0.00     0.261 C 
BRANCH  25  26
ATOM     26  O   UNL A   1      33.370  33.700  27.544  1.00  0.00    -0.460 OA
BRANCH  26  27
ATOM     27  C   UNL A   1      33.477  34.403  28.688  1.00  0.00     0.338 C 
ATOM     28  O   UNL A   1      32.653  35.173  29.166  1.00  0.00    -0.246 OA
BRANCH  27  29
ATOM     29  C   UNL A   1      34.716  33.981  29.366  1.00  0.00     0.060 A 
ATOM     30  C   UNL A   1      35.952  34.265  28.772  1.00  0.00     0.016 A 
ATOM     31  C   UNL A   1      34.657  33.303  30.587  1.00  0.00     0.016 A 
ATOM     32  C   UNL A   1      37.134  33.851  29.390  1.00  0.00     0.010 A 
ATOM     33  C   UNL A   1      35.841  32.874  31.195  1.00  0.00     0.010 A 
ATOM     34  C   UNL A   1      37.084  33.125  30.589  1.00  0.00    -0.014 A 
BRANCH  34  35
ATOM     35  C   UNL A   1      38.313  32.500  31.134  1.00  0.00     0.031 A 
ATOM     36  C   UNL A   1      38.853  31.265  30.469  1.00  0.00     0.074 A 
ATOM     37  C   UNL A   1      38.944  33.018  32.203  1.00  0.00     0.049 A 
ATOM     38  N   UNL A   1      39.886  30.530  30.794  1.00  0.00    -0.248 NA
ATOM     39  C   UNL A   1      38.128  30.794  29.276  1.00  0.00     0.031 C 
ATOM     40  C   UNL A   1      38.547  34.229  32.918  1.00  0.00     0.029 A 
ATOM     41  N   UNL A   1      40.055  32.576  32.877  1.00  0.00    -0.354 N 
ATOM     42  C   UNL A   1      39.934  29.511  29.852  1.00  0.00     0.074 A 
ATOM     43  C   UNL A   1      38.812  29.704  28.959  1.00  0.00     0.031 C 
ATOM     44  C   UNL A   1      39.399  34.429  33.940  1.00  0.00     0.029 A 
ATOM     45  C   UNL A   1      40.380  33.345  33.968  1.00  0.00     0.049 A 
ATOM     46  H   UNL A   1      40.572  31.782  32.606  1.00  0.00     0.167 HD
ATOM     47  C   UNL A   1      40.833  28.505  29.734  1.00  0.00     0.031 A 
ATOM     48  C   UNL A   1      41.344  33.181  34.895  1.00  0.00     0.031 A 
ATOM     49  C   UNL A   1      41.937  28.295  30.632  1.00  0.00     0.049 A 
ATOM     50  C   UNL A   1      42.281  32.006  34.793  1.00  0.00     0.074 A 
ATOM     51  C   UNL A   1      42.910  27.312  30.586  1.00  0.00     0.029 A 
ATOM     52  N   UNL A   1      42.207  29.074  31.745  1.00  0.00    -0.354 N 
ATOM     53  N   UNL A   1      42.337  31.069  33.877  1.00  0.00    -0.248 NA
ATOM     54  C   UNL A   1      43.291  31.870  35.853  1.00  0.00     0.031 C 
ATOM     55  C   UNL A   1      43.737  27.463  31.704  1.00  0.00     0.029 A 
ATOM     56  C   UNL A   1      43.314  28.577  32.411  1.00  0.00     0.049 A 
ATOM     57  H   UNL A   1      41.688  29.865  32.020  1.00  0.00     0.167 HD
ATOM     58  C   UNL A   1      43.404  30.253  34.234  1.00  0.00     0.074 A 
ATOM     59  C   UNL A   1      43.974  30.810  35.442  1.00  0.00     0.031 C 
ATOM     60  C   UNL A   1      43.872  29.142  33.613  1.00  0.00     0.031 A 
BRANCH  47  61
ATOM     61  C   UNL A   1      40.633  27.530  28.608  1.00  0.00    -0.014 A 
ATOM     62  C   UNL A   1      41.228  27.734  27.353  1.00  0.00     0.009 A 
ATOM     63  C   UNL A   1      39.857  26.379  28.815  1.00  0.00     0.009 A 
ATOM     64  C   UNL A   1      41.024  26.819  26.318  1.00  0.00     0.001 A 
ATOM     65  C   UNL A   1      39.676  25.453  27.786  1.00  0.00     0.001 A 
ATOM     66  C   UNL A   1      40.252  25.679  26.536  1.00  0.00     0.000 A 
ENDBRANCH  47  61
BRANCH  48  67
ATOM     67  C   UNL A   1      41.468  34.143  36.021  1.00  0.00    -0.014 A 
ATOM     68  C   UNL A   1      42.219  35.321  35.879  1.00  0.00     0.009 A 
ATOM     69  C   UNL A   1      40.856  33.876  37.256  1.00  0.00     0.009 A 
ATOM     70  C   UNL A   1      42.374  36.196  36.956  1.00  0.00     0.001 A 
ATOM     71  C   UNL A   1      40.989  34.766  38.323  1.00  0.00     0.001 A 
ATOM     72  C   UNL A   1      41.755  35.921  38.175  1.00  0.00     0.000 A 
ENDBRANCH  48  67
BRANCH  60  73
ATOM     73  C   UNL A   1      45.083  28.477  34.203  1.00  0.00    -0.014 A 
ATOM     74  C   UNL A   1      46.379  28.810  33.778  1.00  0.00     0.009 A 
ATOM     75  C   UNL A   1      44.926  27.538  35.235  1.00  0.00     0.009 A 
ATOM     76  C   UNL A   1      47.491  28.192  34.357  1.00  0.00     0.001 A 
ATOM     77  C   UNL A   1      46.040  26.944  35.829  1.00  0.00     0.001 A 
ATOM     78  C   UNL A   1      47.321  27.265  35.385  1.00  0.00     0.000 A 
ENDBRANCH  60  73
ENDBRANCH  34  35
ENDBRANCH  27  29
ENDBRANCH  26  27
ENDBRANCH  25  26
ENDBRANCH  24  25
ENDBRANCH  23  24
ENDBRANCH  22  23
ENDBRANCH   1  22
TORSDOF 21
ENDMDL
