MODEL 1
REMARK VINA RESULT:     -10.2      0.000      0.000
REMARK SMILES CCCc1cc(OC(F)(F)F)cc2c1O[C@@H](C(F)(F)F)C(C(=O)OCCOCCOCCOC(=O)c1ccc(-c3c4nc(c(-c5ccccc5)c5ccc([nH]5)c(-c5ccccc5)c5nc(c(-c6ccccc6)c6ccc3[nH]6)C=C5)C=C4)cc1)=C2
REMARK SMILES IDX 28 1 27 2 26 3 25 4 24 5 22 6 23 7 21 8 4 9 5 10 14 11 6 12
REMARK SMILES IDX 13 13 15 14 12 15 84 16 16 17 3 18 2 19 1 20 7 21 8 22 9 23
REMARK SMILES IDX 10 24 11 25 17 26 18 27 19 28 20 29 29 30 30 31 31 32 32 33
REMARK SMILES IDX 33 34 34 35 35 36 36 37 37 38 83 39 38 40 82 41 39 42 40 43
REMARK SMILES IDX 41 44 76 45 42 46 81 47 75 48 77 49 43 50 80 51 74 52 73 53
REMARK SMILES IDX 44 55 66 56 51 57 65 58 52 59 55 60 64 61 78 62 53 63 54 64
REMARK SMILES IDX 63 66 79 67 56 68 45 69 46 70 50 71 47 72 49 73 48 74 67 75
REMARK SMILES IDX 68 76 72 77 69 78 71 79 70 80 57 81 58 82 62 83 59 84 61 85
REMARK SMILES IDX 60 86
REMARK H PARENT 77 54 55 65
REMARK Flexibility Score: inf
ROOT
ATOM      1  C   UNL A   1      33.579  20.046  25.581  1.00  0.00     0.188 C 
ENDROOT
BRANCH   1   2
ATOM      2  O   UNL A   1      32.213  20.244  25.318  1.00  0.00    -0.376 OA
BRANCH   2   3
ATOM      3  C   UNL A   1      31.777  21.408  24.639  1.00  0.00     0.202 C 
BRANCH   3   4
ATOM      4  C   UNL A   1      32.162  21.786  23.193  1.00  0.00     0.261 C 
BRANCH   4   5
ATOM      5  O   UNL A   1      31.884  23.119  22.755  1.00  0.00    -0.460 OA
BRANCH   5   6
ATOM      6  C   UNL A   1      32.956  23.918  22.529  1.00  0.00     0.338 C 
ATOM      7  O   UNL A   1      33.955  23.623  21.902  1.00  0.00    -0.246 OA
BRANCH   6   8
ATOM      8  C   UNL A   1      32.687  25.277  23.036  1.00  0.00     0.087 C 
ATOM      9  C   UNL A   1      31.477  28.724  25.055  1.00  0.00    -0.002 A 
ATOM     10  C   UNL A   1      30.686  29.674  24.392  1.00  0.00     0.054 A 
ATOM     11  C   UNL A   1      31.896  27.585  24.355  1.00  0.00     0.131 A 
ATOM     12  C   UNL A   1      30.301  29.481  23.063  1.00  0.00     0.130 A 
ATOM     13  C   UNL A   1      31.508  27.369  23.026  1.00  0.00     0.021 A 
ATOM     14  O   UNL A   1      32.608  26.645  25.056  1.00  0.00    -0.475 OA
ATOM     15  C   UNL A   1      30.729  28.334  22.380  1.00  0.00     0.058 A 
ATOM     16  C   UNL A   1      31.808  26.076  22.405  1.00  0.00     0.027 C 
ATOM     17  C   UNL A   1      33.440  25.782  24.245  1.00  0.00     0.316 C 
BRANCH   9  18
ATOM     18  C   UNL A   1      31.779  28.896  26.527  1.00  0.00     0.039 C 
BRANCH  18  19
ATOM     19  C   UNL A   1      33.053  29.712  26.780  1.00  0.00     0.001 C 
ATOM     20  C   UNL A   1      34.340  28.916  26.602  1.00  0.00     0.004 C 
ENDBRANCH  18  19
ENDBRANCH   9  18
BRANCH  12  21
ATOM     21  O   UNL A   1      29.497  30.316  22.338  1.00  0.00    -0.406 OA
BRANCH  21  22
ATOM     22  C   UNL A   1      28.106  30.028  22.323  1.00  0.00     0.573 C 
ATOM     23  F   UNL A   1      27.397  30.983  22.962  1.00  0.00    -0.132 F 
ATOM     24  F   UNL A   1      27.653  29.903  21.057  1.00  0.00    -0.132 F 
ATOM     25  F   UNL A   1      27.897  28.855  22.960  1.00  0.00    -0.132 F 
ENDBRANCH  21  22
ENDBRANCH  12  21
BRANCH  17  26
ATOM     26  C   UNL A   1      34.122  24.772  25.180  1.00  0.00     0.430 C 
ATOM     27  F   UNL A   1      35.092  24.079  24.538  1.00  0.00    -0.167 F 
ATOM     28  F   UNL A   1      34.752  25.430  26.191  1.00  0.00    -0.167 F 
ATOM     29  F   UNL A   1      33.265  23.902  25.746  1.00  0.00    -0.167 F 
ENDBRANCH  17  26
ENDBRANCH   6   8
ENDBRANCH   5   6
ENDBRANCH   4   5
ENDBRANCH   3   4
ENDBRANCH   2   3
ENDBRANCH   1   2
BRANCH   1  30
ATOM     30  C   UNL A   1      34.298  19.133  24.564  1.00  0.00     0.188 C 
BRANCH  30  31
ATOM     31  O   UNL A   1      35.700  18.936  24.648  1.00  0.00    -0.376 OA
BRANCH  31  32
ATOM     32  C   UNL A   1      36.536  20.032  24.996  1.00  0.00     0.202 C 
BRANCH  32  33
ATOM     33  C   UNL A   1      38.065  19.933  24.848  1.00  0.00     0.261 C 
BRANCH  33  34
ATOM     34  O   UNL A   1      38.842  20.706  25.778  1.00  0.00    -0.460 OA
BRANCH  34  35
ATOM     35  C   UNL A   1      40.077  20.215  26.054  1.00  0.00     0.338 C 
ATOM     36  O   UNL A   1      40.499  19.097  25.825  1.00  0.00    -0.246 OA
BRANCH  35  37
ATOM     37  C   UNL A   1      40.947  21.307  26.536  1.00  0.00     0.060 A 
ATOM     38  C   UNL A   1      41.056  21.516  27.919  1.00  0.00     0.016 A 
ATOM     39  C   UNL A   1      41.580  22.165  25.638  1.00  0.00     0.016 A 
ATOM     40  C   UNL A   1      41.784  22.601  28.409  1.00  0.00     0.010 A 
ATOM     41  C   UNL A   1      42.285  23.269  26.130  1.00  0.00     0.010 A 
ATOM     42  C   UNL A   1      42.364  23.509  27.515  1.00  0.00    -0.014 A 
BRANCH  42  43
ATOM     43  C   UNL A   1      42.881  24.806  28.011  1.00  0.00     0.031 A 
ATOM     44  C   UNL A   1      41.894  25.888  28.357  1.00  0.00     0.074 A 
ATOM     45  C   UNL A   1      44.200  25.025  28.159  1.00  0.00     0.049 A 
ATOM     46  N   UNL A   1      42.111  27.124  28.729  1.00  0.00    -0.248 NA
ATOM     47  C   UNL A   1      40.469  25.525  28.271  1.00  0.00     0.031 C 
ATOM     48  C   UNL A   1      45.256  24.046  27.919  1.00  0.00     0.029 A 
ATOM     49  N   UNL A   1      44.870  26.162  28.539  1.00  0.00    -0.354 N 
ATOM     50  C   UNL A   1      40.854  27.689  28.906  1.00  0.00     0.074 A 
ATOM     51  C   UNL A   1      39.880  26.670  28.580  1.00  0.00     0.031 C 
ATOM     52  C   UNL A   1      46.447  24.629  28.141  1.00  0.00     0.029 A 
ATOM     53  C   UNL A   1      46.238  26.031  28.500  1.00  0.00     0.049 A 
ATOM     54  H   UNL A   1      44.416  26.990  28.813  1.00  0.00     0.167 HD
ATOM     55  C   UNL A   1      40.536  28.942  29.305  1.00  0.00     0.031 A 
ATOM     56  C   UNL A   1      47.204  26.946  28.702  1.00  0.00     0.031 A 
ATOM     57  C   UNL A   1      41.503  29.962  29.613  1.00  0.00     0.049 A 
ATOM     58  C   UNL A   1      46.825  28.363  29.054  1.00  0.00     0.074 A 
ATOM     59  C   UNL A   1      41.279  31.262  30.033  1.00  0.00     0.029 A 
ATOM     60  N   UNL A   1      42.875  29.800  29.526  1.00  0.00    -0.354 N 
ATOM     61  N   UNL A   1      45.635  28.882  29.236  1.00  0.00    -0.248 NA
ATOM     62  C   UNL A   1      47.929  29.319  29.235  1.00  0.00     0.031 C 
ATOM     63  C   UNL A   1      42.515  31.904  30.143  1.00  0.00     0.029 A 
ATOM     64  C   UNL A   1      43.512  30.983  29.858  1.00  0.00     0.049 A 
ATOM     65  H   UNL A   1      43.332  28.966  29.267  1.00  0.00     0.167 HD
ATOM     66  C   UNL A   1      45.849  30.210  29.590  1.00  0.00     0.074 A 
ATOM     67  C   UNL A   1      47.281  30.415  29.605  1.00  0.00     0.031 C 
ATOM     68  C   UNL A   1      44.939  31.172  29.881  1.00  0.00     0.031 A 
BRANCH  55  69
ATOM     69  C   UNL A   1      39.077  29.294  29.389  1.00  0.00    -0.014 A 
ATOM     70  C   UNL A   1      38.394  29.847  28.296  1.00  0.00     0.009 A 
ATOM     71  C   UNL A   1      38.369  29.035  30.573  1.00  0.00     0.009 A 
ATOM     72  C   UNL A   1      37.037  30.164  28.398  1.00  0.00     0.001 A 
ATOM     73  C   UNL A   1      37.007  29.324  30.662  1.00  0.00     0.001 A 
ATOM     74  C   UNL A   1      36.344  29.896  29.578  1.00  0.00     0.000 A 
ENDBRANCH  55  69
BRANCH  56  75
ATOM     75  C   UNL A   1      48.636  26.571  28.550  1.00  0.00    -0.014 A 
ATOM     76  C   UNL A   1      49.337  25.971  29.608  1.00  0.00     0.009 A 
ATOM     77  C   UNL A   1      49.321  26.848  27.356  1.00  0.00     0.009 A 
ATOM     78  C   UNL A   1      50.699  25.687  29.484  1.00  0.00     0.001 A 
ATOM     79  C   UNL A   1      50.675  26.534  27.224  1.00  0.00     0.001 A 
ATOM     80  C   UNL A   1      51.367  25.965  28.292  1.00  0.00     0.000 A 
ENDBRANCH  56  75
BRANCH  68  81
ATOM     81  C   UNL A   1      45.460  32.520  30.299  1.00  0.00    -0.014 A 
ATOM     82  C   UNL A   1      45.696  32.832  31.646  1.00  0.00     0.009 A 
ATOM     83  C   UNL A   1      45.772  33.474  29.316  1.00  0.00     0.009 A 
ATOM     84  C   UNL A   1      46.204  34.085  32.002  1.00  0.00     0.001 A 
ATOM     85  C   UNL A   1      46.309  34.712  29.671  1.00  0.00     0.001 A 
ATOM     86  C   UNL A   1      46.516  35.020  31.015  1.00  0.00     0.000 A 
ENDBRANCH  68  81
ENDBRANCH  42  43
ENDBRANCH  35  37
ENDBRANCH  34  35
ENDBRANCH  33  34
ENDBRANCH  32  33
ENDBRANCH  31  32
ENDBRANCH  30  31
ENDBRANCH   1  30
TORSDOF 22
ENDMDL
MODEL 2
REMARK VINA RESULT:     -10.1      0.773      5.660
REMARK SMILES CCCc1cc(OC(F)(F)F)cc2c1O[C@@H](C(F)(F)F)C(C(=O)OCCOCCOCCOC(=O)c1ccc(-c3c4nc(c(-c5ccccc5)c5ccc([nH]5)c(-c5ccccc5)c5nc(c(-c6ccccc6)c6ccc3[nH]6)C=C5)C=C4)cc1)=C2
REMARK SMILES IDX 28 1 27 2 26 3 25 4 24 5 22 6 23 7 21 8 4 9 5 10 14 11 6 12
REMARK SMILES IDX 13 13 15 14 12 15 84 16 16 17 3 18 2 19 1 20 7 21 8 22 9 23
REMARK SMILES IDX 10 24 11 25 17 26 18 27 19 28 20 29 29 30 30 31 31 32 32 33
REMARK SMILES IDX 33 34 34 35 35 36 36 37 37 38 83 39 38 40 82 41 39 42 40 43
REMARK SMILES IDX 41 44 76 45 42 46 81 47 75 48 77 49 43 50 80 51 74 52 73 53
REMARK SMILES IDX 44 55 66 56 51 57 65 58 52 59 55 60 64 61 78 62 53 63 54 64
REMARK SMILES IDX 63 66 79 67 56 68 45 69 46 70 50 71 47 72 49 73 48 74 67 75
REMARK SMILES IDX 68 76 72 77 69 78 71 79 70 80 57 81 58 82 62 83 59 84 61 85
REMARK SMILES IDX 60 86
REMARK H PARENT 77 54 55 65
REMARK Flexibility Score: inf
ROOT
ATOM      1  C   UNL A   1      34.115  19.497  24.674  1.00  0.00     0.188 C 
ENDROOT
BRANCH   1   2
ATOM      2  O   UNL A   1      33.696  20.696  24.074  1.00  0.00    -0.376 OA
BRANCH   2   3
ATOM      3  C   UNL A   1      32.316  21.002  23.973  1.00  0.00     0.202 C 
BRANCH   3   4
ATOM      4  C   UNL A   1      31.737  22.412  23.736  1.00  0.00     0.261 C 
BRANCH   4   5
ATOM      5  O   UNL A   1      32.041  23.060  22.497  1.00  0.00    -0.460 OA
BRANCH   5   6
ATOM      6  C   UNL A   1      33.159  23.825  22.473  1.00  0.00     0.338 C 
ATOM      7  O   UNL A   1      34.238  23.511  22.007  1.00  0.00    -0.246 OA
BRANCH   6   8
ATOM      8  C   UNL A   1      32.854  25.180  22.972  1.00  0.00     0.087 C 
ATOM      9  C   UNL A   1      31.599  28.603  25.006  1.00  0.00    -0.002 A 
ATOM     10  C   UNL A   1      30.720  29.498  24.378  1.00  0.00     0.054 A 
ATOM     11  C   UNL A   1      32.031  27.472  24.299  1.00  0.00     0.131 A 
ATOM     12  C   UNL A   1      30.262  29.258  23.081  1.00  0.00     0.130 A 
ATOM     13  C   UNL A   1      31.571  27.210  23.002  1.00  0.00     0.021 A 
ATOM     14  O   UNL A   1      32.833  26.584  24.970  1.00  0.00    -0.475 OA
ATOM     15  C   UNL A   1      30.705  28.121  22.391  1.00  0.00     0.058 A 
ATOM     16  C   UNL A   1      31.897  25.920  22.385  1.00  0.00     0.027 C 
ATOM     17  C   UNL A   1      33.655  25.747  24.122  1.00  0.00     0.316 C 
BRANCH   9  18
ATOM     18  C   UNL A   1      31.985  28.820  26.451  1.00  0.00     0.039 C 
BRANCH  18  19
ATOM     19  C   UNL A   1      31.975  30.301  26.852  1.00  0.00     0.001 C 
ATOM     20  C   UNL A   1      33.346  30.844  27.236  1.00  0.00     0.004 C 
ENDBRANCH  18  19
ENDBRANCH   9  18
BRANCH  12  21
ATOM     21  O   UNL A   1      29.372  30.037  22.394  1.00  0.00    -0.406 OA
BRANCH  21  22
ATOM     22  C   UNL A   1      28.026  30.043  22.851  1.00  0.00     0.573 C 
ATOM     23  F   UNL A   1      27.631  28.811  23.237  1.00  0.00    -0.132 F 
ATOM     24  F   UNL A   1      27.869  30.909  23.875  1.00  0.00    -0.132 F 
ATOM     25  F   UNL A   1      27.225  30.441  21.839  1.00  0.00    -0.132 F 
ENDBRANCH  21  22
ENDBRANCH  12  21
BRANCH  17  26
ATOM     26  C   UNL A   1      34.446  24.792  25.029  1.00  0.00     0.430 C 
ATOM     27  F   UNL A   1      35.473  24.214  24.363  1.00  0.00    -0.167 F 
ATOM     28  F   UNL A   1      35.018  25.489  26.047  1.00  0.00    -0.167 F 
ATOM     29  F   UNL A   1      33.688  23.828  25.583  1.00  0.00    -0.167 F 
ENDBRANCH  17  26
ENDBRANCH   6   8
ENDBRANCH   5   6
ENDBRANCH   4   5
ENDBRANCH   3   4
ENDBRANCH   2   3
ENDBRANCH   1   2
BRANCH   1  30
ATOM     30  C   UNL A   1      35.640  19.395  24.898  1.00  0.00     0.188 C 
BRANCH  30  31
ATOM     31  O   UNL A   1      36.370  20.519  25.362  1.00  0.00    -0.376 OA
BRANCH  31  32
ATOM     32  C   UNL A   1      37.721  20.686  24.955  1.00  0.00     0.202 C 
BRANCH  32  33
ATOM     33  C   UNL A   1      38.778  19.614  25.279  1.00  0.00     0.261 C 
BRANCH  33  34
ATOM     34  O   UNL A   1      39.603  19.867  26.429  1.00  0.00    -0.460 OA
BRANCH  34  35
ATOM     35  C   UNL A   1      40.940  19.783  26.216  1.00  0.00     0.338 C 
ATOM     36  O   UNL A   1      41.545  18.905  25.628  1.00  0.00    -0.246 OA
BRANCH  35  37
ATOM     37  C   UNL A   1      41.591  21.033  26.656  1.00  0.00     0.060 A 
ATOM     38  C   UNL A   1      41.603  21.336  28.026  1.00  0.00     0.016 A 
ATOM     39  C   UNL A   1      42.108  21.935  25.727  1.00  0.00     0.016 A 
ATOM     40  C   UNL A   1      42.114  22.556  28.471  1.00  0.00     0.010 A 
ATOM     41  C   UNL A   1      42.594  23.170  26.172  1.00  0.00     0.010 A 
ATOM     42  C   UNL A   1      42.570  23.498  27.541  1.00  0.00    -0.014 A 
BRANCH  42  43
ATOM     43  C   UNL A   1      42.838  24.891  27.971  1.00  0.00     0.031 A 
ATOM     44  C   UNL A   1      44.260  25.298  28.241  1.00  0.00     0.074 A 
ATOM     45  C   UNL A   1      41.843  25.784  28.113  1.00  0.00     0.049 A 
ATOM     46  N   UNL A   1      44.728  26.430  28.703  1.00  0.00    -0.248 NA
ATOM     47  C   UNL A   1      45.296  24.291  27.953  1.00  0.00     0.031 C 
ATOM     48  C   UNL A   1      40.432  25.539  27.825  1.00  0.00     0.029 A 
ATOM     49  N   UNL A   1      41.878  27.085  28.553  1.00  0.00    -0.354 N 
ATOM     50  C   UNL A   1      46.106  26.265  28.775  1.00  0.00     0.074 A 
ATOM     51  C   UNL A   1      46.398  24.919  28.332  1.00  0.00     0.031 C 
ATOM     52  C   UNL A   1      39.731  26.650  28.112  1.00  0.00     0.029 A 
ATOM     53  C   UNL A   1      40.637  27.668  28.641  1.00  0.00     0.049 A 
ATOM     54  H   UNL A   1      42.712  27.554  28.783  1.00  0.00     0.167 HD
ATOM     55  C   UNL A   1      47.046  27.154  29.173  1.00  0.00     0.031 A 
ATOM     56  C   UNL A   1      40.275  28.873  29.120  1.00  0.00     0.031 A 
ATOM     57  C   UNL A   1      46.758  28.486  29.630  1.00  0.00     0.049 A 
ATOM     58  C   UNL A   1      41.332  29.812  29.647  1.00  0.00     0.074 A 
ATOM     59  C   UNL A   1      47.644  29.464  30.048  1.00  0.00     0.029 A 
ATOM     60  N   UNL A   1      45.486  29.025  29.738  1.00  0.00    -0.354 N 
ATOM     61  N   UNL A   1      42.633  29.654  29.694  1.00  0.00    -0.248 NA
ATOM     62  C   UNL A   1      40.866  31.101  30.182  1.00  0.00     0.031 C 
ATOM     63  C   UNL A   1      46.904  30.574  30.465  1.00  0.00     0.029 A 
ATOM     64  C   UNL A   1      45.561  30.312  30.242  1.00  0.00     0.049 A 
ATOM     65  H   UNL A   1      44.652  28.562  29.493  1.00  0.00     0.167 HD
ATOM     66  C   UNL A   1      43.141  30.834  30.225  1.00  0.00     0.074 A 
ATOM     67  C   UNL A   1      42.010  31.702  30.476  1.00  0.00     0.031 C 
ATOM     68  C   UNL A   1      44.430  31.171  30.477  1.00  0.00     0.031 A 
BRANCH  55  69
ATOM     69  C   UNL A   1      48.478  26.695  29.172  1.00  0.00    -0.014 A 
ATOM     70  C   UNL A   1      49.301  26.868  28.049  1.00  0.00     0.009 A 
ATOM     71  C   UNL A   1      49.020  26.112  30.328  1.00  0.00     0.009 A 
ATOM     72  C   UNL A   1      50.629  26.436  28.073  1.00  0.00     0.001 A 
ATOM     73  C   UNL A   1      50.356  25.709  30.359  1.00  0.00     0.001 A 
ATOM     74  C   UNL A   1      51.157  25.863  29.229  1.00  0.00     0.000 A 
ENDBRANCH  55  69
BRANCH  56  75
ATOM     75  C   UNL A   1      38.840  29.265  29.160  1.00  0.00    -0.014 A 
ATOM     76  C   UNL A   1      38.260  29.970  28.093  1.00  0.00     0.009 A 
ATOM     77  C   UNL A   1      38.053  28.970  30.284  1.00  0.00     0.009 A 
ATOM     78  C   UNL A   1      36.932  30.398  28.167  1.00  0.00     0.001 A 
ATOM     79  C   UNL A   1      36.716  29.371  30.341  1.00  0.00     0.001 A 
ATOM     80  C   UNL A   1      36.160  30.095  29.287  1.00  0.00     0.000 A 
ENDBRANCH  56  75
BRANCH  68  81
ATOM     81  C   UNL A   1      44.699  32.556  30.998  1.00  0.00    -0.014 A 
ATOM     82  C   UNL A   1      44.856  33.650  30.134  1.00  0.00     0.009 A 
ATOM     83  C   UNL A   1      44.739  32.775  32.386  1.00  0.00     0.009 A 
ATOM     84  C   UNL A   1      45.081  34.930  30.649  1.00  0.00     0.001 A 
ATOM     85  C   UNL A   1      44.932  34.058  32.898  1.00  0.00     0.001 A 
ATOM     86  C   UNL A   1      45.111  35.134  32.029  1.00  0.00     0.000 A 
ENDBRANCH  68  81
ENDBRANCH  42  43
ENDBRANCH  35  37
ENDBRANCH  34  35
ENDBRANCH  33  34
ENDBRANCH  32  33
ENDBRANCH  31  32
ENDBRANCH  30  31
ENDBRANCH   1  30
TORSDOF 22
ENDMDL
MODEL 3
REMARK VINA RESULT:      -9.6      1.866      6.149
REMARK SMILES CCCc1cc(OC(F)(F)F)cc2c1O[C@@H](C(F)(F)F)C(C(=O)OCCOCCOCCOC(=O)c1ccc(-c3c4nc(c(-c5ccccc5)c5ccc([nH]5)c(-c5ccccc5)c5nc(c(-c6ccccc6)c6ccc3[nH]6)C=C5)C=C4)cc1)=C2
REMARK SMILES IDX 28 1 27 2 26 3 25 4 24 5 22 6 23 7 21 8 4 9 5 10 14 11 6 12
REMARK SMILES IDX 13 13 15 14 12 15 84 16 16 17 3 18 2 19 1 20 7 21 8 22 9 23
REMARK SMILES IDX 10 24 11 25 17 26 18 27 19 28 20 29 29 30 30 31 31 32 32 33
REMARK SMILES IDX 33 34 34 35 35 36 36 37 37 38 83 39 38 40 82 41 39 42 40 43
REMARK SMILES IDX 41 44 76 45 42 46 81 47 75 48 77 49 43 50 80 51 74 52 73 53
REMARK SMILES IDX 44 55 66 56 51 57 65 58 52 59 55 60 64 61 78 62 53 63 54 64
REMARK SMILES IDX 63 66 79 67 56 68 45 69 46 70 50 71 47 72 49 73 48 74 67 75
REMARK SMILES IDX 68 76 72 77 69 78 71 79 70 80 57 81 58 82 62 83 59 84 61 85
REMARK SMILES IDX 60 86
REMARK H PARENT 77 54 55 65
REMARK Flexibility Score: inf
ROOT
ATOM      1  C   UNL A   1      33.273  18.941  25.079  1.00  0.00     0.188 C 
ENDROOT
BRANCH   1   2
ATOM      2  O   UNL A   1      32.223  19.637  24.455  1.00  0.00    -0.376 OA
BRANCH   2   3
ATOM      3  C   UNL A   1      32.366  20.107  23.127  1.00  0.00     0.202 C 
BRANCH   3   4
ATOM      4  C   UNL A   1      31.699  21.378  22.561  1.00  0.00     0.261 C 
BRANCH   4   5
ATOM      5  O   UNL A   1      32.109  22.640  23.093  1.00  0.00    -0.460 OA
BRANCH   5   6
ATOM      6  C   UNL A   1      31.372  23.135  24.117  1.00  0.00     0.338 C 
ATOM      7  O   UNL A   1      30.789  22.486  24.964  1.00  0.00    -0.246 OA
BRANCH   6   8
ATOM      8  C   UNL A   1      31.487  24.606  24.157  1.00  0.00     0.087 C 
ATOM      9  C   UNL A   1      31.477  28.687  25.033  1.00  0.00    -0.002 A 
ATOM     10  C   UNL A   1      30.709  29.562  24.250  1.00  0.00     0.054 A 
ATOM     11  C   UNL A   1      31.490  27.324  24.709  1.00  0.00     0.131 A 
ATOM     12  C   UNL A   1      29.950  29.083  23.180  1.00  0.00     0.130 A 
ATOM     13  C   UNL A   1      30.724  26.825  23.647  1.00  0.00     0.021 A 
ATOM     14  O   UNL A   1      32.195  26.489  25.539  1.00  0.00    -0.475 OA
ATOM     15  C   UNL A   1      29.975  27.716  22.872  1.00  0.00     0.058 A 
ATOM     16  C   UNL A   1      30.619  25.373  23.474  1.00  0.00     0.027 C 
ATOM     17  C   UNL A   1      32.615  25.243  24.935  1.00  0.00     0.316 C 
BRANCH   9  18
ATOM     18  C   UNL A   1      32.193  29.209  26.258  1.00  0.00     0.039 C 
BRANCH  18  19
ATOM     19  C   UNL A   1      31.869  30.680  26.553  1.00  0.00     0.001 C 
ATOM     20  C   UNL A   1      33.019  31.448  27.191  1.00  0.00     0.004 C 
ENDBRANCH  18  19
ENDBRANCH   9  18
BRANCH  12  21
ATOM     21  O   UNL A   1      29.134  29.837  22.383  1.00  0.00    -0.406 OA
BRANCH  21  22
ATOM     22  C   UNL A   1      27.937  30.334  22.965  1.00  0.00     0.573 C 
ATOM     23  F   UNL A   1      28.197  31.183  23.982  1.00  0.00    -0.132 F 
ATOM     24  F   UNL A   1      27.175  30.959  22.041  1.00  0.00    -0.132 F 
ATOM     25  F   UNL A   1      27.228  29.295  23.458  1.00  0.00    -0.132 F 
ENDBRANCH  21  22
ENDBRANCH  12  21
BRANCH  17  26
ATOM     26  C   UNL A   1      33.344  24.421  26.009  1.00  0.00     0.430 C 
ATOM     27  F   UNL A   1      34.383  25.109  26.539  1.00  0.00    -0.167 F 
ATOM     28  F   UNL A   1      32.503  24.172  27.050  1.00  0.00    -0.167 F 
ATOM     29  F   UNL A   1      33.788  23.231  25.564  1.00  0.00    -0.167 F 
ENDBRANCH  17  26
ENDBRANCH   6   8
ENDBRANCH   5   6
ENDBRANCH   4   5
ENDBRANCH   3   4
ENDBRANCH   2   3
ENDBRANCH   1   2
BRANCH   1  30
ATOM     30  C   UNL A   1      34.682  19.471  24.735  1.00  0.00     0.188 C 
BRANCH  30  31
ATOM     31  O   UNL A   1      35.133  20.703  25.274  1.00  0.00    -0.376 OA
BRANCH  31  32
ATOM     32  C   UNL A   1      36.528  20.968  25.329  1.00  0.00     0.202 C 
BRANCH  32  33
ATOM     33  C   UNL A   1      37.059  22.250  25.996  1.00  0.00     0.261 C 
BRANCH  33  34
ATOM     34  O   UNL A   1      38.384  22.658  25.616  1.00  0.00    -0.460 OA
BRANCH  34  35
ATOM     35  C   UNL A   1      39.347  22.452  26.549  1.00  0.00     0.338 C 
ATOM     36  O   UNL A   1      39.734  21.386  26.993  1.00  0.00    -0.246 OA
BRANCH  35  37
ATOM     37  C   UNL A   1      40.023  23.728  26.854  1.00  0.00     0.060 A 
ATOM     38  C   UNL A   1      40.571  23.909  28.133  1.00  0.00     0.016 A 
ATOM     39  C   UNL A   1      40.045  24.766  25.922  1.00  0.00     0.016 A 
ATOM     40  C   UNL A   1      41.124  25.138  28.493  1.00  0.00     0.010 A 
ATOM     41  C   UNL A   1      40.574  26.007  26.294  1.00  0.00     0.010 A 
ATOM     42  C   UNL A   1      41.087  26.207  27.590  1.00  0.00    -0.014 A 
BRANCH  42  43
ATOM     43  C   UNL A   1      41.399  27.579  28.056  1.00  0.00     0.031 A 
ATOM     44  C   UNL A   1      42.839  28.013  28.099  1.00  0.00     0.074 A 
ATOM     45  C   UNL A   1      40.427  28.431  28.428  1.00  0.00     0.049 A 
ATOM     46  N   UNL A   1      43.359  29.128  28.544  1.00  0.00    -0.248 NA
ATOM     47  C   UNL A   1      43.826  27.056  27.570  1.00  0.00     0.031 C 
ATOM     48  C   UNL A   1      38.993  28.162  28.376  1.00  0.00     0.029 A 
ATOM     49  N   UNL A   1      40.515  29.703  28.939  1.00  0.00    -0.354 N 
ATOM     50  C   UNL A   1      44.731  29.001  28.363  1.00  0.00     0.074 A 
ATOM     51  C   UNL A   1      44.966  27.694  27.789  1.00  0.00     0.031 C 
ATOM     52  C   UNL A   1      38.333  29.231  28.853  1.00  0.00     0.029 A 
ATOM     53  C   UNL A   1      39.298  30.242  29.280  1.00  0.00     0.049 A 
ATOM     54  H   UNL A   1      41.367  30.183  29.049  1.00  0.00     0.167 HD
ATOM     55  C   UNL A   1      45.709  29.893  28.647  1.00  0.00     0.031 A 
ATOM     56  C   UNL A   1      39.003  31.405  29.893  1.00  0.00     0.031 A 
ATOM     57  C   UNL A   1      45.480  31.186  29.233  1.00  0.00     0.049 A 
ATOM     58  C   UNL A   1      40.118  32.342  30.286  1.00  0.00     0.074 A 
ATOM     59  C   UNL A   1      46.407  32.163  29.552  1.00  0.00     0.029 A 
ATOM     60  N   UNL A   1      44.237  31.678  29.597  1.00  0.00    -0.354 N 
ATOM     61  N   UNL A   1      41.409  32.221  30.094  1.00  0.00    -0.248 NA
ATOM     62  C   UNL A   1      39.729  33.581  30.977  1.00  0.00     0.031 C 
ATOM     63  C   UNL A   1      45.731  33.223  30.164  1.00  0.00     0.029 A 
ATOM     64  C   UNL A   1      44.375  32.934  30.163  1.00  0.00     0.049 A 
ATOM     65  H   UNL A   1      43.382  31.205  29.472  1.00  0.00     0.167 HD
ATOM     66  C   UNL A   1      41.980  33.382  30.604  1.00  0.00     0.074 A 
ATOM     67  C   UNL A   1      40.895  34.198  31.104  1.00  0.00     0.031 C 
ATOM     68  C   UNL A   1      43.286  33.742  30.647  1.00  0.00     0.031 A 
BRANCH  55  69
ATOM     69  C   UNL A   1      47.127  29.479  28.365  1.00  0.00    -0.014 A 
ATOM     70  C   UNL A   1      47.701  29.651  27.097  1.00  0.00     0.009 A 
ATOM     71  C   UNL A   1      47.909  28.940  29.398  1.00  0.00     0.009 A 
ATOM     72  C   UNL A   1      49.021  29.261  26.860  1.00  0.00     0.001 A 
ATOM     73  C   UNL A   1      49.238  28.579  29.167  1.00  0.00     0.001 A 
ATOM     74  C   UNL A   1      49.790  28.732  27.896  1.00  0.00     0.000 A 
ENDBRANCH  55  69
BRANCH  56  75
ATOM     75  C   UNL A   1      37.590  31.749  30.208  1.00  0.00    -0.014 A 
ATOM     76  C   UNL A   1      37.018  31.375  31.434  1.00  0.00     0.009 A 
ATOM     77  C   UNL A   1      36.794  32.420  29.265  1.00  0.00     0.009 A 
ATOM     78  C   UNL A   1      35.670  31.638  31.695  1.00  0.00     0.001 A 
ATOM     79  C   UNL A   1      35.457  32.709  29.543  1.00  0.00     0.001 A 
ATOM     80  C   UNL A   1      34.892  32.307  30.752  1.00  0.00     0.000 A 
ENDBRANCH  56  75
BRANCH  68  81
ATOM     81  C   UNL A   1      43.616  35.100  31.202  1.00  0.00    -0.014 A 
ATOM     82  C   UNL A   1      43.700  36.232  30.377  1.00  0.00     0.009 A 
ATOM     83  C   UNL A   1      43.791  35.256  32.587  1.00  0.00     0.009 A 
ATOM     84  C   UNL A   1      43.985  37.486  30.925  1.00  0.00     0.001 A 
ATOM     85  C   UNL A   1      44.043  36.514  33.136  1.00  0.00     0.001 A 
ATOM     86  C   UNL A   1      44.149  37.626  32.303  1.00  0.00     0.000 A 
ENDBRANCH  68  81
ENDBRANCH  42  43
ENDBRANCH  35  37
ENDBRANCH  34  35
ENDBRANCH  33  34
ENDBRANCH  32  33
ENDBRANCH  31  32
ENDBRANCH  30  31
ENDBRANCH   1  30
TORSDOF 22
ENDMDL
