MODEL 1
REMARK VINA RESULT:      -9.9      0.000      0.000
REMARK SMILES O=C(C[C@H](Cc1ccc(Cl)cc1)C(=O)Nc1cc(Cl)ccc1Cl)OCCOCCOCCOC(=O)c1ccc(-c2c3nc(c(-c4ccccc4)c4ccc([nH]4)c(-c4ccccc4)c4nc(c(-c5ccccc5)c5ccc2[nH]5)C=C4)C=C3)cc1
REMARK SMILES IDX 28 1 27 2 26 3 25 4 24 5 2 6 1 7 3 8 4 9 13 10 14 11 15 12
REMARK SMILES IDX 16 14 17 15 22 16 18 17 21 18 23 19 19 20 20 21 5 22 6 23
REMARK SMILES IDX 7 24 12 25 8 26 11 27 9 28 10 29 29 30 30 31 31 32 32 33
REMARK SMILES IDX 33 34 34 35 35 36 36 37 37 38 83 39 38 40 82 41 39 42 40 43
REMARK SMILES IDX 41 44 76 45 42 46 81 47 75 48 77 49 43 50 80 51 74 52 73 53
REMARK SMILES IDX 44 55 66 56 51 57 65 58 52 59 55 60 64 61 78 62 53 63 54 64
REMARK SMILES IDX 63 66 79 67 56 68 45 69 46 70 50 71 47 72 49 73 48 74 67 75
REMARK SMILES IDX 68 76 72 77 69 78 71 79 70 80 57 81 58 82 62 83 59 84 61 85
REMARK SMILES IDX 60 86
REMARK H PARENT 15 13 77 54 55 65
REMARK Flexibility Score: inf
ROOT
ATOM      1  C   UNL A   1      34.717  32.687  28.234  1.00  0.00     0.188 C 
ENDROOT
BRANCH   1   2
ATOM      2  O   UNL A   1      34.367  31.838  27.156  1.00  0.00    -0.376 OA
BRANCH   2   3
ATOM      3  C   UNL A   1      33.688  30.626  27.378  1.00  0.00     0.202 C 
BRANCH   3   4
ATOM      4  C   UNL A   1      34.291  29.339  26.828  1.00  0.00     0.261 C 
BRANCH   4   5
ATOM      5  O   UNL A   1      33.700  28.656  25.706  1.00  0.00    -0.463 OA
BRANCH   5   6
ATOM      6  C   UNL A   1      33.674  27.363  25.373  1.00  0.00     0.306 C 
ATOM      7  O   UNL A   1      33.385  26.542  26.247  1.00  0.00    -0.252 OA
BRANCH   6   8
ATOM      8  C   UNL A   1      33.978  26.886  23.978  1.00  0.00     0.136 C 
BRANCH   8   9
ATOM      9  C   UNL A   1      32.876  26.385  23.051  1.00  0.00     0.094 C 
BRANCH   9  10
ATOM     10  C   UNL A   1      33.286  25.173  22.200  1.00  0.00     0.228 C 
ATOM     11  O   UNL A   1      33.143  25.246  20.972  1.00  0.00    -0.274 OA
ATOM     12  N   UNL A   1      33.912  24.062  22.674  1.00  0.00    -0.324 N 
ATOM     13  H   UNL A   1      34.348  23.530  21.969  1.00  0.00     0.169 HD
BRANCH  12  14
ATOM     14  C   UNL A   1      34.066  23.515  23.958  1.00  0.00     0.061 A 
ATOM     15  C   UNL A   1      32.994  23.397  24.840  1.00  0.00     0.048 A 
ATOM     16  C   UNL A   1      35.334  23.053  24.363  1.00  0.00     0.064 A 
ATOM     17  C   UNL A   1      33.213  22.974  26.155  1.00  0.00     0.043 A 
ATOM     18  C   UNL A   1      35.549  22.632  25.678  1.00  0.00     0.024 A 
ATOM     19  Cl  UNL A   1      36.688  23.103  23.288  1.00  0.00    -0.082 Cl
ATOM     20  Cl  UNL A   1      31.894  22.939  27.261  1.00  0.00    -0.084 Cl
ATOM     21  C   UNL A   1      34.489  22.619  26.586  1.00  0.00     0.022 A 
ENDBRANCH  12  14
ENDBRANCH   9  10
BRANCH   9  22
ATOM     22  C   UNL A   1      31.437  26.354  23.565  1.00  0.00     0.049 C 
BRANCH  22  23
ATOM     23  C   UNL A   1      30.480  27.484  23.209  1.00  0.00    -0.047 A 
ATOM     24  C   UNL A   1      31.028  28.595  22.536  1.00  0.00     0.005 A 
ATOM     25  C   UNL A   1      29.100  27.486  23.463  1.00  0.00     0.005 A 
ATOM     26  C   UNL A   1      30.218  29.623  22.048  1.00  0.00     0.021 A 
ATOM     27  C   UNL A   1      28.285  28.522  22.976  1.00  0.00     0.021 A 
ATOM     28  C   UNL A   1      28.844  29.572  22.252  1.00  0.00     0.041 A 
ATOM     29  Cl  UNL A   1      27.834  30.786  21.570  1.00  0.00    -0.084 Cl
ENDBRANCH  22  23
ENDBRANCH   9  22
ENDBRANCH   8   9
ENDBRANCH   6   8
ENDBRANCH   5   6
ENDBRANCH   4   5
ENDBRANCH   3   4
ENDBRANCH   2   3
ENDBRANCH   1   2
BRANCH   1  30
ATOM     30  C   UNL A   1      34.861  34.192  28.018  1.00  0.00     0.188 C 
BRANCH  30  31
ATOM     31  O   UNL A   1      34.522  34.952  29.164  1.00  0.00    -0.376 OA
BRANCH  31  32
ATOM     32  C   UNL A   1      33.823  34.284  30.204  1.00  0.00     0.202 C 
BRANCH  32  33
ATOM     33  C   UNL A   1      34.555  34.047  31.539  1.00  0.00     0.261 C 
BRANCH  33  34
ATOM     34  O   UNL A   1      34.998  32.714  31.865  1.00  0.00    -0.460 OA
BRANCH  34  35
ATOM     35  C   UNL A   1      35.952  32.535  32.804  1.00  0.00     0.338 C 
ATOM     36  O   UNL A   1      35.779  32.457  34.009  1.00  0.00    -0.246 OA
BRANCH  35  37
ATOM     37  C   UNL A   1      37.249  32.244  32.128  1.00  0.00     0.060 A 
ATOM     38  C   UNL A   1      37.381  32.537  30.763  1.00  0.00     0.016 A 
ATOM     39  C   UNL A   1      38.336  31.706  32.825  1.00  0.00     0.016 A 
ATOM     40  C   UNL A   1      38.562  32.223  30.079  1.00  0.00     0.010 A 
ATOM     41  C   UNL A   1      39.514  31.375  32.134  1.00  0.00     0.010 A 
ATOM     42  C   UNL A   1      39.616  31.582  30.745  1.00  0.00    -0.014 A 
BRANCH  42  43
ATOM     43  C   UNL A   1      40.700  30.934  29.952  1.00  0.00     0.031 A 
ATOM     44  C   UNL A   1      41.985  31.698  29.734  1.00  0.00     0.074 A 
ATOM     45  C   UNL A   1      40.599  29.676  29.482  1.00  0.00     0.049 A 
ATOM     46  N   UNL A   1      43.081  31.334  29.116  1.00  0.00    -0.248 NA
ATOM     47  C   UNL A   1      42.037  33.059  30.294  1.00  0.00     0.031 C 
ATOM     48  C   UNL A   1      39.441  28.799  29.640  1.00  0.00     0.029 A 
ATOM     49  N   UNL A   1      41.501  28.915  28.772  1.00  0.00    -0.354 N 
ATOM     50  C   UNL A   1      43.952  32.413  29.221  1.00  0.00     0.074 A 
ATOM     51  C   UNL A   1      43.240  33.464  29.915  1.00  0.00     0.031 C 
ATOM     52  C   UNL A   1      39.700  27.622  29.042  1.00  0.00     0.029 A 
ATOM     53  C   UNL A   1      41.032  27.667  28.439  1.00  0.00     0.049 A 
ATOM     54  H   UNL A   1      42.399  29.236  28.527  1.00  0.00     0.167 HD
ATOM     55  C   UNL A   1      45.235  32.524  28.799  1.00  0.00     0.031 A 
ATOM     56  C   UNL A   1      41.606  26.677  27.722  1.00  0.00     0.031 A 
ATOM     57  C   UNL A   1      45.949  31.499  28.085  1.00  0.00     0.049 A 
ATOM     58  C   UNL A   1      43.007  26.854  27.189  1.00  0.00     0.074 A 
ATOM     59  C   UNL A   1      47.251  31.524  27.614  1.00  0.00     0.029 A 
ATOM     60  N   UNL A   1      45.421  30.269  27.732  1.00  0.00    -0.354 N 
ATOM     61  N   UNL A   1      43.827  27.868  27.326  1.00  0.00    -0.248 NA
ATOM     62  C   UNL A   1      43.567  25.732  26.418  1.00  0.00     0.031 C 
ATOM     63  C   UNL A   1      47.490  30.331  26.923  1.00  0.00     0.029 A 
ATOM     64  C   UNL A   1      46.362  29.534  27.028  1.00  0.00     0.049 A 
ATOM     65  H   UNL A   1      44.511  29.961  27.949  1.00  0.00     0.167 HD
ATOM     66  C   UNL A   1      45.004  27.495  26.686  1.00  0.00     0.074 A 
ATOM     67  C   UNL A   1      44.803  26.152  26.185  1.00  0.00     0.031 C 
ATOM     68  C   UNL A   1      46.151  28.202  26.525  1.00  0.00     0.031 A 
BRANCH  55  69
ATOM     69  C   UNL A   1      45.946  33.819  29.087  1.00  0.00    -0.014 A 
ATOM     70  C   UNL A   1      45.899  34.891  28.180  1.00  0.00     0.009 A 
ATOM     71  C   UNL A   1      46.641  33.984  30.294  1.00  0.00     0.009 A 
ATOM     72  C   UNL A   1      46.562  36.088  28.462  1.00  0.00     0.001 A 
ATOM     73  C   UNL A   1      47.276  35.193  30.589  1.00  0.00     0.001 A 
ATOM     74  C   UNL A   1      47.244  36.240  29.669  1.00  0.00     0.000 A 
ENDBRANCH  55  69
BRANCH  56  75
ATOM     75  C   UNL A   1      40.852  25.425  27.433  1.00  0.00    -0.014 A 
ATOM     76  C   UNL A   1      39.746  25.425  26.569  1.00  0.00     0.009 A 
ATOM     77  C   UNL A   1      41.209  24.224  28.068  1.00  0.00     0.009 A 
ATOM     78  C   UNL A   1      38.994  24.262  26.376  1.00  0.00     0.001 A 
ATOM     79  C   UNL A   1      40.479  23.054  27.845  1.00  0.00     0.001 A 
ATOM     80  C   UNL A   1      39.364  23.077  27.010  1.00  0.00     0.000 A 
ENDBRANCH  56  75
BRANCH  68  81
ATOM     81  C   UNL A   1      47.290  27.520  25.811  1.00  0.00    -0.014 A 
ATOM     82  C   UNL A   1      48.278  26.809  26.511  1.00  0.00     0.009 A 
ATOM     83  C   UNL A   1      47.365  27.580  24.410  1.00  0.00     0.009 A 
ATOM     84  C   UNL A   1      49.345  26.221  25.828  1.00  0.00     0.001 A 
ATOM     85  C   UNL A   1      48.413  26.958  23.727  1.00  0.00     0.001 A 
ATOM     86  C   UNL A   1      49.410  26.293  24.437  1.00  0.00     0.000 A 
ENDBRANCH  68  81
ENDBRANCH  42  43
ENDBRANCH  35  37
ENDBRANCH  34  35
ENDBRANCH  33  34
ENDBRANCH  32  33
ENDBRANCH  31  32
ENDBRANCH  30  31
ENDBRANCH   1  30
TORSDOF 22
ENDMDL
MODEL 2
REMARK VINA RESULT:      -9.7      1.627      3.231
REMARK SMILES O=C(C[C@H](Cc1ccc(Cl)cc1)C(=O)Nc1cc(Cl)ccc1Cl)OCCOCCOCCOC(=O)c1ccc(-c2c3nc(c(-c4ccccc4)c4ccc([nH]4)c(-c4ccccc4)c4nc(c(-c5ccccc5)c5ccc2[nH]5)C=C4)C=C3)cc1
REMARK SMILES IDX 28 1 27 2 26 3 25 4 24 5 2 6 1 7 3 8 4 9 13 10 14 11 15 12
REMARK SMILES IDX 16 14 17 15 22 16 18 17 21 18 23 19 19 20 20 21 5 22 6 23
REMARK SMILES IDX 7 24 12 25 8 26 11 27 9 28 10 29 29 30 30 31 31 32 32 33
REMARK SMILES IDX 33 34 34 35 35 36 36 37 37 38 83 39 38 40 82 41 39 42 40 43
REMARK SMILES IDX 41 44 76 45 42 46 81 47 75 48 77 49 43 50 80 51 74 52 73 53
REMARK SMILES IDX 44 55 66 56 51 57 65 58 52 59 55 60 64 61 78 62 53 63 54 64
REMARK SMILES IDX 63 66 79 67 56 68 45 69 46 70 50 71 47 72 49 73 48 74 67 75
REMARK SMILES IDX 68 76 72 77 69 78 71 79 70 80 57 81 58 82 62 83 59 84 61 85
REMARK SMILES IDX 60 86
REMARK H PARENT 15 13 77 54 55 65
REMARK Flexibility Score: inf
ROOT
ATOM      1  C   UNL A   1      34.055  31.215  27.922  1.00  0.00     0.188 C 
ENDROOT
BRANCH   1   2
ATOM      2  O   UNL A   1      34.668  30.182  27.170  1.00  0.00    -0.376 OA
BRANCH   2   3
ATOM      3  C   UNL A   1      33.950  29.029  26.801  1.00  0.00     0.202 C 
BRANCH   3   4
ATOM      4  C   UNL A   1      32.457  28.971  27.099  1.00  0.00     0.261 C 
BRANCH   4   5
ATOM      5  O   UNL A   1      31.499  28.672  26.067  1.00  0.00    -0.463 OA
BRANCH   5   6
ATOM      6  C   UNL A   1      31.479  28.972  24.765  1.00  0.00     0.306 C 
ATOM      7  O   UNL A   1      30.638  29.783  24.368  1.00  0.00    -0.252 OA
BRANCH   6   8
ATOM      8  C   UNL A   1      32.444  28.364  23.784  1.00  0.00     0.136 C 
BRANCH   8   9
ATOM      9  C   UNL A   1      32.508  26.856  23.563  1.00  0.00     0.094 C 
BRANCH   9  10
ATOM     10  C   UNL A   1      31.271  26.280  22.857  1.00  0.00     0.228 C 
ATOM     11  O   UNL A   1      30.674  26.999  22.045  1.00  0.00    -0.274 OA
ATOM     12  N   UNL A   1      30.842  24.993  22.958  1.00  0.00    -0.324 N 
ATOM     13  H   UNL A   1      30.227  24.730  22.236  1.00  0.00     0.169 HD
BRANCH  12  14
ATOM     14  C   UNL A   1      31.094  23.962  23.879  1.00  0.00     0.061 A 
ATOM     15  C   UNL A   1      31.766  22.799  23.513  1.00  0.00     0.048 A 
ATOM     16  C   UNL A   1      30.672  24.114  25.215  1.00  0.00     0.064 A 
ATOM     17  C   UNL A   1      31.879  21.740  24.420  1.00  0.00     0.043 A 
ATOM     18  C   UNL A   1      30.785  23.053  26.119  1.00  0.00     0.024 A 
ATOM     19  Cl  UNL A   1      29.898  25.566  25.748  1.00  0.00    -0.082 Cl
ATOM     20  Cl  UNL A   1      32.618  20.270  23.915  1.00  0.00    -0.084 Cl
ATOM     21  C   UNL A   1      31.366  21.851  25.711  1.00  0.00     0.022 A 
ENDBRANCH  12  14
ENDBRANCH   9  10
BRANCH   9  22
ATOM     22  C   UNL A   1      33.838  26.227  23.147  1.00  0.00     0.049 C 
BRANCH  22  23
ATOM     23  C   UNL A   1      34.396  25.047  23.931  1.00  0.00    -0.047 A 
ATOM     24  C   UNL A   1      34.202  25.060  25.328  1.00  0.00     0.005 A 
ATOM     25  C   UNL A   1      35.050  23.939  23.371  1.00  0.00     0.005 A 
ATOM     26  C   UNL A   1      34.556  23.968  26.123  1.00  0.00     0.021 A 
ATOM     27  C   UNL A   1      35.411  22.841  24.170  1.00  0.00     0.021 A 
ATOM     28  C   UNL A   1      35.142  22.851  25.537  1.00  0.00     0.041 A 
ATOM     29  Cl  UNL A   1      35.491  21.467  26.497  1.00  0.00    -0.084 Cl
ENDBRANCH  22  23
ENDBRANCH   9  22
ENDBRANCH   8   9
ENDBRANCH   6   8
ENDBRANCH   5   6
ENDBRANCH   4   5
ENDBRANCH   3   4
ENDBRANCH   2   3
ENDBRANCH   1   2
BRANCH   1  30
ATOM     30  C   UNL A   1      34.808  31.886  29.067  1.00  0.00     0.188 C 
BRANCH  30  31
ATOM     31  O   UNL A   1      33.997  32.768  29.823  1.00  0.00    -0.376 OA
BRANCH  31  32
ATOM     32  C   UNL A   1      34.645  33.857  30.466  1.00  0.00     0.202 C 
BRANCH  32  33
ATOM     33  C   UNL A   1      35.407  33.580  31.777  1.00  0.00     0.261 C 
BRANCH  33  34
ATOM     34  O   UNL A   1      36.068  34.674  32.445  1.00  0.00    -0.460 OA
BRANCH  34  35
ATOM     35  C   UNL A   1      37.305  34.499  32.955  1.00  0.00     0.338 C 
ATOM     36  O   UNL A   1      37.716  34.919  34.025  1.00  0.00    -0.246 OA
BRANCH  35  37
ATOM     37  C   UNL A   1      38.052  33.534  32.098  1.00  0.00     0.060 A 
ATOM     38  C   UNL A   1      38.749  32.483  32.712  1.00  0.00     0.016 A 
ATOM     39  C   UNL A   1      38.057  33.641  30.703  1.00  0.00     0.016 A 
ATOM     40  C   UNL A   1      39.511  31.592  31.945  1.00  0.00     0.010 A 
ATOM     41  C   UNL A   1      38.835  32.757  29.937  1.00  0.00     0.010 A 
ATOM     42  C   UNL A   1      39.610  31.759  30.558  1.00  0.00    -0.014 A 
BRANCH  42  43
ATOM     43  C   UNL A   1      40.688  31.050  29.808  1.00  0.00     0.031 A 
ATOM     44  C   UNL A   1      41.999  31.768  29.587  1.00  0.00     0.074 A 
ATOM     45  C   UNL A   1      40.557  29.780  29.382  1.00  0.00     0.049 A 
ATOM     46  N   UNL A   1      43.094  31.349  29.004  1.00  0.00    -0.248 NA
ATOM     47  C   UNL A   1      42.083  33.147  30.099  1.00  0.00     0.031 C 
ATOM     48  C   UNL A   1      39.371  28.944  29.549  1.00  0.00     0.029 A 
ATOM     49  N   UNL A   1      41.448  28.968  28.717  1.00  0.00    -0.354 N 
ATOM     50  C   UNL A   1      43.996  32.405  29.086  1.00  0.00     0.074 A 
ATOM     51  C   UNL A   1      43.304  33.501  29.729  1.00  0.00     0.031 C 
ATOM     52  C   UNL A   1      39.605  27.739  28.999  1.00  0.00     0.029 A 
ATOM     53  C   UNL A   1      40.948  27.722  28.419  1.00  0.00     0.049 A 
ATOM     54  H   UNL A   1      42.360  29.252  28.477  1.00  0.00     0.167 HD
ATOM     55  C   UNL A   1      45.289  32.462  28.685  1.00  0.00     0.031 A 
ATOM     56  C   UNL A   1      41.503  26.691  27.749  1.00  0.00     0.031 A 
ATOM     57  C   UNL A   1      45.984  31.392  28.021  1.00  0.00     0.049 A 
ATOM     58  C   UNL A   1      42.918  26.806  27.237  1.00  0.00     0.074 A 
ATOM     59  C   UNL A   1      47.294  31.361  27.574  1.00  0.00     0.029 A 
ATOM     60  N   UNL A   1      45.425  30.165  27.702  1.00  0.00    -0.354 N 
ATOM     61  N   UNL A   1      43.767  27.800  27.352  1.00  0.00    -0.248 NA
ATOM     62  C   UNL A   1      43.458  25.641  26.516  1.00  0.00     0.031 C 
ATOM     63  C   UNL A   1      47.509  30.137  26.931  1.00  0.00     0.029 A 
ATOM     64  C   UNL A   1      46.355  29.378  27.043  1.00  0.00     0.049 A 
ATOM     65  H   UNL A   1      44.502  29.893  27.913  1.00  0.00     0.167 HD
ATOM     66  C   UNL A   1      44.943  27.370  26.748  1.00  0.00     0.074 A 
ATOM     67  C   UNL A   1      44.710  26.016  26.292  1.00  0.00     0.031 C 
ATOM     68  C   UNL A   1      46.114  28.035  26.584  1.00  0.00     0.031 A 
BRANCH  55  69
ATOM     69  C   UNL A   1      46.034  33.746  28.939  1.00  0.00    -0.014 A 
ATOM     70  C   UNL A   1      46.737  33.953  30.137  1.00  0.00     0.009 A 
ATOM     71  C   UNL A   1      46.066  34.744  27.954  1.00  0.00     0.009 A 
ATOM     72  C   UNL A   1      47.426  35.148  30.356  1.00  0.00     0.001 A 
ATOM     73  C   UNL A   1      46.783  35.925  28.163  1.00  0.00     0.001 A 
ATOM     74  C   UNL A   1      47.454  36.130  29.367  1.00  0.00     0.000 A 
ENDBRANCH  55  69
BRANCH  56  75
ATOM     75  C   UNL A   1      40.717  25.451  27.492  1.00  0.00    -0.014 A 
ATOM     76  C   UNL A   1      41.101  24.220  28.045  1.00  0.00     0.009 A 
ATOM     77  C   UNL A   1      39.600  25.488  26.641  1.00  0.00     0.009 A 
ATOM     78  C   UNL A   1      40.406  23.049  27.723  1.00  0.00     0.001 A 
ATOM     79  C   UNL A   1      38.886  24.324  26.351  1.00  0.00     0.001 A 
ATOM     80  C   UNL A   1      39.297  23.103  26.881  1.00  0.00     0.000 A 
ENDBRANCH  56  75
BRANCH  68  81
ATOM     81  C   UNL A   1      47.243  27.295  25.916  1.00  0.00    -0.014 A 
ATOM     82  C   UNL A   1      48.226  26.622  26.661  1.00  0.00     0.009 A 
ATOM     83  C   UNL A   1      47.316  27.259  24.514  1.00  0.00     0.009 A 
ATOM     84  C   UNL A   1      49.285  25.978  26.018  1.00  0.00     0.001 A 
ATOM     85  C   UNL A   1      48.356  26.581  23.873  1.00  0.00     0.001 A 
ATOM     86  C   UNL A   1      49.348  25.955  24.625  1.00  0.00     0.000 A 
ENDBRANCH  68  81
ENDBRANCH  42  43
ENDBRANCH  35  37
ENDBRANCH  34  35
ENDBRANCH  33  34
ENDBRANCH  32  33
ENDBRANCH  31  32
ENDBRANCH  30  31
ENDBRANCH   1  30
TORSDOF 22
ENDMDL
MODEL 3
REMARK VINA RESULT:      -9.6      6.689     10.580
REMARK SMILES O=C(C[C@H](Cc1ccc(Cl)cc1)C(=O)Nc1cc(Cl)ccc1Cl)OCCOCCOCCOC(=O)c1ccc(-c2c3nc(c(-c4ccccc4)c4ccc([nH]4)c(-c4ccccc4)c4nc(c(-c5ccccc5)c5ccc2[nH]5)C=C4)C=C3)cc1
REMARK SMILES IDX 28 1 27 2 26 3 25 4 24 5 2 6 1 7 3 8 4 9 13 10 14 11 15 12
REMARK SMILES IDX 16 14 17 15 22 16 18 17 21 18 23 19 19 20 20 21 5 22 6 23
REMARK SMILES IDX 7 24 12 25 8 26 11 27 9 28 10 29 29 30 30 31 31 32 32 33
REMARK SMILES IDX 33 34 34 35 35 36 36 37 37 38 83 39 38 40 82 41 39 42 40 43
REMARK SMILES IDX 41 44 76 45 42 46 81 47 75 48 77 49 43 50 80 51 74 52 73 53
REMARK SMILES IDX 44 55 66 56 51 57 65 58 52 59 55 60 64 61 78 62 53 63 54 64
REMARK SMILES IDX 63 66 79 67 56 68 45 69 46 70 50 71 47 72 49 73 48 74 67 75
REMARK SMILES IDX 68 76 72 77 69 78 71 79 70 80 57 81 58 82 62 83 59 84 61 85
REMARK SMILES IDX 60 86
REMARK H PARENT 15 13 77 54 55 65
REMARK Flexibility Score: inf
ROOT
ATOM      1  C   UNL A   1      33.568  31.274  27.609  1.00  0.00     0.188 C 
ENDROOT
BRANCH   1   2
ATOM      2  O   UNL A   1      34.487  30.326  27.095  1.00  0.00    -0.376 OA
BRANCH   2   3
ATOM      3  C   UNL A   1      34.169  28.955  27.054  1.00  0.00     0.202 C 
BRANCH   3   4
ATOM      4  C   UNL A   1      32.736  28.529  27.348  1.00  0.00     0.261 C 
BRANCH   4   5
ATOM      5  O   UNL A   1      31.705  28.632  26.349  1.00  0.00    -0.463 OA
BRANCH   5   6
ATOM      6  C   UNL A   1      31.704  29.185  25.133  1.00  0.00     0.306 C 
ATOM      7  O   UNL A   1      31.077  30.236  24.972  1.00  0.00    -0.252 OA
BRANCH   6   8
ATOM      8  C   UNL A   1      32.440  28.575  23.971  1.00  0.00     0.136 C 
BRANCH   8   9
ATOM      9  C   UNL A   1      32.452  27.068  23.740  1.00  0.00     0.094 C 
BRANCH   9  10
ATOM     10  C   UNL A   1      31.188  26.538  23.046  1.00  0.00     0.228 C 
ATOM     11  O   UNL A   1      30.595  27.287  22.258  1.00  0.00    -0.274 OA
ATOM     12  N   UNL A   1      30.729  25.260  23.131  1.00  0.00    -0.324 N 
ATOM     13  H   UNL A   1      30.094  25.026  22.415  1.00  0.00     0.169 HD
BRANCH  12  14
ATOM     14  C   UNL A   1      30.970  24.206  24.027  1.00  0.00     0.061 A 
ATOM     15  C   UNL A   1      31.595  23.028  23.625  1.00  0.00     0.048 A 
ATOM     16  C   UNL A   1      30.587  24.347  25.376  1.00  0.00     0.064 A 
ATOM     17  C   UNL A   1      31.697  21.951  24.511  1.00  0.00     0.043 A 
ATOM     18  C   UNL A   1      30.689  23.267  26.259  1.00  0.00     0.024 A 
ATOM     19  Cl  UNL A   1      29.873  25.813  25.953  1.00  0.00    -0.082 Cl
ATOM     20  Cl  UNL A   1      32.376  20.467  23.962  1.00  0.00    -0.084 Cl
ATOM     21  C   UNL A   1      31.220  22.055  25.815  1.00  0.00     0.022 A 
ENDBRANCH  12  14
ENDBRANCH   9  10
BRANCH   9  22
ATOM     22  C   UNL A   1      33.755  26.399  23.304  1.00  0.00     0.049 C 
BRANCH  22  23
ATOM     23  C   UNL A   1      34.235  25.139  24.014  1.00  0.00    -0.047 A 
ATOM     24  C   UNL A   1      34.726  24.098  23.200  1.00  0.00     0.005 A 
ATOM     25  C   UNL A   1      34.260  24.953  25.404  1.00  0.00     0.005 A 
ATOM     26  C   UNL A   1      35.311  22.956  23.753  1.00  0.00     0.021 A 
ATOM     27  C   UNL A   1      34.845  23.803  25.961  1.00  0.00     0.021 A 
ATOM     28  C   UNL A   1      35.387  22.822  25.135  1.00  0.00     0.041 A 
ATOM     29  Cl  UNL A   1      36.191  21.464  25.818  1.00  0.00    -0.084 Cl
ENDBRANCH  22  23
ENDBRANCH   9  22
ENDBRANCH   8   9
ENDBRANCH   6   8
ENDBRANCH   5   6
ENDBRANCH   4   5
ENDBRANCH   3   4
ENDBRANCH   2   3
ENDBRANCH   1   2
BRANCH   1  30
ATOM     30  C   UNL A   1      34.064  32.601  28.176  1.00  0.00     0.188 C 
BRANCH  30  31
ATOM     31  O   UNL A   1      35.288  33.026  27.604  1.00  0.00    -0.376 OA
BRANCH  31  32
ATOM     32  C   UNL A   1      36.409  33.129  28.471  1.00  0.00     0.202 C 
BRANCH  32  33
ATOM     33  C   UNL A   1      36.275  32.579  29.904  1.00  0.00     0.261 C 
BRANCH  33  34
ATOM     34  O   UNL A   1      35.834  33.463  30.954  1.00  0.00    -0.460 OA
BRANCH  34  35
ATOM     35  C   UNL A   1      35.061  32.986  31.952  1.00  0.00     0.338 C 
ATOM     36  O   UNL A   1      33.951  32.492  31.839  1.00  0.00    -0.246 OA
BRANCH  35  37
ATOM     37  C   UNL A   1      35.854  32.970  33.215  1.00  0.00     0.060 A 
ATOM     38  C   UNL A   1      35.655  33.995  34.152  1.00  0.00     0.016 A 
ATOM     39  C   UNL A   1      36.773  31.953  33.493  1.00  0.00     0.016 A 
ATOM     40  C   UNL A   1      36.423  34.048  35.322  1.00  0.00     0.010 A 
ATOM     41  C   UNL A   1      37.555  32.016  34.658  1.00  0.00     0.010 A 
ATOM     42  C   UNL A   1      37.423  33.094  35.555  1.00  0.00    -0.014 A 
BRANCH  42  43
ATOM     43  C   UNL A   1      38.460  33.356  36.594  1.00  0.00     0.031 A 
ATOM     44  C   UNL A   1      39.681  34.156  36.203  1.00  0.00     0.074 A 
ATOM     45  C   UNL A   1      38.317  32.964  37.875  1.00  0.00     0.049 A 
ATOM     46  N   UNL A   1      40.695  34.547  36.935  1.00  0.00    -0.248 NA
ATOM     47  C   UNL A   1      39.763  34.574  34.793  1.00  0.00     0.031 C 
ATOM     48  C   UNL A   1      37.183  32.217  38.414  1.00  0.00     0.029 A 
ATOM     49  N   UNL A   1      39.143  33.149  38.960  1.00  0.00    -0.354 N 
ATOM     50  C   UNL A   1      41.527  35.260  36.078  1.00  0.00     0.074 A 
ATOM     51  C   UNL A   1      40.927  35.205  34.763  1.00  0.00     0.031 C 
ATOM     52  C   UNL A   1      37.386  32.003  39.727  1.00  0.00     0.029 A 
ATOM     53  C   UNL A   1      38.673  32.578  40.119  1.00  0.00     0.049 A 
ATOM     54  H   UNL A   1      39.992  33.645  38.912  1.00  0.00     0.167 HD
ATOM     55  C   UNL A   1      42.678  35.921  36.355  1.00  0.00     0.031 A 
ATOM     56  C   UNL A   1      39.220  32.516  41.351  1.00  0.00     0.031 A 
ATOM     57  C   UNL A   1      43.302  35.964  37.650  1.00  0.00     0.049 A 
ATOM     58  C   UNL A   1      40.545  33.188  41.617  1.00  0.00     0.074 A 
ATOM     59  C   UNL A   1      44.471  36.605  38.023  1.00  0.00     0.029 A 
ATOM     60  N   UNL A   1      42.813  35.336  38.783  1.00  0.00    -0.354 N 
ATOM     61  N   UNL A   1      41.302  33.885  40.804  1.00  0.00    -0.248 NA
ATOM     62  C   UNL A   1      41.079  33.080  42.985  1.00  0.00     0.031 C 
ATOM     63  C   UNL A   1      44.720  36.314  39.369  1.00  0.00     0.029 A 
ATOM     64  C   UNL A   1      43.668  35.553  39.851  1.00  0.00     0.049 A 
ATOM     65  H   UNL A   1      41.980  34.811  38.824  1.00  0.00     0.167 HD
ATOM     66  C   UNL A   1      42.381  34.321  41.566  1.00  0.00     0.074 A 
ATOM     67  C   UNL A   1      42.167  33.833  42.912  1.00  0.00     0.031 C 
ATOM     68  C   UNL A   1      43.454  35.058  41.186  1.00  0.00     0.031 A 
BRANCH  55  69
ATOM     69  C   UNL A   1      43.351  36.640  35.216  1.00  0.00    -0.014 A 
ATOM     70  C   UNL A   1      43.003  37.960  34.883  1.00  0.00     0.009 A 
ATOM     71  C   UNL A   1      44.370  36.005  34.491  1.00  0.00     0.009 A 
ATOM     72  C   UNL A   1      43.640  38.614  33.825  1.00  0.00     0.001 A 
ATOM     73  C   UNL A   1      45.027  36.673  33.455  1.00  0.00     0.001 A 
ATOM     74  C   UNL A   1      44.655  37.973  33.117  1.00  0.00     0.000 A 
ENDBRANCH  55  69
BRANCH  56  75
ATOM     75  C   UNL A   1      38.535  31.764  42.440  1.00  0.00    -0.014 A 
ATOM     76  C   UNL A   1      38.777  30.397  42.644  1.00  0.00     0.009 A 
ATOM     77  C   UNL A   1      37.589  32.408  43.254  1.00  0.00     0.009 A 
ATOM     78  C   UNL A   1      38.062  29.684  43.612  1.00  0.00     0.001 A 
ATOM     79  C   UNL A   1      36.902  31.702  44.245  1.00  0.00     0.001 A 
ATOM     80  C   UNL A   1      37.130  30.339  44.415  1.00  0.00     0.000 A 
ENDBRANCH  56  75
BRANCH  68  81
ATOM     81  C   UNL A   1      44.460  35.414  42.250  1.00  0.00    -0.014 A 
ATOM     82  C   UNL A   1      45.572  34.599  42.515  1.00  0.00     0.009 A 
ATOM     83  C   UNL A   1      44.299  36.597  42.990  1.00  0.00     0.009 A 
ATOM     84  C   UNL A   1      46.468  34.931  43.534  1.00  0.00     0.001 A 
ATOM     85  C   UNL A   1      45.217  36.946  43.983  1.00  0.00     0.001 A 
ATOM     86  C   UNL A   1      46.291  36.105  44.264  1.00  0.00     0.000 A 
ENDBRANCH  68  81
ENDBRANCH  42  43
ENDBRANCH  35  37
ENDBRANCH  34  35
ENDBRANCH  33  34
ENDBRANCH  32  33
ENDBRANCH  31  32
ENDBRANCH  30  31
ENDBRANCH   1  30
TORSDOF 22
ENDMDL
