MODEL 1
REMARK VINA RESULT:      -9.8      0.000      0.000
REMARK SMILES O=C(C[N@@H+](C[C@@H]1COc2ccccc2O1)CC(F)(F)F)OCCOCCOCCOC(=O)c1ccc(-c2c3nc(c(-c4ccccc4)c4ccc([nH]4)c(-c4ccccc4)c4nc(c(-c5ccccc5)c5ccc2[nH]5)C=C4)C=C3)cc1
REMARK SMILES IDX 25 1 24 2 23 3 22 4 21 5 2 6 1 7 3 8 4 9 5 11 6 12 7 13
REMARK SMILES IDX 15 14 8 15 14 16 9 17 13 18 10 19 12 20 11 21 16 22 17 23
REMARK SMILES IDX 18 24 19 25 20 26 26 27 27 28 28 29 29 30 30 31 31 32 32 33
REMARK SMILES IDX 33 34 34 35 80 36 35 37 79 38 36 39 37 40 38 41 73 42 39 43
REMARK SMILES IDX 78 44 72 45 74 46 40 47 77 48 71 49 70 50 41 52 63 53 48 54
REMARK SMILES IDX 62 55 49 56 52 57 61 58 75 59 50 60 51 61 60 63 76 64 53 65
REMARK SMILES IDX 42 66 43 67 47 68 44 69 46 70 45 71 64 72 65 73 69 74 66 75
REMARK SMILES IDX 68 76 67 77 54 78 55 79 59 80 56 81 58 82 57 83
REMARK H PARENT 4 10 74 51 52 62
REMARK Flexibility Score: inf
ROOT
ATOM      1  C   UNL A   1      40.828  20.725  26.794  1.00  0.00     0.188 C 
ENDROOT
BRANCH   1   2
ATOM      2  O   UNL A   1      40.502  21.907  27.506  1.00  0.00    -0.376 OA
BRANCH   2   3
ATOM      3  C   UNL A   1      39.545  22.756  26.895  1.00  0.00     0.202 C 
BRANCH   3   4
ATOM      4  C   UNL A   1      38.638  21.955  25.964  1.00  0.00     0.261 C 
BRANCH   4   5
ATOM      5  O   UNL A   1      37.391  22.589  25.602  1.00  0.00    -0.459 OA
BRANCH   5   6
ATOM      6  C   UNL A   1      36.317  22.027  25.012  1.00  0.00     0.361 C 
ATOM      7  O   UNL A   1      36.223  22.037  23.787  1.00  0.00    -0.245 OA
BRANCH   6   8
ATOM      8  C   UNL A   1      35.202  21.450  25.880  1.00  0.00     0.386 C 
BRANCH   8   9
ATOM      9  N   UNL A   1      33.885  21.934  25.462  1.00  0.00    -0.315 N 
ATOM     10  H   UNL A   1      33.233  21.651  26.194  1.00  0.00     0.348 HD
BRANCH   9  11
ATOM     11  C   UNL A   1      33.757  23.405  25.465  1.00  0.00     0.312 C 
BRANCH  11  12
ATOM     12  C   UNL A   1      32.880  24.084  24.380  1.00  0.00     0.265 C 
ATOM     13  C   UNL A   1      33.665  25.046  23.481  1.00  0.00     0.281 C 
ATOM     14  O   UNL A   1      31.797  24.796  24.989  1.00  0.00    -0.477 OA
ATOM     15  O   UNL A   1      34.236  26.138  24.209  1.00  0.00    -0.486 OA
ATOM     16  C   UNL A   1      32.201  25.984  25.535  1.00  0.00     0.162 A 
ATOM     17  C   UNL A   1      33.377  26.634  25.155  1.00  0.00     0.161 A 
ATOM     18  C   UNL A   1      31.400  26.499  26.550  1.00  0.00     0.050 A 
ATOM     19  C   UNL A   1      33.756  27.806  25.801  1.00  0.00     0.050 A 
ATOM     20  C   UNL A   1      31.791  27.661  27.211  1.00  0.00     0.004 A 
ATOM     21  C   UNL A   1      32.965  28.317  26.834  1.00  0.00     0.004 A 
ENDBRANCH  11  12
ENDBRANCH   9  11
BRANCH   9  22
ATOM     22  C   UNL A   1      33.385  21.248  24.232  1.00  0.00     0.379 C 
BRANCH  22  23
ATOM     23  C   UNL A   1      32.937  19.757  24.195  1.00  0.00     0.438 C 
ATOM     24  F   UNL A   1      33.988  18.912  24.211  1.00  0.00    -0.165 F 
ATOM     25  F   UNL A   1      32.181  19.472  25.282  1.00  0.00    -0.165 F 
ATOM     26  F   UNL A   1      32.210  19.449  23.105  1.00  0.00    -0.165 F 
ENDBRANCH  22  23
ENDBRANCH   9  22
ENDBRANCH   8   9
ENDBRANCH   6   8
ENDBRANCH   5   6
ENDBRANCH   4   5
ENDBRANCH   3   4
ENDBRANCH   2   3
ENDBRANCH   1   2
BRANCH   1  27
ATOM     27  C   UNL A   1      42.324  20.608  26.468  1.00  0.00     0.188 C 
BRANCH  27  28
ATOM     28  O   UNL A   1      42.852  21.318  25.358  1.00  0.00    -0.376 OA
BRANCH  28  29
ATOM     29  C   UNL A   1      44.200  21.092  24.968  1.00  0.00     0.202 C 
BRANCH  29  30
ATOM     30  C   UNL A   1      44.947  22.262  24.325  1.00  0.00     0.261 C 
BRANCH  30  31
ATOM     31  O   UNL A   1      44.185  23.485  24.240  1.00  0.00    -0.460 OA
BRANCH  31  32
ATOM     32  C   UNL A   1      44.734  24.539  24.887  1.00  0.00     0.338 C 
ATOM     33  O   UNL A   1      45.908  24.885  24.876  1.00  0.00    -0.246 OA
BRANCH  32  34
ATOM     34  C   UNL A   1      43.718  25.341  25.591  1.00  0.00     0.060 A 
ATOM     35  C   UNL A   1      43.915  26.725  25.678  1.00  0.00     0.016 A 
ATOM     36  C   UNL A   1      42.724  24.722  26.354  1.00  0.00     0.016 A 
ATOM     37  C   UNL A   1      43.176  27.484  26.588  1.00  0.00     0.010 A 
ATOM     38  C   UNL A   1      41.988  25.484  27.272  1.00  0.00     0.010 A 
ATOM     39  C   UNL A   1      42.252  26.857  27.436  1.00  0.00    -0.014 A 
BRANCH  39  40
ATOM     40  C   UNL A   1      41.741  27.587  28.626  1.00  0.00     0.031 A 
ATOM     41  C   UNL A   1      42.476  27.448  29.937  1.00  0.00     0.074 A 
ATOM     42  C   UNL A   1      40.670  28.397  28.553  1.00  0.00     0.049 A 
ATOM     43  N   UNL A   1      42.223  28.007  31.096  1.00  0.00    -0.248 NA
ATOM     44  C   UNL A   1      43.652  26.564  29.941  1.00  0.00     0.031 C 
ATOM     45  C   UNL A   1      39.890  28.671  27.349  1.00  0.00     0.029 A 
ATOM     46  N   UNL A   1      40.058  29.146  29.530  1.00  0.00    -0.354 N 
ATOM     47  C   UNL A   1      43.202  27.537  31.964  1.00  0.00     0.074 A 
ATOM     48  C   UNL A   1      44.034  26.626  31.207  1.00  0.00     0.031 C 
ATOM     49  C   UNL A   1      38.902  29.530  27.657  1.00  0.00     0.029 A 
ATOM     50  C   UNL A   1      38.967  29.848  29.084  1.00  0.00     0.049 A 
ATOM     51  H   UNL A   1      40.373  29.176  30.462  1.00  0.00     0.167 HD
ATOM     52  C   UNL A   1      43.403  27.838  33.269  1.00  0.00     0.031 A 
ATOM     53  C   UNL A   1      38.113  30.651  29.750  1.00  0.00     0.031 A 
ATOM     54  C   UNL A   1      42.584  28.734  34.040  1.00  0.00     0.049 A 
ATOM     55  C   UNL A   1      38.310  30.908  31.222  1.00  0.00     0.074 A 
ATOM     56  C   UNL A   1      42.732  29.116  35.362  1.00  0.00     0.029 A 
ATOM     57  N   UNL A   1      41.459  29.382  33.560  1.00  0.00    -0.354 N 
ATOM     58  N   UNL A   1      39.262  30.487  32.017  1.00  0.00    -0.248 NA
ATOM     59  C   UNL A   1      37.312  31.765  31.882  1.00  0.00     0.031 C 
ATOM     60  C   UNL A   1      41.663  29.954  35.699  1.00  0.00     0.029 A 
ATOM     61  C   UNL A   1      40.882  30.136  34.569  1.00  0.00     0.049 A 
ATOM     62  H   UNL A   1      41.117  29.316  32.640  1.00  0.00     0.167 HD
ATOM     63  C   UNL A   1      38.999  31.058  33.258  1.00  0.00     0.074 A 
ATOM     64  C   UNL A   1      37.803  31.857  33.110  1.00  0.00     0.031 C 
ATOM     65  C   UNL A   1      39.695  30.934  34.416  1.00  0.00     0.031 A 
BRANCH  52  66
ATOM     66  C   UNL A   1      44.548  27.153  33.963  1.00  0.00    -0.014 A 
ATOM     67  C   UNL A   1      44.384  25.906  34.585  1.00  0.00     0.009 A 
ATOM     68  C   UNL A   1      45.815  27.757  33.974  1.00  0.00     0.009 A 
ATOM     69  C   UNL A   1      45.459  25.295  35.235  1.00  0.00     0.001 A 
ATOM     70  C   UNL A   1      46.893  27.132  34.601  1.00  0.00     0.001 A 
ATOM     71  C   UNL A   1      46.712  25.907  35.241  1.00  0.00     0.000 A 
ENDBRANCH  52  66
BRANCH  53  72
ATOM     72  C   UNL A   1      36.977  31.287  29.033  1.00  0.00    -0.014 A 
ATOM     73  C   UNL A   1      37.004  32.657  28.728  1.00  0.00     0.009 A 
ATOM     74  C   UNL A   1      35.843  30.536  28.688  1.00  0.00     0.009 A 
ATOM     75  C   UNL A   1      35.908  33.267  28.115  1.00  0.00     0.001 A 
ATOM     76  C   UNL A   1      34.759  31.143  28.050  1.00  0.00     0.001 A 
ATOM     77  C   UNL A   1      34.788  32.509  27.774  1.00  0.00     0.000 A 
ENDBRANCH  53  72
BRANCH  65  78
ATOM     78  C   UNL A   1      39.208  31.716  35.605  1.00  0.00    -0.014 A 
ATOM     79  C   UNL A   1      39.675  33.012  35.872  1.00  0.00     0.009 A 
ATOM     80  C   UNL A   1      38.237  31.157  36.452  1.00  0.00     0.009 A 
ATOM     81  C   UNL A   1      39.204  33.719  36.982  1.00  0.00     0.001 A 
ATOM     82  C   UNL A   1      37.749  31.876  37.545  1.00  0.00     0.001 A 
ATOM     83  C   UNL A   1      38.240  33.151  37.815  1.00  0.00     0.000 A 
ENDBRANCH  65  78
ENDBRANCH  39  40
ENDBRANCH  32  34
ENDBRANCH  31  32
ENDBRANCH  30  31
ENDBRANCH  29  30
ENDBRANCH  28  29
ENDBRANCH  27  28
ENDBRANCH   1  27
TORSDOF 22
ENDMDL
MODEL 2
REMARK VINA RESULT:      -9.8      2.210      2.797
REMARK SMILES O=C(C[N@@H+](C[C@@H]1COc2ccccc2O1)CC(F)(F)F)OCCOCCOCCOC(=O)c1ccc(-c2c3nc(c(-c4ccccc4)c4ccc([nH]4)c(-c4ccccc4)c4nc(c(-c5ccccc5)c5ccc2[nH]5)C=C4)C=C3)cc1
REMARK SMILES IDX 25 1 24 2 23 3 22 4 21 5 2 6 1 7 3 8 4 9 5 11 6 12 7 13
REMARK SMILES IDX 15 14 8 15 14 16 9 17 13 18 10 19 12 20 11 21 16 22 17 23
REMARK SMILES IDX 18 24 19 25 20 26 26 27 27 28 28 29 29 30 30 31 31 32 32 33
REMARK SMILES IDX 33 34 34 35 80 36 35 37 79 38 36 39 37 40 38 41 73 42 39 43
REMARK SMILES IDX 78 44 72 45 74 46 40 47 77 48 71 49 70 50 41 52 63 53 48 54
REMARK SMILES IDX 62 55 49 56 52 57 61 58 75 59 50 60 51 61 60 63 76 64 53 65
REMARK SMILES IDX 42 66 43 67 47 68 44 69 46 70 45 71 64 72 65 73 69 74 66 75
REMARK SMILES IDX 68 76 67 77 54 78 55 79 59 80 56 81 58 82 57 83
REMARK H PARENT 4 10 74 51 52 62
REMARK Flexibility Score: inf
ROOT
ATOM      1  C   UNL A   1      39.245  22.058  26.160  1.00  0.00     0.188 C 
ENDROOT
BRANCH   1   2
ATOM      2  O   UNL A   1      38.010  21.522  25.714  1.00  0.00    -0.376 OA
BRANCH   2   3
ATOM      3  C   UNL A   1      37.338  22.264  24.710  1.00  0.00     0.202 C 
BRANCH   3   4
ATOM      4  C   UNL A   1      36.320  23.213  25.338  1.00  0.00     0.261 C 
BRANCH   4   5
ATOM      5  O   UNL A   1      35.059  22.619  25.717  1.00  0.00    -0.459 OA
BRANCH   5   6
ATOM      6  C   UNL A   1      34.148  23.097  26.590  1.00  0.00     0.361 C 
ATOM      7  O   UNL A   1      34.307  22.909  27.794  1.00  0.00    -0.245 OA
BRANCH   6   8
ATOM      8  C   UNL A   1      32.900  23.799  26.063  1.00  0.00     0.386 C 
BRANCH   8   9
ATOM      9  N   UNL A   1      33.114  25.239  25.910  1.00  0.00    -0.315 N 
ATOM     10  H   UNL A   1      33.927  25.468  26.480  1.00  0.00     0.348 HD
BRANCH   9  11
ATOM     11  C   UNL A   1      33.544  25.642  24.556  1.00  0.00     0.312 C 
BRANCH  11  12
ATOM     12  C   UNL A   1      32.936  24.914  23.327  1.00  0.00     0.265 C 
ATOM     13  C   UNL A   1      33.228  25.621  21.999  1.00  0.00     0.281 C 
ATOM     14  O   UNL A   1      31.518  24.780  23.481  1.00  0.00    -0.477 OA
ATOM     15  O   UNL A   1      32.671  26.938  21.941  1.00  0.00    -0.486 OA
ATOM     16  C   UNL A   1      30.857  25.950  23.229  1.00  0.00     0.162 A 
ATOM     17  C   UNL A   1      31.412  26.991  22.482  1.00  0.00     0.161 A 
ATOM     18  C   UNL A   1      29.600  26.085  23.812  1.00  0.00     0.050 A 
ATOM     19  C   UNL A   1      30.705  28.179  22.323  1.00  0.00     0.050 A 
ATOM     20  C   UNL A   1      28.902  27.283  23.670  1.00  0.00     0.004 A 
ATOM     21  C   UNL A   1      29.451  28.326  22.922  1.00  0.00     0.004 A 
ENDBRANCH  11  12
ENDBRANCH   9  11
BRANCH   9  22
ATOM     22  C   UNL A   1      32.005  26.050  26.500  1.00  0.00     0.379 C 
BRANCH  22  23
ATOM     23  C   UNL A   1      32.145  27.550  26.891  1.00  0.00     0.438 C 
ATOM     24  F   UNL A   1      33.430  27.961  26.872  1.00  0.00    -0.165 F 
ATOM     25  F   UNL A   1      31.467  28.325  26.012  1.00  0.00    -0.165 F 
ATOM     26  F   UNL A   1      31.671  27.824  28.121  1.00  0.00    -0.165 F 
ENDBRANCH  22  23
ENDBRANCH   9  22
ENDBRANCH   8   9
ENDBRANCH   6   8
ENDBRANCH   5   6
ENDBRANCH   4   5
ENDBRANCH   3   4
ENDBRANCH   2   3
ENDBRANCH   1   2
BRANCH   1  27
ATOM     27  C   UNL A   1      40.362  21.008  26.255  1.00  0.00     0.188 C 
BRANCH  27  28
ATOM     28  O   UNL A   1      41.667  21.414  26.636  1.00  0.00    -0.376 OA
BRANCH  28  29
ATOM     29  C   UNL A   1      42.787  20.907  25.922  1.00  0.00     0.202 C 
BRANCH  29  30
ATOM     30  C   UNL A   1      43.727  21.929  25.278  1.00  0.00     0.261 C 
BRANCH  30  31
ATOM     31  O   UNL A   1      43.064  23.082  24.718  1.00  0.00    -0.460 OA
BRANCH  31  32
ATOM     32  C   UNL A   1      43.700  24.257  24.928  1.00  0.00     0.338 C 
ATOM     33  O   UNL A   1      44.828  24.565  24.564  1.00  0.00    -0.246 OA
BRANCH  32  34
ATOM     34  C   UNL A   1      42.835  25.237  25.608  1.00  0.00     0.060 A 
ATOM     35  C   UNL A   1      43.313  26.545  25.760  1.00  0.00     0.016 A 
ATOM     36  C   UNL A   1      41.690  24.822  26.293  1.00  0.00     0.016 A 
ATOM     37  C   UNL A   1      42.695  27.418  26.658  1.00  0.00     0.010 A 
ATOM     38  C   UNL A   1      41.076  25.697  27.200  1.00  0.00     0.010 A 
ATOM     39  C   UNL A   1      41.611  26.977  27.431  1.00  0.00    -0.014 A 
BRANCH  39  40
ATOM     40  C   UNL A   1      41.194  27.767  28.620  1.00  0.00     0.031 A 
ATOM     41  C   UNL A   1      41.996  27.645  29.894  1.00  0.00     0.074 A 
ATOM     42  C   UNL A   1      40.151  28.614  28.577  1.00  0.00     0.049 A 
ATOM     43  N   UNL A   1      41.828  28.252  31.044  1.00  0.00    -0.248 NA
ATOM     44  C   UNL A   1      43.137  26.717  29.865  1.00  0.00     0.031 C 
ATOM     45  C   UNL A   1      39.316  28.877  27.408  1.00  0.00     0.029 A 
ATOM     46  N   UNL A   1      39.622  29.419  29.558  1.00  0.00    -0.354 N 
ATOM     47  C   UNL A   1      42.836  27.774  31.873  1.00  0.00     0.074 A 
ATOM     48  C   UNL A   1      43.591  26.807  31.105  1.00  0.00     0.031 C 
ATOM     49  C   UNL A   1      38.378  29.783  27.738  1.00  0.00     0.029 A 
ATOM     50  C   UNL A   1      38.534  30.147  29.147  1.00  0.00     0.049 A 
ATOM     51  H   UNL A   1      39.990  29.468  30.469  1.00  0.00     0.167 HD
ATOM     52  C   UNL A   1      43.121  28.111  33.154  1.00  0.00     0.031 A 
ATOM     53  C   UNL A   1      37.748  31.003  29.829  1.00  0.00     0.031 A 
ATOM     54  C   UNL A   1      42.379  29.064  33.935  1.00  0.00     0.049 A 
ATOM     55  C   UNL A   1      38.036  31.302  31.278  1.00  0.00     0.074 A 
ATOM     56  C   UNL A   1      42.615  29.485  35.233  1.00  0.00     0.029 A 
ATOM     57  N   UNL A   1      41.253  29.737  33.495  1.00  0.00    -0.354 N 
ATOM     58  N   UNL A   1      39.015  30.873  32.035  1.00  0.00    -0.248 NA
ATOM     59  C   UNL A   1      37.108  32.219  31.960  1.00  0.00     0.031 C 
ATOM     60  C   UNL A   1      41.598  30.373  35.597  1.00  0.00     0.029 A 
ATOM     61  C   UNL A   1      40.761  30.547  34.506  1.00  0.00     0.049 A 
ATOM     62  H   UNL A   1      40.858  29.653  32.597  1.00  0.00     0.167 HD
ATOM     63  C   UNL A   1      38.843  31.495  33.267  1.00  0.00     0.074 A 
ATOM     64  C   UNL A   1      37.670  32.334  33.155  1.00  0.00     0.031 C 
ATOM     65  C   UNL A   1      39.597  31.384  34.389  1.00  0.00     0.031 A 
BRANCH  52  66
ATOM     66  C   UNL A   1      44.277  27.407  33.809  1.00  0.00    -0.014 A 
ATOM     67  C   UNL A   1      44.097  26.207  34.513  1.00  0.00     0.009 A 
ATOM     68  C   UNL A   1      45.569  27.944  33.698  1.00  0.00     0.009 A 
ATOM     69  C   UNL A   1      45.184  25.578  35.124  1.00  0.00     0.001 A 
ATOM     70  C   UNL A   1      46.658  27.299  34.287  1.00  0.00     0.001 A 
ATOM     71  C   UNL A   1      46.463  26.123  35.009  1.00  0.00     0.000 A 
ENDBRANCH  52  66
BRANCH  53  72
ATOM     72  C   UNL A   1      36.598  31.658  29.153  1.00  0.00    -0.014 A 
ATOM     73  C   UNL A   1      35.429  30.933  28.873  1.00  0.00     0.009 A 
ATOM     74  C   UNL A   1      36.678  32.999  28.750  1.00  0.00     0.009 A 
ATOM     75  C   UNL A   1      34.375  31.531  28.179  1.00  0.00     0.001 A 
ATOM     76  C   UNL A   1      35.613  33.603  28.079  1.00  0.00     0.001 A 
ATOM     77  C   UNL A   1      34.466  32.866  27.785  1.00  0.00     0.000 A 
ENDBRANCH  53  72
BRANCH  65  78
ATOM     78  C   UNL A   1      39.206  32.224  35.574  1.00  0.00    -0.014 A 
ATOM     79  C   UNL A   1      39.684  33.533  35.734  1.00  0.00     0.009 A 
ATOM     80  C   UNL A   1      38.314  31.706  36.527  1.00  0.00     0.009 A 
ATOM     81  C   UNL A   1      39.303  34.294  36.843  1.00  0.00     0.001 A 
ATOM     82  C   UNL A   1      37.914  32.478  37.620  1.00  0.00     0.001 A 
ATOM     83  C   UNL A   1      38.417  33.767  37.782  1.00  0.00     0.000 A 
ENDBRANCH  65  78
ENDBRANCH  39  40
ENDBRANCH  32  34
ENDBRANCH  31  32
ENDBRANCH  30  31
ENDBRANCH  29  30
ENDBRANCH  28  29
ENDBRANCH  27  28
ENDBRANCH   1  27
TORSDOF 22
ENDMDL
MODEL 3
REMARK VINA RESULT:      -9.6      1.832      3.707
REMARK SMILES O=C(C[N@@H+](C[C@@H]1COc2ccccc2O1)CC(F)(F)F)OCCOCCOCCOC(=O)c1ccc(-c2c3nc(c(-c4ccccc4)c4ccc([nH]4)c(-c4ccccc4)c4nc(c(-c5ccccc5)c5ccc2[nH]5)C=C4)C=C3)cc1
REMARK SMILES IDX 25 1 24 2 23 3 22 4 21 5 2 6 1 7 3 8 4 9 5 11 6 12 7 13
REMARK SMILES IDX 15 14 8 15 14 16 9 17 13 18 10 19 12 20 11 21 16 22 17 23
REMARK SMILES IDX 18 24 19 25 20 26 26 27 27 28 28 29 29 30 30 31 31 32 32 33
REMARK SMILES IDX 33 34 34 35 80 36 35 37 79 38 36 39 37 40 38 41 73 42 39 43
REMARK SMILES IDX 78 44 72 45 74 46 40 47 77 48 71 49 70 50 41 52 63 53 48 54
REMARK SMILES IDX 62 55 49 56 52 57 61 58 75 59 50 60 51 61 60 63 76 64 53 65
REMARK SMILES IDX 42 66 43 67 47 68 44 69 46 70 45 71 64 72 65 73 69 74 66 75
REMARK SMILES IDX 68 76 67 77 54 78 55 79 59 80 56 81 58 82 57 83
REMARK H PARENT 4 10 74 51 52 62
REMARK Flexibility Score: inf
ROOT
ATOM      1  C   UNL A   1      40.167  20.072  26.048  1.00  0.00     0.188 C 
ENDROOT
BRANCH   1   2
ATOM      2  O   UNL A   1      39.265  19.167  25.432  1.00  0.00    -0.376 OA
BRANCH   2   3
ATOM      3  C   UNL A   1      38.043  19.723  24.976  1.00  0.00     0.202 C 
BRANCH   3   4
ATOM      4  C   UNL A   1      37.927  21.184  25.405  1.00  0.00     0.261 C 
BRANCH   4   5
ATOM      5  O   UNL A   1      36.683  21.839  25.074  1.00  0.00    -0.459 OA
BRANCH   5   6
ATOM      6  C   UNL A   1      35.963  22.685  25.839  1.00  0.00     0.361 C 
ATOM      7  O   UNL A   1      36.144  23.896  25.737  1.00  0.00    -0.245 OA
BRANCH   6   8
ATOM      8  C   UNL A   1      34.989  22.119  26.869  1.00  0.00     0.386 C 
BRANCH   8   9
ATOM      9  N   UNL A   1      33.646  21.958  26.312  1.00  0.00    -0.315 N 
ATOM     10  H   UNL A   1      33.635  22.484  25.438  1.00  0.00     0.348 HD
BRANCH   9  11
ATOM     11  C   UNL A   1      33.343  20.583  25.864  1.00  0.00     0.312 C 
BRANCH  11  12
ATOM     12  C   UNL A   1      33.533  20.223  24.366  1.00  0.00     0.265 C 
ATOM     13  C   UNL A   1      32.261  19.675  23.709  1.00  0.00     0.281 C 
ATOM     14  O   UNL A   1      34.585  19.264  24.215  1.00  0.00    -0.477 OA
ATOM     15  O   UNL A   1      31.811  18.457  24.311  1.00  0.00    -0.486 OA
ATOM     16  C   UNL A   1      34.189  18.002  24.561  1.00  0.00     0.162 A 
ATOM     17  C   UNL A   1      32.848  17.611  24.604  1.00  0.00     0.161 A 
ATOM     18  C   UNL A   1      35.199  17.119  24.934  1.00  0.00     0.050 A 
ATOM     19  C   UNL A   1      32.518  16.328  25.030  1.00  0.00     0.050 A 
ATOM     20  C   UNL A   1      34.865  15.842  25.381  1.00  0.00     0.004 A 
ATOM     21  C   UNL A   1      33.527  15.446  25.423  1.00  0.00     0.004 A 
ENDBRANCH  11  12
ENDBRANCH   9  11
BRANCH   9  22
ATOM     22  C   UNL A   1      32.593  22.607  27.151  1.00  0.00     0.379 C 
BRANCH  22  23
ATOM     23  C   UNL A   1      31.244  23.141  26.586  1.00  0.00     0.438 C 
ATOM     24  F   UNL A   1      30.182  22.594  27.211  1.00  0.00    -0.165 F 
ATOM     25  F   UNL A   1      31.164  24.481  26.764  1.00  0.00    -0.165 F 
ATOM     26  F   UNL A   1      31.086  22.898  25.271  1.00  0.00    -0.165 F 
ENDBRANCH  22  23
ENDBRANCH   9  22
ENDBRANCH   8   9
ENDBRANCH   6   8
ENDBRANCH   5   6
ENDBRANCH   4   5
ENDBRANCH   3   4
ENDBRANCH   2   3
ENDBRANCH   1   2
BRANCH   1  27
ATOM     27  C   UNL A   1      41.608  19.545  26.106  1.00  0.00     0.188 C 
BRANCH  27  28
ATOM     28  O   UNL A   1      42.527  19.920  25.092  1.00  0.00    -0.376 OA
BRANCH  28  29
ATOM     29  C   UNL A   1      43.890  20.134  25.436  1.00  0.00     0.202 C 
BRANCH  29  30
ATOM     30  C   UNL A   1      44.433  21.557  25.288  1.00  0.00     0.261 C 
BRANCH  30  31
ATOM     31  O   UNL A   1      43.514  22.594  25.696  1.00  0.00    -0.460 OA
BRANCH  31  32
ATOM     32  C   UNL A   1      43.848  23.838  25.285  1.00  0.00     0.338 C 
ATOM     33  O   UNL A   1      44.686  24.141  24.445  1.00  0.00    -0.246 OA
BRANCH  32  34
ATOM     34  C   UNL A   1      43.006  24.870  25.915  1.00  0.00     0.060 A 
ATOM     35  C   UNL A   1      43.523  26.167  26.025  1.00  0.00     0.016 A 
ATOM     36  C   UNL A   1      41.838  24.518  26.598  1.00  0.00     0.016 A 
ATOM     37  C   UNL A   1      42.922  27.093  26.880  1.00  0.00     0.010 A 
ATOM     38  C   UNL A   1      41.241  25.445  27.461  1.00  0.00     0.010 A 
ATOM     39  C   UNL A   1      41.814  26.717  27.653  1.00  0.00    -0.014 A 
BRANCH  39  40
ATOM     40  C   UNL A   1      41.406  27.563  28.805  1.00  0.00     0.031 A 
ATOM     41  C   UNL A   1      42.198  27.479  30.087  1.00  0.00     0.074 A 
ATOM     42  C   UNL A   1      40.380  28.428  28.720  1.00  0.00     0.049 A 
ATOM     43  N   UNL A   1      42.037  28.138  31.209  1.00  0.00    -0.248 NA
ATOM     44  C   UNL A   1      43.322  26.529  30.104  1.00  0.00     0.031 C 
ATOM     45  C   UNL A   1      39.557  28.658  27.536  1.00  0.00     0.029 A 
ATOM     46  N   UNL A   1      39.862  29.284  29.663  1.00  0.00    -0.354 N 
ATOM     47  C   UNL A   1      43.031  27.676  32.064  1.00  0.00     0.074 A 
ATOM     48  C   UNL A   1      43.771  26.663  31.343  1.00  0.00     0.031 C 
ATOM     49  C   UNL A   1      38.635  29.595  27.822  1.00  0.00     0.029 A 
ATOM     50  C   UNL A   1      38.790  30.015  29.215  1.00  0.00     0.049 A 
ATOM     51  H   UNL A   1      40.225  29.365  30.574  1.00  0.00     0.167 HD
ATOM     52  C   UNL A   1      43.315  28.061  33.332  1.00  0.00     0.031 A 
ATOM     53  C   UNL A   1      38.018  30.914  29.855  1.00  0.00     0.031 A 
ATOM     54  C   UNL A   1      42.589  29.060  34.068  1.00  0.00     0.049 A 
ATOM     55  C   UNL A   1      38.304  31.269  31.292  1.00  0.00     0.074 A 
ATOM     56  C   UNL A   1      42.825  29.531  35.348  1.00  0.00     0.029 A 
ATOM     57  N   UNL A   1      41.478  29.736  33.592  1.00  0.00    -0.354 N 
ATOM     58  N   UNL A   1      39.271  30.852  32.072  1.00  0.00    -0.248 NA
ATOM     59  C   UNL A   1      37.391  32.231  31.929  1.00  0.00     0.031 C 
ATOM     60  C   UNL A   1      41.824  30.453  35.668  1.00  0.00     0.029 A 
ATOM     61  C   UNL A   1      40.997  30.597  34.566  1.00  0.00     0.049 A 
ATOM     62  H   UNL A   1      41.087  29.622  32.697  1.00  0.00     0.167 HD
ATOM     63  C   UNL A   1      39.104  31.529  33.276  1.00  0.00     0.074 A 
ATOM     64  C   UNL A   1      37.949  32.386  33.122  1.00  0.00     0.031 C 
ATOM     65  C   UNL A   1      39.850  31.451  34.406  1.00  0.00     0.031 A 
BRANCH  52  66
ATOM     66  C   UNL A   1      44.454  27.363  34.023  1.00  0.00    -0.014 A 
ATOM     67  C   UNL A   1      45.762  27.871  33.970  1.00  0.00     0.009 A 
ATOM     68  C   UNL A   1      44.208  26.192  34.756  1.00  0.00     0.009 A 
ATOM     69  C   UNL A   1      46.806  27.199  34.609  1.00  0.00     0.001 A 
ATOM     70  C   UNL A   1      45.249  25.537  35.416  1.00  0.00     0.001 A 
ATOM     71  C   UNL A   1      46.548  26.035  35.332  1.00  0.00     0.000 A 
ENDBRANCH  52  66
BRANCH  53  72
ATOM     72  C   UNL A   1      36.884  31.562  29.146  1.00  0.00    -0.014 A 
ATOM     73  C   UNL A   1      37.023  32.851  28.608  1.00  0.00     0.009 A 
ATOM     74  C   UNL A   1      35.646  30.911  29.038  1.00  0.00     0.009 A 
ATOM     75  C   UNL A   1      35.937  33.485  28.000  1.00  0.00     0.001 A 
ATOM     76  C   UNL A   1      34.569  31.536  28.407  1.00  0.00     0.001 A 
ATOM     77  C   UNL A   1      34.712  32.825  27.897  1.00  0.00     0.000 A 
ENDBRANCH  53  72
BRANCH  65  78
ATOM     78  C   UNL A   1      39.469  32.348  35.553  1.00  0.00    -0.014 A 
ATOM     79  C   UNL A   1      38.465  31.987  36.464  1.00  0.00     0.009 A 
ATOM     80  C   UNL A   1      40.155  33.558  35.743  1.00  0.00     0.009 A 
ATOM     81  C   UNL A   1      38.132  32.837  37.522  1.00  0.00     0.001 A 
ATOM     82  C   UNL A   1      39.838  34.393  36.817  1.00  0.00     0.001 A 
ATOM     83  C   UNL A   1      38.821  34.037  37.699  1.00  0.00     0.000 A 
ENDBRANCH  65  78
ENDBRANCH  39  40
ENDBRANCH  32  34
ENDBRANCH  31  32
ENDBRANCH  30  31
ENDBRANCH  29  30
ENDBRANCH  28  29
ENDBRANCH  27  28
ENDBRANCH   1  27
TORSDOF 22
ENDMDL
