MODEL 1
REMARK VINA RESULT:     -12.5      0.000      0.000
REMARK SMILES Cc1ccc(Nc2c(C)cccc2Cl)c(CC(=O)OCCOCCOCCOC(=O)c2ccc(-c3c4nc(c(-c5ccccc5)c5ccc([nH]5)c(-c5ccccc5)c5nc(c(-c6ccccc6)c6ccc3[nH]6)C=C5)C=C4)cc2)c1
REMARK SMILES IDX 23 1 22 2 21 3 20 4 19 5 17 6 18 7 16 8 15 9 1 10 2 11 3 12
REMARK SMILES IDX 79 13 4 14 5 15 6 16 7 18 8 19 13 20 9 21 10 22 12 23 14 24
REMARK SMILES IDX 11 25 24 26 25 27 26 28 27 29 28 30 29 31 30 32 31 33 32 34
REMARK SMILES IDX 78 35 33 36 77 37 34 38 35 39 36 40 71 41 37 42 76 43 70 44
REMARK SMILES IDX 72 45 38 46 75 47 69 48 68 49 39 51 61 52 46 53 60 54 47 55
REMARK SMILES IDX 50 56 59 57 73 58 48 59 49 60 58 62 74 63 51 64 40 65 41 66
REMARK SMILES IDX 45 67 42 68 44 69 43 70 62 71 63 72 67 73 64 74 66 75 65 76
REMARK SMILES IDX 52 77 53 78 57 79 54 80 56 81 55 82
REMARK H PARENT 6 17 72 50 50 61
REMARK Flexibility Score: inf
ROOT
ATOM      1  C   UNL A   1      37.418  21.286  25.067  1.00  0.00     0.188 C 
ENDROOT
BRANCH   1   2
ATOM      2  O   UNL A   1      37.904  22.574  25.359  1.00  0.00    -0.376 OA
BRANCH   2   3
ATOM      3  C   UNL A   1      37.090  23.722  25.240  1.00  0.00     0.202 C 
BRANCH   3   4
ATOM      4  C   UNL A   1      35.491  23.967  24.995  1.00  0.00     0.261 C 
BRANCH   4   5
ATOM      5  O   UNL A   1      34.377  24.486  23.658  1.00  0.00    -0.463 OA
BRANCH   5   6
ATOM      6  C   UNL A   1      33.843  25.753  22.750  1.00  0.00     0.310 C 
ATOM      7  O   UNL A   1      33.391  25.873  21.601  1.00  0.00    -0.252 OA
BRANCH   6   8
ATOM      8  C   UNL A   1      33.567  26.913  23.527  1.00  0.00     0.160 C 
BRANCH   8   9
ATOM      9  C   UNL A   1      33.265  26.303  24.843  1.00  0.00    -0.013 A 
ATOM     10  C   UNL A   1      33.647  29.231  27.315  1.00  0.00     0.044 C 
ATOM     11  C   UNL A   1      33.067  28.061  26.593  1.00  0.00    -0.051 A 
ATOM     12  C   UNL A   1      31.740  27.728  26.647  1.00  0.00     0.005 A 
ATOM     13  C   UNL A   1      33.836  27.318  25.731  1.00  0.00     0.009 A 
ATOM     14  C   UNL A   1      31.248  26.648  25.863  1.00  0.00     0.026 A 
ATOM     15  C   UNL A   1      32.047  25.587  24.957  1.00  0.00     0.042 A 
BRANCH  15  16
ATOM     16  N   UNL A   1      31.406  23.701  24.605  1.00  0.00    -0.354 N 
ATOM     17  H   UNL A   1      30.440  23.632  24.429  1.00  0.00     0.167 HD
BRANCH  16  18
ATOM     18  C   UNL A   1      32.299  22.085  24.553  1.00  0.00     0.060 A 
ATOM     19  C   UNL A   1      32.279  21.048  23.342  1.00  0.00    -0.026 A 
ATOM     20  C   UNL A   1      32.720  21.505  25.776  1.00  0.00     0.064 A 
ATOM     21  C   UNL A   1      31.869  21.045  21.829  1.00  0.00     0.046 C 
ATOM     22  C   UNL A   1      32.583  19.676  23.570  1.00  0.00     0.005 A 
ATOM     23  C   UNL A   1      32.956  20.098  25.879  1.00  0.00     0.023 A 
ATOM     24  Cl  UNL A   1      33.123  22.300  27.215  1.00  0.00    -0.082 Cl
ATOM     25  C   UNL A   1      32.858  19.198  24.824  1.00  0.00     0.002 A 
ENDBRANCH  16  18
ENDBRANCH  15  16
ENDBRANCH   8   9
ENDBRANCH   6   8
ENDBRANCH   5   6
ENDBRANCH   4   5
ENDBRANCH   3   4
ENDBRANCH   2   3
ENDBRANCH   1   2
BRANCH   1  26
ATOM     26  C   UNL A   1      38.358  20.092  25.047  1.00  0.00     0.188 C 
BRANCH  26  27
ATOM     27  O   UNL A   1      39.584  20.301  25.704  1.00  0.00    -0.376 OA
BRANCH  27  28
ATOM     28  C   UNL A   1      40.270  19.105  26.066  1.00  0.00     0.202 C 
BRANCH  28  29
ATOM     29  C   UNL A   1      41.840  19.148  26.307  1.00  0.00     0.261 C 
BRANCH  29  30
ATOM     30  O   UNL A   1      42.674  19.531  25.135  1.00  0.00    -0.460 OA
BRANCH  30  31
ATOM     31  C   UNL A   1      44.087  19.638  25.133  1.00  0.00     0.338 C 
ATOM     32  O   UNL A   1      44.713  18.724  25.632  1.00  0.00    -0.246 OA
BRANCH  31  33
ATOM     33  C   UNL A   1      44.620  21.120  24.430  1.00  0.00     0.060 A 
ATOM     34  C   UNL A   1      46.240  22.213  24.150  1.00  0.00     0.016 A 
ATOM     35  C   UNL A   1      43.392  21.932  25.474  1.00  0.00     0.016 A 
ATOM     36  C   UNL A   1      46.448  23.785  25.190  1.00  0.00     0.010 A 
ATOM     37  C   UNL A   1      43.766  23.336  26.416  1.00  0.00     0.010 A 
ATOM     38  C   UNL A   1      45.218  24.367  26.407  1.00  0.00    -0.014 A 
BRANCH  38  39
ATOM     39  C   UNL A   1      44.985  25.950  27.418  1.00  0.00     0.031 A 
ATOM     40  C   UNL A   1      43.353  26.902  27.739  1.00  0.00     0.074 A 
ATOM     41  C   UNL A   1      45.916  26.426  28.275  1.00  0.00     0.049 A 
ATOM     42  N   UNL A   1      43.036  28.121  27.337  1.00  0.00    -0.248 NA
ATOM     43  C   UNL A   1      41.837  26.277  28.046  1.00  0.00     0.031 C 
ATOM     44  C   UNL A   1      45.713  27.367  29.391  1.00  0.00     0.029 A 
ATOM     45  N   UNL A   1      47.256  26.092  28.405  1.00  0.00    -0.354 N 
ATOM     46  C   UNL A   1      41.619  28.276  27.493  1.00  0.00     0.074 A 
ATOM     47  C   UNL A   1      41.012  27.020  27.340  1.00  0.00     0.031 C 
ATOM     48  C   UNL A   1      46.914  27.777  29.848  1.00  0.00     0.029 A 
ATOM     49  C   UNL A   1      47.913  27.205  28.960  1.00  0.00     0.049 A 
ATOM     50  H   UNL A   1      47.671  25.235  28.154  1.00  0.00     0.167 HD
ATOM     51  C   UNL A   1      41.056  29.183  28.353  1.00  0.00     0.031 A 
ATOM     52  C   UNL A   1      48.749  27.886  28.132  1.00  0.00     0.031 A 
ATOM     53  C   UNL A   1      42.147  29.897  28.967  1.00  0.00     0.049 A 
ATOM     54  C   UNL A   1      48.070  29.180  27.732  1.00  0.00     0.074 A 
ATOM     55  C   UNL A   1      42.804  29.773  30.177  1.00  0.00     0.029 A 
ATOM     56  N   UNL A   1      43.040  30.473  28.090  1.00  0.00    -0.354 N 
ATOM     57  N   UNL A   1      46.778  29.384  27.803  1.00  0.00    -0.248 NA
ATOM     58  C   UNL A   1      48.803  30.393  27.391  1.00  0.00     0.031 C 
ATOM     59  C   UNL A   1      44.141  30.253  29.979  1.00  0.00     0.029 A 
ATOM     60  C   UNL A   1      44.280  30.650  28.657  1.00  0.00     0.049 A 
ATOM     61  H   UNL A   1      42.817  30.728  27.165  1.00  0.00     0.167 HD
ATOM     62  C   UNL A   1      46.510  30.709  27.647  1.00  0.00     0.074 A 
ATOM     63  C   UNL A   1      47.805  31.294  27.351  1.00  0.00     0.031 C 
ATOM     64  C   UNL A   1      45.285  31.287  27.817  1.00  0.00     0.031 A 
BRANCH  51  65
ATOM     65  C   UNL A   1      39.611  29.115  28.883  1.00  0.00    -0.014 A 
ATOM     66  C   UNL A   1      38.571  29.619  28.087  1.00  0.00     0.009 A 
ATOM     67  C   UNL A   1      39.192  28.558  30.121  1.00  0.00     0.009 A 
ATOM     68  C   UNL A   1      37.224  29.595  28.496  1.00  0.00     0.001 A 
ATOM     69  C   UNL A   1      37.855  28.584  30.564  1.00  0.00     0.001 A 
ATOM     70  C   UNL A   1      36.865  29.091  29.740  1.00  0.00     0.000 A 
ENDBRANCH  51  65
BRANCH  52  71
ATOM     71  C   UNL A   1      49.549  26.906  27.318  1.00  0.00    -0.014 A 
ATOM     72  C   UNL A   1      49.464  27.043  25.904  1.00  0.00     0.009 A 
ATOM     73  C   UNL A   1      50.678  26.253  27.839  1.00  0.00     0.009 A 
ATOM     74  C   UNL A   1      50.489  26.603  25.060  1.00  0.00     0.001 A 
ATOM     75  C   UNL A   1      51.699  25.801  26.985  1.00  0.00     0.001 A 
ATOM     76  C   UNL A   1      51.594  25.960  25.603  1.00  0.00     0.000 A 
ENDBRANCH  52  71
BRANCH  64  77
ATOM     77  C   UNL A   1      44.884  32.565  27.111  1.00  0.00    -0.014 A 
ATOM     78  C   UNL A   1      44.658  32.633  25.735  1.00  0.00     0.009 A 
ATOM     79  C   UNL A   1      44.520  33.707  27.866  1.00  0.00     0.009 A 
ATOM     80  C   UNL A   1      44.203  33.808  25.134  1.00  0.00     0.001 A 
ATOM     81  C   UNL A   1      43.947  34.834  27.287  1.00  0.00     0.001 A 
ATOM     82  C   UNL A   1      43.831  34.900  25.910  1.00  0.00     0.000 A 
ENDBRANCH  64  77
ENDBRANCH  38  39
ENDBRANCH  31  33
ENDBRANCH  30  31
ENDBRANCH  29  30
ENDBRANCH  28  29
ENDBRANCH  27  28
ENDBRANCH  26  27
ENDBRANCH   1  26
TORSDOF 20
ENDMDL
MODEL 2
REMARK VINA RESULT:     -11.5      3.647      8.186
REMARK SMILES Cc1ccc(Nc2c(C)cccc2Cl)c(CC(=O)OCCOCCOCCOC(=O)c2ccc(-c3c4nc(c(-c5ccccc5)c5ccc([nH]5)c(-c5ccccc5)c5nc(c(-c6ccccc6)c6ccc3[nH]6)C=C5)C=C4)cc2)c1
REMARK SMILES IDX 23 1 22 2 21 3 20 4 19 5 17 6 18 7 16 8 15 9 1 10 2 11 3 12
REMARK SMILES IDX 79 13 4 14 5 15 6 16 7 18 8 19 13 20 9 21 10 22 12 23 14 24
REMARK SMILES IDX 11 25 24 26 25 27 26 28 27 29 28 30 29 31 30 32 31 33 32 34
REMARK SMILES IDX 78 35 33 36 77 37 34 38 35 39 36 40 71 41 37 42 76 43 70 44
REMARK SMILES IDX 72 45 38 46 75 47 69 48 68 49 39 51 61 52 46 53 60 54 47 55
REMARK SMILES IDX 50 56 59 57 73 58 48 59 49 60 58 62 74 63 51 64 40 65 41 66
REMARK SMILES IDX 45 67 42 68 44 69 43 70 62 71 63 72 67 73 64 74 66 75 65 76
REMARK SMILES IDX 52 77 53 78 57 79 54 80 56 81 55 82
REMARK H PARENT 6 17 72 50 50 61
REMARK Flexibility Score: inf
ROOT
ATOM      1  C   UNL A   1      35.868  22.783  23.638  1.00  0.00     0.188 C 
ENDROOT
BRANCH   1   2
ATOM      2  O   UNL A   1      34.871  23.264  22.771  1.00  0.00    -0.376 OA
BRANCH   2   3
ATOM      3  C   UNL A   1      34.537  24.635  22.707  1.00  0.00     0.202 C 
BRANCH   3   4
ATOM      4  C   UNL A   1      33.293  25.534  23.269  1.00  0.00     0.261 C 
BRANCH   4   5
ATOM      5  O   UNL A   1      31.479  25.556  23.192  1.00  0.00    -0.463 OA
BRANCH   5   6
ATOM      6  C   UNL A   1      30.112  26.398  23.568  1.00  0.00     0.310 C 
ATOM      7  O   UNL A   1      28.904  26.123  23.616  1.00  0.00    -0.252 OA
BRANCH   6   8
ATOM      8  C   UNL A   1      30.384  27.613  24.259  1.00  0.00     0.160 C 
BRANCH   8   9
ATOM      9  C   UNL A   1      31.439  27.169  25.199  1.00  0.00    -0.013 A 
ATOM     10  C   UNL A   1      32.744  30.457  26.722  1.00  0.00     0.044 C 
ATOM     11  C   UNL A   1      32.203  29.071  26.612  1.00  0.00    -0.051 A 
ATOM     12  C   UNL A   1      31.629  28.403  27.660  1.00  0.00     0.005 A 
ATOM     13  C   UNL A   1      32.152  28.433  25.396  1.00  0.00     0.009 A 
ATOM     14  C   UNL A   1      31.059  27.116  27.454  1.00  0.00     0.026 A 
ATOM     15  C   UNL A   1      31.083  26.177  26.148  1.00  0.00     0.042 A 
BRANCH  15  16
ATOM     16  N   UNL A   1      31.010  24.157  26.214  1.00  0.00    -0.354 N 
ATOM     17  H   UNL A   1      30.193  23.798  26.628  1.00  0.00     0.167 HD
BRANCH  16  18
ATOM     18  C   UNL A   1      32.195  22.862  25.640  1.00  0.00     0.060 A 
ATOM     19  C   UNL A   1      32.135  22.099  24.241  1.00  0.00    -0.026 A 
ATOM     20  C   UNL A   1      32.984  22.191  26.607  1.00  0.00     0.064 A 
ATOM     21  C   UNL A   1      31.417  22.273  22.858  1.00  0.00     0.046 C 
ATOM     22  C   UNL A   1      32.768  20.832  24.090  1.00  0.00     0.005 A 
ATOM     23  C   UNL A   1      33.533  20.897  26.339  1.00  0.00     0.023 A 
ATOM     24  Cl  UNL A   1      33.510  22.779  28.105  1.00  0.00    -0.082 Cl
ATOM     25  C   UNL A   1      33.403  20.215  25.134  1.00  0.00     0.002 A 
ENDBRANCH  16  18
ENDBRANCH  15  16
ENDBRANCH   8   9
ENDBRANCH   6   8
ENDBRANCH   5   6
ENDBRANCH   4   5
ENDBRANCH   3   4
ENDBRANCH   2   3
ENDBRANCH   1   2
BRANCH   1  26
ATOM     26  C   UNL A   1      36.295  23.593  24.851  1.00  0.00     0.188 C 
BRANCH  26  27
ATOM     27  O   UNL A   1      37.477  23.144  25.469  1.00  0.00    -0.376 OA
BRANCH  27  28
ATOM     28  C   UNL A   1      37.603  21.725  25.538  1.00  0.00     0.202 C 
BRANCH  28  29
ATOM     29  C   UNL A   1      39.050  21.073  25.595  1.00  0.00     0.261 C 
BRANCH  29  30
ATOM     30  O   UNL A   1      39.890  21.441  26.767  1.00  0.00    -0.460 OA
BRANCH  30  31
ATOM     31  C   UNL A   1      41.055  22.248  26.721  1.00  0.00     0.338 C 
ATOM     32  O   UNL A   1      41.853  22.019  25.834  1.00  0.00    -0.246 OA
BRANCH  31  33
ATOM     33  C   UNL A   1      41.097  23.394  28.010  1.00  0.00     0.060 A 
ATOM     34  C   UNL A   1      41.049  25.335  28.365  1.00  0.00     0.016 A 
ATOM     35  C   UNL A   1      42.655  22.624  28.499  1.00  0.00     0.016 A 
ATOM     36  C   UNL A   1      42.662  26.189  28.879  1.00  0.00     0.010 A 
ATOM     37  C   UNL A   1      44.063  23.556  28.880  1.00  0.00     0.010 A 
ATOM     38  C   UNL A   1      44.248  25.313  29.102  1.00  0.00    -0.014 A 
BRANCH  38  39
ATOM     39  C   UNL A   1      45.942  25.776  29.808  1.00  0.00     0.031 A 
ATOM     40  C   UNL A   1      47.632  25.751  28.905  1.00  0.00     0.074 A 
ATOM     41  C   UNL A   1      46.101  26.462  30.963  1.00  0.00     0.049 A 
ATOM     42  N   UNL A   1      48.677  24.983  29.165  1.00  0.00    -0.248 NA
ATOM     43  C   UNL A   1      47.970  26.205  27.336  1.00  0.00     0.031 C 
ATOM     44  C   UNL A   1      47.285  27.225  31.399  1.00  0.00     0.029 A 
ATOM     45  N   UNL A   1      45.190  26.717  31.977  1.00  0.00    -0.354 N 
ATOM     46  C   UNL A   1      49.560  25.054  28.038  1.00  0.00     0.074 A 
ATOM     47  C   UNL A   1      48.796  25.286  26.883  1.00  0.00     0.031 C 
ATOM     48  C   UNL A   1      47.142  27.556  32.699  1.00  0.00     0.029 A 
ATOM     49  C   UNL A   1      45.924  26.912  33.160  1.00  0.00     0.049 A 
ATOM     50  H   UNL A   1      44.210  26.754  31.885  1.00  0.00     0.167 HD
ATOM     51  C   UNL A   1      50.825  25.577  28.110  1.00  0.00     0.031 A 
ATOM     52  C   UNL A   1      45.830  25.931  34.097  1.00  0.00     0.031 A 
ATOM     53  C   UNL A   1      51.031  25.961  29.485  1.00  0.00     0.049 A 
ATOM     54  C   UNL A   1      47.118  25.134  34.081  1.00  0.00     0.074 A 
ATOM     55  C   UNL A   1      50.936  27.163  30.161  1.00  0.00     0.029 A 
ATOM     56  N   UNL A   1      50.808  24.967  30.413  1.00  0.00    -0.354 N 
ATOM     57  N   UNL A   1      47.956  25.111  33.074  1.00  0.00    -0.248 NA
ATOM     58  C   UNL A   1      47.646  24.448  35.253  1.00  0.00     0.031 C 
ATOM     59  C   UNL A   1      50.600  26.853  31.521  1.00  0.00     0.029 A 
ATOM     60  C   UNL A   1      50.486  25.476  31.649  1.00  0.00     0.049 A 
ATOM     61  H   UNL A   1      50.870  24.004  30.214  1.00  0.00     0.167 HD
ATOM     62  C   UNL A   1      49.130  24.545  33.462  1.00  0.00     0.074 A 
ATOM     63  C   UNL A   1      48.874  24.109  34.823  1.00  0.00     0.031 C 
ATOM     64  C   UNL A   1      50.267  24.501  32.708  1.00  0.00     0.031 A 
BRANCH  51  65
ATOM     65  C   UNL A   1      51.644  26.072  26.904  1.00  0.00    -0.014 A 
ATOM     66  C   UNL A   1      51.627  27.438  26.584  1.00  0.00     0.009 A 
ATOM     67  C   UNL A   1      52.466  25.278  26.060  1.00  0.00     0.009 A 
ATOM     68  C   UNL A   1      52.347  27.972  25.498  1.00  0.00     0.001 A 
ATOM     69  C   UNL A   1      53.142  25.792  24.937  1.00  0.00     0.001 A 
ATOM     70  C   UNL A   1      53.094  27.149  24.665  1.00  0.00     0.000 A 
ENDBRANCH  51  65
BRANCH  52  71
ATOM     71  C   UNL A   1      44.398  25.479  34.199  1.00  0.00    -0.014 A 
ATOM     72  C   UNL A   1      44.166  24.083  34.050  1.00  0.00     0.009 A 
ATOM     73  C   UNL A   1      43.429  26.227  34.889  1.00  0.00     0.009 A 
ATOM     74  C   UNL A   1      43.049  23.459  34.616  1.00  0.00     0.001 A 
ATOM     75  C   UNL A   1      42.303  25.597  35.444  1.00  0.00     0.001 A 
ATOM     76  C   UNL A   1      42.107  24.224  35.291  1.00  0.00     0.000 A 
ENDBRANCH  52  71
BRANCH  64  77
ATOM     77  C   UNL A   1      51.318  23.424  32.881  1.00  0.00    -0.014 A 
ATOM     78  C   UNL A   1      51.025  22.061  32.812  1.00  0.00     0.009 A 
ATOM     79  C   UNL A   1      52.690  23.773  32.918  1.00  0.00     0.009 A 
ATOM     80  C   UNL A   1      52.035  21.100  32.888  1.00  0.00     0.001 A 
ATOM     81  C   UNL A   1      53.704  22.823  32.865  1.00  0.00     0.001 A 
ATOM     82  C   UNL A   1      53.372  21.481  32.897  1.00  0.00     0.000 A 
ENDBRANCH  64  77
ENDBRANCH  38  39
ENDBRANCH  31  33
ENDBRANCH  30  31
ENDBRANCH  29  30
ENDBRANCH  28  29
ENDBRANCH  27  28
ENDBRANCH  26  27
ENDBRANCH   1  26
TORSDOF 20
ENDMDL
MODEL 3
REMARK VINA RESULT:     -11.4      2.923      5.970
REMARK SMILES Cc1ccc(Nc2c(C)cccc2Cl)c(CC(=O)OCCOCCOCCOC(=O)c2ccc(-c3c4nc(c(-c5ccccc5)c5ccc([nH]5)c(-c5ccccc5)c5nc(c(-c6ccccc6)c6ccc3[nH]6)C=C5)C=C4)cc2)c1
REMARK SMILES IDX 23 1 22 2 21 3 20 4 19 5 17 6 18 7 16 8 15 9 1 10 2 11 3 12
REMARK SMILES IDX 79 13 4 14 5 15 6 16 7 18 8 19 13 20 9 21 10 22 12 23 14 24
REMARK SMILES IDX 11 25 24 26 25 27 26 28 27 29 28 30 29 31 30 32 31 33 32 34
REMARK SMILES IDX 78 35 33 36 77 37 34 38 35 39 36 40 71 41 37 42 76 43 70 44
REMARK SMILES IDX 72 45 38 46 75 47 69 48 68 49 39 51 61 52 46 53 60 54 47 55
REMARK SMILES IDX 50 56 59 57 73 58 48 59 49 60 58 62 74 63 51 64 40 65 41 66
REMARK SMILES IDX 45 67 42 68 44 69 43 70 62 71 63 72 67 73 64 74 66 75 65 76
REMARK SMILES IDX 52 77 53 78 57 79 54 80 56 81 55 82
REMARK H PARENT 6 17 72 50 50 61
REMARK Flexibility Score: inf
ROOT
ATOM      1  C   UNL A   1      32.509  22.863  25.017  1.00  0.00     0.188 C 
ENDROOT
BRANCH   1   2
ATOM      2  O   UNL A   1      31.313  22.981  24.285  1.00  0.00    -0.376 OA
BRANCH   2   3
ATOM      3  C   UNL A   1      31.142  23.974  23.295  1.00  0.00     0.202 C 
BRANCH   3   4
ATOM      4  C   UNL A   1      32.160  24.956  22.475  1.00  0.00     0.261 C 
BRANCH   4   5
ATOM      5  O   UNL A   1      32.531  26.729  22.333  1.00  0.00    -0.463 OA
BRANCH   5   6
ATOM      6  C   UNL A   1      32.563  28.178  23.117  1.00  0.00     0.310 C 
ATOM      7  O   UNL A   1      31.995  29.269  22.957  1.00  0.00    -0.252 OA
BRANCH   6   8
ATOM      8  C   UNL A   1      33.137  28.090  24.417  1.00  0.00     0.160 C 
BRANCH   8   9
ATOM      9  C   UNL A   1      32.044  28.654  25.243  1.00  0.00    -0.013 A 
ATOM     10  C   UNL A   1      29.736  25.639  25.885  1.00  0.00     0.044 C 
ATOM     11  C   UNL A   1      30.593  26.836  26.128  1.00  0.00    -0.051 A 
ATOM     12  C   UNL A   1      31.082  27.172  27.362  1.00  0.00     0.005 A 
ATOM     13  C   UNL A   1      31.034  27.606  25.080  1.00  0.00     0.009 A 
ATOM     14  C   UNL A   1      31.963  28.280  27.498  1.00  0.00     0.026 A 
ATOM     15  C   UNL A   1      32.421  29.370  26.408  1.00  0.00     0.042 A 
BRANCH  15  16
ATOM     16  N   UNL A   1      32.943  31.270  26.868  1.00  0.00    -0.354 N 
ATOM     17  H   UNL A   1      32.373  31.955  26.450  1.00  0.00     0.167 HD
BRANCH  16  18
ATOM     18  C   UNL A   1      34.291  31.955  27.927  1.00  0.00     0.060 A 
ATOM     19  C   UNL A   1      34.358  33.440  28.505  1.00  0.00    -0.026 A 
ATOM     20  C   UNL A   1      35.547  31.298  27.933  1.00  0.00     0.064 A 
ATOM     21  C   UNL A   1      33.382  34.651  28.697  1.00  0.00     0.046 C 
ATOM     22  C   UNL A   1      35.610  34.003  28.886  1.00  0.00     0.005 A 
ATOM     23  C   UNL A   1      36.741  31.995  28.303  1.00  0.00     0.023 A 
ATOM     24  Cl  UNL A   1      35.859  29.657  27.653  1.00  0.00    -0.082 Cl
ATOM     25  C   UNL A   1      36.785  33.317  28.733  1.00  0.00     0.002 A 
ENDBRANCH  16  18
ENDBRANCH  15  16
ENDBRANCH   8   9
ENDBRANCH   6   8
ENDBRANCH   5   6
ENDBRANCH   4   5
ENDBRANCH   3   4
ENDBRANCH   2   3
ENDBRANCH   1   2
BRANCH   1  26
ATOM     26  C   UNL A   1      32.764  23.744  26.229  1.00  0.00     0.188 C 
BRANCH  26  27
ATOM     27  O   UNL A   1      33.437  24.947  25.946  1.00  0.00    -0.376 OA
BRANCH  27  28
ATOM     28  C   UNL A   1      34.666  24.783  25.242  1.00  0.00     0.202 C 
BRANCH  28  29
ATOM     29  C   UNL A   1      34.825  23.578  24.220  1.00  0.00     0.261 C 
BRANCH  29  30
ATOM     30  O   UNL A   1      36.098  22.812  24.301  1.00  0.00    -0.460 OA
BRANCH  30  31
ATOM     31  C   UNL A   1      36.602  22.177  25.465  1.00  0.00     0.338 C 
ATOM     32  O   UNL A   1      35.790  21.808  26.290  1.00  0.00    -0.246 OA
BRANCH  31  33
ATOM     33  C   UNL A   1      38.325  22.104  25.465  1.00  0.00     0.060 A 
ATOM     34  C   UNL A   1      39.846  21.305  26.437  1.00  0.00     0.016 A 
ATOM     35  C   UNL A   1      38.293  23.907  25.562  1.00  0.00     0.016 A 
ATOM     36  C   UNL A   1      40.886  22.434  27.552  1.00  0.00     0.010 A 
ATOM     37  C   UNL A   1      39.269  24.786  26.689  1.00  0.00     0.010 A 
ATOM     38  C   UNL A   1      40.584  24.223  27.749  1.00  0.00    -0.014 A 
BRANCH  38  39
ATOM     39  C   UNL A   1      41.521  25.654  28.559  1.00  0.00     0.031 A 
ATOM     40  C   UNL A   1      40.781  27.201  29.414  1.00  0.00     0.074 A 
ATOM     41  C   UNL A   1      42.833  25.593  28.879  1.00  0.00     0.049 A 
ATOM     42  N   UNL A   1      40.887  28.464  29.033  1.00  0.00    -0.248 NA
ATOM     43  C   UNL A   1      39.442  27.292  30.403  1.00  0.00     0.031 C 
ATOM     44  C   UNL A   1      43.561  26.430  29.851  1.00  0.00     0.029 A 
ATOM     45  N   UNL A   1      43.805  24.690  28.475  1.00  0.00    -0.354 N 
ATOM     46  C   UNL A   1      39.899  29.217  29.749  1.00  0.00     0.074 A 
ATOM     47  C   UNL A   1      38.807  28.380  30.023  1.00  0.00     0.031 C 
ATOM     48  C   UNL A   1      44.886  26.224  29.706  1.00  0.00     0.029 A 
ATOM     49  C   UNL A   1      45.047  25.344  28.560  1.00  0.00     0.049 A 
ATOM     50  H   UNL A   1      43.653  23.762  28.183  1.00  0.00     0.167 HD
ATOM     51  C   UNL A   1      40.217  30.205  30.646  1.00  0.00     0.031 A 
ATOM     52  C   UNL A   1      45.649  25.651  27.380  1.00  0.00     0.031 A 
ATOM     53  C   UNL A   1      41.655  30.306  30.651  1.00  0.00     0.049 A 
ATOM     54  C   UNL A   1      45.502  27.140  27.144  1.00  0.00     0.074 A 
ATOM     55  C   UNL A   1      42.641  29.802  31.478  1.00  0.00     0.029 A 
ATOM     56  N   UNL A   1      42.236  30.497  29.415  1.00  0.00    -0.354 N 
ATOM     57  N   UNL A   1      44.598  27.890  27.725  1.00  0.00    -0.248 NA
ATOM     58  C   UNL A   1      46.462  27.925  26.379  1.00  0.00     0.031 C 
ATOM     59  C   UNL A   1      43.823  29.654  30.679  1.00  0.00     0.029 A 
ATOM     60  C   UNL A   1      43.538  30.057  29.383  1.00  0.00     0.049 A 
ATOM     61  H   UNL A   1      41.772  30.900  28.646  1.00  0.00     0.167 HD
ATOM     62  C   UNL A   1      44.894  29.204  27.532  1.00  0.00     0.074 A 
ATOM     63  C   UNL A   1      46.047  29.175  26.650  1.00  0.00     0.031 C 
ATOM     64  C   UNL A   1      44.249  30.249  28.127  1.00  0.00     0.031 A 
BRANCH  51  65
ATOM     65  C   UNL A   1      39.271  30.741  31.737  1.00  0.00    -0.014 A 
ATOM     66  C   UNL A   1      39.403  30.258  33.048  1.00  0.00     0.009 A 
ATOM     67  C   UNL A   1      38.260  31.724  31.568  1.00  0.00     0.009 A 
ATOM     68  C   UNL A   1      38.579  30.695  34.103  1.00  0.00     0.001 A 
ATOM     69  C   UNL A   1      37.393  32.124  32.603  1.00  0.00     0.001 A 
ATOM     70  C   UNL A   1      37.565  31.618  33.880  1.00  0.00     0.000 A 
ENDBRANCH  51  65
BRANCH  52  71
ATOM     71  C   UNL A   1      45.506  24.489  26.435  1.00  0.00    -0.014 A 
ATOM     72  C   UNL A   1      45.984  24.692  25.110  1.00  0.00     0.009 A 
ATOM     73  C   UNL A   1      45.410  23.164  26.893  1.00  0.00     0.009 A 
ATOM     74  C   UNL A   1      46.402  23.625  24.307  1.00  0.00     0.001 A 
ATOM     75  C   UNL A   1      45.819  22.095  26.077  1.00  0.00     0.001 A 
ATOM     76  C   UNL A   1      46.294  22.325  24.787  1.00  0.00     0.000 A 
ENDBRANCH  52  71
BRANCH  64  77
ATOM     77  C   UNL A   1      44.183  31.626  27.501  1.00  0.00    -0.014 A 
ATOM     78  C   UNL A   1      43.923  31.832  26.145  1.00  0.00     0.009 A 
ATOM     79  C   UNL A   1      44.182  32.779  28.325  1.00  0.00     0.009 A 
ATOM     80  C   UNL A   1      43.781  33.120  25.623  1.00  0.00     0.001 A 
ATOM     81  C   UNL A   1      43.915  34.051  27.830  1.00  0.00     0.001 A 
ATOM     82  C   UNL A   1      43.760  34.224  26.467  1.00  0.00     0.000 A 
ENDBRANCH  64  77
ENDBRANCH  38  39
ENDBRANCH  31  33
ENDBRANCH  30  31
ENDBRANCH  29  30
ENDBRANCH  28  29
ENDBRANCH  27  28
ENDBRANCH  26  27
ENDBRANCH   1  26
TORSDOF 20
ENDMDL
