MODEL 1
REMARK VINA RESULT:      -9.9      0.000      0.000
REMARK SMILES NC(=O)c1ccc(NC(=O)Cc2ccccc2C(=O)OCCOCCOCCOC(=O)c2ccc(-c3c4nc(c(-c5ccccc5)c5ccc([nH]5)c(-c5ccccc5)c5nc(c(-c6ccccc6)c6ccc3[nH]6)C=C5)C=C4)cc2)cc1
REMARK SMILES IDX 24 1 23 2 22 3 21 4 20 5 18 6 19 7 17 8 12 9 13 10 14 11
REMARK SMILES IDX 16 12 15 13 11 14 9 15 8 16 10 18 7 19 4 20 5 21 81 22 6 23
REMARK SMILES IDX 80 24 2 25 1 26 3 29 25 30 26 31 27 32 28 33 29 34 30 35
REMARK SMILES IDX 31 36 32 37 33 38 79 39 34 40 78 41 35 42 36 43 37 44 72 45
REMARK SMILES IDX 38 46 77 47 71 48 73 49 39 50 76 51 70 52 69 53 40 55 62 56
REMARK SMILES IDX 47 57 61 58 48 59 51 60 60 61 74 62 49 63 50 64 59 66 75 67
REMARK SMILES IDX 52 68 41 69 42 70 46 71 43 72 45 73 44 74 63 75 64 76 68 77
REMARK SMILES IDX 65 78 67 79 66 80 53 81 54 82 58 83 55 84 57 85 56 86
REMARK H PARENT 8 17 1 27 1 28 73 54 51 65
REMARK Flexibility Score: inf
ROOT
ATOM      1  C   UNL A   1      39.620  21.536  26.282  1.00  0.00     0.188 C 
ENDROOT
BRANCH   1   2
ATOM      2  O   UNL A   1      38.302  21.503  25.764  1.00  0.00    -0.376 OA
BRANCH   2   3
ATOM      3  C   UNL A   1      37.496  22.607  26.120  1.00  0.00     0.202 C 
BRANCH   3   4
ATOM      4  C   UNL A   1      36.505  23.114  25.074  1.00  0.00     0.261 C 
BRANCH   4   5
ATOM      5  O   UNL A   1      35.805  24.356  25.295  1.00  0.00    -0.460 OA
BRANCH   5   6
ATOM      6  C   UNL A   1      34.640  24.655  24.681  1.00  0.00     0.338 C 
ATOM      7  O   UNL A   1      34.236  24.120  23.662  1.00  0.00    -0.246 OA
BRANCH   6   8
ATOM      8  C   UNL A   1      33.855  25.651  25.489  1.00  0.00     0.063 A 
ATOM      9  C   UNL A   1      32.828  25.342  26.416  1.00  0.00    -0.024 A 
ATOM     10  C   UNL A   1      32.147  26.415  27.040  1.00  0.00     0.005 A 
ATOM     11  C   UNL A   1      32.475  27.747  26.779  1.00  0.00     0.000 A 
ATOM     12  C   UNL A   1      34.181  27.003  25.250  1.00  0.00     0.016 A 
ATOM     13  C   UNL A   1      33.496  28.042  25.888  1.00  0.00     0.001 A 
BRANCH   9  14
ATOM     14  C   UNL A   1      32.362  23.944  26.788  1.00  0.00     0.136 C 
BRANCH  14  15
ATOM     15  C   UNL A   1      30.865  23.704  26.638  1.00  0.00     0.228 C 
ATOM     16  N   UNL A   1      30.184  23.904  25.467  1.00  0.00    -0.326 N 
ATOM     17  H   UNL A   1      29.240  23.624  25.501  1.00  0.00     0.169 HD
ATOM     18  O   UNL A   1      30.221  23.252  27.593  1.00  0.00    -0.274 OA
BRANCH  16  19
ATOM     19  C   UNL A   1      30.576  24.430  24.229  1.00  0.00     0.041 A 
ATOM     20  C   UNL A   1      31.800  25.388  21.906  1.00  0.00     0.039 A 
ATOM     21  C   UNL A   1      31.163  26.270  22.768  1.00  0.00     0.016 A 
ATOM     22  C   UNL A   1      31.675  24.016  22.101  1.00  0.00     0.016 A 
ATOM     23  C   UNL A   1      30.545  25.784  23.929  1.00  0.00     0.027 A 
ATOM     24  C   UNL A   1      31.029  23.540  23.250  1.00  0.00     0.027 A 
BRANCH  20  25
ATOM     25  C   UNL A   1      32.727  25.922  20.894  1.00  0.00     0.248 C 
ATOM     26  N   UNL A   1      32.492  25.553  19.605  1.00  0.00    -0.366 N 
ATOM     27  H   UNL A   1      33.079  25.880  18.885  1.00  0.00     0.159 HD
ATOM     28  H   UNL A   1      31.737  24.960  19.393  1.00  0.00     0.159 HD
ATOM     29  O   UNL A   1      33.645  26.665  21.209  1.00  0.00    -0.270 OA
ENDBRANCH  20  25
ENDBRANCH  16  19
ENDBRANCH  14  15
ENDBRANCH   9  14
ENDBRANCH   6   8
ENDBRANCH   5   6
ENDBRANCH   4   5
ENDBRANCH   3   4
ENDBRANCH   2   3
ENDBRANCH   1   2
BRANCH   1  30
ATOM     30  C   UNL A   1      40.402  20.220  26.063  1.00  0.00     0.188 C 
BRANCH  30  31
ATOM     31  O   UNL A   1      41.501  19.907  26.903  1.00  0.00    -0.376 OA
BRANCH  31  32
ATOM     32  C   UNL A   1      42.786  19.775  26.310  1.00  0.00     0.202 C 
BRANCH  32  33
ATOM     33  C   UNL A   1      43.453  20.981  25.613  1.00  0.00     0.261 C 
BRANCH  33  34
ATOM     34  O   UNL A   1      43.617  22.179  26.401  1.00  0.00    -0.460 OA
BRANCH  34  35
ATOM     35  C   UNL A   1      43.675  23.355  25.713  1.00  0.00     0.338 C 
ATOM     36  O   UNL A   1      44.032  23.512  24.567  1.00  0.00    -0.246 OA
BRANCH  35  37
ATOM     37  C   UNL A   1      42.998  24.427  26.499  1.00  0.00     0.060 A 
ATOM     38  C   UNL A   1      43.535  25.728  26.468  1.00  0.00     0.016 A 
ATOM     39  C   UNL A   1      41.854  24.168  27.252  1.00  0.00     0.016 A 
ATOM     40  C   UNL A   1      42.948  26.762  27.201  1.00  0.00     0.010 A 
ATOM     41  C   UNL A   1      41.293  25.196  28.025  1.00  0.00     0.010 A 
ATOM     42  C   UNL A   1      41.856  26.488  28.030  1.00  0.00    -0.014 A 
BRANCH  42  43
ATOM     43  C   UNL A   1      41.473  27.460  29.088  1.00  0.00     0.031 A 
ATOM     44  C   UNL A   1      42.267  27.453  30.369  1.00  0.00     0.074 A 
ATOM     45  C   UNL A   1      40.468  28.340  28.934  1.00  0.00     0.049 A 
ATOM     46  N   UNL A   1      42.084  28.136  31.469  1.00  0.00    -0.248 NA
ATOM     47  C   UNL A   1      43.426  26.546  30.409  1.00  0.00     0.031 C 
ATOM     48  C   UNL A   1      39.663  28.513  27.729  1.00  0.00     0.029 A 
ATOM     49  N   UNL A   1      39.950  29.254  29.821  1.00  0.00    -0.354 N 
ATOM     50  C   UNL A   1      43.089  27.726  32.337  1.00  0.00     0.074 A 
ATOM     51  C   UNL A   1      43.862  26.718  31.646  1.00  0.00     0.031 C 
ATOM     52  C   UNL A   1      38.739  29.465  27.956  1.00  0.00     0.029 A 
ATOM     53  C   UNL A   1      38.863  29.939  29.335  1.00  0.00     0.049 A 
ATOM     54  H   UNL A   1      40.323  29.404  30.720  1.00  0.00     0.167 HD
ATOM     55  C   UNL A   1      43.351  28.149  33.596  1.00  0.00     0.031 A 
ATOM     56  C   UNL A   1      38.046  30.823  29.942  1.00  0.00     0.031 A 
ATOM     57  C   UNL A   1      42.576  29.136  34.298  1.00  0.00     0.049 A 
ATOM     58  C   UNL A   1      38.292  31.203  31.382  1.00  0.00     0.074 A 
ATOM     59  C   UNL A   1      42.768  29.633  35.575  1.00  0.00     0.029 A 
ATOM     60  N   UNL A   1      41.453  29.766  33.787  1.00  0.00    -0.354 N 
ATOM     61  N   UNL A   1      39.251  30.820  32.190  1.00  0.00    -0.248 NA
ATOM     62  C   UNL A   1      37.339  32.144  31.991  1.00  0.00     0.031 C 
ATOM     63  C   UNL A   1      41.721  30.516  35.861  1.00  0.00     0.029 A 
ATOM     64  C   UNL A   1      40.922  30.624  34.734  1.00  0.00     0.049 A 
ATOM     65  H   UNL A   1      41.088  29.625  32.883  1.00  0.00     0.167 HD
ATOM     66  C   UNL A   1      39.038  31.498  33.386  1.00  0.00     0.074 A 
ATOM     67  C   UNL A   1      37.866  32.326  33.194  1.00  0.00     0.031 C 
ATOM     68  C   UNL A   1      39.754  31.444  34.536  1.00  0.00     0.031 A 
BRANCH  55  69
ATOM     69  C   UNL A   1      44.502  27.496  34.314  1.00  0.00    -0.014 A 
ATOM     70  C   UNL A   1      45.798  28.036  34.266  1.00  0.00     0.009 A 
ATOM     71  C   UNL A   1      44.281  26.327  35.058  1.00  0.00     0.009 A 
ATOM     72  C   UNL A   1      46.856  27.392  34.913  1.00  0.00     0.001 A 
ATOM     73  C   UNL A   1      45.333  25.706  35.733  1.00  0.00     0.001 A 
ATOM     74  C   UNL A   1      46.621  26.231  35.649  1.00  0.00     0.000 A 
ENDBRANCH  55  69
BRANCH  56  75
ATOM     75  C   UNL A   1      36.891  31.405  29.204  1.00  0.00    -0.014 A 
ATOM     76  C   UNL A   1      35.729  30.650  28.980  1.00  0.00     0.009 A 
ATOM     77  C   UNL A   1      36.957  32.710  28.690  1.00  0.00     0.009 A 
ATOM     78  C   UNL A   1      34.668  31.180  28.242  1.00  0.00     0.001 A 
ATOM     79  C   UNL A   1      35.883  33.250  27.979  1.00  0.00     0.001 A 
ATOM     80  C   UNL A   1      34.744  32.481  27.747  1.00  0.00     0.000 A 
ENDBRANCH  56  75
BRANCH  68  81
ATOM     81  C   UNL A   1      39.324  32.338  35.669  1.00  0.00    -0.014 A 
ATOM     82  C   UNL A   1      39.837  33.636  35.820  1.00  0.00     0.009 A 
ATOM     83  C   UNL A   1      38.347  31.889  36.573  1.00  0.00     0.009 A 
ATOM     84  C   UNL A   1      39.408  34.449  36.872  1.00  0.00     0.001 A 
ATOM     85  C   UNL A   1      37.895  32.715  37.603  1.00  0.00     0.001 A 
ATOM     86  C   UNL A   1      38.433  33.991  37.758  1.00  0.00     0.000 A 
ENDBRANCH  68  81
ENDBRANCH  42  43
ENDBRANCH  35  37
ENDBRANCH  34  35
ENDBRANCH  33  34
ENDBRANCH  32  33
ENDBRANCH  31  32
ENDBRANCH  30  31
ENDBRANCH   1  30
TORSDOF 21
ENDMDL
MODEL 2
REMARK VINA RESULT:      -9.9      1.278      2.663
REMARK SMILES NC(=O)c1ccc(NC(=O)Cc2ccccc2C(=O)OCCOCCOCCOC(=O)c2ccc(-c3c4nc(c(-c5ccccc5)c5ccc([nH]5)c(-c5ccccc5)c5nc(c(-c6ccccc6)c6ccc3[nH]6)C=C5)C=C4)cc2)cc1
REMARK SMILES IDX 24 1 23 2 22 3 21 4 20 5 18 6 19 7 17 8 12 9 13 10 14 11
REMARK SMILES IDX 16 12 15 13 11 14 9 15 8 16 10 18 7 19 4 20 5 21 81 22 6 23
REMARK SMILES IDX 80 24 2 25 1 26 3 29 25 30 26 31 27 32 28 33 29 34 30 35
REMARK SMILES IDX 31 36 32 37 33 38 79 39 34 40 78 41 35 42 36 43 37 44 72 45
REMARK SMILES IDX 38 46 77 47 71 48 73 49 39 50 76 51 70 52 69 53 40 55 62 56
REMARK SMILES IDX 47 57 61 58 48 59 51 60 60 61 74 62 49 63 50 64 59 66 75 67
REMARK SMILES IDX 52 68 41 69 42 70 46 71 43 72 45 73 44 74 63 75 64 76 68 77
REMARK SMILES IDX 65 78 67 79 66 80 53 81 54 82 58 83 55 84 57 85 56 86
REMARK H PARENT 8 17 1 27 1 28 73 54 51 65
REMARK Flexibility Score: inf
ROOT
ATOM      1  C   UNL A   1      39.286  21.764  26.220  1.00  0.00     0.188 C 
ENDROOT
BRANCH   1   2
ATOM      2  O   UNL A   1      38.338  22.011  25.197  1.00  0.00    -0.376 OA
BRANCH   2   3
ATOM      3  C   UNL A   1      37.015  22.208  25.648  1.00  0.00     0.202 C 
BRANCH   3   4
ATOM      4  C   UNL A   1      36.451  23.625  25.561  1.00  0.00     0.261 C 
BRANCH   4   5
ATOM      5  O   UNL A   1      35.136  23.905  26.088  1.00  0.00    -0.460 OA
BRANCH   5   6
ATOM      6  C   UNL A   1      34.346  24.880  25.591  1.00  0.00     0.338 C 
ATOM      7  O   UNL A   1      34.624  26.068  25.594  1.00  0.00    -0.246 OA
BRANCH   6   8
ATOM      8  C   UNL A   1      33.132  24.291  24.925  1.00  0.00     0.063 A 
ATOM      9  C   UNL A   1      32.855  24.315  23.536  1.00  0.00    -0.024 A 
ATOM     10  C   UNL A   1      31.626  23.768  23.091  1.00  0.00     0.005 A 
ATOM     11  C   UNL A   1      30.710  23.199  23.978  1.00  0.00     0.000 A 
ATOM     12  C   UNL A   1      32.200  23.698  25.803  1.00  0.00     0.016 A 
ATOM     13  C   UNL A   1      30.998  23.159  25.334  1.00  0.00     0.001 A 
BRANCH   9  14
ATOM     14  C   UNL A   1      33.753  24.908  22.463  1.00  0.00     0.136 C 
BRANCH  14  15
ATOM     15  C   UNL A   1      33.036  25.758  21.422  1.00  0.00     0.228 C 
ATOM     16  N   UNL A   1      32.334  26.892  21.730  1.00  0.00    -0.326 N 
ATOM     17  H   UNL A   1      32.000  27.381  20.942  1.00  0.00     0.169 HD
ATOM     18  O   UNL A   1      33.125  25.459  20.224  1.00  0.00    -0.274 OA
BRANCH  16  19
ATOM     19  C   UNL A   1      32.001  27.490  22.953  1.00  0.00     0.041 A 
ATOM     20  C   UNL A   1      31.677  28.403  25.574  1.00  0.00     0.039 A 
ATOM     21  C   UNL A   1      30.677  27.650  24.973  1.00  0.00     0.016 A 
ATOM     22  C   UNL A   1      32.754  28.855  24.818  1.00  0.00     0.016 A 
ATOM     23  C   UNL A   1      30.842  27.200  23.657  1.00  0.00     0.027 A 
ATOM     24  C   UNL A   1      32.893  28.422  23.492  1.00  0.00     0.027 A 
BRANCH  20  25
ATOM     25  C   UNL A   1      31.660  28.576  27.037  1.00  0.00     0.248 C 
ATOM     26  N   UNL A   1      32.158  29.750  27.513  1.00  0.00    -0.366 N 
ATOM     27  H   UNL A   1      32.172  29.922  28.481  1.00  0.00     0.159 HD
ATOM     28  H   UNL A   1      32.504  30.426  26.887  1.00  0.00     0.159 HD
ATOM     29  O   UNL A   1      31.209  27.708  27.770  1.00  0.00    -0.270 OA
ENDBRANCH  20  25
ENDBRANCH  16  19
ENDBRANCH  14  15
ENDBRANCH   9  14
ENDBRANCH   6   8
ENDBRANCH   5   6
ENDBRANCH   4   5
ENDBRANCH   3   4
ENDBRANCH   2   3
ENDBRANCH   1   2
BRANCH   1  30
ATOM     30  C   UNL A   1      39.939  20.365  26.131  1.00  0.00     0.188 C 
BRANCH  30  31
ATOM     31  O   UNL A   1      40.892  19.970  27.105  1.00  0.00    -0.376 OA
BRANCH  31  32
ATOM     32  C   UNL A   1      42.239  19.783  26.694  1.00  0.00     0.202 C 
BRANCH  32  33
ATOM     33  C   UNL A   1      42.996  20.912  25.961  1.00  0.00     0.261 C 
BRANCH  33  34
ATOM     34  O   UNL A   1      43.134  22.166  26.662  1.00  0.00    -0.460 OA
BRANCH  34  35
ATOM     35  C   UNL A   1      43.150  23.293  25.895  1.00  0.00     0.338 C 
ATOM     36  O   UNL A   1      43.405  23.367  24.713  1.00  0.00    -0.246 OA
BRANCH  35  37
ATOM     37  C   UNL A   1      42.565  24.429  26.664  1.00  0.00     0.060 A 
ATOM     38  C   UNL A   1      43.117  25.713  26.496  1.00  0.00     0.016 A 
ATOM     39  C   UNL A   1      41.492  24.246  27.534  1.00  0.00     0.016 A 
ATOM     40  C   UNL A   1      42.616  26.806  27.208  1.00  0.00     0.010 A 
ATOM     41  C   UNL A   1      41.020  25.334  28.284  1.00  0.00     0.010 A 
ATOM     42  C   UNL A   1      41.602  26.611  28.150  1.00  0.00    -0.014 A 
BRANCH  42  43
ATOM     43  C   UNL A   1      41.333  27.660  29.169  1.00  0.00     0.031 A 
ATOM     44  C   UNL A   1      42.206  27.685  30.397  1.00  0.00     0.074 A 
ATOM     45  C   UNL A   1      40.363  28.580  29.025  1.00  0.00     0.049 A 
ATOM     46  N   UNL A   1      42.125  28.437  31.464  1.00  0.00    -0.248 NA
ATOM     47  C   UNL A   1      43.321  26.723  30.420  1.00  0.00     0.031 C 
ATOM     48  C   UNL A   1      39.491  28.725  27.863  1.00  0.00     0.029 A 
ATOM     49  N   UNL A   1      39.946  29.567  29.886  1.00  0.00    -0.354 N 
ATOM     50  C   UNL A   1      43.163  28.026  32.292  1.00  0.00     0.074 A 
ATOM     51  C   UNL A   1      43.843  26.943  31.616  1.00  0.00     0.031 C 
ATOM     52  C   UNL A   1      38.629  29.733  28.089  1.00  0.00     0.029 A 
ATOM     53  C   UNL A   1      38.863  30.277  29.428  1.00  0.00     0.049 A 
ATOM     54  H   UNL A   1      40.382  29.748  30.750  1.00  0.00     0.167 HD
ATOM     55  C   UNL A   1      43.525  28.505  33.506  1.00  0.00     0.031 A 
ATOM     56  C   UNL A   1      38.129  31.234  30.030  1.00  0.00     0.031 A 
ATOM     57  C   UNL A   1      42.844  29.568  34.194  1.00  0.00     0.049 A 
ATOM     58  C   UNL A   1      38.484  31.681  31.427  1.00  0.00     0.074 A 
ATOM     59  C   UNL A   1      43.140  30.126  35.425  1.00  0.00     0.029 A 
ATOM     60  N   UNL A   1      41.721  30.224  33.715  1.00  0.00    -0.354 N 
ATOM     61  N   UNL A   1      39.474  31.297  32.196  1.00  0.00    -0.248 NA
ATOM     62  C   UNL A   1      37.617  32.703  32.036  1.00  0.00     0.031 C 
ATOM     63  C   UNL A   1      42.156  31.075  35.721  1.00  0.00     0.029 A 
ATOM     64  C   UNL A   1      41.292  31.160  34.641  1.00  0.00     0.049 A 
ATOM     65  H   UNL A   1      41.293  30.051  32.846  1.00  0.00     0.167 HD
ATOM     66  C   UNL A   1      39.370  32.051  33.360  1.00  0.00     0.074 A 
ATOM     67  C   UNL A   1      38.227  32.924  33.192  1.00  0.00     0.031 C 
ATOM     68  C   UNL A   1      40.154  32.026  34.467  1.00  0.00     0.031 A 
BRANCH  55  69
ATOM     69  C   UNL A   1      44.688  27.837  34.189  1.00  0.00    -0.014 A 
ATOM     70  C   UNL A   1      45.997  28.326  34.057  1.00  0.00     0.009 A 
ATOM     71  C   UNL A   1      44.465  26.703  34.985  1.00  0.00     0.009 A 
ATOM     72  C   UNL A   1      47.064  27.667  34.675  1.00  0.00     0.001 A 
ATOM     73  C   UNL A   1      45.527  26.068  35.630  1.00  0.00     0.001 A 
ATOM     74  C   UNL A   1      46.827  26.542  35.464  1.00  0.00     0.000 A 
ENDBRANCH  55  69
BRANCH  56  75
ATOM     75  C   UNL A   1      36.957  31.831  29.330  1.00  0.00    -0.014 A 
ATOM     76  C   UNL A   1      35.780  31.090  29.144  1.00  0.00     0.009 A 
ATOM     77  C   UNL A   1      37.023  33.136  28.817  1.00  0.00     0.009 A 
ATOM     78  C   UNL A   1      34.702  31.635  28.441  1.00  0.00     0.001 A 
ATOM     79  C   UNL A   1      35.933  33.690  28.141  1.00  0.00     0.001 A 
ATOM     80  C   UNL A   1      34.777  32.936  27.945  1.00  0.00     0.000 A 
ENDBRANCH  56  75
BRANCH  68  81
ATOM     81  C   UNL A   1      39.839  33.003  35.568  1.00  0.00    -0.014 A 
ATOM     82  C   UNL A   1      40.284  34.334  35.523  1.00  0.00     0.009 A 
ATOM     83  C   UNL A   1      39.039  32.594  36.648  1.00  0.00     0.009 A 
ATOM     84  C   UNL A   1      39.963  35.222  36.553  1.00  0.00     0.001 A 
ATOM     85  C   UNL A   1      38.692  33.492  37.658  1.00  0.00     0.001 A 
ATOM     86  C   UNL A   1      39.163  34.803  37.615  1.00  0.00     0.000 A 
ENDBRANCH  68  81
ENDBRANCH  42  43
ENDBRANCH  35  37
ENDBRANCH  34  35
ENDBRANCH  33  34
ENDBRANCH  32  33
ENDBRANCH  31  32
ENDBRANCH  30  31
ENDBRANCH   1  30
TORSDOF 21
ENDMDL
MODEL 3
REMARK VINA RESULT:      -9.8      3.188      8.230
REMARK SMILES NC(=O)c1ccc(NC(=O)Cc2ccccc2C(=O)OCCOCCOCCOC(=O)c2ccc(-c3c4nc(c(-c5ccccc5)c5ccc([nH]5)c(-c5ccccc5)c5nc(c(-c6ccccc6)c6ccc3[nH]6)C=C5)C=C4)cc2)cc1
REMARK SMILES IDX 24 1 23 2 22 3 21 4 20 5 18 6 19 7 17 8 12 9 13 10 14 11
REMARK SMILES IDX 16 12 15 13 11 14 9 15 8 16 10 18 7 19 4 20 5 21 81 22 6 23
REMARK SMILES IDX 80 24 2 25 1 26 3 29 25 30 26 31 27 32 28 33 29 34 30 35
REMARK SMILES IDX 31 36 32 37 33 38 79 39 34 40 78 41 35 42 36 43 37 44 72 45
REMARK SMILES IDX 38 46 77 47 71 48 73 49 39 50 76 51 70 52 69 53 40 55 62 56
REMARK SMILES IDX 47 57 61 58 48 59 51 60 60 61 74 62 49 63 50 64 59 66 75 67
REMARK SMILES IDX 52 68 41 69 42 70 46 71 43 72 45 73 44 74 63 75 64 76 68 77
REMARK SMILES IDX 65 78 67 79 66 80 53 81 54 82 58 83 55 84 57 85 56 86
REMARK H PARENT 8 17 1 27 1 28 73 54 51 65
REMARK Flexibility Score: inf
ROOT
ATOM      1  C   UNL A   1      34.542  30.732  27.547  1.00  0.00     0.188 C 
ENDROOT
BRANCH   1   2
ATOM      2  O   UNL A   1      33.376  30.492  26.780  1.00  0.00    -0.376 OA
BRANCH   2   3
ATOM      3  C   UNL A   1      33.450  29.374  25.920  1.00  0.00     0.202 C 
BRANCH   3   4
ATOM      4  C   UNL A   1      33.649  28.006  26.569  1.00  0.00     0.261 C 
BRANCH   4   5
ATOM      5  O   UNL A   1      33.080  26.831  25.951  1.00  0.00    -0.460 OA
BRANCH   5   6
ATOM      6  C   UNL A   1      31.912  26.289  26.356  1.00  0.00     0.338 C 
ATOM      7  O   UNL A   1      30.967  26.924  26.794  1.00  0.00    -0.246 OA
BRANCH   6   8
ATOM      8  C   UNL A   1      31.891  24.810  26.083  1.00  0.00     0.063 A 
ATOM      9  C   UNL A   1      32.918  24.070  25.447  1.00  0.00    -0.024 A 
ATOM     10  C   UNL A   1      32.699  22.690  25.211  1.00  0.00     0.005 A 
ATOM     11  C   UNL A   1      31.519  22.055  25.604  1.00  0.00     0.000 A 
ATOM     12  C   UNL A   1      30.713  24.146  26.486  1.00  0.00     0.016 A 
ATOM     13  C   UNL A   1      30.527  22.781  26.246  1.00  0.00     0.001 A 
BRANCH   9  14
ATOM     14  C   UNL A   1      34.244  24.631  24.960  1.00  0.00     0.136 C 
BRANCH  14  15
ATOM     15  C   UNL A   1      34.538  24.396  23.484  1.00  0.00     0.228 C 
ATOM     16  N   UNL A   1      33.948  25.109  22.475  1.00  0.00    -0.326 N 
ATOM     17  H   UNL A   1      34.303  24.904  21.580  1.00  0.00     0.169 HD
ATOM     18  O   UNL A   1      35.392  23.562  23.158  1.00  0.00    -0.274 OA
BRANCH  16  19
ATOM     19  C   UNL A   1      32.935  26.078  22.476  1.00  0.00     0.041 A 
ATOM     20  C   UNL A   1      31.049  28.090  22.927  1.00  0.00     0.039 A 
ATOM     21  C   UNL A   1      30.634  26.776  22.755  1.00  0.00     0.016 A 
ATOM     22  C   UNL A   1      32.377  28.433  22.697  1.00  0.00     0.016 A 
ATOM     23  C   UNL A   1      31.583  25.772  22.523  1.00  0.00     0.027 A 
ATOM     24  C   UNL A   1      33.314  27.424  22.436  1.00  0.00     0.027 A 
BRANCH  20  25
ATOM     25  C   UNL A   1      30.109  29.066  23.505  1.00  0.00     0.248 C 
ATOM     26  N   UNL A   1      30.661  30.090  24.213  1.00  0.00    -0.366 N 
ATOM     27  H   UNL A   1      30.082  30.773  24.622  1.00  0.00     0.159 HD
ATOM     28  H   UNL A   1      31.638  30.145  24.316  1.00  0.00     0.159 HD
ATOM     29  O   UNL A   1      28.903  28.957  23.338  1.00  0.00    -0.270 OA
ENDBRANCH  20  25
ENDBRANCH  16  19
ENDBRANCH  14  15
ENDBRANCH   9  14
ENDBRANCH   6   8
ENDBRANCH   5   6
ENDBRANCH   4   5
ENDBRANCH   3   4
ENDBRANCH   2   3
ENDBRANCH   1   2
BRANCH   1  30
ATOM     30  C   UNL A   1      34.411  31.938  28.506  1.00  0.00     0.188 C 
BRANCH  30  31
ATOM     31  O   UNL A   1      34.320  33.251  27.976  1.00  0.00    -0.376 OA
BRANCH  31  32
ATOM     32  C   UNL A   1      33.165  34.022  28.279  1.00  0.00     0.202 C 
BRANCH  32  33
ATOM     33  C   UNL A   1      33.221  35.122  29.362  1.00  0.00     0.261 C 
BRANCH  33  34
ATOM     34  O   UNL A   1      32.956  34.712  30.720  1.00  0.00    -0.460 OA
BRANCH  34  35
ATOM     35  C   UNL A   1      33.931  34.976  31.636  1.00  0.00     0.338 C 
ATOM     36  O   UNL A   1      33.869  35.750  32.565  1.00  0.00    -0.246 OA
BRANCH  35  37
ATOM     37  C   UNL A   1      35.036  33.985  31.488  1.00  0.00     0.060 A 
ATOM     38  C   UNL A   1      34.909  32.733  32.120  1.00  0.00     0.016 A 
ATOM     39  C   UNL A   1      36.177  34.270  30.741  1.00  0.00     0.016 A 
ATOM     40  C   UNL A   1      35.925  31.778  32.026  1.00  0.00     0.010 A 
ATOM     41  C   UNL A   1      37.216  33.329  30.685  1.00  0.00     0.010 A 
ATOM     42  C   UNL A   1      37.110  32.094  31.356  1.00  0.00    -0.014 A 
BRANCH  42  43
ATOM     43  C   UNL A   1      38.322  31.260  31.573  1.00  0.00     0.031 A 
ATOM     44  C   UNL A   1      39.224  31.621  32.725  1.00  0.00     0.074 A 
ATOM     45  C   UNL A   1      38.626  30.205  30.797  1.00  0.00     0.049 A 
ATOM     46  N   UNL A   1      40.377  31.111  33.075  1.00  0.00    -0.248 NA
ATOM     47  C   UNL A   1      38.757  32.711  33.598  1.00  0.00     0.031 C 
ATOM     48  C   UNL A   1      37.814  29.694  29.696  1.00  0.00     0.029 A 
ATOM     49  N   UNL A   1      39.722  29.377  30.821  1.00  0.00    -0.354 N 
ATOM     50  C   UNL A   1      40.781  31.830  34.193  1.00  0.00     0.074 A 
ATOM     51  C   UNL A   1      39.765  32.828  34.447  1.00  0.00     0.031 C 
ATOM     52  C   UNL A   1      38.448  28.647  29.138  1.00  0.00     0.029 A 
ATOM     53  C   UNL A   1      39.729  28.441  29.816  1.00  0.00     0.049 A 
ATOM     54  H   UNL A   1      40.437  29.448  31.495  1.00  0.00     0.167 HD
ATOM     55  C   UNL A   1      41.895  31.678  34.947  1.00  0.00     0.031 A 
ATOM     56  C   UNL A   1      40.670  27.542  29.466  1.00  0.00     0.031 A 
ATOM     57  C   UNL A   1      42.921  30.702  34.690  1.00  0.00     0.049 A 
ATOM     58  C   UNL A   1      41.954  27.458  30.255  1.00  0.00     0.074 A 
ATOM     59  C   UNL A   1      44.083  30.467  35.402  1.00  0.00     0.029 A 
ATOM     60  N   UNL A   1      42.910  29.809  33.631  1.00  0.00    -0.354 N 
ATOM     61  N   UNL A   1      42.322  28.133  31.317  1.00  0.00    -0.248 NA
ATOM     62  C   UNL A   1      42.953  26.480  29.794  1.00  0.00     0.031 C 
ATOM     63  C   UNL A   1      44.810  29.476  34.734  1.00  0.00     0.029 A 
ATOM     64  C   UNL A   1      44.063  29.042  33.651  1.00  0.00     0.049 A 
ATOM     65  H   UNL A   1      42.190  29.730  32.965  1.00  0.00     0.167 HD
ATOM     66  C   UNL A   1      43.574  27.638  31.671  1.00  0.00     0.074 A 
ATOM     67  C   UNL A   1      43.897  26.598  30.717  1.00  0.00     0.031 C 
ATOM     68  C   UNL A   1      44.378  28.009  32.698  1.00  0.00     0.031 A 
BRANCH  55  69
ATOM     69  C   UNL A   1      42.084  32.632  36.095  1.00  0.00    -0.014 A 
ATOM     70  C   UNL A   1      41.607  32.337  37.382  1.00  0.00     0.009 A 
ATOM     71  C   UNL A   1      42.760  33.844  35.884  1.00  0.00     0.009 A 
ATOM     72  C   UNL A   1      41.766  33.255  38.423  1.00  0.00     0.001 A 
ATOM     73  C   UNL A   1      42.949  34.744  36.934  1.00  0.00     0.001 A 
ATOM     74  C   UNL A   1      42.441  34.455  38.199  1.00  0.00     0.000 A 
ENDBRANCH  55  69
BRANCH  56  75
ATOM     75  C   UNL A   1      40.457  26.652  28.291  1.00  0.00    -0.014 A 
ATOM     76  C   UNL A   1      39.712  25.469  28.413  1.00  0.00     0.009 A 
ATOM     77  C   UNL A   1      41.026  26.966  27.047  1.00  0.00     0.009 A 
ATOM     78  C   UNL A   1      39.558  24.610  27.322  1.00  0.00     0.001 A 
ATOM     79  C   UNL A   1      40.845  26.122  25.948  1.00  0.00     0.001 A 
ATOM     80  C   UNL A   1      40.120  24.940  26.089  1.00  0.00     0.000 A 
ENDBRANCH  56  75
BRANCH  68  81
ATOM     81  C   UNL A   1      45.670  27.256  32.879  1.00  0.00    -0.014 A 
ATOM     82  C   UNL A   1      46.871  27.703  32.305  1.00  0.00     0.009 A 
ATOM     83  C   UNL A   1      45.693  26.105  33.683  1.00  0.00     0.009 A 
ATOM     84  C   UNL A   1      48.057  26.992  32.503  1.00  0.00     0.001 A 
ATOM     85  C   UNL A   1      46.885  25.415  33.907  1.00  0.00     0.001 A 
ATOM     86  C   UNL A   1      48.065  25.854  33.309  1.00  0.00     0.000 A 
ENDBRANCH  68  81
ENDBRANCH  42  43
ENDBRANCH  35  37
ENDBRANCH  34  35
ENDBRANCH  33  34
ENDBRANCH  32  33
ENDBRANCH  31  32
ENDBRANCH  30  31
ENDBRANCH   1  30
TORSDOF 21
ENDMDL
