MODEL 1
REMARK VINA RESULT:      -9.3      0.000      0.000
REMARK SMILES CC(C)(C)c1cc(Nc2ccccc2C(=O)OCCOCCOCCOC(=O)c2ccc(-c3c4nc(c(-c5ccccc5)c5ccc([nH]5)c(-c5ccccc5)c5nc(c(-c6ccccc6)c6ccc3[nH]6)C=C5)C=C4)cc2)cc2c1OCC2(C)C
REMARK SMILES IDX 21 1 20 2 19 3 18 4 17 5 15 6 16 7 14 8 9 9 10 10 11 11
REMARK SMILES IDX 13 12 12 13 8 14 7 16 5 17 6 18 79 19 78 20 80 21 77 22
REMARK SMILES IDX 82 23 81 24 83 25 84 26 2 27 1 28 3 29 4 30 22 31 23 32
REMARK SMILES IDX 24 33 25 34 26 35 27 36 28 37 29 38 30 39 76 40 31 41 75 42
REMARK SMILES IDX 32 43 33 44 34 45 69 46 35 47 74 48 68 49 70 50 36 51 73 52
REMARK SMILES IDX 67 53 66 54 37 56 59 57 44 58 58 59 45 60 48 61 57 62 71 63
REMARK SMILES IDX 46 64 47 65 56 67 72 68 49 69 38 70 39 71 43 72 40 73 42 74
REMARK SMILES IDX 41 75 60 76 61 77 65 78 62 79 64 80 63 81 50 82 51 83 55 84
REMARK SMILES IDX 52 85 54 86 53 87
REMARK H PARENT 8 15 70 55 48 66
REMARK Flexibility Score: inf
ROOT
ATOM      1  C   UNL A   1      44.360  19.252  24.658  1.00  0.00     0.188 C 
ENDROOT
BRANCH   1   2
ATOM      2  O   UNL A   1      44.788  20.507  25.165  1.00  0.00    -0.376 OA
BRANCH   2   3
ATOM      3  C   UNL A   1      46.027  21.058  24.741  1.00  0.00     0.202 C 
BRANCH   3   4
ATOM      4  C   UNL A   1      46.122  22.538  24.341  1.00  0.00     0.261 C 
BRANCH   4   5
ATOM      5  O   UNL A   1      45.500  23.447  25.263  1.00  0.00    -0.460 OA
BRANCH   5   6
ATOM      6  C   UNL A   1      44.293  23.930  24.877  1.00  0.00     0.340 C 
ATOM      7  O   UNL A   1      43.338  23.261  24.510  1.00  0.00    -0.246 OA
BRANCH   6   8
ATOM      8  C   UNL A   1      44.174  25.393  25.111  1.00  0.00     0.083 A 
ATOM      9  C   UNL A   1      45.247  26.263  25.376  1.00  0.00     0.053 A 
ATOM     10  C   UNL A   1      44.961  27.643  25.433  1.00  0.00     0.027 A 
ATOM     11  C   UNL A   1      43.652  28.128  25.419  1.00  0.00     0.002 A 
ATOM     12  C   UNL A   1      42.854  25.890  25.098  1.00  0.00     0.018 A 
ATOM     13  C   UNL A   1      42.592  27.243  25.295  1.00  0.00     0.001 A 
BRANCH   9  14
ATOM     14  N   UNL A   1      46.532  25.805  25.761  1.00  0.00    -0.355 N 
ATOM     15  H   UNL A   1      46.557  25.171  26.514  1.00  0.00     0.167 HD
BRANCH  14  16
ATOM     16  C   UNL A   1      47.787  26.145  25.193  1.00  0.00     0.039 A 
ATOM     17  C   UNL A   1      50.273  26.194  25.391  1.00  0.00     0.002 A 
ATOM     18  C   UNL A   1      48.975  25.959  25.931  1.00  0.00     0.034 A 
ATOM     19  C   UNL A   1      50.306  26.619  24.062  1.00  0.00     0.127 A 
ATOM     20  C   UNL A   1      49.150  26.821  23.326  1.00  0.00     0.006 A 
ATOM     21  O   UNL A   1      51.433  26.869  23.327  1.00  0.00    -0.492 OA
ATOM     22  C   UNL A   1      47.902  26.609  23.881  1.00  0.00     0.034 A 
ATOM     23  C   UNL A   1      49.460  27.216  21.923  1.00  0.00     0.028 C 
ATOM     24  C   UNL A   1      50.989  27.339  22.034  1.00  0.00     0.240 C 
ATOM     25  C   UNL A   1      49.046  26.109  20.944  1.00  0.00     0.020 C 
ATOM     26  C   UNL A   1      48.809  28.544  21.524  1.00  0.00     0.020 C 
BRANCH  17  27
ATOM     27  C   UNL A   1      51.521  26.010  26.274  1.00  0.00    -0.009 C 
ATOM     28  C   UNL A   1      51.065  25.481  27.651  1.00  0.00     0.016 C 
ATOM     29  C   UNL A   1      52.344  27.295  26.522  1.00  0.00     0.016 C 
ATOM     30  C   UNL A   1      52.501  24.991  25.646  1.00  0.00     0.016 C 
ENDBRANCH  17  27
ENDBRANCH  14  16
ENDBRANCH   9  14
ENDBRANCH   6   8
ENDBRANCH   5   6
ENDBRANCH   4   5
ENDBRANCH   3   4
ENDBRANCH   2   3
ENDBRANCH   1   2
BRANCH   1  31
ATOM     31  C   UNL A   1      43.815  18.165  25.607  1.00  0.00     0.188 C 
BRANCH  31  32
ATOM     32  O   UNL A   1      42.451  18.254  25.928  1.00  0.00    -0.376 OA
BRANCH  32  33
ATOM     33  C   UNL A   1      41.978  19.220  26.846  1.00  0.00     0.202 C 
BRANCH  33  34
ATOM     34  C   UNL A   1      40.749  20.133  26.656  1.00  0.00     0.261 C 
BRANCH  34  35
ATOM     35  O   UNL A   1      40.964  21.517  26.382  1.00  0.00    -0.460 OA
BRANCH  35  36
ATOM     36  C   UNL A   1      39.854  22.296  26.353  1.00  0.00     0.338 C 
ATOM     37  O   UNL A   1      38.730  21.980  26.006  1.00  0.00    -0.246 OA
BRANCH  36  38
ATOM     38  C   UNL A   1      40.188  23.579  26.999  1.00  0.00     0.060 A 
ATOM     39  C   UNL A   1      41.192  23.636  27.966  1.00  0.00     0.016 A 
ATOM     40  C   UNL A   1      39.467  24.728  26.647  1.00  0.00     0.016 A 
ATOM     41  C   UNL A   1      41.483  24.856  28.577  1.00  0.00     0.010 A 
ATOM     42  C   UNL A   1      39.754  25.945  27.268  1.00  0.00     0.010 A 
ATOM     43  C   UNL A   1      40.774  26.020  28.227  1.00  0.00    -0.014 A 
BRANCH  43  44
ATOM     44  C   UNL A   1      41.225  27.332  28.751  1.00  0.00     0.031 A 
ATOM     45  C   UNL A   1      42.673  27.663  28.937  1.00  0.00     0.074 A 
ATOM     46  C   UNL A   1      40.281  28.247  29.046  1.00  0.00     0.049 A 
ATOM     47  N   UNL A   1      43.211  28.811  29.261  1.00  0.00    -0.248 NA
ATOM     48  C   UNL A   1      43.642  26.575  28.739  1.00  0.00     0.031 C 
ATOM     49  C   UNL A   1      38.839  28.026  28.924  1.00  0.00     0.029 A 
ATOM     50  N   UNL A   1      40.387  29.542  29.484  1.00  0.00    -0.354 N 
ATOM     51  C   UNL A   1      44.583  28.597  29.282  1.00  0.00     0.074 A 
ATOM     52  C   UNL A   1      44.791  27.193  28.989  1.00  0.00     0.031 C 
ATOM     53  C   UNL A   1      38.197  29.159  29.238  1.00  0.00     0.029 A 
ATOM     54  C   UNL A   1      39.176  30.176  29.612  1.00  0.00     0.049 A 
ATOM     55  H   UNL A   1      41.248  29.975  29.686  1.00  0.00     0.167 HD
ATOM     56  C   UNL A   1      45.571  29.497  29.508  1.00  0.00     0.031 A 
ATOM     57  C   UNL A   1      38.878  31.439  29.975  1.00  0.00     0.031 A 
ATOM     58  C   UNL A   1      45.349  30.887  29.823  1.00  0.00     0.049 A 
ATOM     59  C   UNL A   1      39.993  32.403  30.269  1.00  0.00     0.074 A 
ATOM     60  C   UNL A   1      46.294  31.880  30.022  1.00  0.00     0.029 A 
ATOM     61  N   UNL A   1      44.108  31.477  30.002  1.00  0.00    -0.354 N 
ATOM     62  N   UNL A   1      41.287  32.209  30.197  1.00  0.00    -0.248 NA
ATOM     63  C   UNL A   1      39.610  33.761  30.676  1.00  0.00     0.031 C 
ATOM     64  C   UNL A   1      45.630  33.049  30.401  1.00  0.00     0.029 A 
ATOM     65  C   UNL A   1      44.265  32.810  30.353  1.00  0.00     0.049 A 
ATOM     66  H   UNL A   1      43.243  31.020  29.896  1.00  0.00     0.167 HD
ATOM     67  C   UNL A   1      41.873  33.424  30.530  1.00  0.00     0.074 A 
ATOM     68  C   UNL A   1      40.792  34.354  30.782  1.00  0.00     0.031 C 
ATOM     69  C   UNL A   1      43.189  33.733  30.616  1.00  0.00     0.031 A 
BRANCH  56  70
ATOM     70  C   UNL A   1      46.999  29.028  29.416  1.00  0.00    -0.014 A 
ATOM     71  C   UNL A   1      47.696  28.663  30.580  1.00  0.00     0.009 A 
ATOM     72  C   UNL A   1      47.697  29.077  28.198  1.00  0.00     0.009 A 
ATOM     73  C   UNL A   1      49.062  28.379  30.531  1.00  0.00     0.001 A 
ATOM     74  C   UNL A   1      49.057  28.762  28.148  1.00  0.00     0.001 A 
ATOM     75  C   UNL A   1      49.741  28.426  29.315  1.00  0.00     0.000 A 
ENDBRANCH  56  70
BRANCH  57  76
ATOM     76  C   UNL A   1      37.454  31.858  30.027  1.00  0.00    -0.014 A 
ATOM     77  C   UNL A   1      36.703  31.690  31.202  1.00  0.00     0.009 A 
ATOM     78  C   UNL A   1      36.817  32.364  28.884  1.00  0.00     0.009 A 
ATOM     79  C   UNL A   1      35.339  31.987  31.223  1.00  0.00     0.001 A 
ATOM     80  C   UNL A   1      35.460  32.694  28.918  1.00  0.00     0.001 A 
ATOM     81  C   UNL A   1      34.719  32.493  30.081  1.00  0.00     0.000 A 
ENDBRANCH  57  76
BRANCH  69  82
ATOM     82  C   UNL A   1      43.562  35.140  31.004  1.00  0.00    -0.014 A 
ATOM     83  C   UNL A   1      43.775  36.108  30.008  1.00  0.00     0.009 A 
ATOM     84  C   UNL A   1      43.809  35.482  32.343  1.00  0.00     0.009 A 
ATOM     85  C   UNL A   1      44.249  37.378  30.340  1.00  0.00     0.001 A 
ATOM     86  C   UNL A   1      44.251  36.766  32.676  1.00  0.00     0.001 A 
ATOM     87  C   UNL A   1      44.483  37.707  31.674  1.00  0.00     0.000 A 
ENDBRANCH  69  82
ENDBRANCH  43  44
ENDBRANCH  36  38
ENDBRANCH  35  36
ENDBRANCH  34  35
ENDBRANCH  33  34
ENDBRANCH  32  33
ENDBRANCH  31  32
ENDBRANCH   1  31
TORSDOF 20
ENDMDL
MODEL 2
REMARK VINA RESULT:      -9.0      5.701     11.983
REMARK SMILES CC(C)(C)c1cc(Nc2ccccc2C(=O)OCCOCCOCCOC(=O)c2ccc(-c3c4nc(c(-c5ccccc5)c5ccc([nH]5)c(-c5ccccc5)c5nc(c(-c6ccccc6)c6ccc3[nH]6)C=C5)C=C4)cc2)cc2c1OCC2(C)C
REMARK SMILES IDX 21 1 20 2 19 3 18 4 17 5 15 6 16 7 14 8 9 9 10 10 11 11
REMARK SMILES IDX 13 12 12 13 8 14 7 16 5 17 6 18 79 19 78 20 80 21 77 22
REMARK SMILES IDX 82 23 81 24 83 25 84 26 2 27 1 28 3 29 4 30 22 31 23 32
REMARK SMILES IDX 24 33 25 34 26 35 27 36 28 37 29 38 30 39 76 40 31 41 75 42
REMARK SMILES IDX 32 43 33 44 34 45 69 46 35 47 74 48 68 49 70 50 36 51 73 52
REMARK SMILES IDX 67 53 66 54 37 56 59 57 44 58 58 59 45 60 48 61 57 62 71 63
REMARK SMILES IDX 46 64 47 65 56 67 72 68 49 69 38 70 39 71 43 72 40 73 42 74
REMARK SMILES IDX 41 75 60 76 61 77 65 78 62 79 64 80 63 81 50 82 51 83 55 84
REMARK SMILES IDX 52 85 54 86 53 87
REMARK H PARENT 8 15 70 55 48 66
REMARK Flexibility Score: inf
ROOT
ATOM      1  C   UNL A   1      34.784  30.483  27.568  1.00  0.00     0.188 C 
ENDROOT
BRANCH   1   2
ATOM      2  O   UNL A   1      33.750  29.619  28.015  1.00  0.00    -0.376 OA
BRANCH   2   3
ATOM      3  C   UNL A   1      32.576  29.454  27.230  1.00  0.00     0.202 C 
BRANCH   3   4
ATOM      4  C   UNL A   1      31.829  28.112  27.224  1.00  0.00     0.261 C 
BRANCH   4   5
ATOM      5  O   UNL A   1      32.489  27.065  26.494  1.00  0.00    -0.460 OA
BRANCH   5   6
ATOM      6  C   UNL A   1      31.691  26.046  26.089  1.00  0.00     0.340 C 
ATOM      7  O   UNL A   1      30.927  25.410  26.800  1.00  0.00    -0.246 OA
BRANCH   6   8
ATOM      8  C   UNL A   1      31.702  25.879  24.613  1.00  0.00     0.083 A 
ATOM      9  C   UNL A   1      31.482  24.669  23.931  1.00  0.00     0.053 A 
ATOM     10  C   UNL A   1      31.391  24.728  22.524  1.00  0.00     0.027 A 
ATOM     11  C   UNL A   1      31.691  25.890  21.812  1.00  0.00     0.002 A 
ATOM     12  C   UNL A   1      32.004  27.050  23.887  1.00  0.00     0.018 A 
ATOM     13  C   UNL A   1      32.041  27.044  22.494  1.00  0.00     0.001 A 
BRANCH   9  14
ATOM     14  N   UNL A   1      31.534  23.405  24.570  1.00  0.00    -0.355 N 
ATOM     15  H   UNL A   1      30.694  23.093  24.979  1.00  0.00     0.167 HD
BRANCH  14  16
ATOM     16  C   UNL A   1      32.646  22.533  24.692  1.00  0.00     0.039 A 
ATOM     17  C   UNL A   1      33.548  20.208  24.635  1.00  0.00     0.002 A 
ATOM     18  C   UNL A   1      32.466  21.136  24.612  1.00  0.00     0.034 A 
ATOM     19  C   UNL A   1      34.822  20.769  24.737  1.00  0.00     0.127 A 
ATOM     20  C   UNL A   1      35.017  22.137  24.832  1.00  0.00     0.006 A 
ATOM     21  O   UNL A   1      36.005  20.079  24.740  1.00  0.00    -0.492 OA
ATOM     22  C   UNL A   1      33.950  23.014  24.831  1.00  0.00     0.034 A 
ATOM     23  C   UNL A   1      36.468  22.478  24.871  1.00  0.00     0.028 C 
ATOM     24  C   UNL A   1      37.054  21.057  24.923  1.00  0.00     0.240 C 
ATOM     25  C   UNL A   1      36.885  23.220  23.593  1.00  0.00     0.020 C 
ATOM     26  C   UNL A   1      36.850  23.298  26.106  1.00  0.00     0.020 C 
BRANCH  17  27
ATOM     27  C   UNL A   1      33.268  18.695  24.586  1.00  0.00    -0.009 C 
ATOM     28  C   UNL A   1      32.278  18.424  23.433  1.00  0.00     0.016 C 
ATOM     29  C   UNL A   1      32.652  18.100  25.873  1.00  0.00     0.016 C 
ATOM     30  C   UNL A   1      34.568  17.896  24.328  1.00  0.00     0.016 C 
ENDBRANCH  17  27
ENDBRANCH  14  16
ENDBRANCH   9  14
ENDBRANCH   6   8
ENDBRANCH   5   6
ENDBRANCH   4   5
ENDBRANCH   3   4
ENDBRANCH   2   3
ENDBRANCH   1   2
BRANCH   1  31
ATOM     31  C   UNL A   1      35.012  31.851  28.245  1.00  0.00     0.188 C 
BRANCH  31  32
ATOM     32  O   UNL A   1      34.541  32.973  27.545  1.00  0.00    -0.376 OA
BRANCH  32  33
ATOM     33  C   UNL A   1      34.342  34.211  28.198  1.00  0.00     0.202 C 
BRANCH  33  34
ATOM     34  C   UNL A   1      33.514  34.443  29.479  1.00  0.00     0.261 C 
BRANCH  34  35
ATOM     35  O   UNL A   1      34.146  35.067  30.596  1.00  0.00    -0.460 OA
BRANCH  35  36
ATOM     36  C   UNL A   1      34.174  34.344  31.743  1.00  0.00     0.338 C 
ATOM     37  O   UNL A   1      33.286  34.220  32.569  1.00  0.00    -0.246 OA
BRANCH  36  38
ATOM     38  C   UNL A   1      35.421  33.558  31.750  1.00  0.00     0.060 A 
ATOM     39  C   UNL A   1      36.574  34.069  31.153  1.00  0.00     0.016 A 
ATOM     40  C   UNL A   1      35.424  32.286  32.339  1.00  0.00     0.016 A 
ATOM     41  C   UNL A   1      37.741  33.304  31.155  1.00  0.00     0.010 A 
ATOM     42  C   UNL A   1      36.590  31.519  32.330  1.00  0.00     0.010 A 
ATOM     43  C   UNL A   1      37.761  32.030  31.751  1.00  0.00    -0.014 A 
BRANCH  43  44
ATOM     44  C   UNL A   1      39.053  31.318  31.906  1.00  0.00     0.031 A 
ATOM     45  C   UNL A   1      39.996  31.610  33.032  1.00  0.00     0.074 A 
ATOM     46  C   UNL A   1      39.359  30.370  30.999  1.00  0.00     0.049 A 
ATOM     47  N   UNL A   1      41.093  30.976  33.361  1.00  0.00    -0.248 NA
ATOM     48  C   UNL A   1      39.675  32.754  33.898  1.00  0.00     0.031 C 
ATOM     49  C   UNL A   1      38.526  30.017  29.849  1.00  0.00     0.029 A 
ATOM     50  N   UNL A   1      40.431  29.519  30.912  1.00  0.00    -0.354 N 
ATOM     51  C   UNL A   1      41.584  31.624  34.486  1.00  0.00     0.074 A 
ATOM     52  C   UNL A   1      40.691  32.734  34.753  1.00  0.00     0.031 C 
ATOM     53  C   UNL A   1      39.096  28.996  29.195  1.00  0.00     0.029 A 
ATOM     54  C   UNL A   1      40.347  28.642  29.859  1.00  0.00     0.049 A 
ATOM     55  H   UNL A   1      41.187  29.536  31.543  1.00  0.00     0.167 HD
ATOM     56  C   UNL A   1      42.669  31.305  35.234  1.00  0.00     0.031 A 
ATOM     57  C   UNL A   1      41.173  27.650  29.473  1.00  0.00     0.031 A 
ATOM     58  C   UNL A   1      43.564  30.212  34.943  1.00  0.00     0.049 A 
ATOM     59  C   UNL A   1      42.397  27.350  30.292  1.00  0.00     0.074 A 
ATOM     60  C   UNL A   1      44.663  29.788  35.672  1.00  0.00     0.029 A 
ATOM     61  N   UNL A   1      43.480  29.383  33.836  1.00  0.00    -0.354 N 
ATOM     62  N   UNL A   1      42.800  27.913  31.404  1.00  0.00    -0.248 NA
ATOM     63  C   UNL A   1      43.270  26.269  29.815  1.00  0.00     0.031 C 
ATOM     64  C   UNL A   1      45.289  28.759  34.967  1.00  0.00     0.029 A 
ATOM     65  C   UNL A   1      44.532  28.479  33.840  1.00  0.00     0.049 A 
ATOM     66  H   UNL A   1      42.777  29.427  33.147  1.00  0.00     0.167 HD
ATOM     67  C   UNL A   1      43.960  27.244  31.771  1.00  0.00     0.074 A 
ATOM     68  C   UNL A   1      44.184  26.218  30.774  1.00  0.00     0.031 C 
ATOM     69  C   UNL A   1      44.762  27.465  32.840  1.00  0.00     0.031 A 
BRANCH  56  70
ATOM     70  C   UNL A   1      42.964  32.134  36.456  1.00  0.00    -0.014 A 
ATOM     71  C   UNL A   1      42.282  31.881  37.658  1.00  0.00     0.009 A 
ATOM     72  C   UNL A   1      43.813  33.250  36.382  1.00  0.00     0.009 A 
ATOM     73  C   UNL A   1      42.427  32.739  38.751  1.00  0.00     0.001 A 
ATOM     74  C   UNL A   1      43.979  34.088  37.488  1.00  0.00     0.001 A 
ATOM     75  C   UNL A   1      43.277  33.839  38.666  1.00  0.00     0.000 A 
ENDBRANCH  56  70
BRANCH  57  76
ATOM     76  C   UNL A   1      40.824  26.846  28.273  1.00  0.00    -0.014 A 
ATOM     77  C   UNL A   1      39.980  25.728  28.384  1.00  0.00     0.009 A 
ATOM     78  C   UNL A   1      41.385  27.148  27.024  1.00  0.00     0.009 A 
ATOM     79  C   UNL A   1      39.732  24.911  27.280  1.00  0.00     0.001 A 
ATOM     80  C   UNL A   1      41.108  26.349  25.912  1.00  0.00     0.001 A 
ATOM     81  C   UNL A   1      40.294  25.225  26.043  1.00  0.00     0.000 A 
ENDBRANCH  57  76
BRANCH  69  82
ATOM     82  C   UNL A   1      45.976  26.589  33.008  1.00  0.00    -0.014 A 
ATOM     83  C   UNL A   1      45.894  25.421  33.784  1.00  0.00     0.009 A 
ATOM     84  C   UNL A   1      47.224  26.972  32.494  1.00  0.00     0.009 A 
ATOM     85  C   UNL A   1      47.037  24.668  34.061  1.00  0.00     0.001 A 
ATOM     86  C   UNL A   1      48.361  26.199  32.744  1.00  0.00     0.001 A 
ATOM     87  C   UNL A   1      48.268  25.056  33.537  1.00  0.00     0.000 A 
ENDBRANCH  69  82
ENDBRANCH  43  44
ENDBRANCH  36  38
ENDBRANCH  35  36
ENDBRANCH  34  35
ENDBRANCH  33  34
ENDBRANCH  32  33
ENDBRANCH  31  32
ENDBRANCH   1  31
TORSDOF 20
ENDMDL
MODEL 3
REMARK VINA RESULT:      -8.8      5.816     12.066
REMARK SMILES CC(C)(C)c1cc(Nc2ccccc2C(=O)OCCOCCOCCOC(=O)c2ccc(-c3c4nc(c(-c5ccccc5)c5ccc([nH]5)c(-c5ccccc5)c5nc(c(-c6ccccc6)c6ccc3[nH]6)C=C5)C=C4)cc2)cc2c1OCC2(C)C
REMARK SMILES IDX 21 1 20 2 19 3 18 4 17 5 15 6 16 7 14 8 9 9 10 10 11 11
REMARK SMILES IDX 13 12 12 13 8 14 7 16 5 17 6 18 79 19 78 20 80 21 77 22
REMARK SMILES IDX 82 23 81 24 83 25 84 26 2 27 1 28 3 29 4 30 22 31 23 32
REMARK SMILES IDX 24 33 25 34 26 35 27 36 28 37 29 38 30 39 76 40 31 41 75 42
REMARK SMILES IDX 32 43 33 44 34 45 69 46 35 47 74 48 68 49 70 50 36 51 73 52
REMARK SMILES IDX 67 53 66 54 37 56 59 57 44 58 58 59 45 60 48 61 57 62 71 63
REMARK SMILES IDX 46 64 47 65 56 67 72 68 49 69 38 70 39 71 43 72 40 73 42 74
REMARK SMILES IDX 41 75 60 76 61 77 65 78 62 79 64 80 63 81 50 82 51 83 55 84
REMARK SMILES IDX 52 85 54 86 53 87
REMARK H PARENT 8 15 70 55 48 66
REMARK Flexibility Score: inf
ROOT
ATOM      1  C   UNL A   1      34.320  30.824  27.426  1.00  0.00     0.188 C 
ENDROOT
BRANCH   1   2
ATOM      2  O   UNL A   1      33.122  30.128  27.737  1.00  0.00    -0.376 OA
BRANCH   2   3
ATOM      3  C   UNL A   1      32.216  29.779  26.698  1.00  0.00     0.202 C 
BRANCH   3   4
ATOM      4  C   UNL A   1      31.420  28.468  26.771  1.00  0.00     0.261 C 
BRANCH   4   5
ATOM      5  O   UNL A   1      32.165  27.296  26.402  1.00  0.00    -0.460 OA
BRANCH   5   6
ATOM      6  C   UNL A   1      31.418  26.213  26.074  1.00  0.00     0.340 C 
ATOM      7  O   UNL A   1      30.646  25.624  26.816  1.00  0.00    -0.246 OA
BRANCH   6   8
ATOM      8  C   UNL A   1      31.496  25.897  24.624  1.00  0.00     0.083 A 
ATOM      9  C   UNL A   1      31.447  24.605  24.070  1.00  0.00     0.053 A 
ATOM     10  C   UNL A   1      31.395  24.508  22.663  1.00  0.00     0.027 A 
ATOM     11  C   UNL A   1      31.574  25.619  21.838  1.00  0.00     0.002 A 
ATOM     12  C   UNL A   1      31.677  27.016  23.783  1.00  0.00     0.018 A 
ATOM     13  C   UNL A   1      31.760  26.871  22.400  1.00  0.00     0.001 A 
BRANCH   9  14
ATOM     14  N   UNL A   1      31.631  23.430  24.840  1.00  0.00    -0.355 N 
ATOM     15  H   UNL A   1      30.969  23.272  25.551  1.00  0.00     0.167 HD
BRANCH  14  16
ATOM     16  C   UNL A   1      32.652  22.453  24.712  1.00  0.00     0.039 A 
ATOM     17  C   UNL A   1      35.083  21.895  24.720  1.00  0.00     0.002 A 
ATOM     18  C   UNL A   1      34.010  22.833  24.752  1.00  0.00     0.034 A 
ATOM     19  C   UNL A   1      34.709  20.552  24.654  1.00  0.00     0.127 A 
ATOM     20  C   UNL A   1      33.381  20.161  24.598  1.00  0.00     0.006 A 
ATOM     21  O   UNL A   1      35.562  19.481  24.650  1.00  0.00    -0.492 OA
ATOM     22  C   UNL A   1      32.360  21.091  24.607  1.00  0.00     0.034 A 
ATOM     23  C   UNL A   1      33.252  18.676  24.592  1.00  0.00     0.028 C 
ATOM     24  C   UNL A   1      34.741  18.298  24.510  1.00  0.00     0.240 C 
ATOM     25  C   UNL A   1      32.609  18.182  25.895  1.00  0.00     0.020 C 
ATOM     26  C   UNL A   1      32.465  18.156  23.385  1.00  0.00     0.020 C 
BRANCH  17  27
ATOM     27  C   UNL A   1      36.541  22.391  24.724  1.00  0.00    -0.009 C 
ATOM     28  C   UNL A   1      36.849  22.995  23.337  1.00  0.00     0.016 C 
ATOM     29  C   UNL A   1      37.603  21.302  25.001  1.00  0.00     0.016 C 
ATOM     30  C   UNL A   1      36.755  23.479  25.803  1.00  0.00     0.016 C 
ENDBRANCH  17  27
ENDBRANCH  14  16
ENDBRANCH   9  14
ENDBRANCH   6   8
ENDBRANCH   5   6
ENDBRANCH   4   5
ENDBRANCH   3   4
ENDBRANCH   2   3
ENDBRANCH   1   2
BRANCH   1  31
ATOM     31  C   UNL A   1      34.671  32.144  28.145  1.00  0.00     0.188 C 
BRANCH  31  32
ATOM     32  O   UNL A   1      34.220  33.321  27.528  1.00  0.00    -0.376 OA
BRANCH  32  33
ATOM     33  C   UNL A   1      34.094  34.527  28.258  1.00  0.00     0.202 C 
BRANCH  33  34
ATOM     34  C   UNL A   1      33.309  34.718  29.572  1.00  0.00     0.261 C 
BRANCH  34  35
ATOM     35  O   UNL A   1      33.942  35.404  30.651  1.00  0.00    -0.460 OA
BRANCH  35  36
ATOM     36  C   UNL A   1      33.934  34.767  31.848  1.00  0.00     0.338 C 
ATOM     37  O   UNL A   1      33.048  34.762  32.685  1.00  0.00    -0.246 OA
BRANCH  36  38
ATOM     38  C   UNL A   1      35.127  33.902  31.905  1.00  0.00     0.060 A 
ATOM     39  C   UNL A   1      36.389  34.432  31.637  1.00  0.00     0.016 A 
ATOM     40  C   UNL A   1      34.971  32.542  32.206  1.00  0.00     0.016 A 
ATOM     41  C   UNL A   1      37.505  33.595  31.681  1.00  0.00     0.010 A 
ATOM     42  C   UNL A   1      36.088  31.706  32.238  1.00  0.00     0.010 A 
ATOM     43  C   UNL A   1      37.365  32.230  31.992  1.00  0.00    -0.014 A 
BRANCH  43  44
ATOM     44  C   UNL A   1      38.577  31.406  32.214  1.00  0.00     0.031 A 
ATOM     45  C   UNL A   1      38.969  30.295  31.289  1.00  0.00     0.074 A 
ATOM     46  C   UNL A   1      39.345  31.697  33.282  1.00  0.00     0.049 A 
ATOM     47  N   UNL A   1      40.067  29.583  31.292  1.00  0.00    -0.248 NA
ATOM     48  C   UNL A   1      38.014  29.933  30.233  1.00  0.00     0.031 C 
ATOM     49  C   UNL A   1      39.049  32.743  34.262  1.00  0.00     0.029 A 
ATOM     50  N   UNL A   1      40.534  31.162  33.710  1.00  0.00    -0.354 N 
ATOM     51  C   UNL A   1      39.952  28.703  30.224  1.00  0.00     0.074 A 
ATOM     52  C   UNL A   1      38.652  28.938  29.627  1.00  0.00     0.031 C 
ATOM     53  C   UNL A   1      40.050  32.802  35.152  1.00  0.00     0.029 A 
ATOM     54  C   UNL A   1      41.041  31.781  34.826  1.00  0.00     0.049 A 
ATOM     55  H   UNL A   1      40.980  30.408  33.261  1.00  0.00     0.167 HD
ATOM     56  C   UNL A   1      40.859  27.800  29.777  1.00  0.00     0.031 A 
ATOM     57  C   UNL A   1      42.183  31.566  35.508  1.00  0.00     0.031 A 
ATOM     58  C   UNL A   1      42.140  27.560  30.395  1.00  0.00     0.049 A 
ATOM     59  C   UNL A   1      43.148  30.524  35.019  1.00  0.00     0.074 A 
ATOM     60  C   UNL A   1      43.140  26.695  29.982  1.00  0.00     0.029 A 
ATOM     61  N   UNL A   1      42.592  28.164  31.557  1.00  0.00    -0.354 N 
ATOM     62  N   UNL A   1      43.066  29.762  33.955  1.00  0.00    -0.248 NA
ATOM     63  C   UNL A   1      44.368  30.322  35.811  1.00  0.00     0.031 C 
ATOM     64  C   UNL A   1      44.160  26.716  30.935  1.00  0.00     0.029 A 
ATOM     65  C   UNL A   1      43.838  27.658  31.898  1.00  0.00     0.049 A 
ATOM     66  H   UNL A   1      42.103  28.851  32.065  1.00  0.00     0.167 HD
ATOM     67  C   UNL A   1      44.230  29.005  33.939  1.00  0.00     0.074 A 
ATOM     68  C   UNL A   1      45.012  29.416  35.087  1.00  0.00     0.031 C 
ATOM     69  C   UNL A   1      44.611  28.058  33.049  1.00  0.00     0.031 A 
BRANCH  56  70
ATOM     70  C   UNL A   1      40.521  26.997  28.549  1.00  0.00    -0.014 A 
ATOM     71  C   UNL A   1      39.795  25.800  28.669  1.00  0.00     0.009 A 
ATOM     72  C   UNL A   1      41.037  27.351  27.292  1.00  0.00     0.009 A 
ATOM     73  C   UNL A   1      39.612  24.965  27.565  1.00  0.00     0.001 A 
ATOM     74  C   UNL A   1      40.825  26.529  26.182  1.00  0.00     0.001 A 
ATOM     75  C   UNL A   1      40.124  25.332  26.321  1.00  0.00     0.000 A 
ENDBRANCH  56  70
BRANCH  57  76
ATOM     76  C   UNL A   1      42.480  32.403  36.699  1.00  0.00    -0.014 A 
ATOM     77  C   UNL A   1      43.137  33.637  36.558  1.00  0.00     0.009 A 
ATOM     78  C   UNL A   1      42.171  31.945  37.988  1.00  0.00     0.009 A 
ATOM     79  C   UNL A   1      43.509  34.377  37.682  1.00  0.00     0.001 A 
ATOM     80  C   UNL A   1      42.513  32.704  39.110  1.00  0.00     0.001 A 
ATOM     81  C   UNL A   1      43.192  33.912  38.957  1.00  0.00     0.000 A 
ENDBRANCH  57  76
BRANCH  69  82
ATOM     82  C   UNL A   1      45.937  27.376  33.263  1.00  0.00    -0.014 A 
ATOM     83  C   UNL A   1      47.094  27.888  32.652  1.00  0.00     0.009 A 
ATOM     84  C   UNL A   1      46.027  26.171  33.976  1.00  0.00     0.009 A 
ATOM     85  C   UNL A   1      48.305  27.198  32.729  1.00  0.00     0.001 A 
ATOM     86  C   UNL A   1      47.248  25.499  34.081  1.00  0.00     0.001 A 
ATOM     87  C   UNL A   1      48.381  26.006  33.447  1.00  0.00     0.000 A 
ENDBRANCH  69  82
ENDBRANCH  43  44
ENDBRANCH  36  38
ENDBRANCH  35  36
ENDBRANCH  34  35
ENDBRANCH  33  34
ENDBRANCH  32  33
ENDBRANCH  31  32
ENDBRANCH   1  31
TORSDOF 20
ENDMDL
