MODEL 1
REMARK VINA RESULT:     -12.7      0.000      0.000
REMARK SMILES Cc1ccc(S(=O)(=O)/[NH+]=C(/N[C@@H](Cc2ccc(O)cc2)C(=O)[O-])OCCOCCOCCOC(=O)c2ccc(-c3c4nc(c(-c5ccccc5)c5ccc([nH]5)c(-c5ccccc5)c5nc(c(-c6ccccc6)c6ccc3[nH]6)C=C5)C=C4)cc2)cc1
REMARK SMILES IDX 28 1 27 2 26 3 25 4 24 5 10 6 9 7 11 9 6 11 7 12 8 13 5 14
REMARK SMILES IDX 1 15 2 16 3 17 85 18 4 19 84 20 12 21 13 22 14 23 15 24
REMARK SMILES IDX 20 25 16 26 19 27 17 28 18 29 21 31 22 32 23 33 29 34 30 35
REMARK SMILES IDX 31 36 32 37 33 38 34 39 35 40 36 41 37 42 83 43 38 44 82 45
REMARK SMILES IDX 39 46 40 47 41 48 76 49 42 50 81 51 75 52 77 53 43 54 80 55
REMARK SMILES IDX 74 56 73 57 44 59 66 60 51 61 65 62 52 63 55 64 64 65 78 66
REMARK SMILES IDX 53 67 54 68 63 70 79 71 56 72 45 73 46 74 50 75 47 76 49 77
REMARK SMILES IDX 48 78 67 79 68 80 72 81 69 82 71 83 70 84 57 85 58 86 62 87
REMARK SMILES IDX 59 88 61 89 60 90
REMARK H PARENT 9 8 11 10 18 30 77 58 55 69
REMARK Flexibility Score: inf
ROOT
ATOM      1  C   UNL A   1      37.916  21.265  25.085  1.00  0.00     0.188 C 
ENDROOT
BRANCH   1   2
ATOM      2  O   UNL A   1      36.667  21.957  25.010  1.00  0.00    -0.376 OA
BRANCH   2   3
ATOM      3  C   UNL A   1      36.105  22.732  26.070  1.00  0.00     0.202 C 
BRANCH   3   4
ATOM      4  C   UNL A   1      35.302  24.089  25.766  1.00  0.00     0.266 C 
BRANCH   4   5
ATOM      5  O   UNL A   1      33.642  24.264  25.068  1.00  0.00    -0.428 OA
BRANCH   5   6
ATOM      6  C   UNL A   1      32.484  24.076  24.193  1.00  0.00     0.458 C 
ATOM      7  N   UNL A   1      31.561  23.231  24.523  1.00  0.00    -0.129 N 
ATOM      8  H   UNL A   1      30.766  23.175  23.945  1.00  0.00     0.331 HD
ATOM      9  N   UNL A   1      32.276  24.527  22.833  1.00  0.00    -0.232 N 
ATOM     10  H   UNL A   1      32.461  23.837  22.156  1.00  0.00     0.309 HD
BRANCH   7  11
ATOM     11  S   UNL A   1      31.618  22.271  25.802  1.00  0.00     0.331 S 
ATOM     12  O   UNL A   1      30.276  21.901  26.206  1.00  0.00    -0.179 OA
ATOM     13  O   UNL A   1      32.589  22.728  26.778  1.00  0.00    -0.179 OA
BRANCH  11  14
ATOM     14  C   UNL A   1      32.325  20.788  25.091  1.00  0.00     0.109 A 
ATOM     15  C   UNL A   1      34.040  17.287  23.307  1.00  0.00     0.044 C 
ATOM     16  C   UNL A   1      33.407  18.481  23.956  1.00  0.00    -0.051 A 
ATOM     17  C   UNL A   1      32.486  19.261  23.241  1.00  0.00     0.005 A 
ATOM     18  C   UNL A   1      33.763  18.854  25.258  1.00  0.00     0.005 A 
ATOM     19  C   UNL A   1      31.937  20.412  23.807  1.00  0.00     0.025 A 
ATOM     20  C   UNL A   1      33.224  20.005  25.827  1.00  0.00     0.025 A 
ENDBRANCH  11  14
ENDBRANCH   7  11
BRANCH   9  21
ATOM     21  C   UNL A   1      31.811  25.906  22.222  1.00  0.00     0.227 C 
BRANCH  21  22
ATOM     22  C   UNL A   1      31.218  27.297  23.294  1.00  0.00     0.091 C 
BRANCH  22  23
ATOM     23  C   UNL A   1      29.979  28.571  23.212  1.00  0.00    -0.043 A 
ATOM     24  C   UNL A   1      30.279  29.872  23.665  1.00  0.00     0.008 A 
ATOM     25  C   UNL A   1      28.594  28.469  22.834  1.00  0.00     0.008 A 
ATOM     26  C   UNL A   1      29.273  30.894  23.773  1.00  0.00     0.046 A 
ATOM     27  C   UNL A   1      27.630  29.488  22.815  1.00  0.00     0.046 A 
ATOM     28  C   UNL A   1      27.963  30.698  23.341  1.00  0.00     0.115 A 
BRANCH  28  29
ATOM     29  O   UNL A   1      27.015  31.665  23.486  1.00  0.00    -0.508 OA
ATOM     30  H   UNL A   1      26.131  31.429  23.689  1.00  0.00     0.293 HD
ENDBRANCH  28  29
ENDBRANCH  22  23
ENDBRANCH  21  22
BRANCH  21  31
ATOM     31  C   UNL A   1      32.822  26.288  21.137  1.00  0.00     0.086 C 
ATOM     32  O   UNL A   1      32.956  25.756  20.042  1.00  0.00    -0.546 OA
ATOM     33  O   UNL A   1      33.775  27.158  21.517  1.00  0.00    -0.546 OA
ENDBRANCH  21  31
ENDBRANCH   9  21
ENDBRANCH   5   6
ENDBRANCH   4   5
ENDBRANCH   3   4
ENDBRANCH   2   3
ENDBRANCH   1   2
BRANCH   1  34
ATOM     34  C   UNL A   1      38.983  21.777  26.040  1.00  0.00     0.188 C 
BRANCH  34  35
ATOM     35  O   UNL A   1      40.152  20.991  26.201  1.00  0.00    -0.376 OA
BRANCH  35  36
ATOM     36  C   UNL A   1      41.002  21.103  27.336  1.00  0.00     0.202 C 
BRANCH  36  37
ATOM     37  C   UNL A   1      42.428  21.658  27.258  1.00  0.00     0.261 C 
BRANCH  37  38
ATOM     38  O   UNL A   1      42.538  23.058  27.529  1.00  0.00    -0.460 OA
BRANCH  38  39
ATOM     39  C   UNL A   1      42.185  23.767  26.419  1.00  0.00     0.338 C 
ATOM     40  O   UNL A   1      42.652  23.638  25.298  1.00  0.00    -0.246 OA
BRANCH  39  41
ATOM     41  C   UNL A   1      41.414  24.909  26.893  1.00  0.00     0.060 A 
ATOM     42  C   UNL A   1      41.980  26.009  27.435  1.00  0.00     0.016 A 
ATOM     43  C   UNL A   1      40.065  24.944  26.871  1.00  0.00     0.016 A 
ATOM     44  C   UNL A   1      41.132  26.939  28.160  1.00  0.00     0.010 A 
ATOM     45  C   UNL A   1      39.386  25.920  27.685  1.00  0.00     0.010 A 
ATOM     46  C   UNL A   1      39.825  26.903  28.692  1.00  0.00    -0.014 A 
BRANCH  46  47
ATOM     47  C   UNL A   1      38.997  28.079  29.942  1.00  0.00     0.031 A 
ATOM     48  C   UNL A   1      38.489  29.796  29.721  1.00  0.00     0.074 A 
ATOM     49  C   UNL A   1      38.873  28.074  31.396  1.00  0.00     0.049 A 
ATOM     50  N   UNL A   1      38.684  30.761  30.637  1.00  0.00    -0.248 NA
ATOM     51  C   UNL A   1      37.894  30.500  28.526  1.00  0.00     0.031 C 
ATOM     52  C   UNL A   1      38.030  28.909  32.284  1.00  0.00     0.029 A 
ATOM     53  N   UNL A   1      39.683  27.491  32.447  1.00  0.00    -0.354 N 
ATOM     54  C   UNL A   1      38.056  31.929  30.186  1.00  0.00     0.074 A 
ATOM     55  C   UNL A   1      37.990  31.781  28.807  1.00  0.00     0.031 C 
ATOM     56  C   UNL A   1      38.594  29.036  33.507  1.00  0.00     0.029 A 
ATOM     57  C   UNL A   1      39.833  28.278  33.591  1.00  0.00     0.049 A 
ATOM     58  H   UNL A   1      40.099  26.603  32.360  1.00  0.00     0.167 HD
ATOM     59  C   UNL A   1      37.330  32.850  30.882  1.00  0.00     0.031 A 
ATOM     60  C   UNL A   1      40.910  28.362  34.452  1.00  0.00     0.031 A 
ATOM     61  C   UNL A   1      37.536  32.765  32.295  1.00  0.00     0.049 A 
ATOM     62  C   UNL A   1      41.043  29.726  35.092  1.00  0.00     0.074 A 
ATOM     63  C   UNL A   1      36.790  32.329  33.370  1.00  0.00     0.029 A 
ATOM     64  N   UNL A   1      38.804  33.031  32.760  1.00  0.00    -0.354 N 
ATOM     65  N   UNL A   1      40.131  30.645  35.021  1.00  0.00    -0.248 NA
ATOM     66  C   UNL A   1      42.271  30.228  35.725  1.00  0.00     0.031 C 
ATOM     67  C   UNL A   1      37.635  32.340  34.510  1.00  0.00     0.029 A 
ATOM     68  C   UNL A   1      38.877  32.795  34.112  1.00  0.00     0.049 A 
ATOM     69  H   UNL A   1      39.552  33.348  32.203  1.00  0.00     0.167 HD
ATOM     70  C   UNL A   1      40.736  31.859  35.225  1.00  0.00     0.074 A 
ATOM     71  C   UNL A   1      42.027  31.545  35.791  1.00  0.00     0.031 C 
ATOM     72  C   UNL A   1      40.162  33.000  34.758  1.00  0.00     0.031 A 
BRANCH  59  73
ATOM     73  C   UNL A   1      36.171  33.634  30.214  1.00  0.00    -0.014 A 
ATOM     74  C   UNL A   1      35.115  34.118  31.006  1.00  0.00     0.009 A 
ATOM     75  C   UNL A   1      35.984  33.823  28.825  1.00  0.00     0.009 A 
ATOM     76  C   UNL A   1      33.912  34.596  30.450  1.00  0.00     0.001 A 
ATOM     77  C   UNL A   1      34.768  34.235  28.256  1.00  0.00     0.001 A 
ATOM     78  C   UNL A   1      33.718  34.605  29.074  1.00  0.00     0.000 A 
ENDBRANCH  59  73
BRANCH  60  79
ATOM     79  C   UNL A   1      42.127  27.439  34.368  1.00  0.00    -0.014 A 
ATOM     80  C   UNL A   1      42.909  27.332  33.200  1.00  0.00     0.009 A 
ATOM     81  C   UNL A   1      42.669  26.832  35.525  1.00  0.00     0.009 A 
ATOM     82  C   UNL A   1      44.230  26.822  33.249  1.00  0.00     0.001 A 
ATOM     83  C   UNL A   1      43.992  26.360  35.587  1.00  0.00     0.001 A 
ATOM     84  C   UNL A   1      44.789  26.389  34.452  1.00  0.00     0.000 A 
ENDBRANCH  60  79
BRANCH  72  85
ATOM     85  C   UNL A   1      40.748  34.387  34.741  1.00  0.00    -0.014 A 
ATOM     86  C   UNL A   1      40.382  35.438  35.588  1.00  0.00     0.009 A 
ATOM     87  C   UNL A   1      41.831  34.630  33.864  1.00  0.00     0.009 A 
ATOM     88  C   UNL A   1      41.026  36.683  35.519  1.00  0.00     0.001 A 
ATOM     89  C   UNL A   1      42.507  35.848  33.826  1.00  0.00     0.001 A 
ATOM     90  C   UNL A   1      42.089  36.886  34.643  1.00  0.00     0.000 A 
ENDBRANCH  72  85
ENDBRANCH  46  47
ENDBRANCH  39  41
ENDBRANCH  38  39
ENDBRANCH  37  38
ENDBRANCH  36  37
ENDBRANCH  35  36
ENDBRANCH  34  35
ENDBRANCH   1  34
TORSDOF 23
ENDMDL
MODEL 2
REMARK VINA RESULT:     -12.4      4.768      9.953
REMARK SMILES Cc1ccc(S(=O)(=O)/[NH+]=C(/N[C@@H](Cc2ccc(O)cc2)C(=O)[O-])OCCOCCOCCOC(=O)c2ccc(-c3c4nc(c(-c5ccccc5)c5ccc([nH]5)c(-c5ccccc5)c5nc(c(-c6ccccc6)c6ccc3[nH]6)C=C5)C=C4)cc2)cc1
REMARK SMILES IDX 28 1 27 2 26 3 25 4 24 5 10 6 9 7 11 9 6 11 7 12 8 13 5 14
REMARK SMILES IDX 1 15 2 16 3 17 85 18 4 19 84 20 12 21 13 22 14 23 15 24
REMARK SMILES IDX 20 25 16 26 19 27 17 28 18 29 21 31 22 32 23 33 29 34 30 35
REMARK SMILES IDX 31 36 32 37 33 38 34 39 35 40 36 41 37 42 83 43 38 44 82 45
REMARK SMILES IDX 39 46 40 47 41 48 76 49 42 50 81 51 75 52 77 53 43 54 80 55
REMARK SMILES IDX 74 56 73 57 44 59 66 60 51 61 65 62 52 63 55 64 64 65 78 66
REMARK SMILES IDX 53 67 54 68 63 70 79 71 56 72 45 73 46 74 50 75 47 76 49 77
REMARK SMILES IDX 48 78 67 79 68 80 72 81 69 82 71 83 70 84 57 85 58 86 62 87
REMARK SMILES IDX 59 88 61 89 60 90
REMARK H PARENT 9 8 11 10 18 30 77 58 55 69
REMARK Flexibility Score: inf
ROOT
ATOM      1  C   UNL A   1      34.103  22.952  25.747  1.00  0.00     0.188 C 
ENDROOT
BRANCH   1   2
ATOM      2  O   UNL A   1      32.937  22.527  26.457  1.00  0.00    -0.376 OA
BRANCH   2   3
ATOM      3  C   UNL A   1      31.602  22.916  26.130  1.00  0.00     0.202 C 
BRANCH   3   4
ATOM      4  C   UNL A   1      31.094  24.418  26.381  1.00  0.00     0.266 C 
BRANCH   4   5
ATOM      5  O   UNL A   1      31.912  25.961  25.906  1.00  0.00    -0.428 OA
BRANCH   5   6
ATOM      6  C   UNL A   1      32.953  26.901  25.488  1.00  0.00     0.458 C 
ATOM      7  N   UNL A   1      33.173  27.098  24.228  1.00  0.00    -0.129 N 
ATOM      8  H   UNL A   1      33.836  27.783  23.982  1.00  0.00     0.331 HD
ATOM      9  N   UNL A   1      33.997  27.526  26.274  1.00  0.00    -0.232 N 
ATOM     10  H   UNL A   1      34.867  27.072  26.205  1.00  0.00     0.309 HD
BRANCH   7  11
ATOM     11  S   UNL A   1      32.445  26.309  23.042  1.00  0.00     0.331 S 
ATOM     12  O   UNL A   1      32.294  24.912  23.393  1.00  0.00    -0.179 OA
ATOM     13  O   UNL A   1      32.953  26.699  21.740  1.00  0.00    -0.179 OA
BRANCH  11  14
ATOM     14  C   UNL A   1      30.795  27.000  23.129  1.00  0.00     0.109 A 
ATOM     15  C   UNL A   1      26.854  28.686  23.247  1.00  0.00     0.044 C 
ATOM     16  C   UNL A   1      28.237  28.104  23.257  1.00  0.00    -0.051 A 
ATOM     17  C   UNL A   1      29.325  28.878  22.824  1.00  0.00     0.005 A 
ATOM     18  C   UNL A   1      28.446  26.777  23.650  1.00  0.00     0.005 A 
ATOM     19  C   UNL A   1      30.607  28.331  22.766  1.00  0.00     0.025 A 
ATOM     20  C   UNL A   1      29.723  26.223  23.587  1.00  0.00     0.025 A 
ENDBRANCH  11  14
ENDBRANCH   7  11
BRANCH   9  21
ATOM     21  C   UNL A   1      34.014  28.791  27.218  1.00  0.00     0.227 C 
BRANCH  21  22
ATOM     22  C   UNL A   1      35.598  29.494  27.878  1.00  0.00     0.091 C 
BRANCH  22  23
ATOM     23  C   UNL A   1      36.235  30.022  29.452  1.00  0.00    -0.043 A 
ATOM     24  C   UNL A   1      36.950  29.115  30.259  1.00  0.00     0.008 A 
ATOM     25  C   UNL A   1      36.040  31.273  30.137  1.00  0.00     0.008 A 
ATOM     26  C   UNL A   1      37.346  29.437  31.605  1.00  0.00     0.046 A 
ATOM     27  C   UNL A   1      36.526  31.647  31.400  1.00  0.00     0.046 A 
ATOM     28  C   UNL A   1      37.139  30.698  32.160  1.00  0.00     0.115 A 
BRANCH  28  29
ATOM     29  O   UNL A   1      37.486  30.972  33.448  1.00  0.00    -0.508 OA
ATOM     30  H   UNL A   1      38.038  30.382  33.921  1.00  0.00     0.293 HD
ENDBRANCH  28  29
ENDBRANCH  22  23
ENDBRANCH  21  22
BRANCH  21  31
ATOM     31  C   UNL A   1      33.028  29.808  26.635  1.00  0.00     0.086 C 
ATOM     32  O   UNL A   1      32.075  30.316  27.212  1.00  0.00    -0.546 OA
ATOM     33  O   UNL A   1      33.113  29.998  25.306  1.00  0.00    -0.546 OA
ENDBRANCH  21  31
ENDBRANCH   9  21
ENDBRANCH   5   6
ENDBRANCH   4   5
ENDBRANCH   3   4
ENDBRANCH   2   3
ENDBRANCH   1   2
BRANCH   1  34
ATOM     34  C   UNL A   1      34.415  22.317  24.400  1.00  0.00     0.188 C 
BRANCH  34  35
ATOM     35  O   UNL A   1      35.740  22.431  23.912  1.00  0.00    -0.376 OA
BRANCH  35  36
ATOM     36  C   UNL A   1      36.768  21.510  24.255  1.00  0.00     0.202 C 
BRANCH  36  37
ATOM     37  C   UNL A   1      37.478  21.521  25.613  1.00  0.00     0.261 C 
BRANCH  37  38
ATOM     38  O   UNL A   1      38.617  22.382  25.682  1.00  0.00    -0.460 OA
BRANCH  38  39
ATOM     39  C   UNL A   1      38.291  23.519  26.360  1.00  0.00     0.338 C 
ATOM     40  O   UNL A   1      37.345  24.255  26.128  1.00  0.00    -0.246 OA
BRANCH  39  41
ATOM     41  C   UNL A   1      39.454  23.858  27.171  1.00  0.00     0.060 A 
ATOM     42  C   UNL A   1      39.637  25.076  27.727  1.00  0.00     0.016 A 
ATOM     43  C   UNL A   1      40.467  22.997  27.398  1.00  0.00     0.016 A 
ATOM     44  C   UNL A   1      40.954  25.413  28.238  1.00  0.00     0.010 A 
ATOM     45  C   UNL A   1      41.722  23.517  27.877  1.00  0.00     0.010 A 
ATOM     46  C   UNL A   1      42.252  24.875  28.106  1.00  0.00    -0.014 A 
BRANCH  46  47
ATOM     47  C   UNL A   1      43.934  25.656  28.543  1.00  0.00     0.031 A 
ATOM     48  C   UNL A   1      45.571  25.262  27.896  1.00  0.00     0.074 A 
ATOM     49  C   UNL A   1      44.407  26.456  29.667  1.00  0.00     0.049 A 
ATOM     50  N   UNL A   1      46.676  25.167  28.656  1.00  0.00    -0.248 NA
ATOM     51  C   UNL A   1      46.011  24.868  26.507  1.00  0.00     0.031 C 
ATOM     52  C   UNL A   1      45.673  27.210  29.835  1.00  0.00     0.029 A 
ATOM     53  N   UNL A   1      43.974  26.564  31.046  1.00  0.00    -0.354 N 
ATOM     54  C   UNL A   1      47.776  24.974  27.810  1.00  0.00     0.074 A 
ATOM     55  C   UNL A   1      47.238  24.419  26.657  1.00  0.00     0.031 C 
ATOM     56  C   UNL A   1      46.007  27.310  31.142  1.00  0.00     0.029 A 
ATOM     57  C   UNL A   1      44.999  26.686  31.986  1.00  0.00     0.049 A 
ATOM     58  H   UNL A   1      43.023  26.551  31.301  1.00  0.00     0.167 HD
ATOM     59  C   UNL A   1      49.028  25.510  27.876  1.00  0.00     0.031 A 
ATOM     60  C   UNL A   1      45.042  26.228  33.289  1.00  0.00     0.031 A 
ATOM     61  C   UNL A   1      49.327  26.065  29.161  1.00  0.00     0.049 A 
ATOM     62  C   UNL A   1      46.444  25.890  33.746  1.00  0.00     0.074 A 
ATOM     63  C   UNL A   1      49.463  27.340  29.670  1.00  0.00     0.029 A 
ATOM     64  N   UNL A   1      49.361  25.194  30.226  1.00  0.00    -0.354 N 
ATOM     65  N   UNL A   1      47.511  26.201  33.079  1.00  0.00    -0.248 NA
ATOM     66  C   UNL A   1      46.756  25.038  34.902  1.00  0.00     0.031 C 
ATOM     67  C   UNL A   1      49.589  27.227  31.079  1.00  0.00     0.029 A 
ATOM     68  C   UNL A   1      49.538  25.884  31.403  1.00  0.00     0.049 A 
ATOM     69  H   UNL A   1      49.273  24.216  30.156  1.00  0.00     0.167 HD
ATOM     70  C   UNL A   1      48.513  25.345  33.458  1.00  0.00     0.074 A 
ATOM     71  C   UNL A   1      48.044  24.736  34.681  1.00  0.00     0.031 C 
ATOM     72  C   UNL A   1      49.568  25.113  32.632  1.00  0.00     0.031 A 
BRANCH  59  73
ATOM     73  C   UNL A   1      49.859  25.779  26.595  1.00  0.00    -0.014 A 
ATOM     74  C   UNL A   1      51.158  25.253  26.488  1.00  0.00     0.009 A 
ATOM     75  C   UNL A   1      49.491  26.630  25.527  1.00  0.00     0.009 A 
ATOM     76  C   UNL A   1      52.062  25.671  25.491  1.00  0.00     0.001 A 
ATOM     77  C   UNL A   1      50.400  27.106  24.567  1.00  0.00     0.001 A 
ATOM     78  C   UNL A   1      51.700  26.638  24.562  1.00  0.00     0.000 A 
ENDBRANCH  59  73
BRANCH  60  79
ATOM     79  C   UNL A   1      43.839  25.606  34.001  1.00  0.00    -0.014 A 
ATOM     80  C   UNL A   1      43.653  24.211  34.081  1.00  0.00     0.009 A 
ATOM     81  C   UNL A   1      42.986  26.384  34.816  1.00  0.00     0.009 A 
ATOM     82  C   UNL A   1      42.803  23.642  35.060  1.00  0.00     0.001 A 
ATOM     83  C   UNL A   1      42.170  25.825  35.815  1.00  0.00     0.001 A 
ATOM     84  C   UNL A   1      42.106  24.447  35.962  1.00  0.00     0.000 A 
ENDBRANCH  60  79
BRANCH  72  85
ATOM     85  C   UNL A   1      50.666  24.095  32.802  1.00  0.00    -0.014 A 
ATOM     86  C   UNL A   1      52.031  24.327  32.608  1.00  0.00     0.009 A 
ATOM     87  C   UNL A   1      50.304  22.818  33.294  1.00  0.00     0.009 A 
ATOM     88  C   UNL A   1      52.978  23.317  32.839  1.00  0.00     0.001 A 
ATOM     89  C   UNL A   1      51.245  21.829  33.573  1.00  0.00     0.001 A 
ATOM     90  C   UNL A   1      52.586  22.072  33.324  1.00  0.00     0.000 A 
ENDBRANCH  72  85
ENDBRANCH  46  47
ENDBRANCH  39  41
ENDBRANCH  38  39
ENDBRANCH  37  38
ENDBRANCH  36  37
ENDBRANCH  35  36
ENDBRANCH  34  35
ENDBRANCH   1  34
TORSDOF 23
ENDMDL
MODEL 3
REMARK VINA RESULT:     -11.7      3.006      6.242
REMARK SMILES Cc1ccc(S(=O)(=O)/[NH+]=C(/N[C@@H](Cc2ccc(O)cc2)C(=O)[O-])OCCOCCOCCOC(=O)c2ccc(-c3c4nc(c(-c5ccccc5)c5ccc([nH]5)c(-c5ccccc5)c5nc(c(-c6ccccc6)c6ccc3[nH]6)C=C5)C=C4)cc2)cc1
REMARK SMILES IDX 28 1 27 2 26 3 25 4 24 5 10 6 9 7 11 9 6 11 7 12 8 13 5 14
REMARK SMILES IDX 1 15 2 16 3 17 85 18 4 19 84 20 12 21 13 22 14 23 15 24
REMARK SMILES IDX 20 25 16 26 19 27 17 28 18 29 21 31 22 32 23 33 29 34 30 35
REMARK SMILES IDX 31 36 32 37 33 38 34 39 35 40 36 41 37 42 83 43 38 44 82 45
REMARK SMILES IDX 39 46 40 47 41 48 76 49 42 50 81 51 75 52 77 53 43 54 80 55
REMARK SMILES IDX 74 56 73 57 44 59 66 60 51 61 65 62 52 63 55 64 64 65 78 66
REMARK SMILES IDX 53 67 54 68 63 70 79 71 56 72 45 73 46 74 50 75 47 76 49 77
REMARK SMILES IDX 48 78 67 79 68 80 72 81 69 82 71 83 70 84 57 85 58 86 62 87
REMARK SMILES IDX 59 88 61 89 60 90
REMARK H PARENT 9 8 11 10 18 30 77 58 55 69
REMARK Flexibility Score: inf
ROOT
ATOM      1  C   UNL A   1      39.950  25.303  27.038  1.00  0.00     0.188 C 
ENDROOT
BRANCH   1   2
ATOM      2  O   UNL A   1      39.646  24.025  26.474  1.00  0.00    -0.376 OA
BRANCH   2   3
ATOM      3  C   UNL A   1      38.326  23.501  26.319  1.00  0.00     0.202 C 
BRANCH   3   4
ATOM      4  C   UNL A   1      37.115  24.439  25.838  1.00  0.00     0.266 C 
BRANCH   4   5
ATOM      5  O   UNL A   1      35.812  24.045  24.645  1.00  0.00    -0.428 OA
BRANCH   5   6
ATOM      6  C   UNL A   1      34.740  23.325  23.958  1.00  0.00     0.458 C 
ATOM      7  N   UNL A   1      34.562  22.064  24.189  1.00  0.00    -0.129 N 
ATOM      8  H   UNL A   1      33.793  21.625  23.758  1.00  0.00     0.331 HD
ATOM      9  N   UNL A   1      33.930  23.739  22.831  1.00  0.00    -0.232 N 
ATOM     10  H   UNL A   1      34.246  23.387  21.968  1.00  0.00     0.309 HD
BRANCH   7  11
ATOM     11  S   UNL A   1      35.502  21.167  25.123  1.00  0.00     0.331 S 
ATOM     12  O   UNL A   1      35.339  21.554  26.510  1.00  0.00    -0.179 OA
ATOM     13  O   UNL A   1      36.823  20.988  24.550  1.00  0.00    -0.179 OA
BRANCH  11  14
ATOM     14  C   UNL A   1      34.706  19.569  24.981  1.00  0.00     0.109 A 
ATOM     15  C   UNL A   1      32.730  15.784  24.588  1.00  0.00     0.044 C 
ATOM     16  C   UNL A   1      33.439  17.093  24.772  1.00  0.00    -0.051 A 
ATOM     17  C   UNL A   1      32.721  18.227  25.179  1.00  0.00     0.005 A 
ATOM     18  C   UNL A   1      34.807  17.205  24.494  1.00  0.00     0.005 A 
ATOM     19  C   UNL A   1      33.352  19.466  25.292  1.00  0.00     0.025 A 
ATOM     20  C   UNL A   1      35.442  18.440  24.598  1.00  0.00     0.025 A 
ENDBRANCH  11  14
ENDBRANCH   7  11
BRANCH   9  21
ATOM     21  C   UNL A   1      32.640  24.642  22.713  1.00  0.00     0.227 C 
BRANCH  21  22
ATOM     22  C   UNL A   1      31.882  25.457  24.196  1.00  0.00     0.091 C 
BRANCH  22  23
ATOM     23  C   UNL A   1      32.353  26.687  25.392  1.00  0.00    -0.043 A 
ATOM     24  C   UNL A   1      31.363  27.349  26.145  1.00  0.00     0.008 A 
ATOM     25  C   UNL A   1      33.656  27.235  25.666  1.00  0.00     0.008 A 
ATOM     26  C   UNL A   1      31.673  28.460  27.004  1.00  0.00     0.046 A 
ATOM     27  C   UNL A   1      33.991  28.234  26.593  1.00  0.00     0.046 A 
ATOM     28  C   UNL A   1      32.979  28.887  27.228  1.00  0.00     0.115 A 
BRANCH  28  29
ATOM     29  O   UNL A   1      33.250  29.965  28.015  1.00  0.00    -0.508 OA
ATOM     30  H   UNL A   1      32.668  30.700  28.020  1.00  0.00     0.293 HD
ENDBRANCH  28  29
ENDBRANCH  22  23
ENDBRANCH  21  22
BRANCH  21  31
ATOM     31  C   UNL A   1      32.822  25.536  21.483  1.00  0.00     0.086 C 
ATOM     32  O   UNL A   1      33.728  26.336  21.287  1.00  0.00    -0.546 OA
ATOM     33  O   UNL A   1      31.774  25.579  20.641  1.00  0.00    -0.546 OA
ENDBRANCH  21  31
ENDBRANCH   9  21
ENDBRANCH   5   6
ENDBRANCH   4   5
ENDBRANCH   3   4
ENDBRANCH   2   3
ENDBRANCH   1   2
BRANCH   1  34
ATOM     34  C   UNL A   1      40.875  26.241  26.278  1.00  0.00     0.188 C 
BRANCH  34  35
ATOM     35  O   UNL A   1      41.605  25.703  25.189  1.00  0.00    -0.376 OA
BRANCH  35  36
ATOM     36  C   UNL A   1      43.020  25.809  25.085  1.00  0.00     0.202 C 
BRANCH  36  37
ATOM     37  C   UNL A   1      43.981  25.038  25.996  1.00  0.00     0.261 C 
BRANCH  37  38
ATOM     38  O   UNL A   1      44.095  25.563  27.321  1.00  0.00    -0.460 OA
BRANCH  38  39
ATOM     39  C   UNL A   1      44.928  26.643  27.315  1.00  0.00     0.338 C 
ATOM     40  O   UNL A   1      46.137  26.625  27.149  1.00  0.00    -0.246 OA
BRANCH  39  41
ATOM     41  C   UNL A   1      44.163  27.751  27.872  1.00  0.00     0.060 A 
ATOM     42  C   UNL A   1      44.417  29.045  27.580  1.00  0.00     0.016 A 
ATOM     43  C   UNL A   1      43.164  27.580  28.763  1.00  0.00     0.016 A 
ATOM     44  C   UNL A   1      43.823  30.074  28.416  1.00  0.00     0.010 A 
ATOM     45  C   UNL A   1      42.722  28.713  29.534  1.00  0.00     0.010 A 
ATOM     46  C   UNL A   1      43.192  30.104  29.678  1.00  0.00    -0.014 A 
BRANCH  46  47
ATOM     47  C   UNL A   1      42.803  31.595  30.799  1.00  0.00     0.031 A 
ATOM     48  C   UNL A   1      43.370  31.931  32.478  1.00  0.00     0.074 A 
ATOM     49  C   UNL A   1      41.758  32.613  30.789  1.00  0.00     0.049 A 
ATOM     50  N   UNL A   1      42.581  32.410  33.456  1.00  0.00    -0.248 NA
ATOM     51  C   UNL A   1      44.701  31.665  33.139  1.00  0.00     0.031 C 
ATOM     52  C   UNL A   1      41.642  33.868  31.568  1.00  0.00     0.029 A 
ATOM     53  N   UNL A   1      40.407  32.626  30.263  1.00  0.00    -0.354 N 
ATOM     54  C   UNL A   1      43.378  32.666  34.579  1.00  0.00     0.074 A 
ATOM     55  C   UNL A   1      44.479  31.835  34.424  1.00  0.00     0.031 C 
ATOM     56  C   UNL A   1      40.345  34.216  31.735  1.00  0.00     0.029 A 
ATOM     57  C   UNL A   1      39.463  33.276  31.061  1.00  0.00     0.049 A 
ATOM     58  H   UNL A   1      40.172  32.207  29.404  1.00  0.00     0.167 HD
ATOM     59  C   UNL A   1      43.341  33.714  35.451  1.00  0.00     0.031 A 
ATOM     60  C   UNL A   1      38.118  32.997  31.218  1.00  0.00     0.031 A 
ATOM     61  C   UNL A   1      42.115  34.448  35.383  1.00  0.00     0.049 A 
ATOM     62  C   UNL A   1      37.600  33.369  32.589  1.00  0.00     0.074 A 
ATOM     63  C   UNL A   1      41.738  35.684  34.901  1.00  0.00     0.029 A 
ATOM     64  N   UNL A   1      40.964  33.778  35.734  1.00  0.00    -0.354 N 
ATOM     65  N   UNL A   1      38.272  34.072  33.445  1.00  0.00    -0.248 NA
ATOM     66  C   UNL A   1      36.355  32.848  33.173  1.00  0.00     0.031 C 
ATOM     67  C   UNL A   1      40.322  35.757  34.971  1.00  0.00     0.029 A 
ATOM     68  C   UNL A   1      39.863  34.569  35.506  1.00  0.00     0.049 A 
ATOM     69  H   UNL A   1      40.935  32.864  36.098  1.00  0.00     0.167 HD
ATOM     70  C   UNL A   1      37.785  33.796  34.697  1.00  0.00     0.074 A 
ATOM     71  C   UNL A   1      36.516  33.145  34.471  1.00  0.00     0.031 C 
ATOM     72  C   UNL A   1      38.560  33.999  35.797  1.00  0.00     0.031 A 
BRANCH  59  73
ATOM     73  C   UNL A   1      44.625  34.222  36.156  1.00  0.00    -0.014 A 
ATOM     74  C   UNL A   1      45.698  34.697  35.383  1.00  0.00     0.009 A 
ATOM     75  C   UNL A   1      44.900  34.149  37.541  1.00  0.00     0.009 A 
ATOM     76  C   UNL A   1      46.980  34.919  35.925  1.00  0.00     0.001 A 
ATOM     77  C   UNL A   1      46.186  34.302  38.085  1.00  0.00     0.001 A 
ATOM     78  C   UNL A   1      47.237  34.670  37.267  1.00  0.00     0.000 A 
ENDBRANCH  59  73
BRANCH  60  79
ATOM     79  C   UNL A   1      37.372  31.959  30.378  1.00  0.00    -0.014 A 
ATOM     80  C   UNL A   1      36.760  32.285  29.151  1.00  0.00     0.009 A 
ATOM     81  C   UNL A   1      37.464  30.578  30.667  1.00  0.00     0.009 A 
ATOM     82  C   UNL A   1      36.445  31.282  28.202  1.00  0.00     0.001 A 
ATOM     83  C   UNL A   1      37.189  29.581  29.714  1.00  0.00     0.001 A 
ATOM     84  C   UNL A   1      36.711  29.938  28.462  1.00  0.00     0.000 A 
ENDBRANCH  60  79
BRANCH  72  85
ATOM     85  C   UNL A   1      38.262  33.605  37.220  1.00  0.00    -0.014 A 
ATOM     86  C   UNL A   1      37.688  32.397  37.630  1.00  0.00     0.009 A 
ATOM     87  C   UNL A   1      38.684  34.485  38.245  1.00  0.00     0.009 A 
ATOM     88  C   UNL A   1      37.494  32.111  38.990  1.00  0.00     0.001 A 
ATOM     89  C   UNL A   1      38.540  34.183  39.598  1.00  0.00     0.001 A 
ATOM     90  C   UNL A   1      37.923  33.000  39.972  1.00  0.00     0.000 A 
ENDBRANCH  72  85
ENDBRANCH  46  47
ENDBRANCH  39  41
ENDBRANCH  38  39
ENDBRANCH  37  38
ENDBRANCH  36  37
ENDBRANCH  35  36
ENDBRANCH  34  35
ENDBRANCH   1  34
TORSDOF 23
ENDMDL
