MODEL 1
REMARK VINA RESULT:     -10.1      0.000      0.000
REMARK SMILES CC[C@H](C(=O)OCCOCCOCCOC(=O)c1ccc(-c2c3nc(c(-c4ccccc4)c4ccc([nH]4)c(-c4ccccc4)c4nc(c(-c5ccccc5)c5ccc2[nH]5)C=C4)C=C3)cc1)N1C(=O)c2ccc([N+](=O)[O-])cc2C1=O
REMARK SMILES IDX 10 1 9 2 8 3 7 4 6 5 4 6 5 7 3 8 2 9 1 10 66 11 67 12 78 13
REMARK SMILES IDX 68 14 69 15 77 16 79 17 70 18 76 19 71 20 72 21 73 22 74 23
REMARK SMILES IDX 75 24 11 25 12 26 13 27 14 28 15 29 16 30 17 31 18 32 19 33
REMARK SMILES IDX 65 34 20 35 64 36 21 37 22 38 23 39 58 40 24 41 63 42 57 43
REMARK SMILES IDX 59 44 25 45 62 46 56 47 55 48 26 50 48 51 33 52 47 53 34 54
REMARK SMILES IDX 37 55 46 56 60 57 35 58 36 59 45 61 61 62 38 63 27 64 28 65
REMARK SMILES IDX 32 66 29 67 31 68 30 69 49 70 50 71 54 72 51 73 53 74 52 75
REMARK SMILES IDX 39 76 40 77 44 78 41 79 43 80 42 81
REMARK H PARENT 59 49 37 60
REMARK Flexibility Score: inf
ROOT
ATOM      1  C   UNL A   1      39.411  21.771  26.501  1.00  0.00     0.188 C 
ENDROOT
BRANCH   1   2
ATOM      2  O   UNL A   1      38.522  22.362  25.564  1.00  0.00    -0.376 OA
BRANCH   2   3
ATOM      3  C   UNL A   1      37.693  23.408  26.080  1.00  0.00     0.202 C 
BRANCH   3   4
ATOM      4  C   UNL A   1      36.510  23.790  25.185  1.00  0.00     0.261 C 
BRANCH   4   5
ATOM      5  O   UNL A   1      35.733  22.642  24.776  1.00  0.00    -0.462 OA
BRANCH   5   6
ATOM      6  C   UNL A   1      34.703  22.854  23.907  1.00  0.00     0.329 C 
ATOM      7  O   UNL A   1      34.849  23.239  22.752  1.00  0.00    -0.250 OA
BRANCH   6   8
ATOM      8  C   UNL A   1      33.338  22.833  24.617  1.00  0.00     0.203 C 
BRANCH   8   9
ATOM      9  C   UNL A   1      32.246  23.758  24.083  1.00  0.00     0.034 C 
ATOM     10  C   UNL A   1      31.335  24.266  25.196  1.00  0.00     0.007 C 
ENDBRANCH   8   9
BRANCH   8  11
ATOM     11  N   UNL A   1      32.976  21.419  24.600  1.00  0.00    -0.260 N 
ATOM     12  C   UNL A   1      32.537  20.760  23.484  1.00  0.00     0.262 C 
ATOM     13  C   UNL A   1      33.188  20.560  25.640  1.00  0.00     0.262 C 
ATOM     14  O   UNL A   1      32.109  21.183  22.430  1.00  0.00    -0.269 OA
ATOM     15  C   UNL A   1      32.687  19.343  23.766  1.00  0.00     0.053 A 
ATOM     16  C   UNL A   1      32.992  19.212  25.108  1.00  0.00     0.060 A 
ATOM     17  O   UNL A   1      33.513  20.800  26.787  1.00  0.00    -0.269 OA
ATOM     18  C   UNL A   1      32.631  18.267  22.901  1.00  0.00     0.022 A 
ATOM     19  C   UNL A   1      33.145  17.976  25.702  1.00  0.00     0.100 A 
ATOM     20  C   UNL A   1      32.823  17.002  23.457  1.00  0.00     0.086 A 
ATOM     21  C   UNL A   1      33.037  16.863  24.852  1.00  0.00     0.270 A 
BRANCH  21  22
ATOM     22  N   UNL A   1      33.129  15.519  25.422  1.00  0.00     0.062 N 
ATOM     23  O   UNL A   1      32.105  15.043  25.928  1.00  0.00    -0.258 OA
ATOM     24  O   UNL A   1      34.231  14.959  25.377  1.00  0.00    -0.258 OA
ENDBRANCH  21  22
ENDBRANCH   8  11
ENDBRANCH   6   8
ENDBRANCH   5   6
ENDBRANCH   4   5
ENDBRANCH   3   4
ENDBRANCH   2   3
ENDBRANCH   1   2
BRANCH   1  25
ATOM     25  C   UNL A   1      40.780  21.369  25.948  1.00  0.00     0.188 C 
BRANCH  25  26
ATOM     26  O   UNL A   1      41.750  22.401  25.825  1.00  0.00    -0.376 OA
BRANCH  26  27
ATOM     27  C   UNL A   1      43.078  21.960  25.510  1.00  0.00     0.202 C 
BRANCH  27  28
ATOM     28  C   UNL A   1      43.997  23.017  24.872  1.00  0.00     0.261 C 
BRANCH  28  29
ATOM     29  O   UNL A   1      43.480  24.364  24.863  1.00  0.00    -0.460 OA
BRANCH  29  30
ATOM     30  C   UNL A   1      44.276  25.365  25.309  1.00  0.00     0.338 C 
ATOM     31  O   UNL A   1      45.275  25.801  24.767  1.00  0.00    -0.246 OA
BRANCH  30  32
ATOM     32  C   UNL A   1      43.564  26.046  26.430  1.00  0.00     0.060 A 
ATOM     33  C   UNL A   1      43.856  27.395  26.692  1.00  0.00     0.016 A 
ATOM     34  C   UNL A   1      42.545  25.407  27.144  1.00  0.00     0.016 A 
ATOM     35  C   UNL A   1      43.161  28.092  27.687  1.00  0.00     0.010 A 
ATOM     36  C   UNL A   1      41.860  26.099  28.144  1.00  0.00     0.010 A 
ATOM     37  C   UNL A   1      42.185  27.434  28.446  1.00  0.00    -0.014 A 
BRANCH  37  38
ATOM     38  C   UNL A   1      41.673  28.016  29.712  1.00  0.00     0.031 A 
ATOM     39  C   UNL A   1      40.452  28.891  29.623  1.00  0.00     0.074 A 
ATOM     40  C   UNL A   1      42.275  27.829  30.900  1.00  0.00     0.049 A 
ATOM     41  N   UNL A   1      39.917  29.671  30.525  1.00  0.00    -0.248 NA
ATOM     42  C   UNL A   1      39.745  28.887  28.330  1.00  0.00     0.031 C 
ATOM     43  C   UNL A   1      43.415  26.952  31.153  1.00  0.00     0.029 A 
ATOM     44  N   UNL A   1      42.008  28.397  32.123  1.00  0.00    -0.354 N 
ATOM     45  C   UNL A   1      38.828  30.268  29.902  1.00  0.00     0.074 A 
ATOM     46  C   UNL A   1      38.788  29.775  28.543  1.00  0.00     0.031 C 
ATOM     47  C   UNL A   1      43.762  27.053  32.450  1.00  0.00     0.029 A 
ATOM     48  C   UNL A   1      42.902  28.042  33.104  1.00  0.00     0.049 A 
ATOM     49  H   UNL A   1      41.247  29.002  32.281  1.00  0.00     0.167 HD
ATOM     50  C   UNL A   1      37.938  31.151  30.410  1.00  0.00     0.031 A 
ATOM     51  C   UNL A   1      43.035  28.493  34.369  1.00  0.00     0.031 A 
ATOM     52  C   UNL A   1      37.981  31.659  31.752  1.00  0.00     0.049 A 
ATOM     53  C   UNL A   1      42.101  29.564  34.882  1.00  0.00     0.074 A 
ATOM     54  C   UNL A   1      37.134  32.573  32.354  1.00  0.00     0.029 A 
ATOM     55  N   UNL A   1      38.924  31.297  32.700  1.00  0.00    -0.354 N 
ATOM     56  N   UNL A   1      41.085  30.137  34.282  1.00  0.00    -0.248 NA
ATOM     57  C   UNL A   1      42.339  30.055  36.249  1.00  0.00     0.031 C 
ATOM     58  C   UNL A   1      37.595  32.801  33.654  1.00  0.00     0.029 A 
ATOM     59  C   UNL A   1      38.689  31.981  33.879  1.00  0.00     0.049 A 
ATOM     60  H   UNL A   1      39.652  30.650  32.556  1.00  0.00     0.167 HD
ATOM     61  C   UNL A   1      40.539  31.016  35.211  1.00  0.00     0.074 A 
ATOM     62  C   UNL A   1      41.334  30.905  36.414  1.00  0.00     0.031 C 
ATOM     63  C   UNL A   1      39.469  31.838  35.080  1.00  0.00     0.031 A 
BRANCH  50  64
ATOM     64  C   UNL A   1      36.867  31.654  29.488  1.00  0.00    -0.014 A 
ATOM     65  C   UNL A   1      35.693  30.918  29.264  1.00  0.00     0.009 A 
ATOM     66  C   UNL A   1      37.027  32.893  28.849  1.00  0.00     0.009 A 
ATOM     67  C   UNL A   1      34.715  31.399  28.391  1.00  0.00     0.001 A 
ATOM     68  C   UNL A   1      36.035  33.385  28.000  1.00  0.00     0.001 A 
ATOM     69  C   UNL A   1      34.884  32.635  27.766  1.00  0.00     0.000 A 
ENDBRANCH  50  64
BRANCH  51  70
ATOM     70  C   UNL A   1      44.118  27.975  35.249  1.00  0.00    -0.014 A 
ATOM     71  C   UNL A   1      45.351  28.641  35.330  1.00  0.00     0.009 A 
ATOM     72  C   UNL A   1      43.946  26.782  35.968  1.00  0.00     0.009 A 
ATOM     73  C   UNL A   1      46.398  28.105  36.087  1.00  0.00     0.001 A 
ATOM     74  C   UNL A   1      44.983  26.265  36.747  1.00  0.00     0.001 A 
ATOM     75  C   UNL A   1      46.213  26.920  36.796  1.00  0.00     0.000 A 
ENDBRANCH  51  70
BRANCH  63  76
ATOM     76  C   UNL A   1      39.034  32.628  36.282  1.00  0.00    -0.014 A 
ATOM     77  C   UNL A   1      38.141  32.101  37.226  1.00  0.00     0.009 A 
ATOM     78  C   UNL A   1      39.605  33.891  36.516  1.00  0.00     0.009 A 
ATOM     79  C   UNL A   1      37.813  32.834  38.371  1.00  0.00     0.001 A 
ATOM     80  C   UNL A   1      39.297  34.607  37.673  1.00  0.00     0.001 A 
ATOM     81  C   UNL A   1      38.397  34.080  38.597  1.00  0.00     0.000 A 
ENDBRANCH  63  76
ENDBRANCH  37  38
ENDBRANCH  30  32
ENDBRANCH  29  30
ENDBRANCH  28  29
ENDBRANCH  27  28
ENDBRANCH  26  27
ENDBRANCH  25  26
ENDBRANCH   1  25
TORSDOF 20
ENDMDL
MODEL 2
REMARK VINA RESULT:     -10.1      1.005      5.850
REMARK SMILES CC[C@H](C(=O)OCCOCCOCCOC(=O)c1ccc(-c2c3nc(c(-c4ccccc4)c4ccc([nH]4)c(-c4ccccc4)c4nc(c(-c5ccccc5)c5ccc2[nH]5)C=C4)C=C3)cc1)N1C(=O)c2ccc([N+](=O)[O-])cc2C1=O
REMARK SMILES IDX 10 1 9 2 8 3 7 4 6 5 4 6 5 7 3 8 2 9 1 10 66 11 67 12 78 13
REMARK SMILES IDX 68 14 69 15 77 16 79 17 70 18 76 19 71 20 72 21 73 22 74 23
REMARK SMILES IDX 75 24 11 25 12 26 13 27 14 28 15 29 16 30 17 31 18 32 19 33
REMARK SMILES IDX 65 34 20 35 64 36 21 37 22 38 23 39 58 40 24 41 63 42 57 43
REMARK SMILES IDX 59 44 25 45 62 46 56 47 55 48 26 50 48 51 33 52 47 53 34 54
REMARK SMILES IDX 37 55 46 56 60 57 35 58 36 59 45 61 61 62 38 63 27 64 28 65
REMARK SMILES IDX 32 66 29 67 31 68 30 69 49 70 50 71 54 72 51 73 53 74 52 75
REMARK SMILES IDX 39 76 40 77 44 78 41 79 43 80 42 81
REMARK H PARENT 59 49 37 60
REMARK Flexibility Score: inf
ROOT
ATOM      1  C   UNL A   1      39.701  21.809  26.514  1.00  0.00     0.188 C 
ENDROOT
BRANCH   1   2
ATOM      2  O   UNL A   1      38.708  21.531  25.538  1.00  0.00    -0.376 OA
BRANCH   2   3
ATOM      3  C   UNL A   1      37.612  22.451  25.498  1.00  0.00     0.202 C 
BRANCH   3   4
ATOM      4  C   UNL A   1      36.714  22.325  24.263  1.00  0.00     0.261 C 
BRANCH   4   5
ATOM      5  O   UNL A   1      35.716  23.368  24.196  1.00  0.00    -0.462 OA
BRANCH   5   6
ATOM      6  C   UNL A   1      34.559  23.093  23.528  1.00  0.00     0.329 C 
ATOM      7  O   UNL A   1      34.435  23.175  22.310  1.00  0.00    -0.250 OA
BRANCH   6   8
ATOM      8  C   UNL A   1      33.362  22.952  24.485  1.00  0.00     0.203 C 
BRANCH   8   9
ATOM      9  C   UNL A   1      32.126  23.805  24.205  1.00  0.00     0.034 C 
ATOM     10  C   UNL A   1      31.119  23.741  25.349  1.00  0.00     0.007 C 
ENDBRANCH   8   9
BRANCH   8  11
ATOM     11  N   UNL A   1      33.102  21.515  24.483  1.00  0.00    -0.260 N 
ATOM     12  C   UNL A   1      32.493  20.854  23.452  1.00  0.00     0.262 C 
ATOM     13  C   UNL A   1      33.581  20.649  25.424  1.00  0.00     0.262 C 
ATOM     14  O   UNL A   1      31.832  21.271  22.523  1.00  0.00    -0.269 OA
ATOM     15  C   UNL A   1      32.795  19.446  23.640  1.00  0.00     0.053 A 
ATOM     16  C   UNL A   1      33.375  19.304  24.887  1.00  0.00     0.060 A 
ATOM     17  O   UNL A   1      34.114  20.883  26.491  1.00  0.00    -0.269 OA
ATOM     18  C   UNL A   1      32.640  18.392  22.761  1.00  0.00     0.022 A 
ATOM     19  C   UNL A   1      33.730  18.068  25.388  1.00  0.00     0.100 A 
ATOM     20  C   UNL A   1      33.028  17.131  23.215  1.00  0.00     0.086 A 
ATOM     21  C   UNL A   1      33.529  16.973  24.532  1.00  0.00     0.270 A 
BRANCH  21  22
ATOM     22  N   UNL A   1      33.828  15.625  25.017  1.00  0.00     0.062 N 
ATOM     23  O   UNL A   1      32.873  14.857  25.191  1.00  0.00    -0.258 OA
ATOM     24  O   UNL A   1      35.014  15.353  25.240  1.00  0.00    -0.258 OA
ENDBRANCH  21  22
ENDBRANCH   8  11
ENDBRANCH   6   8
ENDBRANCH   5   6
ENDBRANCH   4   5
ENDBRANCH   3   4
ENDBRANCH   2   3
ENDBRANCH   1   2
BRANCH   1  25
ATOM     25  C   UNL A   1      41.097  22.109  25.967  1.00  0.00     0.188 C 
BRANCH  25  26
ATOM     26  O   UNL A   1      42.008  21.020  25.903  1.00  0.00    -0.376 OA
BRANCH  26  27
ATOM     27  C   UNL A   1      43.323  21.347  25.431  1.00  0.00     0.202 C 
BRANCH  27  28
ATOM     28  C   UNL A   1      43.437  22.660  24.634  1.00  0.00     0.261 C 
BRANCH  28  29
ATOM     29  O   UNL A   1      44.565  23.495  24.972  1.00  0.00    -0.460 OA
BRANCH  29  30
ATOM     30  C   UNL A   1      45.040  23.457  26.240  1.00  0.00     0.338 C 
ATOM     31  O   UNL A   1      46.045  22.889  26.627  1.00  0.00    -0.246 OA
BRANCH  30  32
ATOM     32  C   UNL A   1      44.289  24.469  27.038  1.00  0.00     0.060 A 
ATOM     33  C   UNL A   1      44.456  25.829  26.728  1.00  0.00     0.016 A 
ATOM     34  C   UNL A   1      43.350  24.090  28.002  1.00  0.00     0.016 A 
ATOM     35  C   UNL A   1      43.717  26.807  27.403  1.00  0.00     0.010 A 
ATOM     36  C   UNL A   1      42.621  25.066  28.684  1.00  0.00     0.010 A 
ATOM     37  C   UNL A   1      42.824  26.432  28.414  1.00  0.00    -0.014 A 
BRANCH  37  38
ATOM     38  C   UNL A   1      42.283  27.428  29.373  1.00  0.00     0.031 A 
ATOM     39  C   UNL A   1      42.989  27.563  30.696  1.00  0.00     0.074 A 
ATOM     40  C   UNL A   1      41.185  28.164  29.124  1.00  0.00     0.049 A 
ATOM     41  N   UNL A   1      42.621  28.201  31.776  1.00  0.00    -0.248 NA
ATOM     42  C   UNL A   1      44.284  26.870  30.813  1.00  0.00     0.031 C 
ATOM     43  C   UNL A   1      40.444  28.197  27.866  1.00  0.00     0.029 A 
ATOM     44  N   UNL A   1      40.492  29.018  29.947  1.00  0.00    -0.354 N 
ATOM     45  C   UNL A   1      43.627  27.967  32.706  1.00  0.00     0.074 A 
ATOM     46  C   UNL A   1      44.608  27.116  32.071  1.00  0.00     0.031 C 
ATOM     47  C   UNL A   1      39.387  29.018  28.006  1.00  0.00     0.029 A 
ATOM     48  C   UNL A   1      39.348  29.525  29.379  1.00  0.00     0.049 A 
ATOM     49  H   UNL A   1      40.787  29.246  30.858  1.00  0.00     0.167 HD
ATOM     50  C   UNL A   1      43.728  28.417  33.978  1.00  0.00     0.031 A 
ATOM     51  C   UNL A   1      38.365  30.277  29.917  1.00  0.00     0.031 A 
ATOM     52  C   UNL A   1      42.749  29.247  34.621  1.00  0.00     0.049 A 
ATOM     53  C   UNL A   1      38.440  30.674  31.373  1.00  0.00     0.074 A 
ATOM     54  C   UNL A   1      42.754  29.738  35.914  1.00  0.00     0.029 A 
ATOM     55  N   UNL A   1      41.591  29.708  34.018  1.00  0.00    -0.354 N 
ATOM     56  N   UNL A   1      39.385  30.435  32.251  1.00  0.00    -0.248 NA
ATOM     57  C   UNL A   1      37.306  31.442  31.912  1.00  0.00     0.031 C 
ATOM     58  C   UNL A   1      41.571  30.458  36.109  1.00  0.00     0.029 A 
ATOM     59  C   UNL A   1      40.865  30.466  34.918  1.00  0.00     0.049 A 
ATOM     60  H   UNL A   1      41.325  29.524  33.087  1.00  0.00     0.167 HD
ATOM     61  C   UNL A   1      38.980  31.059  33.426  1.00  0.00     0.074 A 
ATOM     62  C   UNL A   1      37.706  31.687  33.153  1.00  0.00     0.031 C 
ATOM     63  C   UNL A   1      39.613  31.112  34.624  1.00  0.00     0.031 A 
BRANCH  50  64
ATOM     64  C   UNL A   1      44.926  27.977  34.768  1.00  0.00    -0.014 A 
ATOM     65  C   UNL A   1      46.031  28.823  34.948  1.00  0.00     0.009 A 
ATOM     66  C   UNL A   1      44.938  26.704  35.358  1.00  0.00     0.009 A 
ATOM     67  C   UNL A   1      47.140  28.388  35.676  1.00  0.00     0.001 A 
ATOM     68  C   UNL A   1      46.035  26.283  36.110  1.00  0.00     0.001 A 
ATOM     69  C   UNL A   1      47.138  27.122  36.262  1.00  0.00     0.000 A 
ENDBRANCH  50  64
BRANCH  51  70
ATOM     70  C   UNL A   1      37.189  30.684  29.101  1.00  0.00    -0.014 A 
ATOM     71  C   UNL A   1      37.034  32.018  28.688  1.00  0.00     0.009 A 
ATOM     72  C   UNL A   1      36.186  29.757  28.779  1.00  0.00     0.009 A 
ATOM     73  C   UNL A   1      35.885  32.418  27.999  1.00  0.00     0.001 A 
ATOM     74  C   UNL A   1      35.054  30.154  28.064  1.00  0.00     0.001 A 
ATOM     75  C   UNL A   1      34.898  31.486  27.685  1.00  0.00     0.000 A 
ENDBRANCH  51  70
BRANCH  63  76
ATOM     76  C   UNL A   1      38.991  31.938  35.715  1.00  0.00    -0.014 A 
ATOM     77  C   UNL A   1      39.092  33.336  35.730  1.00  0.00     0.009 A 
ATOM     78  C   UNL A   1      38.210  31.302  36.696  1.00  0.00     0.009 A 
ATOM     79  C   UNL A   1      38.441  34.079  36.719  1.00  0.00     0.001 A 
ATOM     80  C   UNL A   1      37.539  32.048  37.665  1.00  0.00     0.001 A 
ATOM     81  C   UNL A   1      37.659  33.435  37.678  1.00  0.00     0.000 A 
ENDBRANCH  63  76
ENDBRANCH  37  38
ENDBRANCH  30  32
ENDBRANCH  29  30
ENDBRANCH  28  29
ENDBRANCH  27  28
ENDBRANCH  26  27
ENDBRANCH  25  26
ENDBRANCH   1  25
TORSDOF 20
ENDMDL
MODEL 3
REMARK VINA RESULT:     -10.1      2.051      4.063
REMARK SMILES CC[C@H](C(=O)OCCOCCOCCOC(=O)c1ccc(-c2c3nc(c(-c4ccccc4)c4ccc([nH]4)c(-c4ccccc4)c4nc(c(-c5ccccc5)c5ccc2[nH]5)C=C4)C=C3)cc1)N1C(=O)c2ccc([N+](=O)[O-])cc2C1=O
REMARK SMILES IDX 10 1 9 2 8 3 7 4 6 5 4 6 5 7 3 8 2 9 1 10 66 11 67 12 78 13
REMARK SMILES IDX 68 14 69 15 77 16 79 17 70 18 76 19 71 20 72 21 73 22 74 23
REMARK SMILES IDX 75 24 11 25 12 26 13 27 14 28 15 29 16 30 17 31 18 32 19 33
REMARK SMILES IDX 65 34 20 35 64 36 21 37 22 38 23 39 58 40 24 41 63 42 57 43
REMARK SMILES IDX 59 44 25 45 62 46 56 47 55 48 26 50 48 51 33 52 47 53 34 54
REMARK SMILES IDX 37 55 46 56 60 57 35 58 36 59 45 61 61 62 38 63 27 64 28 65
REMARK SMILES IDX 32 66 29 67 31 68 30 69 49 70 50 71 54 72 51 73 53 74 52 75
REMARK SMILES IDX 39 76 40 77 44 78 41 79 43 80 42 81
REMARK H PARENT 59 49 37 60
REMARK Flexibility Score: inf
ROOT
ATOM      1  C   UNL A   1      40.453  21.854  27.182  1.00  0.00     0.188 C 
ENDROOT
BRANCH   1   2
ATOM      2  O   UNL A   1      39.741  22.499  26.136  1.00  0.00    -0.376 OA
BRANCH   2   3
ATOM      3  C   UNL A   1      38.956  23.627  26.534  1.00  0.00     0.202 C 
BRANCH   3   4
ATOM      4  C   UNL A   1      37.545  23.669  25.938  1.00  0.00     0.261 C 
BRANCH   4   5
ATOM      5  O   UNL A   1      37.202  22.450  25.240  1.00  0.00    -0.462 OA
BRANCH   5   6
ATOM      6  C   UNL A   1      36.500  22.564  24.077  1.00  0.00     0.329 C 
ATOM      7  O   UNL A   1      36.891  23.190  23.098  1.00  0.00    -0.250 OA
BRANCH   6   8
ATOM      8  C   UNL A   1      35.051  22.067  24.230  1.00  0.00     0.203 C 
BRANCH   8   9
ATOM      9  C   UNL A   1      34.770  21.020  25.307  1.00  0.00     0.034 C 
ATOM     10  C   UNL A   1      34.428  19.661  24.703  1.00  0.00     0.007 C 
ENDBRANCH   8   9
BRANCH   8  11
ATOM     11  N   UNL A   1      34.291  23.303  24.396  1.00  0.00    -0.260 N 
ATOM     12  C   UNL A   1      34.082  23.912  25.603  1.00  0.00     0.262 C 
ATOM     13  C   UNL A   1      33.850  24.075  23.360  1.00  0.00     0.262 C 
ATOM     14  O   UNL A   1      34.201  23.490  26.735  1.00  0.00    -0.269 OA
ATOM     15  C   UNL A   1      33.672  25.272  25.304  1.00  0.00     0.053 A 
ATOM     16  C   UNL A   1      33.436  25.351  23.944  1.00  0.00     0.060 A 
ATOM     17  O   UNL A   1      33.815  23.828  22.170  1.00  0.00    -0.269 OA
ATOM     18  C   UNL A   1      33.582  26.365  26.145  1.00  0.00     0.022 A 
ATOM     19  C   UNL A   1      32.977  26.509  23.351  1.00  0.00     0.100 A 
ATOM     20  C   UNL A   1      33.162  27.566  25.574  1.00  0.00     0.086 A 
ATOM     21  C   UNL A   1      32.825  27.619  24.197  1.00  0.00     0.270 A 
BRANCH  21  22
ATOM     22  N   UNL A   1      32.286  28.864  23.650  1.00  0.00     0.062 N 
ATOM     23  O   UNL A   1      32.467  29.083  22.445  1.00  0.00    -0.258 OA
ATOM     24  O   UNL A   1      31.704  29.624  24.434  1.00  0.00    -0.258 OA
ENDBRANCH  21  22
ENDBRANCH   8  11
ENDBRANCH   6   8
ENDBRANCH   5   6
ENDBRANCH   4   5
ENDBRANCH   3   4
ENDBRANCH   2   3
ENDBRANCH   1   2
BRANCH   1  25
ATOM     25  C   UNL A   1      41.626  20.979  26.737  1.00  0.00     0.188 C 
BRANCH  25  26
ATOM     26  O   UNL A   1      42.300  21.366  25.547  1.00  0.00    -0.376 OA
BRANCH  26  27
ATOM     27  C   UNL A   1      43.732  21.331  25.614  1.00  0.00     0.202 C 
BRANCH  27  28
ATOM     28  C   UNL A   1      44.465  22.379  24.757  1.00  0.00     0.261 C 
BRANCH  28  29
ATOM     29  O   UNL A   1      43.872  23.695  24.746  1.00  0.00    -0.460 OA
BRANCH  29  30
ATOM     30  C   UNL A   1      44.621  24.746  25.157  1.00  0.00     0.338 C 
ATOM     31  O   UNL A   1      45.603  25.204  24.602  1.00  0.00    -0.246 OA
BRANCH  30  32
ATOM     32  C   UNL A   1      43.876  25.436  26.249  1.00  0.00     0.060 A 
ATOM     33  C   UNL A   1      44.107  26.805  26.461  1.00  0.00     0.016 A 
ATOM     34  C   UNL A   1      42.884  24.780  26.984  1.00  0.00     0.016 A 
ATOM     35  C   UNL A   1      43.377  27.508  27.427  1.00  0.00     0.010 A 
ATOM     36  C   UNL A   1      42.164  25.478  27.956  1.00  0.00     0.010 A 
ATOM     37  C   UNL A   1      42.429  26.836  28.208  1.00  0.00    -0.014 A 
BRANCH  37  38
ATOM     38  C   UNL A   1      41.887  27.442  29.450  1.00  0.00     0.031 A 
ATOM     39  C   UNL A   1      40.584  28.190  29.339  1.00  0.00     0.074 A 
ATOM     40  C   UNL A   1      42.526  27.386  30.632  1.00  0.00     0.049 A 
ATOM     41  N   UNL A   1      39.994  28.969  30.207  1.00  0.00    -0.248 NA
ATOM     42  C   UNL A   1      39.858  28.040  28.066  1.00  0.00     0.031 C 
ATOM     43  C   UNL A   1      43.750  26.639  30.908  1.00  0.00     0.029 A 
ATOM     44  N   UNL A   1      42.227  27.999  31.825  1.00  0.00    -0.354 N 
ATOM     45  C   UNL A   1      38.840  29.420  29.576  1.00  0.00     0.074 A 
ATOM     46  C   UNL A   1      38.823  28.843  28.250  1.00  0.00     0.031 C 
ATOM     47  C   UNL A   1      44.109  26.852  32.188  1.00  0.00     0.029 A 
ATOM     48  C   UNL A   1      43.170  27.792  32.804  1.00  0.00     0.049 A 
ATOM     49  H   UNL A   1      41.414  28.537  31.966  1.00  0.00     0.167 HD
ATOM     50  C   UNL A   1      37.878  30.242  30.054  1.00  0.00     0.031 A 
ATOM     51  C   UNL A   1      43.281  28.329  34.036  1.00  0.00     0.031 A 
ATOM     52  C   UNL A   1      37.897  30.833  31.362  1.00  0.00     0.049 A 
ATOM     53  C   UNL A   1      42.258  29.335  34.508  1.00  0.00     0.074 A 
ATOM     54  C   UNL A   1      36.977  31.696  31.930  1.00  0.00     0.029 A 
ATOM     55  N   UNL A   1      38.888  30.621  32.306  1.00  0.00    -0.354 N 
ATOM     56  N   UNL A   1      41.180  29.770  33.901  1.00  0.00    -0.248 NA
ATOM     57  C   UNL A   1      42.472  29.928  35.838  1.00  0.00     0.031 C 
ATOM     58  C   UNL A   1      37.438  32.045  33.203  1.00  0.00     0.029 A 
ATOM     59  C   UNL A   1      38.610  31.349  33.448  1.00  0.00     0.049 A 
ATOM     60  H   UNL A   1      39.672  30.038  32.183  1.00  0.00     0.167 HD
ATOM     61  C   UNL A   1      40.569  30.648  34.789  1.00  0.00     0.074 A 
ATOM     62  C   UNL A   1      41.393  30.687  35.977  1.00  0.00     0.031 C 
ATOM     63  C   UNL A   1      39.422  31.355  34.636  1.00  0.00     0.031 A 
BRANCH  50  64
ATOM     64  C   UNL A   1      36.747  30.584  29.130  1.00  0.00    -0.014 A 
ATOM     65  C   UNL A   1      35.810  29.616  28.736  1.00  0.00     0.009 A 
ATOM     66  C   UNL A   1      36.605  31.900  28.663  1.00  0.00     0.009 A 
ATOM     67  C   UNL A   1      34.772  29.953  27.864  1.00  0.00     0.001 A 
ATOM     68  C   UNL A   1      35.550  32.240  27.816  1.00  0.00     0.001 A 
ATOM     69  C   UNL A   1      34.640  31.266  27.411  1.00  0.00     0.000 A 
ENDBRANCH  50  64
BRANCH  51  70
ATOM     70  C   UNL A   1      44.426  27.971  34.919  1.00  0.00    -0.014 A 
ATOM     71  C   UNL A   1      44.316  26.911  35.833  1.00  0.00     0.009 A 
ATOM     72  C   UNL A   1      45.611  28.721  34.893  1.00  0.00     0.009 A 
ATOM     73  C   UNL A   1      45.358  26.633  36.724  1.00  0.00     0.001 A 
ATOM     74  C   UNL A   1      46.661  28.421  35.763  1.00  0.00     0.001 A 
ATOM     75  C   UNL A   1      46.530  27.385  36.686  1.00  0.00     0.000 A 
ENDBRANCH  51  70
BRANCH  63  76
ATOM     76  C   UNL A   1      38.935  32.171  35.801  1.00  0.00    -0.014 A 
ATOM     77  C   UNL A   1      38.124  31.616  36.801  1.00  0.00     0.009 A 
ATOM     78  C   UNL A   1      39.376  33.498  35.940  1.00  0.00     0.009 A 
ATOM     79  C   UNL A   1      37.748  32.383  37.908  1.00  0.00     0.001 A 
ATOM     80  C   UNL A   1      39.021  34.252  37.059  1.00  0.00     0.001 A 
ATOM     81  C   UNL A   1      38.204  33.694  38.040  1.00  0.00     0.000 A 
ENDBRANCH  63  76
ENDBRANCH  37  38
ENDBRANCH  30  32
ENDBRANCH  29  30
ENDBRANCH  28  29
ENDBRANCH  27  28
ENDBRANCH  26  27
ENDBRANCH  25  26
ENDBRANCH   1  25
TORSDOF 20
ENDMDL
