MODEL 1
REMARK VINA RESULT:      -9.2      0.000      0.000
REMARK SMILES CC[NH2+][C@@]1(C(=O)OCCOCCOCCOC(=O)c2ccc(-c3c4nc(c(-c5ccccc5)c5ccc([nH]5)c(-c5ccccc5)c5nc(c(-c6ccccc6)c6ccc3[nH]6)C=C5)C=C4)cc2)CCC[C@@H]([N@@H+](C)C2CCCC2)C1
REMARK SMILES IDX 11 1 10 2 9 3 8 4 7 5 5 6 6 7 4 8 67 9 78 10 68 11 70 12
REMARK SMILES IDX 69 13 3 14 2 17 1 18 71 19 72 20 73 22 74 23 77 24 75 25
REMARK SMILES IDX 76 26 12 27 13 28 14 29 15 30 16 31 17 32 18 33 19 34 20 35
REMARK SMILES IDX 66 36 21 37 65 38 22 39 23 40 24 41 59 42 25 43 64 44 58 45
REMARK SMILES IDX 60 46 26 47 63 48 57 49 56 50 27 52 49 53 34 54 48 55 35 56
REMARK SMILES IDX 38 57 47 58 61 59 36 60 37 61 46 63 62 64 39 65 28 66 29 67
REMARK SMILES IDX 33 68 30 69 32 70 31 71 50 72 51 73 55 74 52 75 54 76 53 77
REMARK SMILES IDX 40 78 41 79 45 80 42 81 44 82 43 83
REMARK H PARENT 3 15 3 16 71 21 60 51 38 62
REMARK Flexibility Score: inf
ROOT
ATOM      1  C   UNL A   1      37.266  23.845  26.101  1.00  0.00     0.188 C 
ENDROOT
BRANCH   1   2
ATOM      2  O   UNL A   1      35.883  23.544  25.962  1.00  0.00    -0.376 OA
BRANCH   2   3
ATOM      3  C   UNL A   1      35.131  24.261  24.991  1.00  0.00     0.202 C 
BRANCH   3   4
ATOM      4  C   UNL A   1      34.186  25.375  25.471  1.00  0.00     0.261 C 
BRANCH   4   5
ATOM      5  O   UNL A   1      32.874  25.397  24.860  1.00  0.00    -0.459 OA
BRANCH   5   6
ATOM      6  C   UNL A   1      32.557  26.536  24.196  1.00  0.00     0.368 C 
ATOM      7  O   UNL A   1      33.019  26.808  23.087  1.00  0.00    -0.245 OA
BRANCH   6   8
ATOM      8  C   UNL A   1      31.611  27.533  24.958  1.00  0.00     0.200 C 
ATOM      9  C   UNL A   1      30.740  26.624  25.851  1.00  0.00     0.081 C 
ATOM     10  C   UNL A   1      30.585  28.427  24.226  1.00  0.00     0.146 C 
ATOM     11  C   UNL A   1      29.867  25.709  24.974  1.00  0.00     0.013 C 
ATOM     12  C   UNL A   1      29.598  27.713  23.303  1.00  0.00     0.190 C 
ATOM     13  C   UNL A   1      29.007  26.425  23.919  1.00  0.00     0.065 C 
BRANCH   8  14
ATOM     14  N   UNL A   1      32.404  28.559  25.710  1.00  0.00    -0.332 N 
ATOM     15  H   UNL A   1      32.223  28.409  26.703  1.00  0.00     0.347 HD
ATOM     16  H   UNL A   1      33.362  28.409  25.393  1.00  0.00     0.347 HD
BRANCH  14  17
ATOM     17  C   UNL A   1      32.166  29.972  25.442  1.00  0.00     0.257 C 
ATOM     18  C   UNL A   1      32.345  30.755  26.738  1.00  0.00     0.071 C 
ENDBRANCH  14  17
ENDBRANCH   8  14
BRANCH  12  19
ATOM     19  N   UNL A   1      28.623  28.664  22.698  1.00  0.00    -0.332 N 
ATOM     20  C   UNL A   1      27.285  28.505  23.275  1.00  0.00     0.333 C 
ATOM     21  H   UNL A   1      28.666  28.350  21.728  1.00  0.00     0.348 HD
BRANCH  19  22
ATOM     22  C   UNL A   1      28.959  30.089  22.520  1.00  0.00     0.184 C 
ATOM     23  C   UNL A   1      28.557  30.819  21.234  1.00  0.00     0.065 C 
ATOM     24  C   UNL A   1      28.509  31.033  23.660  1.00  0.00     0.065 C 
ATOM     25  C   UNL A   1      28.755  32.284  21.589  1.00  0.00     0.006 C 
ATOM     26  C   UNL A   1      28.172  32.371  22.991  1.00  0.00     0.006 C 
ENDBRANCH  19  22
ENDBRANCH  12  19
ENDBRANCH   6   8
ENDBRANCH   5   6
ENDBRANCH   4   5
ENDBRANCH   3   4
ENDBRANCH   2   3
ENDBRANCH   1   2
BRANCH   1  27
ATOM     27  C   UNL A   1      38.311  22.783  25.726  1.00  0.00     0.188 C 
BRANCH  27  28
ATOM     28  O   UNL A   1      37.940  21.455  26.035  1.00  0.00    -0.376 OA
BRANCH  28  29
ATOM     29  C   UNL A   1      37.829  20.561  24.940  1.00  0.00     0.202 C 
BRANCH  29  30
ATOM     30  C   UNL A   1      39.069  19.666  24.781  1.00  0.00     0.261 C 
BRANCH  30  31
ATOM     31  O   UNL A   1      39.815  19.425  25.992  1.00  0.00    -0.460 OA
BRANCH  31  32
ATOM     32  C   UNL A   1      41.140  19.711  25.969  1.00  0.00     0.338 C 
ATOM     33  O   UNL A   1      42.009  19.087  25.381  1.00  0.00    -0.246 OA
BRANCH  32  34
ATOM     34  C   UNL A   1      41.327  21.061  26.560  1.00  0.00     0.060 A 
ATOM     35  C   UNL A   1      41.806  22.101  25.745  1.00  0.00     0.016 A 
ATOM     36  C   UNL A   1      40.994  21.319  27.891  1.00  0.00     0.016 A 
ATOM     37  C   UNL A   1      41.991  23.386  26.269  1.00  0.00     0.010 A 
ATOM     38  C   UNL A   1      41.202  22.597  28.421  1.00  0.00     0.010 A 
ATOM     39  C   UNL A   1      41.738  23.628  27.625  1.00  0.00    -0.014 A 
BRANCH  39  40
ATOM     40  C   UNL A   1      42.246  24.863  28.280  1.00  0.00     0.031 A 
ATOM     41  C   UNL A   1      41.268  25.986  28.512  1.00  0.00     0.074 A 
ATOM     42  C   UNL A   1      43.528  25.013  28.654  1.00  0.00     0.049 A 
ATOM     43  N   UNL A   1      41.479  27.199  28.958  1.00  0.00    -0.248 NA
ATOM     44  C   UNL A   1      39.861  25.699  28.186  1.00  0.00     0.031 C 
ATOM     45  C   UNL A   1      44.573  23.998  28.547  1.00  0.00     0.029 A 
ATOM     46  N   UNL A   1      44.172  26.103  29.193  1.00  0.00    -0.354 N 
ATOM     47  C   UNL A   1      40.236  27.823  28.948  1.00  0.00     0.074 A 
ATOM     48  C   UNL A   1      39.284  26.866  28.427  1.00  0.00     0.031 C 
ATOM     49  C   UNL A   1      45.732  24.519  28.992  1.00  0.00     0.029 A 
ATOM     50  C   UNL A   1      45.520  25.915  29.375  1.00  0.00     0.049 A 
ATOM     51  H   UNL A   1      43.708  26.941  29.426  1.00  0.00     0.167 HD
ATOM     52  C   UNL A   1      39.909  29.077  29.338  1.00  0.00     0.031 A 
ATOM     53  C   UNL A   1      46.476  26.778  29.776  1.00  0.00     0.031 A 
ATOM     54  C   UNL A   1      40.850  30.041  29.841  1.00  0.00     0.049 A 
ATOM     55  C   UNL A   1      46.107  28.202  30.116  1.00  0.00     0.074 A 
ATOM     56  C   UNL A   1      40.611  31.335  30.268  1.00  0.00     0.029 A 
ATOM     57  N   UNL A   1      42.211  29.819  29.975  1.00  0.00    -0.354 N 
ATOM     58  N   UNL A   1      44.928  28.776  30.118  1.00  0.00    -0.248 NA
ATOM     59  C   UNL A   1      47.207  29.096  30.512  1.00  0.00     0.031 C 
ATOM     60  C   UNL A   1      41.837  31.918  30.602  1.00  0.00     0.029 A 
ATOM     61  C   UNL A   1      42.829  30.962  30.452  1.00  0.00     0.049 A 
ATOM     62  H   UNL A   1      42.670  28.974  29.763  1.00  0.00     0.167 HD
ATOM     63  C   UNL A   1      45.140  30.082  30.548  1.00  0.00     0.074 A 
ATOM     64  C   UNL A   1      46.558  30.213  30.809  1.00  0.00     0.031 C 
ATOM     65  C   UNL A   1      44.240  31.083  30.715  1.00  0.00     0.031 A 
BRANCH  52  66
ATOM     66  C   UNL A   1      38.472  29.491  29.191  1.00  0.00    -0.014 A 
ATOM     67  C   UNL A   1      37.601  29.516  30.293  1.00  0.00     0.009 A 
ATOM     68  C   UNL A   1      37.987  29.880  27.933  1.00  0.00     0.009 A 
ATOM     69  C   UNL A   1      36.264  29.886  30.128  1.00  0.00     0.001 A 
ATOM     70  C   UNL A   1      36.659  30.281  27.778  1.00  0.00     0.001 A 
ATOM     71  C   UNL A   1      35.796  30.273  28.873  1.00  0.00     0.000 A 
ENDBRANCH  52  66
BRANCH  53  72
ATOM     72  C   UNL A   1      47.897  26.341  29.854  1.00  0.00    -0.014 A 
ATOM     73  C   UNL A   1      48.744  26.448  28.739  1.00  0.00     0.009 A 
ATOM     74  C   UNL A   1      48.404  25.771  31.033  1.00  0.00     0.009 A 
ATOM     75  C   UNL A   1      50.056  25.970  28.796  1.00  0.00     0.001 A 
ATOM     76  C   UNL A   1      49.725  25.323  31.097  1.00  0.00     0.001 A 
ATOM     77  C   UNL A   1      50.547  25.413  29.975  1.00  0.00     0.000 A 
ENDBRANCH  53  72
BRANCH  65  78
ATOM     78  C   UNL A   1      44.744  32.395  31.255  1.00  0.00    -0.014 A 
ATOM     79  C   UNL A   1      44.770  32.663  32.632  1.00  0.00     0.009 A 
ATOM     80  C   UNL A   1      45.252  33.357  30.367  1.00  0.00     0.009 A 
ATOM     81  C   UNL A   1      45.262  33.883  33.105  1.00  0.00     0.001 A 
ATOM     82  C   UNL A   1      45.773  34.562  30.845  1.00  0.00     0.001 A 
ATOM     83  C   UNL A   1      45.768  34.828  32.212  1.00  0.00     0.000 A 
ENDBRANCH  65  78
ENDBRANCH  39  40
ENDBRANCH  32  34
ENDBRANCH  31  32
ENDBRANCH  30  31
ENDBRANCH  29  30
ENDBRANCH  28  29
ENDBRANCH  27  28
ENDBRANCH   1  27
TORSDOF 21
ENDMDL
MODEL 2
REMARK VINA RESULT:      -8.8      3.421      8.555
REMARK SMILES CC[NH2+][C@@]1(C(=O)OCCOCCOCCOC(=O)c2ccc(-c3c4nc(c(-c5ccccc5)c5ccc([nH]5)c(-c5ccccc5)c5nc(c(-c6ccccc6)c6ccc3[nH]6)C=C5)C=C4)cc2)CCC[C@@H]([N@@H+](C)C2CCCC2)C1
REMARK SMILES IDX 11 1 10 2 9 3 8 4 7 5 5 6 6 7 4 8 67 9 78 10 68 11 70 12
REMARK SMILES IDX 69 13 3 14 2 17 1 18 71 19 72 20 73 22 74 23 77 24 75 25
REMARK SMILES IDX 76 26 12 27 13 28 14 29 15 30 16 31 17 32 18 33 19 34 20 35
REMARK SMILES IDX 66 36 21 37 65 38 22 39 23 40 24 41 59 42 25 43 64 44 58 45
REMARK SMILES IDX 60 46 26 47 63 48 57 49 56 50 27 52 49 53 34 54 48 55 35 56
REMARK SMILES IDX 38 57 47 58 61 59 36 60 37 61 46 63 62 64 39 65 28 66 29 67
REMARK SMILES IDX 33 68 30 69 32 70 31 71 50 72 51 73 55 74 52 75 54 76 53 77
REMARK SMILES IDX 40 78 41 79 45 80 42 81 44 82 43 83
REMARK H PARENT 3 15 3 16 71 21 60 51 38 62
REMARK Flexibility Score: inf
ROOT
ATOM      1  C   UNL A   1      34.474  31.826  27.599  1.00  0.00     0.188 C 
ENDROOT
BRANCH   1   2
ATOM      2  O   UNL A   1      35.342  30.751  27.939  1.00  0.00    -0.376 OA
BRANCH   2   3
ATOM      3  C   UNL A   1      34.942  29.428  27.599  1.00  0.00     0.202 C 
BRANCH   3   4
ATOM      4  C   UNL A   1      33.441  29.133  27.444  1.00  0.00     0.261 C 
BRANCH   4   5
ATOM      5  O   UNL A   1      33.107  27.842  26.883  1.00  0.00    -0.459 OA
BRANCH   5   6
ATOM      6  C   UNL A   1      31.783  27.602  26.713  1.00  0.00     0.368 C 
ATOM      7  O   UNL A   1      30.974  27.659  27.640  1.00  0.00    -0.245 OA
BRANCH   6   8
ATOM      8  C   UNL A   1      31.344  27.174  25.265  1.00  0.00     0.200 C 
ATOM      9  C   UNL A   1      30.121  26.262  25.494  1.00  0.00     0.081 C 
ATOM     10  C   UNL A   1      32.257  26.346  24.333  1.00  0.00     0.146 C 
ATOM     11  C   UNL A   1      30.546  24.996  26.261  1.00  0.00     0.013 C 
ATOM     12  C   UNL A   1      32.786  25.028  24.895  1.00  0.00     0.190 C 
ATOM     13  C   UNL A   1      31.711  24.206  25.642  1.00  0.00     0.065 C 
BRANCH   8  14
ATOM     14  N   UNL A   1      31.069  28.374  24.410  1.00  0.00    -0.332 N 
ATOM     15  H   UNL A   1      30.688  29.097  25.022  1.00  0.00     0.347 HD
ATOM     16  H   UNL A   1      31.967  28.575  23.972  1.00  0.00     0.347 HD
BRANCH  14  17
ATOM     17  C   UNL A   1      30.153  28.244  23.284  1.00  0.00     0.257 C 
ATOM     18  C   UNL A   1      29.362  29.540  23.142  1.00  0.00     0.071 C 
ENDBRANCH  14  17
ENDBRANCH   8  14
BRANCH  12  19
ATOM     19  N   UNL A   1      33.604  24.289  23.892  1.00  0.00    -0.332 N 
ATOM     20  C   UNL A   1      33.262  24.682  22.522  1.00  0.00     0.333 C 
ATOM     21  H   UNL A   1      33.308  23.336  24.107  1.00  0.00     0.348 HD
BRANCH  19  22
ATOM     22  C   UNL A   1      35.063  24.146  24.056  1.00  0.00     0.184 C 
ATOM     23  C   UNL A   1      35.667  23.994  25.456  1.00  0.00     0.065 C 
ATOM     24  C   UNL A   1      35.726  23.024  23.223  1.00  0.00     0.065 C 
ATOM     25  C   UNL A   1      37.087  23.530  25.173  1.00  0.00     0.006 C 
ATOM     26  C   UNL A   1      36.890  22.499  24.072  1.00  0.00     0.006 C 
ENDBRANCH  19  22
ENDBRANCH  12  19
ENDBRANCH   6   8
ENDBRANCH   5   6
ENDBRANCH   4   5
ENDBRANCH   3   4
ENDBRANCH   2   3
ENDBRANCH   1   2
BRANCH   1  27
ATOM     27  C   UNL A   1      34.798  33.243  28.095  1.00  0.00     0.188 C 
BRANCH  27  28
ATOM     28  O   UNL A   1      35.266  33.310  29.426  1.00  0.00    -0.376 OA
BRANCH  28  29
ATOM     29  C   UNL A   1      34.327  32.999  30.441  1.00  0.00     0.202 C 
BRANCH  29  30
ATOM     30  C   UNL A   1      34.801  33.432  31.838  1.00  0.00     0.261 C 
BRANCH  30  31
ATOM     31  O   UNL A   1      35.340  32.377  32.661  1.00  0.00    -0.460 OA
BRANCH  31  32
ATOM     32  C   UNL A   1      36.581  32.564  33.172  1.00  0.00     0.338 C 
ATOM     33  O   UNL A   1      36.858  33.091  34.237  1.00  0.00    -0.246 OA
BRANCH  32  34
ATOM     34  C   UNL A   1      37.539  31.786  32.344  1.00  0.00     0.060 A 
ATOM     35  C   UNL A   1      38.352  30.824  32.968  1.00  0.00     0.016 A 
ATOM     36  C   UNL A   1      37.608  31.965  30.962  1.00  0.00     0.016 A 
ATOM     37  C   UNL A   1      39.263  30.071  32.217  1.00  0.00     0.010 A 
ATOM     38  C   UNL A   1      38.535  31.229  30.215  1.00  0.00     0.010 A 
ATOM     39  C   UNL A   1      39.395  30.306  30.843  1.00  0.00    -0.014 A 
BRANCH  39  40
ATOM     40  C   UNL A   1      40.571  29.784  30.096  1.00  0.00     0.031 A 
ATOM     41  C   UNL A   1      41.680  30.750  29.771  1.00  0.00     0.074 A 
ATOM     42  C   UNL A   1      40.669  28.504  29.698  1.00  0.00     0.049 A 
ATOM     43  N   UNL A   1      42.753  30.576  29.040  1.00  0.00    -0.248 NA
ATOM     44  C   UNL A   1      41.554  32.100  30.345  1.00  0.00     0.031 C 
ATOM     45  C   UNL A   1      39.706  27.444  29.987  1.00  0.00     0.029 A 
ATOM     46  N   UNL A   1      41.637  27.883  28.942  1.00  0.00    -0.354 N 
ATOM     47  C   UNL A   1      43.416  31.799  29.052  1.00  0.00     0.074 A 
ATOM     48  C   UNL A   1      42.614  32.710  29.838  1.00  0.00     0.031 C 
ATOM     49  C   UNL A   1      40.125  26.306  29.401  1.00  0.00     0.029 A 
ATOM     50  C   UNL A   1      41.360  26.567  28.663  1.00  0.00     0.049 A 
ATOM     51  H   UNL A   1      42.451  28.341  28.630  1.00  0.00     0.167 HD
ATOM     52  C   UNL A   1      44.588  32.137  28.467  1.00  0.00     0.031 A 
ATOM     53  C   UNL A   1      42.013  25.685  27.877  1.00  0.00     0.031 A 
ATOM     54  C   UNL A   1      45.384  31.243  27.669  1.00  0.00     0.049 A 
ATOM     55  C   UNL A   1      43.269  26.110  27.155  1.00  0.00     0.074 A 
ATOM     56  C   UNL A   1      46.592  31.495  27.040  1.00  0.00     0.029 A 
ATOM     57  N   UNL A   1      45.049  29.930  27.383  1.00  0.00    -0.354 N 
ATOM     58  N   UNL A   1      43.895  27.262  27.186  1.00  0.00    -0.248 NA
ATOM     59  C   UNL A   1      43.908  25.106  26.289  1.00  0.00     0.031 C 
ATOM     60  C   UNL A   1      46.955  30.352  26.322  1.00  0.00     0.029 A 
ATOM     61  C   UNL A   1      46.011  29.366  26.563  1.00  0.00     0.049 A 
ATOM     62  H   UNL A   1      44.245  29.467  27.714  1.00  0.00     0.167 HD
ATOM     63  C   UNL A   1      45.016  27.108  26.376  1.00  0.00     0.074 A 
ATOM     64  C   UNL A   1      44.992  25.750  25.878  1.00  0.00     0.031 C 
ATOM     65  C   UNL A   1      45.983  28.011  26.076  1.00  0.00     0.031 A 
BRANCH  52  66
ATOM     66  C   UNL A   1      45.057  33.555  28.633  1.00  0.00    -0.014 A 
ATOM     67  C   UNL A   1      45.901  33.928  29.691  1.00  0.00     0.009 A 
ATOM     68  C   UNL A   1      44.661  34.530  27.704  1.00  0.00     0.009 A 
ATOM     69  C   UNL A   1      46.308  35.256  29.837  1.00  0.00     0.001 A 
ATOM     70  C   UNL A   1      45.095  35.850  27.833  1.00  0.00     0.001 A 
ATOM     71  C   UNL A   1      45.910  36.214  28.906  1.00  0.00     0.000 A 
ENDBRANCH  52  66
BRANCH  53  72
ATOM     72  C   UNL A   1      41.483  24.305  27.696  1.00  0.00    -0.014 A 
ATOM     73  C   UNL A   1      41.995  23.235  28.447  1.00  0.00     0.009 A 
ATOM     74  C   UNL A   1      40.491  24.043  26.738  1.00  0.00     0.009 A 
ATOM     75  C   UNL A   1      41.546  21.932  28.223  1.00  0.00     0.001 A 
ATOM     76  C   UNL A   1      40.021  22.743  26.539  1.00  0.00     0.001 A 
ATOM     77  C   UNL A   1      40.556  21.687  27.273  1.00  0.00     0.000 A 
ENDBRANCH  53  72
BRANCH  65  78
ATOM     78  C   UNL A   1      47.126  27.552  25.210  1.00  0.00    -0.014 A 
ATOM     79  C   UNL A   1      47.151  27.803  23.830  1.00  0.00     0.009 A 
ATOM     80  C   UNL A   1      48.223  26.905  25.801  1.00  0.00     0.009 A 
ATOM     81  C   UNL A   1      48.235  27.382  23.055  1.00  0.00     0.001 A 
ATOM     82  C   UNL A   1      49.319  26.514  25.030  1.00  0.00     0.001 A 
ATOM     83  C   UNL A   1      49.320  26.744  23.656  1.00  0.00     0.000 A 
ENDBRANCH  65  78
ENDBRANCH  39  40
ENDBRANCH  32  34
ENDBRANCH  31  32
ENDBRANCH  30  31
ENDBRANCH  29  30
ENDBRANCH  28  29
ENDBRANCH  27  28
ENDBRANCH   1  27
TORSDOF 21
ENDMDL
MODEL 3
REMARK VINA RESULT:      -8.7      3.294      7.730
REMARK SMILES CC[NH2+][C@@]1(C(=O)OCCOCCOCCOC(=O)c2ccc(-c3c4nc(c(-c5ccccc5)c5ccc([nH]5)c(-c5ccccc5)c5nc(c(-c6ccccc6)c6ccc3[nH]6)C=C5)C=C4)cc2)CCC[C@@H]([N@@H+](C)C2CCCC2)C1
REMARK SMILES IDX 11 1 10 2 9 3 8 4 7 5 5 6 6 7 4 8 67 9 78 10 68 11 70 12
REMARK SMILES IDX 69 13 3 14 2 17 1 18 71 19 72 20 73 22 74 23 77 24 75 25
REMARK SMILES IDX 76 26 12 27 13 28 14 29 15 30 16 31 17 32 18 33 19 34 20 35
REMARK SMILES IDX 66 36 21 37 65 38 22 39 23 40 24 41 59 42 25 43 64 44 58 45
REMARK SMILES IDX 60 46 26 47 63 48 57 49 56 50 27 52 49 53 34 54 48 55 35 56
REMARK SMILES IDX 38 57 47 58 61 59 36 60 37 61 46 63 62 64 39 65 28 66 29 67
REMARK SMILES IDX 33 68 30 69 32 70 31 71 50 72 51 73 55 74 52 75 54 76 53 77
REMARK SMILES IDX 40 78 41 79 45 80 42 81 44 82 43 83
REMARK H PARENT 3 15 3 16 71 21 60 51 38 62
REMARK Flexibility Score: inf
ROOT
ATOM      1  C   UNL A   1      38.339  21.543  25.640  1.00  0.00     0.188 C 
ENDROOT
BRANCH   1   2
ATOM      2  O   UNL A   1      37.446  22.649  25.657  1.00  0.00    -0.376 OA
BRANCH   2   3
ATOM      3  C   UNL A   1      36.873  23.072  24.425  1.00  0.00     0.202 C 
BRANCH   3   4
ATOM      4  C   UNL A   1      35.688  24.050  24.465  1.00  0.00     0.261 C 
BRANCH   4   5
ATOM      5  O   UNL A   1      34.642  23.736  25.413  1.00  0.00    -0.459 OA
BRANCH   5   6
ATOM      6  C   UNL A   1      33.584  24.585  25.422  1.00  0.00     0.368 C 
ATOM      7  O   UNL A   1      33.491  25.520  26.219  1.00  0.00    -0.245 OA
BRANCH   6   8
ATOM      8  C   UNL A   1      32.438  24.265  24.395  1.00  0.00     0.200 C 
ATOM      9  C   UNL A   1      31.144  24.347  25.232  1.00  0.00     0.081 C 
ATOM     10  C   UNL A   1      32.329  22.903  23.673  1.00  0.00     0.146 C 
ATOM     11  C   UNL A   1      31.145  23.247  26.308  1.00  0.00     0.013 C 
ATOM     12  C   UNL A   1      32.297  21.662  24.564  1.00  0.00     0.190 C 
ATOM     13  C   UNL A   1      31.375  21.816  25.795  1.00  0.00     0.065 C 
BRANCH   8  14
ATOM     14  N   UNL A   1      32.482  25.207  23.230  1.00  0.00    -0.332 N 
ATOM     15  H   UNL A   1      31.521  25.496  23.044  1.00  0.00     0.347 HD
ATOM     16  H   UNL A   1      33.128  25.937  23.529  1.00  0.00     0.347 HD
BRANCH  14  17
ATOM     17  C   UNL A   1      33.040  24.743  21.966  1.00  0.00     0.257 C 
ATOM     18  C   UNL A   1      32.563  25.667  20.850  1.00  0.00     0.071 C 
ENDBRANCH  14  17
ENDBRANCH   8  14
BRANCH  12  19
ATOM     19  N   UNL A   1      32.131  20.414  23.766  1.00  0.00    -0.332 N 
ATOM     20  C   UNL A   1      32.058  20.697  22.330  1.00  0.00     0.333 C 
ATOM     21  H   UNL A   1      31.239  20.094  24.144  1.00  0.00     0.348 HD
BRANCH  19  22
ATOM     22  C   UNL A   1      32.963  19.225  24.032  1.00  0.00     0.184 C 
ATOM     23  C   UNL A   1      32.839  18.484  25.367  1.00  0.00     0.065 C 
ATOM     24  C   UNL A   1      32.901  18.109  22.962  1.00  0.00     0.065 C 
ATOM     25  C   UNL A   1      33.562  17.172  25.106  1.00  0.00     0.006 C 
ATOM     26  C   UNL A   1      33.068  16.787  23.720  1.00  0.00     0.006 C 
ENDBRANCH  19  22
ENDBRANCH  12  19
ENDBRANCH   6   8
ENDBRANCH   5   6
ENDBRANCH   4   5
ENDBRANCH   3   4
ENDBRANCH   2   3
ENDBRANCH   1   2
BRANCH   1  27
ATOM     27  C   UNL A   1      39.753  21.706  26.217  1.00  0.00     0.188 C 
BRANCH  27  28
ATOM     28  O   UNL A   1      40.246  20.572  26.901  1.00  0.00    -0.376 OA
BRANCH  28  29
ATOM     29  C   UNL A   1      41.021  19.663  26.138  1.00  0.00     0.202 C 
BRANCH  29  30
ATOM     30  C   UNL A   1      42.451  20.171  25.888  1.00  0.00     0.261 C 
BRANCH  30  31
ATOM     31  O   UNL A   1      43.393  19.170  25.450  1.00  0.00    -0.460 OA
BRANCH  31  32
ATOM     32  C   UNL A   1      44.353  19.564  24.579  1.00  0.00     0.338 C 
ATOM     33  O   UNL A   1      44.734  18.955  23.592  1.00  0.00    -0.246 OA
BRANCH  32  34
ATOM     34  C   UNL A   1      44.682  20.983  24.871  1.00  0.00     0.060 A 
ATOM     35  C   UNL A   1      45.329  21.296  26.079  1.00  0.00     0.016 A 
ATOM     36  C   UNL A   1      44.402  21.994  23.951  1.00  0.00     0.016 A 
ATOM     37  C   UNL A   1      45.657  22.622  26.385  1.00  0.00     0.010 A 
ATOM     38  C   UNL A   1      44.709  23.322  24.267  1.00  0.00     0.010 A 
ATOM     39  C   UNL A   1      45.302  23.649  25.501  1.00  0.00    -0.014 A 
BRANCH  39  40
ATOM     40  C   UNL A   1      45.321  25.069  25.945  1.00  0.00     0.031 A 
ATOM     41  C   UNL A   1      46.640  25.796  25.913  1.00  0.00     0.074 A 
ATOM     42  C   UNL A   1      44.221  25.710  26.379  1.00  0.00     0.049 A 
ATOM     43  N   UNL A   1      46.946  26.992  26.349  1.00  0.00    -0.248 NA
ATOM     44  C   UNL A   1      47.769  25.065  25.314  1.00  0.00     0.031 C 
ATOM     45  C   UNL A   1      42.869  25.157  26.413  1.00  0.00     0.029 A 
ATOM     46  N   UNL A   1      44.080  26.979  26.891  1.00  0.00    -0.354 N 
ATOM     47  C   UNL A   1      48.304  27.148  26.093  1.00  0.00     0.074 A 
ATOM     48  C   UNL A   1      48.767  25.917  25.491  1.00  0.00     0.031 C 
ATOM     49  C   UNL A   1      42.037  26.079  26.935  1.00  0.00     0.029 A 
ATOM     50  C   UNL A   1      42.804  27.267  27.309  1.00  0.00     0.049 A 
ATOM     51  H   UNL A   1      44.825  27.620  26.953  1.00  0.00     0.167 HD
ATOM     52  C   UNL A   1      49.098  28.217  26.333  1.00  0.00     0.031 A 
ATOM     53  C   UNL A   1      42.318  28.352  27.948  1.00  0.00     0.031 A 
ATOM     54  C   UNL A   1      48.651  29.438  26.946  1.00  0.00     0.049 A 
ATOM     55  C   UNL A   1      43.241  29.495  28.292  1.00  0.00     0.074 A 
ATOM     56  C   UNL A   1      49.383  30.580  27.223  1.00  0.00     0.029 A 
ATOM     57  N   UNL A   1      47.359  29.674  27.386  1.00  0.00    -0.354 N 
ATOM     58  N   UNL A   1      44.518  29.639  28.032  1.00  0.00    -0.248 NA
ATOM     59  C   UNL A   1      42.648  30.630  29.018  1.00  0.00     0.031 C 
ATOM     60  C   UNL A   1      48.548  31.483  27.887  1.00  0.00     0.029 A 
ATOM     61  C   UNL A   1      47.278  30.931  27.959  1.00  0.00     0.049 A 
ATOM     62  H   UNL A   1      46.610  29.040  27.304  1.00  0.00     0.167 HD
ATOM     63  C   UNL A   1      44.871  30.890  28.530  1.00  0.00     0.074 A 
ATOM     64  C   UNL A   1      43.672  31.470  29.096  1.00  0.00     0.031 C 
ATOM     65  C   UNL A   1      46.080  31.505  28.515  1.00  0.00     0.031 A 
BRANCH  52  66
ATOM     66  C   UNL A   1      50.551  28.091  25.968  1.00  0.00    -0.014 A 
ATOM     67  C   UNL A   1      51.016  28.435  24.688  1.00  0.00     0.009 A 
ATOM     68  C   UNL A   1      51.471  27.638  26.926  1.00  0.00     0.009 A 
ATOM     69  C   UNL A   1      52.368  28.291  24.366  1.00  0.00     0.001 A 
ATOM     70  C   UNL A   1      52.826  27.526  26.612  1.00  0.00     0.001 A 
ATOM     71  C   UNL A   1      53.272  27.842  25.328  1.00  0.00     0.000 A 
ENDBRANCH  52  66
BRANCH  53  72
ATOM     72  C   UNL A   1      40.882  28.411  28.341  1.00  0.00    -0.014 A 
ATOM     73  C   UNL A   1      39.939  29.045  27.517  1.00  0.00     0.009 A 
ATOM     74  C   UNL A   1      40.456  27.873  29.565  1.00  0.00     0.009 A 
ATOM     75  C   UNL A   1      38.607  29.162  27.923  1.00  0.00     0.001 A 
ATOM     76  C   UNL A   1      39.117  27.963  29.954  1.00  0.00     0.001 A 
ATOM     77  C   UNL A   1      38.196  28.617  29.138  1.00  0.00     0.000 A 
ENDBRANCH  53  72
BRANCH  65  78
ATOM     78  C   UNL A   1      46.164  32.898  29.078  1.00  0.00    -0.014 A 
ATOM     79  C   UNL A   1      46.546  33.133  30.408  1.00  0.00     0.009 A 
ATOM     80  C   UNL A   1      45.907  33.997  28.242  1.00  0.00     0.009 A 
ATOM     81  C   UNL A   1      46.634  34.439  30.897  1.00  0.00     0.001 A 
ATOM     82  C   UNL A   1      46.028  35.302  28.725  1.00  0.00     0.001 A 
ATOM     83  C   UNL A   1      46.381  35.522  30.055  1.00  0.00     0.000 A 
ENDBRANCH  65  78
ENDBRANCH  39  40
ENDBRANCH  32  34
ENDBRANCH  31  32
ENDBRANCH  30  31
ENDBRANCH  29  30
ENDBRANCH  28  29
ENDBRANCH  27  28
ENDBRANCH   1  27
TORSDOF 21
ENDMDL
