MODEL 1
REMARK VINA RESULT:      -9.7      0.000      0.000
REMARK SMILES COC(=O)[C@@H]1CCN(S(=O)(=O)N2CCC(C(=O)OCCOCCOCCOC(=O)c3ccc(-c4c5nc(c(-c6ccccc6)c6ccc([nH]6)c(-c6ccccc6)c6nc(c(-c7ccccc7)c7ccc4[nH]7)C=C6)C=C5)cc3)CC2)C1
REMARK SMILES IDX 22 1 21 2 20 3 19 4 18 5 16 6 17 7 15 8 12 9 13 10 79 11
REMARK SMILES IDX 14 12 78 13 9 14 10 15 11 16 8 17 5 18 6 19 80 20 7 21 3 22
REMARK SMILES IDX 4 23 2 24 1 25 23 26 24 27 25 28 26 29 27 30 28 31 29 32
REMARK SMILES IDX 30 33 31 34 77 35 32 36 76 37 33 38 34 39 35 40 70 41 36 42
REMARK SMILES IDX 75 43 69 44 71 45 37 46 74 47 68 48 67 49 38 51 60 52 45 53
REMARK SMILES IDX 59 54 46 55 49 56 58 57 72 58 47 59 48 60 57 62 73 63 50 64
REMARK SMILES IDX 39 65 40 66 44 67 41 68 43 69 42 70 61 71 62 72 66 73 63 74
REMARK SMILES IDX 65 75 64 76 51 77 52 78 56 79 53 80 55 81 54 82
REMARK H PARENT 71 50 49 61
REMARK Flexibility Score: inf
ROOT
ATOM      1  C   UNL A   1      42.111  20.275  27.040  1.00  0.00     0.188 C 
ENDROOT
BRANCH   1   2
ATOM      2  O   UNL A   1      40.690  20.246  27.039  1.00  0.00    -0.376 OA
BRANCH   2   3
ATOM      3  C   UNL A   1      40.006  21.467  26.764  1.00  0.00     0.202 C 
BRANCH   3   4
ATOM      4  C   UNL A   1      39.073  21.500  25.542  1.00  0.00     0.261 C 
BRANCH   4   5
ATOM      5  O   UNL A   1      37.694  21.819  25.827  1.00  0.00    -0.463 OA
BRANCH   5   6
ATOM      6  C   UNL A   1      36.798  20.986  25.254  1.00  0.00     0.309 C 
ATOM      7  O   UNL A   1      37.049  19.847  24.866  1.00  0.00    -0.252 OA
BRANCH   6   8
ATOM      8  C   UNL A   1      35.394  21.530  25.132  1.00  0.00     0.102 C 
ATOM      9  N   UNL A   1      32.960  22.907  25.817  1.00  0.00    -0.189 NA
ATOM     10  C   UNL A   1      32.857  21.517  25.312  1.00  0.00     0.104 C 
ATOM     11  C   UNL A   1      34.177  23.623  25.413  1.00  0.00     0.104 C 
ATOM     12  C   UNL A   1      34.166  20.727  25.567  1.00  0.00     0.032 C 
ATOM     13  C   UNL A   1      35.397  22.867  25.861  1.00  0.00     0.032 C 
BRANCH   9  14
ATOM     14  S   UNL A   1      31.546  23.814  25.952  1.00  0.00     0.281 S 
ATOM     15  O   UNL A   1      31.517  24.427  27.257  1.00  0.00    -0.195 OA
ATOM     16  O   UNL A   1      30.445  22.986  25.503  1.00  0.00    -0.195 OA
BRANCH  14  17
ATOM     17  N   UNL A   1      31.724  25.062  24.808  1.00  0.00    -0.188 NA
ATOM     18  C   UNL A   1      29.802  26.380  24.051  1.00  0.00     0.116 C 
ATOM     19  C   UNL A   1      30.396  26.969  25.316  1.00  0.00     0.033 C 
ATOM     20  C   UNL A   1      30.595  25.090  23.797  1.00  0.00     0.118 C 
ATOM     21  C   UNL A   1      31.820  26.467  25.266  1.00  0.00     0.104 C 
BRANCH  18  22
ATOM     22  C   UNL A   1      29.941  27.400  22.946  1.00  0.00     0.310 C 
ATOM     23  O   UNL A   1      30.779  27.380  22.058  1.00  0.00    -0.252 OA
BRANCH  22  24
ATOM     24  O   UNL A   1      29.046  28.410  23.157  1.00  0.00    -0.469 OA
ATOM     25  C   UNL A   1      29.563  29.717  22.908  1.00  0.00     0.282 C 
ENDBRANCH  22  24
ENDBRANCH  18  22
ENDBRANCH  14  17
ENDBRANCH   9  14
ENDBRANCH   6   8
ENDBRANCH   5   6
ENDBRANCH   4   5
ENDBRANCH   3   4
ENDBRANCH   2   3
ENDBRANCH   1   2
BRANCH   1  26
ATOM     26  C   UNL A   1      42.803  19.932  25.723  1.00  0.00     0.188 C 
BRANCH  26  27
ATOM     27  O   UNL A   1      44.200  19.727  25.789  1.00  0.00    -0.376 OA
BRANCH  27  28
ATOM     28  C   UNL A   1      45.028  20.553  24.968  1.00  0.00     0.202 C 
BRANCH  28  29
ATOM     29  C   UNL A   1      45.664  21.829  25.580  1.00  0.00     0.261 C 
BRANCH  29  30
ATOM     30  O   UNL A   1      44.805  22.717  26.334  1.00  0.00    -0.460 OA
BRANCH  30  31
ATOM     31  C   UNL A   1      44.248  23.763  25.678  1.00  0.00     0.338 C 
ATOM     32  O   UNL A   1      44.136  23.867  24.468  1.00  0.00    -0.246 OA
BRANCH  31  33
ATOM     33  C   UNL A   1      43.526  24.641  26.653  1.00  0.00     0.060 A 
ATOM     34  C   UNL A   1      43.791  26.018  26.604  1.00  0.00     0.016 A 
ATOM     35  C   UNL A   1      42.568  24.165  27.555  1.00  0.00     0.016 A 
ATOM     36  C   UNL A   1      43.164  26.904  27.488  1.00  0.00     0.010 A 
ATOM     37  C   UNL A   1      41.950  25.053  28.454  1.00  0.00     0.010 A 
ATOM     38  C   UNL A   1      42.276  26.423  28.459  1.00  0.00    -0.014 A 
BRANCH  38  39
ATOM     39  C   UNL A   1      41.872  27.314  29.586  1.00  0.00     0.031 A 
ATOM     40  C   UNL A   1      40.590  28.102  29.460  1.00  0.00     0.074 A 
ATOM     41  C   UNL A   1      42.572  27.392  30.734  1.00  0.00     0.049 A 
ATOM     42  N   UNL A   1      40.009  28.900  30.322  1.00  0.00    -0.248 NA
ATOM     43  C   UNL A   1      39.869  27.965  28.186  1.00  0.00     0.031 C 
ATOM     44  C   UNL A   1      43.797  26.656  31.035  1.00  0.00     0.029 A 
ATOM     45  N   UNL A   1      42.334  28.129  31.872  1.00  0.00    -0.354 N 
ATOM     46  C   UNL A   1      38.860  29.366  29.690  1.00  0.00     0.074 A 
ATOM     47  C   UNL A   1      38.852  28.794  28.361  1.00  0.00     0.031 C 
ATOM     48  C   UNL A   1      44.194  26.965  32.283  1.00  0.00     0.029 A 
ATOM     49  C   UNL A   1      43.271  27.944  32.859  1.00  0.00     0.049 A 
ATOM     50  H   UNL A   1      41.562  28.732  31.970  1.00  0.00     0.167 HD
ATOM     51  C   UNL A   1      37.892  30.189  30.164  1.00  0.00     0.031 A 
ATOM     52  C   UNL A   1      43.380  28.500  34.083  1.00  0.00     0.031 A 
ATOM     53  C   UNL A   1      37.899  30.790  31.473  1.00  0.00     0.049 A 
ATOM     54  C   UNL A   1      42.346  29.491  34.555  1.00  0.00     0.074 A 
ATOM     55  C   UNL A   1      36.953  31.623  32.045  1.00  0.00     0.029 A 
ATOM     56  N   UNL A   1      38.911  30.637  32.408  1.00  0.00    -0.354 N 
ATOM     57  N   UNL A   1      41.251  29.897  33.960  1.00  0.00    -0.248 NA
ATOM     58  C   UNL A   1      42.565  30.089  35.881  1.00  0.00     0.031 C 
ATOM     59  C   UNL A   1      37.429  32.035  33.296  1.00  0.00     0.029 A 
ATOM     60  C   UNL A   1      38.631  31.392  33.538  1.00  0.00     0.049 A 
ATOM     61  H   UNL A   1      39.709  30.075  32.288  1.00  0.00     0.167 HD
ATOM     62  C   UNL A   1      40.631  30.768  34.852  1.00  0.00     0.074 A 
ATOM     63  C   UNL A   1      41.466  30.816  36.035  1.00  0.00     0.031 C 
ATOM     64  C   UNL A   1      39.472  31.457  34.708  1.00  0.00     0.031 A 
BRANCH  51  65
ATOM     65  C   UNL A   1      36.768  30.533  29.220  1.00  0.00    -0.014 A 
ATOM     66  C   UNL A   1      35.830  29.571  28.807  1.00  0.00     0.009 A 
ATOM     67  C   UNL A   1      36.653  31.842  28.727  1.00  0.00     0.009 A 
ATOM     68  C   UNL A   1      34.842  29.899  27.875  1.00  0.00     0.001 A 
ATOM     69  C   UNL A   1      35.641  32.176  27.826  1.00  0.00     0.001 A 
ATOM     70  C   UNL A   1      34.747  31.201  27.386  1.00  0.00     0.000 A 
ENDBRANCH  51  65
BRANCH  52  71
ATOM     71  C   UNL A   1      44.510  28.126  34.976  1.00  0.00    -0.014 A 
ATOM     72  C   UNL A   1      45.721  28.837  34.931  1.00  0.00     0.009 A 
ATOM     73  C   UNL A   1      44.397  27.042  35.861  1.00  0.00     0.009 A 
ATOM     74  C   UNL A   1      46.796  28.460  35.740  1.00  0.00     0.001 A 
ATOM     75  C   UNL A   1      45.464  26.688  36.691  1.00  0.00     0.001 A 
ATOM     76  C   UNL A   1      46.665  27.392  36.624  1.00  0.00     0.000 A 
ENDBRANCH  52  71
BRANCH  64  77
ATOM     77  C   UNL A   1      39.015  32.295  35.875  1.00  0.00    -0.014 A 
ATOM     78  C   UNL A   1      39.415  33.633  36.029  1.00  0.00     0.009 A 
ATOM     79  C   UNL A   1      38.165  31.733  36.843  1.00  0.00     0.009 A 
ATOM     80  C   UNL A   1      39.021  34.367  37.152  1.00  0.00     0.001 A 
ATOM     81  C   UNL A   1      37.742  32.481  37.943  1.00  0.00     0.001 A 
ATOM     82  C   UNL A   1      38.184  33.791  38.106  1.00  0.00     0.000 A 
ENDBRANCH  64  77
ENDBRANCH  38  39
ENDBRANCH  31  33
ENDBRANCH  30  31
ENDBRANCH  29  30
ENDBRANCH  28  29
ENDBRANCH  27  28
ENDBRANCH  26  27
ENDBRANCH   1  26
TORSDOF 21
ENDMDL
MODEL 2
REMARK VINA RESULT:      -9.4      4.239      7.248
REMARK SMILES COC(=O)[C@@H]1CCN(S(=O)(=O)N2CCC(C(=O)OCCOCCOCCOC(=O)c3ccc(-c4c5nc(c(-c6ccccc6)c6ccc([nH]6)c(-c6ccccc6)c6nc(c(-c7ccccc7)c7ccc4[nH]7)C=C6)C=C5)cc3)CC2)C1
REMARK SMILES IDX 22 1 21 2 20 3 19 4 18 5 16 6 17 7 15 8 12 9 13 10 79 11
REMARK SMILES IDX 14 12 78 13 9 14 10 15 11 16 8 17 5 18 6 19 80 20 7 21 3 22
REMARK SMILES IDX 4 23 2 24 1 25 23 26 24 27 25 28 26 29 27 30 28 31 29 32
REMARK SMILES IDX 30 33 31 34 77 35 32 36 76 37 33 38 34 39 35 40 70 41 36 42
REMARK SMILES IDX 75 43 69 44 71 45 37 46 74 47 68 48 67 49 38 51 60 52 45 53
REMARK SMILES IDX 59 54 46 55 49 56 58 57 72 58 47 59 48 60 57 62 73 63 50 64
REMARK SMILES IDX 39 65 40 66 44 67 41 68 43 69 42 70 61 71 62 72 66 73 63 74
REMARK SMILES IDX 65 75 64 76 51 77 52 78 56 79 53 80 55 81 54 82
REMARK H PARENT 71 50 49 61
REMARK Flexibility Score: inf
ROOT
ATOM      1  C   UNL A   1      44.374  22.530  24.192  1.00  0.00     0.188 C 
ENDROOT
BRANCH   1   2
ATOM      2  O   UNL A   1      43.037  22.737  24.631  1.00  0.00    -0.376 OA
BRANCH   2   3
ATOM      3  C   UNL A   1      42.688  22.256  25.928  1.00  0.00     0.202 C 
BRANCH   3   4
ATOM      4  C   UNL A   1      41.921  23.211  26.857  1.00  0.00     0.261 C 
BRANCH   4   5
ATOM      5  O   UNL A   1      41.916  24.596  26.450  1.00  0.00    -0.463 OA
BRANCH   5   6
ATOM      6  C   UNL A   1      40.733  25.225  26.622  1.00  0.00     0.309 C 
ATOM      7  O   UNL A   1      39.659  24.833  26.170  1.00  0.00    -0.252 OA
BRANCH   6   8
ATOM      8  C   UNL A   1      40.782  26.478  27.465  1.00  0.00     0.102 C 
ATOM      9  N   UNL A   1      39.899  28.643  29.145  1.00  0.00    -0.189 NA
ATOM     10  C   UNL A   1      40.714  28.973  27.951  1.00  0.00     0.104 C 
ATOM     11  C   UNL A   1      40.077  27.278  29.657  1.00  0.00     0.104 C 
ATOM     12  C   UNL A   1      40.594  27.874  26.865  1.00  0.00     0.032 C 
ATOM     13  C   UNL A   1      39.766  26.275  28.581  1.00  0.00     0.032 C 
BRANCH   9  14
ATOM     14  S   UNL A   1      39.616  29.856  30.279  1.00  0.00     0.281 S 
ATOM     15  O   UNL A   1      40.221  31.076  29.807  1.00  0.00    -0.195 OA
ATOM     16  O   UNL A   1      39.950  29.327  31.586  1.00  0.00    -0.195 OA
BRANCH  14  17
ATOM     17  N   UNL A   1      37.929  30.084  30.255  1.00  0.00    -0.188 NA
ATOM     18  C   UNL A   1      36.896  31.802  28.846  1.00  0.00     0.116 C 
ATOM     19  C   UNL A   1      37.091  30.513  28.071  1.00  0.00     0.033 C 
ATOM     20  C   UNL A   1      37.540  31.549  30.216  1.00  0.00     0.118 C 
ATOM     21  C   UNL A   1      37.123  29.479  29.170  1.00  0.00     0.104 C 
BRANCH  18  22
ATOM     22  C   UNL A   1      35.414  32.086  28.920  1.00  0.00     0.310 C 
ATOM     23  O   UNL A   1      34.783  32.319  29.939  1.00  0.00    -0.252 OA
BRANCH  22  24
ATOM     24  O   UNL A   1      34.869  31.936  27.677  1.00  0.00    -0.469 OA
ATOM     25  C   UNL A   1      33.712  31.101  27.637  1.00  0.00     0.282 C 
ENDBRANCH  22  24
ENDBRANCH  18  22
ENDBRANCH  14  17
ENDBRANCH   9  14
ENDBRANCH   6   8
ENDBRANCH   5   6
ENDBRANCH   4   5
ENDBRANCH   3   4
ENDBRANCH   2   3
ENDBRANCH   1   2
BRANCH   1  26
ATOM     26  C   UNL A   1      45.291  21.755  25.135  1.00  0.00     0.188 C 
BRANCH  26  27
ATOM     27  O   UNL A   1      46.397  22.467  25.652  1.00  0.00    -0.376 OA
BRANCH  27  28
ATOM     28  C   UNL A   1      46.342  23.894  25.610  1.00  0.00     0.202 C 
BRANCH  28  29
ATOM     29  C   UNL A   1      47.195  24.652  24.558  1.00  0.00     0.261 C 
BRANCH  29  30
ATOM     30  O   UNL A   1      47.760  25.929  24.940  1.00  0.00    -0.460 OA
BRANCH  30  31
ATOM     31  C   UNL A   1      47.041  27.044  24.668  1.00  0.00     0.338 C 
ATOM     32  O   UNL A   1      46.768  27.462  23.556  1.00  0.00    -0.246 OA
BRANCH  31  33
ATOM     33  C   UNL A   1      46.381  27.533  25.921  1.00  0.00     0.060 A 
ATOM     34  C   UNL A   1      44.981  27.468  25.983  1.00  0.00     0.016 A 
ATOM     35  C   UNL A   1      47.091  27.987  27.038  1.00  0.00     0.016 A 
ATOM     36  C   UNL A   1      44.289  27.913  27.115  1.00  0.00     0.010 A 
ATOM     37  C   UNL A   1      46.394  28.450  28.170  1.00  0.00     0.010 A 
ATOM     38  C   UNL A   1      44.986  28.459  28.200  1.00  0.00    -0.014 A 
BRANCH  38  39
ATOM     39  C   UNL A   1      44.237  29.219  29.244  1.00  0.00     0.031 A 
ATOM     40  C   UNL A   1      43.874  28.513  30.529  1.00  0.00     0.074 A 
ATOM     41  C   UNL A   1      43.929  30.523  29.110  1.00  0.00     0.049 A 
ATOM     42  N   UNL A   1      43.271  28.975  31.597  1.00  0.00    -0.248 NA
ATOM     43  C   UNL A   1      44.246  27.093  30.615  1.00  0.00     0.031 C 
ATOM     44  C   UNL A   1      44.257  31.361  27.960  1.00  0.00     0.029 A 
ATOM     45  N   UNL A   1      43.277  31.375  29.972  1.00  0.00    -0.354 N 
ATOM     46  C   UNL A   1      43.185  27.900  32.476  1.00  0.00     0.074 A 
ATOM     47  C   UNL A   1      43.759  26.757  31.798  1.00  0.00     0.031 C 
ATOM     48  C   UNL A   1      43.818  32.611  28.193  1.00  0.00     0.029 A 
ATOM     49  C   UNL A   1      43.152  32.657  29.495  1.00  0.00     0.049 A 
ATOM     50  H   UNL A   1      42.932  31.092  30.849  1.00  0.00     0.167 HD
ATOM     51  C   UNL A   1      42.683  27.857  33.736  1.00  0.00     0.031 A 
ATOM     52  C   UNL A   1      42.565  33.744  30.038  1.00  0.00     0.031 A 
ATOM     53  C   UNL A   1      42.083  28.977  34.414  1.00  0.00     0.049 A 
ATOM     54  C   UNL A   1      41.923  33.652  31.400  1.00  0.00     0.074 A 
ATOM     55  C   UNL A   1      41.562  29.032  35.696  1.00  0.00     0.029 A 
ATOM     56  N   UNL A   1      41.906  30.236  33.860  1.00  0.00    -0.354 N 
ATOM     57  N   UNL A   1      41.877  32.639  32.231  1.00  0.00    -0.248 NA
ATOM     58  C   UNL A   1      41.261  34.867  31.899  1.00  0.00     0.031 C 
ATOM     59  C   UNL A   1      41.002  30.301  35.889  1.00  0.00     0.029 A 
ATOM     60  C   UNL A   1      41.248  31.062  34.759  1.00  0.00     0.049 A 
ATOM     61  H   UNL A   1      42.203  30.503  32.961  1.00  0.00     0.167 HD
ATOM     62  C   UNL A   1      41.216  33.105  33.364  1.00  0.00     0.074 A 
ATOM     63  C   UNL A   1      40.896  34.495  33.119  1.00  0.00     0.031 C 
ATOM     64  C   UNL A   1      40.912  32.442  34.508  1.00  0.00     0.031 A 
BRANCH  51  65
ATOM     65  C   UNL A   1      42.712  26.523  34.436  1.00  0.00    -0.014 A 
ATOM     66  C   UNL A   1      41.536  25.891  34.873  1.00  0.00     0.009 A 
ATOM     67  C   UNL A   1      43.944  25.892  34.671  1.00  0.00     0.009 A 
ATOM     68  C   UNL A   1      41.597  24.690  35.583  1.00  0.00     0.001 A 
ATOM     69  C   UNL A   1      44.000  24.671  35.347  1.00  0.00     0.001 A 
ATOM     70  C   UNL A   1      42.829  24.080  35.819  1.00  0.00     0.000 A 
ENDBRANCH  51  65
BRANCH  52  71
ATOM     71  C   UNL A   1      42.565  35.039  29.304  1.00  0.00    -0.014 A 
ATOM     72  C   UNL A   1      43.580  35.984  29.525  1.00  0.00     0.009 A 
ATOM     73  C   UNL A   1      41.540  35.349  28.397  1.00  0.00     0.009 A 
ATOM     74  C   UNL A   1      43.558  37.217  28.868  1.00  0.00     0.001 A 
ATOM     75  C   UNL A   1      41.537  36.570  27.718  1.00  0.00     0.001 A 
ATOM     76  C   UNL A   1      42.542  37.506  27.960  1.00  0.00     0.000 A 
ENDBRANCH  52  71
BRANCH  64  77
ATOM     77  C   UNL A   1      40.228  33.225  35.600  1.00  0.00    -0.014 A 
ATOM     78  C   UNL A   1      40.950  34.007  36.517  1.00  0.00     0.009 A 
ATOM     79  C   UNL A   1      38.828  33.180  35.714  1.00  0.00     0.009 A 
ATOM     80  C   UNL A   1      40.293  34.676  37.553  1.00  0.00     0.001 A 
ATOM     81  C   UNL A   1      38.170  33.881  36.727  1.00  0.00     0.001 A 
ATOM     82  C   UNL A   1      38.905  34.614  37.656  1.00  0.00     0.000 A 
ENDBRANCH  64  77
ENDBRANCH  38  39
ENDBRANCH  31  33
ENDBRANCH  30  31
ENDBRANCH  29  30
ENDBRANCH  28  29
ENDBRANCH  27  28
ENDBRANCH  26  27
ENDBRANCH   1  26
TORSDOF 21
ENDMDL
MODEL 3
REMARK VINA RESULT:      -9.3      1.527      6.079
REMARK SMILES COC(=O)[C@@H]1CCN(S(=O)(=O)N2CCC(C(=O)OCCOCCOCCOC(=O)c3ccc(-c4c5nc(c(-c6ccccc6)c6ccc([nH]6)c(-c6ccccc6)c6nc(c(-c7ccccc7)c7ccc4[nH]7)C=C6)C=C5)cc3)CC2)C1
REMARK SMILES IDX 22 1 21 2 20 3 19 4 18 5 16 6 17 7 15 8 12 9 13 10 79 11
REMARK SMILES IDX 14 12 78 13 9 14 10 15 11 16 8 17 5 18 6 19 80 20 7 21 3 22
REMARK SMILES IDX 4 23 2 24 1 25 23 26 24 27 25 28 26 29 27 30 28 31 29 32
REMARK SMILES IDX 30 33 31 34 77 35 32 36 76 37 33 38 34 39 35 40 70 41 36 42
REMARK SMILES IDX 75 43 69 44 71 45 37 46 74 47 68 48 67 49 38 51 60 52 45 53
REMARK SMILES IDX 59 54 46 55 49 56 58 57 72 58 47 59 48 60 57 62 73 63 50 64
REMARK SMILES IDX 39 65 40 66 44 67 41 68 43 69 42 70 61 71 62 72 66 73 63 74
REMARK SMILES IDX 65 75 64 76 51 77 52 78 56 79 53 80 55 81 54 82
REMARK H PARENT 71 50 49 61
REMARK Flexibility Score: inf
ROOT
ATOM      1  C   UNL A   1      38.870  21.481  25.783  1.00  0.00     0.188 C 
ENDROOT
BRANCH   1   2
ATOM      2  O   UNL A   1      38.065  20.478  25.176  1.00  0.00    -0.376 OA
BRANCH   2   3
ATOM      3  C   UNL A   1      36.811  20.881  24.628  1.00  0.00     0.202 C 
BRANCH   3   4
ATOM      4  C   UNL A   1      35.553  20.142  25.114  1.00  0.00     0.261 C 
BRANCH   4   5
ATOM      5  O   UNL A   1      34.354  20.399  24.352  1.00  0.00    -0.463 OA
BRANCH   5   6
ATOM      6  C   UNL A   1      33.248  20.602  25.103  1.00  0.00     0.309 C 
ATOM      7  O   UNL A   1      32.500  19.711  25.501  1.00  0.00    -0.252 OA
BRANCH   6   8
ATOM      8  C   UNL A   1      32.975  22.039  25.477  1.00  0.00     0.102 C 
ATOM      9  N   UNL A   1      31.798  24.667  25.435  1.00  0.00    -0.189 NA
ATOM     10  C   UNL A   1      33.277  24.564  25.437  1.00  0.00     0.104 C 
ATOM     11  C   UNL A   1      31.097  23.504  25.995  1.00  0.00     0.104 C 
ATOM     12  C   UNL A   1      33.749  23.206  24.858  1.00  0.00     0.032 C 
ATOM     13  C   UNL A   1      31.484  22.257  25.251  1.00  0.00     0.032 C 
BRANCH   9  14
ATOM     14  S   UNL A   1      31.103  26.180  25.693  1.00  0.00     0.281 S 
ATOM     15  O   UNL A   1      31.932  26.914  26.615  1.00  0.00    -0.195 OA
ATOM     16  O   UNL A   1      29.695  25.979  25.968  1.00  0.00    -0.195 OA
BRANCH  14  17
ATOM     17  N   UNL A   1      31.205  26.964  24.185  1.00  0.00    -0.188 NA
ATOM     18  C   UNL A   1      29.597  28.696  23.539  1.00  0.00     0.116 C 
ATOM     19  C   UNL A   1      30.747  29.293  24.327  1.00  0.00     0.033 C 
ATOM     20  C   UNL A   1      29.845  27.181  23.550  1.00  0.00     0.118 C 
ATOM     21  C   UNL A   1      31.852  28.292  24.091  1.00  0.00     0.104 C 
BRANCH  18  22
ATOM     22  C   UNL A   1      29.613  29.299  22.154  1.00  0.00     0.310 C 
ATOM     23  O   UNL A   1      30.610  29.626  21.530  1.00  0.00    -0.252 OA
BRANCH  22  24
ATOM     24  O   UNL A   1      28.328  29.521  21.750  1.00  0.00    -0.469 OA
ATOM     25  C   UNL A   1      28.105  30.806  21.169  1.00  0.00     0.282 C 
ENDBRANCH  22  24
ENDBRANCH  18  22
ENDBRANCH  14  17
ENDBRANCH   9  14
ENDBRANCH   6   8
ENDBRANCH   5   6
ENDBRANCH   4   5
ENDBRANCH   3   4
ENDBRANCH   2   3
ENDBRANCH   1   2
BRANCH   1  26
ATOM     26  C   UNL A   1      40.097  21.000  26.553  1.00  0.00     0.188 C 
BRANCH  26  27
ATOM     27  O   UNL A   1      40.663  19.778  26.121  1.00  0.00    -0.376 OA
BRANCH  27  28
ATOM     28  C   UNL A   1      42.082  19.641  26.205  1.00  0.00     0.202 C 
BRANCH  28  29
ATOM     29  C   UNL A   1      42.982  20.828  25.768  1.00  0.00     0.261 C 
BRANCH  29  30
ATOM     30  O   UNL A   1      42.918  22.046  26.547  1.00  0.00    -0.460 OA
BRANCH  30  31
ATOM     31  C   UNL A   1      43.081  23.221  25.894  1.00  0.00     0.338 C 
ATOM     32  O   UNL A   1      43.418  23.349  24.729  1.00  0.00    -0.246 OA
BRANCH  31  33
ATOM     33  C   UNL A   1      42.509  24.336  26.715  1.00  0.00     0.060 A 
ATOM     34  C   UNL A   1      43.036  25.621  26.520  1.00  0.00     0.016 A 
ATOM     35  C   UNL A   1      41.446  24.165  27.609  1.00  0.00     0.016 A 
ATOM     36  C   UNL A   1      42.561  26.714  27.254  1.00  0.00     0.010 A 
ATOM     37  C   UNL A   1      40.979  25.260  28.359  1.00  0.00     0.010 A 
ATOM     38  C   UNL A   1      41.563  26.534  28.221  1.00  0.00    -0.014 A 
BRANCH  38  39
ATOM     39  C   UNL A   1      41.300  27.621  29.211  1.00  0.00     0.031 A 
ATOM     40  C   UNL A   1      42.267  27.805  30.356  1.00  0.00     0.074 A 
ATOM     41  C   UNL A   1      40.271  28.481  29.085  1.00  0.00     0.049 A 
ATOM     42  N   UNL A   1      42.276  28.705  31.308  1.00  0.00    -0.248 NA
ATOM     43  C   UNL A   1      43.373  26.839  30.430  1.00  0.00     0.031 C 
ATOM     44  C   UNL A   1      39.283  28.474  28.009  1.00  0.00     0.029 A 
ATOM     45  N   UNL A   1      39.899  29.543  29.876  1.00  0.00    -0.354 N 
ATOM     46  C   UNL A   1      43.382  28.408  32.098  1.00  0.00     0.074 A 
ATOM     47  C   UNL A   1      43.990  27.221  31.537  1.00  0.00     0.031 C 
ATOM     48  C   UNL A   1      38.426  29.494  28.199  1.00  0.00     0.029 A 
ATOM     49  C   UNL A   1      38.785  30.208  29.425  1.00  0.00     0.049 A 
ATOM     50  H   UNL A   1      40.386  29.803  30.691  1.00  0.00     0.167 HD
ATOM     51  C   UNL A   1      43.860  29.058  33.189  1.00  0.00     0.031 A 
ATOM     52  C   UNL A   1      38.125  31.267  29.938  1.00  0.00     0.031 A 
ATOM     53  C   UNL A   1      43.250  30.223  33.777  1.00  0.00     0.049 A 
ATOM     54  C   UNL A   1      38.614  31.917  31.208  1.00  0.00     0.074 A 
ATOM     55  C   UNL A   1      43.673  30.958  34.872  1.00  0.00     0.029 A 
ATOM     56  N   UNL A   1      42.077  30.813  33.332  1.00  0.00    -0.354 N 
ATOM     57  N   UNL A   1      39.677  31.645  31.925  1.00  0.00    -0.248 NA
ATOM     58  C   UNL A   1      37.809  33.033  31.729  1.00  0.00     0.031 C 
ATOM     59  C   UNL A   1      42.715  31.945  35.134  1.00  0.00     0.029 A 
ATOM     60  C   UNL A   1      41.740  31.878  34.153  1.00  0.00     0.049 A 
ATOM     61  H   UNL A   1      41.561  30.518  32.548  1.00  0.00     0.167 HD
ATOM     62  C   UNL A   1      39.690  32.577  32.959  1.00  0.00     0.074 A 
ATOM     63  C   UNL A   1      38.538  33.432  32.763  1.00  0.00     0.031 C 
ATOM     64  C   UNL A   1      40.582  32.718  33.971  1.00  0.00     0.031 A 
BRANCH  51  65
ATOM     65  C   UNL A   1      45.081  28.473  33.850  1.00  0.00    -0.014 A 
ATOM     66  C   UNL A   1      44.981  27.503  34.862  1.00  0.00     0.009 A 
ATOM     67  C   UNL A   1      46.356  28.909  33.458  1.00  0.00     0.009 A 
ATOM     68  C   UNL A   1      46.126  27.031  35.508  1.00  0.00     0.001 A 
ATOM     69  C   UNL A   1      47.502  28.407  34.078  1.00  0.00     0.001 A 
ATOM     70  C   UNL A   1      47.386  27.482  35.115  1.00  0.00     0.000 A 
ENDBRANCH  51  65
BRANCH  52  71
ATOM     71  C   UNL A   1      36.923  31.807  29.244  1.00  0.00    -0.014 A 
ATOM     72  C   UNL A   1      36.988  33.027  28.551  1.00  0.00     0.009 A 
ATOM     73  C   UNL A   1      35.700  31.120  29.290  1.00  0.00     0.009 A 
ATOM     74  C   UNL A   1      35.850  33.554  27.935  1.00  0.00     0.001 A 
ATOM     75  C   UNL A   1      34.572  31.635  28.646  1.00  0.00     0.001 A 
ATOM     76  C   UNL A   1      34.646  32.855  27.976  1.00  0.00     0.000 A 
ENDBRANCH  52  71
BRANCH  64  77
ATOM     77  C   UNL A   1      40.367  33.864  34.927  1.00  0.00    -0.014 A 
ATOM     78  C   UNL A   1      39.536  33.745  36.053  1.00  0.00     0.009 A 
ATOM     79  C   UNL A   1      41.013  35.090  34.696  1.00  0.00     0.009 A 
ATOM     80  C   UNL A   1      39.311  34.842  36.890  1.00  0.00     0.001 A 
ATOM     81  C   UNL A   1      40.818  36.174  35.556  1.00  0.00     0.001 A 
ATOM     82  C   UNL A   1      39.954  36.054  36.641  1.00  0.00     0.000 A 
ENDBRANCH  64  77
ENDBRANCH  38  39
ENDBRANCH  31  33
ENDBRANCH  30  31
ENDBRANCH  29  30
ENDBRANCH  28  29
ENDBRANCH  27  28
ENDBRANCH  26  27
ENDBRANCH   1  26
TORSDOF 21
ENDMDL
