MODEL 1
REMARK VINA RESULT:      -9.4      0.000      0.000
REMARK SMILES O=C(OCCOCCOCCOC(=O)[C@H]1CCC(=O)N1Cc1ccco1)c1ccc(-c2c3nc(c(-c4ccccc4)c4ccc([nH]4)c(-c4ccccc4)c4nc(c(-c5ccccc5)c5ccc2[nH]5)C=C4)C=C3)cc1
REMARK SMILES IDX 7 1 6 2 5 3 4 4 3 5 2 6 1 7 27 8 28 9 74 10 29 11 73 12
REMARK SMILES IDX 30 13 31 14 32 15 67 16 33 17 72 18 66 19 68 20 34 21 71 22
REMARK SMILES IDX 65 23 64 24 35 26 57 27 42 28 56 29 43 30 46 31 55 32 69 33
REMARK SMILES IDX 44 34 45 35 54 37 70 38 47 39 36 40 37 41 41 42 38 43 40 44
REMARK SMILES IDX 39 45 58 46 59 47 63 48 60 49 62 50 61 51 48 52 49 53 53 54
REMARK SMILES IDX 50 55 52 56 51 57 8 58 9 59 10 60 11 61 12 62 13 63 14 64
REMARK SMILES IDX 15 65 16 66 20 67 17 68 18 69 19 70 21 71 22 72 23 73 26 74
REMARK SMILES IDX 24 75 25 76
REMARK H PARENT 68 25 46 36
REMARK Flexibility Score: inf
ROOT
ATOM      1  C   UNL A   1      41.069  19.966  26.716  1.00  0.00     0.188 C 
ENDROOT
BRANCH   1   2
ATOM      2  O   UNL A   1      41.764  19.027  25.892  1.00  0.00    -0.376 OA
BRANCH   2   3
ATOM      3  C   UNL A   1      42.694  18.233  26.624  1.00  0.00     0.202 C 
BRANCH   3   4
ATOM      4  C   UNL A   1      44.084  18.122  25.972  1.00  0.00     0.261 C 
BRANCH   4   5
ATOM      5  O   UNL A   1      44.140  18.504  24.583  1.00  0.00    -0.460 OA
BRANCH   5   6
ATOM      6  C   UNL A   1      44.636  19.607  23.967  1.00  0.00     0.338 C 
ATOM      7  O   UNL A   1      44.984  19.482  22.791  1.00  0.00    -0.246 OA
BRANCH   6   8
ATOM      8  C   UNL A   1      44.794  20.965  24.591  1.00  0.00     0.060 A 
ATOM      9  C   UNL A   1      45.457  21.233  25.782  1.00  0.00     0.016 A 
ATOM     10  C   UNL A   1      44.259  22.075  23.893  1.00  0.00     0.016 A 
ATOM     11  C   UNL A   1      45.614  22.541  26.241  1.00  0.00     0.010 A 
ATOM     12  C   UNL A   1      44.423  23.399  24.348  1.00  0.00     0.010 A 
ATOM     13  C   UNL A   1      45.130  23.640  25.523  1.00  0.00    -0.014 A 
BRANCH  13  14
ATOM     14  C   UNL A   1      45.299  24.970  26.162  1.00  0.00     0.031 A 
ATOM     15  C   UNL A   1      46.574  25.694  25.871  1.00  0.00     0.074 A 
ATOM     16  C   UNL A   1      44.284  25.609  26.779  1.00  0.00     0.049 A 
ATOM     17  N   UNL A   1      46.917  26.913  26.186  1.00  0.00    -0.248 NA
ATOM     18  C   UNL A   1      47.602  24.944  25.127  1.00  0.00     0.031 C 
ATOM     19  C   UNL A   1      42.986  25.024  27.078  1.00  0.00     0.029 A 
ATOM     20  N   UNL A   1      44.142  26.919  27.181  1.00  0.00    -0.354 N 
ATOM     21  C   UNL A   1      48.223  27.048  25.743  1.00  0.00     0.074 A 
ATOM     22  C   UNL A   1      48.579  25.832  25.051  1.00  0.00     0.031 C 
ATOM     23  C   UNL A   1      42.127  25.992  27.435  1.00  0.00     0.029 A 
ATOM     24  C   UNL A   1      42.855  27.248  27.561  1.00  0.00     0.049 A 
ATOM     25  H   UNL A   1      44.887  27.560  27.196  1.00  0.00     0.167 HD
ATOM     26  C   UNL A   1      49.078  28.063  25.990  1.00  0.00     0.031 A 
ATOM     27  C   UNL A   1      42.340  28.415  28.007  1.00  0.00     0.031 A 
ATOM     28  C   UNL A   1      48.728  29.227  26.750  1.00  0.00     0.049 A 
ATOM     29  C   UNL A   1      43.321  29.525  28.289  1.00  0.00     0.074 A 
ATOM     30  C   UNL A   1      49.545  30.260  27.166  1.00  0.00     0.029 A 
ATOM     31  N   UNL A   1      47.454  29.494  27.229  1.00  0.00    -0.354 N 
ATOM     32  N   UNL A   1      44.584  29.617  27.947  1.00  0.00    -0.248 NA
ATOM     33  C   UNL A   1      42.837  30.646  29.109  1.00  0.00     0.031 C 
ATOM     34  C   UNL A   1      48.778  31.119  27.957  1.00  0.00     0.029 A 
ATOM     35  C   UNL A   1      47.470  30.661  27.968  1.00  0.00     0.049 A 
ATOM     36  H   UNL A   1      46.659  28.937  27.066  1.00  0.00     0.167 HD
ATOM     37  C   UNL A   1      45.059  30.767  28.560  1.00  0.00     0.074 A 
ATOM     38  C   UNL A   1      43.929  31.389  29.221  1.00  0.00     0.031 C 
ATOM     39  C   UNL A   1      46.326  31.244  28.618  1.00  0.00     0.031 A 
BRANCH  26  40
ATOM     40  C   UNL A   1      50.506  27.840  25.603  1.00  0.00    -0.014 A 
ATOM     41  C   UNL A   1      51.018  28.234  24.360  1.00  0.00     0.009 A 
ATOM     42  C   UNL A   1      51.346  27.177  26.514  1.00  0.00     0.009 A 
ATOM     43  C   UNL A   1      52.345  27.947  24.030  1.00  0.00     0.001 A 
ATOM     44  C   UNL A   1      52.674  26.915  26.192  1.00  0.00     0.001 A 
ATOM     45  C   UNL A   1      53.171  27.296  24.947  1.00  0.00     0.000 A 
ENDBRANCH  26  40
BRANCH  27  46
ATOM     46  C   UNL A   1      40.899  28.567  28.393  1.00  0.00    -0.014 A 
ATOM     47  C   UNL A   1      40.414  28.089  29.624  1.00  0.00     0.009 A 
ATOM     48  C   UNL A   1      39.968  29.113  27.491  1.00  0.00     0.009 A 
ATOM     49  C   UNL A   1      39.045  28.136  29.925  1.00  0.00     0.001 A 
ATOM     50  C   UNL A   1      38.613  29.210  27.815  1.00  0.00     0.001 A 
ATOM     51  C   UNL A   1      38.148  28.705  29.026  1.00  0.00     0.000 A 
ENDBRANCH  27  46
BRANCH  39  52
ATOM     52  C   UNL A   1      46.554  32.482  29.432  1.00  0.00    -0.014 A 
ATOM     53  C   UNL A   1      46.921  32.398  30.785  1.00  0.00     0.009 A 
ATOM     54  C   UNL A   1      46.481  33.741  28.818  1.00  0.00     0.009 A 
ATOM     55  C   UNL A   1      47.192  33.556  31.512  1.00  0.00     0.001 A 
ATOM     56  C   UNL A   1      46.782  34.894  29.541  1.00  0.00     0.001 A 
ATOM     57  C   UNL A   1      47.131  34.802  30.888  1.00  0.00     0.000 A 
ENDBRANCH  39  52
ENDBRANCH  13  14
ENDBRANCH   6   8
ENDBRANCH   5   6
ENDBRANCH   4   5
ENDBRANCH   3   4
ENDBRANCH   2   3
ENDBRANCH   1   2
BRANCH   1  58
ATOM     58  C   UNL A   1      41.125  21.399  26.187  1.00  0.00     0.188 C 
BRANCH  58  59
ATOM     59  O   UNL A   1      39.816  21.953  26.055  1.00  0.00    -0.376 OA
BRANCH  59  60
ATOM     60  C   UNL A   1      38.800  20.987  25.772  1.00  0.00     0.202 C 
BRANCH  60  61
ATOM     61  C   UNL A   1      37.578  21.566  25.058  1.00  0.00     0.261 C 
BRANCH  61  62
ATOM     62  O   UNL A   1      36.402  21.571  25.877  1.00  0.00    -0.462 OA
BRANCH  62  63
ATOM     63  C   UNL A   1      35.210  21.877  25.323  1.00  0.00     0.328 C 
ATOM     64  O   UNL A   1      35.057  22.600  24.347  1.00  0.00    -0.250 OA
BRANCH  63  65
ATOM     65  C   UNL A   1      34.058  21.210  26.088  1.00  0.00     0.196 C 
ATOM     66  C   UNL A   1      33.843  21.876  27.450  1.00  0.00     0.047 C 
ATOM     67  N   UNL A   1      32.752  21.285  25.460  1.00  0.00    -0.321 N 
ATOM     68  C   UNL A   1      32.628  22.771  27.281  1.00  0.00     0.103 C 
ATOM     69  C   UNL A   1      31.904  22.164  26.115  1.00  0.00     0.223 C 
ATOM     70  O   UNL A   1      30.746  22.415  25.861  1.00  0.00    -0.275 OA
BRANCH  67  71
ATOM     71  C   UNL A   1      32.303  20.364  24.420  1.00  0.00     0.195 C 
BRANCH  71  72
ATOM     72  C   UNL A   1      32.694  18.932  24.524  1.00  0.00     0.123 A 
ATOM     73  C   UNL A   1      33.627  18.135  23.889  1.00  0.00     0.047 A 
ATOM     74  O   UNL A   1      32.173  18.243  25.583  1.00  0.00    -0.467 OA
ATOM     75  C   UNL A   1      33.658  16.902  24.590  1.00  0.00     0.042 A 
ATOM     76  C   UNL A   1      32.765  17.029  25.626  1.00  0.00     0.195 A 
ENDBRANCH  71  72
ENDBRANCH  67  71
ENDBRANCH  63  65
ENDBRANCH  62  63
ENDBRANCH  61  62
ENDBRANCH  60  61
ENDBRANCH  59  60
ENDBRANCH  58  59
ENDBRANCH   1  58
TORSDOF 19
ENDMDL
MODEL 2
REMARK VINA RESULT:      -9.3      3.205      7.636
REMARK SMILES O=C(OCCOCCOCCOC(=O)[C@H]1CCC(=O)N1Cc1ccco1)c1ccc(-c2c3nc(c(-c4ccccc4)c4ccc([nH]4)c(-c4ccccc4)c4nc(c(-c5ccccc5)c5ccc2[nH]5)C=C4)C=C3)cc1
REMARK SMILES IDX 7 1 6 2 5 3 4 4 3 5 2 6 1 7 27 8 28 9 74 10 29 11 73 12
REMARK SMILES IDX 30 13 31 14 32 15 67 16 33 17 72 18 66 19 68 20 34 21 71 22
REMARK SMILES IDX 65 23 64 24 35 26 57 27 42 28 56 29 43 30 46 31 55 32 69 33
REMARK SMILES IDX 44 34 45 35 54 37 70 38 47 39 36 40 37 41 41 42 38 43 40 44
REMARK SMILES IDX 39 45 58 46 59 47 63 48 60 49 62 50 61 51 48 52 49 53 53 54
REMARK SMILES IDX 50 55 52 56 51 57 8 58 9 59 10 60 11 61 12 62 13 63 14 64
REMARK SMILES IDX 15 65 16 66 20 67 17 68 18 69 19 70 21 71 22 72 23 73 26 74
REMARK SMILES IDX 24 75 25 76
REMARK H PARENT 68 25 46 36
REMARK Flexibility Score: inf
ROOT
ATOM      1  C   UNL A   1      36.963  22.718  25.873  1.00  0.00     0.188 C 
ENDROOT
BRANCH   1   2
ATOM      2  O   UNL A   1      38.051  21.804  25.713  1.00  0.00    -0.376 OA
BRANCH   2   3
ATOM      3  C   UNL A   1      37.798  20.815  24.717  1.00  0.00     0.202 C 
BRANCH   3   4
ATOM      4  C   UNL A   1      38.449  19.449  25.000  1.00  0.00     0.261 C 
BRANCH   4   5
ATOM      5  O   UNL A   1      39.436  19.449  26.052  1.00  0.00    -0.460 OA
BRANCH   5   6
ATOM      6  C   UNL A   1      40.734  19.844  26.075  1.00  0.00     0.338 C 
ATOM      7  O   UNL A   1      41.571  19.044  25.651  1.00  0.00    -0.246 OA
BRANCH   6   8
ATOM      8  C   UNL A   1      41.239  21.170  26.570  1.00  0.00     0.060 A 
ATOM      9  C   UNL A   1      41.607  22.244  25.768  1.00  0.00     0.016 A 
ATOM     10  C   UNL A   1      41.311  21.364  27.971  1.00  0.00     0.016 A 
ATOM     11  C   UNL A   1      41.993  23.463  26.328  1.00  0.00     0.010 A 
ATOM     12  C   UNL A   1      41.691  22.597  28.541  1.00  0.00     0.010 A 
ATOM     13  C   UNL A   1      42.013  23.668  27.711  1.00  0.00    -0.014 A 
BRANCH  13  14
ATOM     14  C   UNL A   1      42.515  24.987  28.174  1.00  0.00     0.031 A 
ATOM     15  C   UNL A   1      41.483  25.998  28.558  1.00  0.00     0.074 A 
ATOM     16  C   UNL A   1      43.815  25.204  28.462  1.00  0.00     0.049 A 
ATOM     17  N   UNL A   1      41.646  27.166  29.116  1.00  0.00    -0.248 NA
ATOM     18  C   UNL A   1      40.080  25.647  28.274  1.00  0.00     0.031 C 
ATOM     19  C   UNL A   1      44.901  24.279  28.175  1.00  0.00     0.029 A 
ATOM     20  N   UNL A   1      44.439  26.223  29.146  1.00  0.00    -0.354 N 
ATOM     21  C   UNL A   1      40.375  27.716  29.181  1.00  0.00     0.074 A 
ATOM     22  C   UNL A   1      39.443  26.723  28.704  1.00  0.00     0.031 C 
ATOM     23  C   UNL A   1      46.008  24.667  28.829  1.00  0.00     0.029 A 
ATOM     24  C   UNL A   1      45.763  25.966  29.443  1.00  0.00     0.049 A 
ATOM     25  H   UNL A   1      43.984  27.057  29.400  1.00  0.00     0.167 HD
ATOM     26  C   UNL A   1      40.039  28.980  29.514  1.00  0.00     0.031 A 
ATOM     27  C   UNL A   1      46.683  26.715  30.090  1.00  0.00     0.031 A 
ATOM     28  C   UNL A   1      40.992  29.976  29.909  1.00  0.00     0.049 A 
ATOM     29  C   UNL A   1      46.284  28.128  30.435  1.00  0.00     0.074 A 
ATOM     30  C   UNL A   1      40.781  31.319  30.151  1.00  0.00     0.029 A 
ATOM     31  N   UNL A   1      42.345  29.734  30.094  1.00  0.00    -0.354 N 
ATOM     32  N   UNL A   1      45.093  28.679  30.414  1.00  0.00    -0.248 NA
ATOM     33  C   UNL A   1      47.368  29.056  30.793  1.00  0.00     0.031 C 
ATOM     34  C   UNL A   1      42.021  31.906  30.415  1.00  0.00     0.029 A 
ATOM     35  C   UNL A   1      42.990  30.914  30.413  1.00  0.00     0.049 A 
ATOM     36  H   UNL A   1      42.780  28.855  30.010  1.00  0.00     0.167 HD
ATOM     37  C   UNL A   1      45.293  30.023  30.692  1.00  0.00     0.074 A 
ATOM     38  C   UNL A   1      46.705  30.190  30.967  1.00  0.00     0.031 C 
ATOM     39  C   UNL A   1      44.399  31.042  30.671  1.00  0.00     0.031 A 
BRANCH  26  40
ATOM     40  C   UNL A   1      38.620  29.381  29.261  1.00  0.00    -0.014 A 
ATOM     41  C   UNL A   1      37.647  29.379  30.270  1.00  0.00     0.009 A 
ATOM     42  C   UNL A   1      38.252  29.734  27.952  1.00  0.00     0.009 A 
ATOM     43  C   UNL A   1      36.324  29.705  29.963  1.00  0.00     0.001 A 
ATOM     44  C   UNL A   1      36.938  30.084  27.655  1.00  0.00     0.001 A 
ATOM     45  C   UNL A   1      35.974  30.064  28.660  1.00  0.00     0.000 A 
ENDBRANCH  26  40
BRANCH  27  46
ATOM     46  C   UNL A   1      48.096  26.259  30.298  1.00  0.00    -0.014 A 
ATOM     47  C   UNL A   1      49.032  26.267  29.248  1.00  0.00     0.009 A 
ATOM     48  C   UNL A   1      48.503  25.723  31.532  1.00  0.00     0.009 A 
ATOM     49  C   UNL A   1      50.316  25.734  29.424  1.00  0.00     0.001 A 
ATOM     50  C   UNL A   1      49.801  25.243  31.724  1.00  0.00     0.001 A 
ATOM     51  C   UNL A   1      50.703  25.233  30.664  1.00  0.00     0.000 A 
ENDBRANCH  27  46
BRANCH  39  52
ATOM     52  C   UNL A   1      44.928  32.420  30.938  1.00  0.00    -0.014 A 
ATOM     53  C   UNL A   1      45.339  33.250  29.883  1.00  0.00     0.009 A 
ATOM     54  C   UNL A   1      44.935  32.919  32.248  1.00  0.00     0.009 A 
ATOM     55  C   UNL A   1      45.768  34.551  30.141  1.00  0.00     0.001 A 
ATOM     56  C   UNL A   1      45.336  34.231  32.498  1.00  0.00     0.001 A 
ATOM     57  C   UNL A   1      45.757  35.043  31.446  1.00  0.00     0.000 A 
ENDBRANCH  39  52
ENDBRANCH  13  14
ENDBRANCH   6   8
ENDBRANCH   5   6
ENDBRANCH   4   5
ENDBRANCH   3   4
ENDBRANCH   2   3
ENDBRANCH   1   2
BRANCH   1  58
ATOM     58  C   UNL A   1      36.483  23.329  24.557  1.00  0.00     0.188 C 
BRANCH  58  59
ATOM     59  O   UNL A   1      35.111  23.716  24.636  1.00  0.00    -0.376 OA
BRANCH  59  60
ATOM     60  C   UNL A   1      34.214  22.817  23.979  1.00  0.00     0.202 C 
BRANCH  60  61
ATOM     61  C   UNL A   1      33.979  23.145  22.504  1.00  0.00     0.261 C 
BRANCH  61  62
ATOM     62  O   UNL A   1      32.852  24.004  22.294  1.00  0.00    -0.462 OA
BRANCH  62  63
ATOM     63  C   UNL A   1      33.016  25.342  22.367  1.00  0.00     0.328 C 
ATOM     64  O   UNL A   1      33.818  25.987  21.703  1.00  0.00    -0.250 OA
BRANCH  63  65
ATOM     65  C   UNL A   1      32.072  25.958  23.409  1.00  0.00     0.196 C 
ATOM     66  C   UNL A   1      30.730  25.221  23.440  1.00  0.00     0.047 C 
ATOM     67  N   UNL A   1      32.525  25.904  24.787  1.00  0.00    -0.321 N 
ATOM     68  C   UNL A   1      30.783  24.325  24.665  1.00  0.00     0.103 C 
ATOM     69  C   UNL A   1      31.811  24.985  25.538  1.00  0.00     0.223 C 
ATOM     70  O   UNL A   1      31.922  24.736  26.719  1.00  0.00    -0.275 OA
BRANCH  67  71
ATOM     71  C   UNL A   1      33.447  26.873  25.372  1.00  0.00     0.195 C 
BRANCH  71  72
ATOM     72  C   UNL A   1      32.884  28.105  25.986  1.00  0.00     0.123 A 
ATOM     73  C   UNL A   1      32.803  28.592  27.277  1.00  0.00     0.047 A 
ATOM     74  O   UNL A   1      32.504  29.090  25.118  1.00  0.00    -0.467 OA
ATOM     75  C   UNL A   1      32.338  29.930  27.181  1.00  0.00     0.042 A 
ATOM     76  C   UNL A   1      32.189  30.188  25.841  1.00  0.00     0.195 A 
ENDBRANCH  71  72
ENDBRANCH  67  71
ENDBRANCH  63  65
ENDBRANCH  62  63
ENDBRANCH  61  62
ENDBRANCH  60  61
ENDBRANCH  59  60
ENDBRANCH  58  59
ENDBRANCH   1  58
TORSDOF 19
ENDMDL
MODEL 3
REMARK VINA RESULT:      -9.3      5.081     10.297
REMARK SMILES O=C(OCCOCCOCCOC(=O)[C@H]1CCC(=O)N1Cc1ccco1)c1ccc(-c2c3nc(c(-c4ccccc4)c4ccc([nH]4)c(-c4ccccc4)c4nc(c(-c5ccccc5)c5ccc2[nH]5)C=C4)C=C3)cc1
REMARK SMILES IDX 7 1 6 2 5 3 4 4 3 5 2 6 1 7 27 8 28 9 74 10 29 11 73 12
REMARK SMILES IDX 30 13 31 14 32 15 67 16 33 17 72 18 66 19 68 20 34 21 71 22
REMARK SMILES IDX 65 23 64 24 35 26 57 27 42 28 56 29 43 30 46 31 55 32 69 33
REMARK SMILES IDX 44 34 45 35 54 37 70 38 47 39 36 40 37 41 41 42 38 43 40 44
REMARK SMILES IDX 39 45 58 46 59 47 63 48 60 49 62 50 61 51 48 52 49 53 53 54
REMARK SMILES IDX 50 55 52 56 51 57 8 58 9 59 10 60 11 61 12 62 13 63 14 64
REMARK SMILES IDX 15 65 16 66 20 67 17 68 18 69 19 70 21 71 22 72 23 73 26 74
REMARK SMILES IDX 24 75 25 76
REMARK H PARENT 68 25 46 36
REMARK Flexibility Score: inf
ROOT
ATOM      1  C   UNL A   1      31.810  29.680  25.397  1.00  0.00     0.188 C 
ENDROOT
BRANCH   1   2
ATOM      2  O   UNL A   1      31.818  29.872  26.814  1.00  0.00    -0.376 OA
BRANCH   2   3
ATOM      3  C   UNL A   1      32.563  31.021  27.211  1.00  0.00     0.202 C 
BRANCH   3   4
ATOM      4  C   UNL A   1      32.032  32.348  26.641  1.00  0.00     0.261 C 
BRANCH   4   5
ATOM      5  O   UNL A   1      32.000  33.446  27.576  1.00  0.00    -0.460 OA
BRANCH   5   6
ATOM      6  C   UNL A   1      32.988  34.098  28.239  1.00  0.00     0.338 C 
ATOM      7  O   UNL A   1      32.782  35.279  28.530  1.00  0.00    -0.246 OA
BRANCH   6   8
ATOM      8  C   UNL A   1      34.306  33.508  28.652  1.00  0.00     0.060 A 
ATOM      9  C   UNL A   1      35.521  33.717  28.012  1.00  0.00     0.016 A 
ATOM     10  C   UNL A   1      34.328  32.699  29.815  1.00  0.00     0.016 A 
ATOM     11  C   UNL A   1      36.706  33.182  28.519  1.00  0.00     0.010 A 
ATOM     12  C   UNL A   1      35.523  32.164  30.336  1.00  0.00     0.010 A 
ATOM     13  C   UNL A   1      36.732  32.427  29.697  1.00  0.00    -0.014 A 
BRANCH  13  14
ATOM     14  C   UNL A   1      38.047  31.855  30.083  1.00  0.00     0.031 A 
ATOM     15  C   UNL A   1      38.654  32.369  31.349  1.00  0.00     0.074 A 
ATOM     16  C   UNL A   1      38.570  30.771  29.473  1.00  0.00     0.049 A 
ATOM     17  N   UNL A   1      39.716  31.949  31.980  1.00  0.00    -0.248 NA
ATOM     18  C   UNL A   1      37.974  33.510  31.988  1.00  0.00     0.031 C 
ATOM     19  C   UNL A   1      38.044  30.157  28.264  1.00  0.00     0.029 A 
ATOM     20  N   UNL A   1      39.600  29.931  29.833  1.00  0.00    -0.354 N 
ATOM     21  C   UNL A   1      39.870  32.820  33.047  1.00  0.00     0.074 A 
ATOM     22  C   UNL A   1      38.746  33.725  33.040  1.00  0.00     0.031 C 
ATOM     23  C   UNL A   1      38.616  28.956  28.083  1.00  0.00     0.029 A 
ATOM     24  C   UNL A   1      39.679  28.785  29.066  1.00  0.00     0.049 A 
ATOM     25  H   UNL A   1      40.221  30.128  30.570  1.00  0.00     0.167 HD
ATOM     26  C   UNL A   1      40.919  32.913  33.891  1.00  0.00     0.031 A 
ATOM     27  C   UNL A   1      40.541  27.747  29.119  1.00  0.00     0.031 A 
ATOM     28  C   UNL A   1      42.065  32.054  33.829  1.00  0.00     0.049 A 
ATOM     29  C   UNL A   1      41.712  27.887  30.060  1.00  0.00     0.074 A 
ATOM     30  C   UNL A   1      43.240  32.133  34.551  1.00  0.00     0.029 A 
ATOM     31  N   UNL A   1      42.186  30.971  32.970  1.00  0.00    -0.354 N 
ATOM     32  N   UNL A   1      41.904  28.765  31.015  1.00  0.00    -0.248 NA
ATOM     33  C   UNL A   1      42.836  26.959  29.863  1.00  0.00     0.031 C 
ATOM     34  C   UNL A   1      44.099  31.137  34.081  1.00  0.00     0.029 A 
ATOM     35  C   UNL A   1      43.431  30.393  33.121  1.00  0.00     0.049 A 
ATOM     36  H   UNL A   1      41.489  30.661  32.348  1.00  0.00     0.167 HD
ATOM     37  C   UNL A   1      43.187  28.536  31.488  1.00  0.00     0.074 A 
ATOM     38  C   UNL A   1      43.697  27.380  30.779  1.00  0.00     0.031 C 
ATOM     39  C   UNL A   1      43.905  29.248  32.391  1.00  0.00     0.031 A 
BRANCH  26  40
ATOM     40  C   UNL A   1      40.942  34.104  34.796  1.00  0.00    -0.014 A 
ATOM     41  C   UNL A   1      40.383  34.082  36.081  1.00  0.00     0.009 A 
ATOM     42  C   UNL A   1      41.515  35.293  34.316  1.00  0.00     0.009 A 
ATOM     43  C   UNL A   1      40.381  35.241  36.860  1.00  0.00     0.001 A 
ATOM     44  C   UNL A   1      41.534  36.440  35.105  1.00  0.00     0.001 A 
ATOM     45  C   UNL A   1      40.961  36.414  36.375  1.00  0.00     0.000 A 
ENDBRANCH  26  40
BRANCH  27  46
ATOM     46  C   UNL A   1      40.472  26.589  28.170  1.00  0.00    -0.014 A 
ATOM     47  C   UNL A   1      41.081  26.640  26.903  1.00  0.00     0.009 A 
ATOM     48  C   UNL A   1      39.715  25.446  28.485  1.00  0.00     0.009 A 
ATOM     49  C   UNL A   1      40.915  25.597  25.981  1.00  0.00     0.001 A 
ATOM     50  C   UNL A   1      39.595  24.383  27.587  1.00  0.00     0.001 A 
ATOM     51  C   UNL A   1      40.181  24.465  26.328  1.00  0.00     0.000 A 
ENDBRANCH  27  46
BRANCH  39  52
ATOM     52  C   UNL A   1      45.315  28.804  32.646  1.00  0.00    -0.014 A 
ATOM     53  C   UNL A   1      46.386  29.362  31.931  1.00  0.00     0.009 A 
ATOM     54  C   UNL A   1      45.578  27.880  33.667  1.00  0.00     0.009 A 
ATOM     55  C   UNL A   1      47.697  28.986  32.223  1.00  0.00     0.001 A 
ATOM     56  C   UNL A   1      46.891  27.530  33.977  1.00  0.00     0.001 A 
ATOM     57  C   UNL A   1      47.949  28.078  33.252  1.00  0.00     0.000 A 
ENDBRANCH  39  52
ENDBRANCH  13  14
ENDBRANCH   6   8
ENDBRANCH   5   6
ENDBRANCH   4   5
ENDBRANCH   3   4
ENDBRANCH   2   3
ENDBRANCH   1   2
BRANCH   1  58
ATOM     58  C   UNL A   1      31.566  28.230  24.980  1.00  0.00     0.188 C 
BRANCH  58  59
ATOM     59  O   UNL A   1      32.285  27.324  25.817  1.00  0.00    -0.376 OA
BRANCH  59  60
ATOM     60  C   UNL A   1      33.659  27.162  25.455  1.00  0.00     0.202 C 
BRANCH  60  61
ATOM     61  C   UNL A   1      33.866  26.440  24.122  1.00  0.00     0.261 C 
BRANCH  61  62
ATOM     62  O   UNL A   1      33.569  25.040  24.192  1.00  0.00    -0.462 OA
BRANCH  62  63
ATOM     63  C   UNL A   1      33.784  24.262  23.110  1.00  0.00     0.328 C 
ATOM     64  O   UNL A   1      33.596  24.608  21.951  1.00  0.00    -0.250 OA
BRANCH  63  65
ATOM     65  C   UNL A   1      34.284  22.870  23.522  1.00  0.00     0.196 C 
ATOM     66  C   UNL A   1      35.769  22.905  23.889  1.00  0.00     0.047 C 
ATOM     67  N   UNL A   1      33.654  22.290  24.694  1.00  0.00    -0.321 N 
ATOM     68  C   UNL A   1      35.817  22.886  25.407  1.00  0.00     0.103 C 
ATOM     69  C   UNL A   1      34.500  22.278  25.791  1.00  0.00     0.223 C 
ATOM     70  O   UNL A   1      34.284  21.829  26.897  1.00  0.00    -0.275 OA
BRANCH  67  71
ATOM     71  C   UNL A   1      32.379  21.580  24.657  1.00  0.00     0.195 C 
BRANCH  71  72
ATOM     72  C   UNL A   1      32.391  20.114  24.407  1.00  0.00     0.123 A 
ATOM     73  C   UNL A   1      32.544  19.325  23.283  1.00  0.00     0.047 A 
ATOM     74  O   UNL A   1      32.441  19.316  25.516  1.00  0.00    -0.467 OA
ATOM     75  C   UNL A   1      32.677  17.987  23.736  1.00  0.00     0.042 A 
ATOM     76  C   UNL A   1      32.627  18.041  25.107  1.00  0.00     0.195 A 
ENDBRANCH  71  72
ENDBRANCH  67  71
ENDBRANCH  63  65
ENDBRANCH  62  63
ENDBRANCH  61  62
ENDBRANCH  60  61
ENDBRANCH  59  60
ENDBRANCH  58  59
ENDBRANCH   1  58
TORSDOF 19
ENDMDL
