MODEL 1
REMARK VINA RESULT:     -10.0      0.000      0.000
REMARK SMILES O=C(OCCOCCOCCOC(=O)c1cccc([C@@H]2CCC[N@@H+](Cc3cccc(OCCO)c3)C2)c1)c1ccc(-c2c3nc(c(-c4ccccc4)c4ccc([nH]4)c(-c4ccccc4)c4nc(c(-c5ccccc5)c5ccc2[nH]5)C=C4)C=C3)cc1
REMARK SMILES IDX 10 1 9 2 8 3 7 4 6 5 5 6 4 7 3 8 2 9 1 10 38 11 39 12 85 13
REMARK SMILES IDX 40 14 84 15 41 16 42 17 43 18 78 19 44 20 83 21 77 22 79 23
REMARK SMILES IDX 45 24 82 25 76 26 75 27 46 29 68 30 53 31 67 32 54 33 57 34
REMARK SMILES IDX 66 35 80 36 55 37 56 38 65 40 81 41 58 42 47 43 48 44 52 45
REMARK SMILES IDX 49 46 51 47 50 48 69 49 70 50 74 51 71 52 73 53 72 54 59 55
REMARK SMILES IDX 60 56 64 57 61 58 63 59 62 60 11 61 12 62 13 63 14 64 15 65
REMARK SMILES IDX 16 66 37 67 17 68 19 69 18 70 20 71 21 72 36 73 22 74 24 75
REMARK SMILES IDX 23 76 25 78 26 79 27 80 35 81 28 82 30 83 29 84 31 85 32 86
REMARK SMILES IDX 33 87 34 88
REMARK H PARENT 79 28 57 39 24 77 34 89
REMARK Flexibility Score: inf
ROOT
ATOM      1  C   UNL A   1      34.977  31.633  29.040  1.00  0.00     0.202 C 
ENDROOT
BRANCH   1   2
ATOM      2  O   UNL A   1      36.213  32.321  29.189  1.00  0.00    -0.376 OA
BRANCH   2   3
ATOM      3  C   UNL A   1      36.182  33.733  29.394  1.00  0.00     0.188 C 
BRANCH   3   4
ATOM      4  C   UNL A   1      36.346  34.227  30.830  1.00  0.00     0.188 C 
BRANCH   4   5
ATOM      5  O   UNL A   1      35.222  33.897  31.659  1.00  0.00    -0.376 OA
BRANCH   5   6
ATOM      6  C   UNL A   1      35.291  34.506  32.951  1.00  0.00     0.202 C 
BRANCH   6   7
ATOM      7  C   UNL A   1      35.583  33.531  34.100  1.00  0.00     0.261 C 
BRANCH   7   8
ATOM      8  O   UNL A   1      36.989  33.367  34.351  1.00  0.00    -0.460 OA
BRANCH   8   9
ATOM      9  C   UNL A   1      37.665  32.214  34.588  1.00  0.00     0.338 C 
ATOM     10  O   UNL A   1      37.479  31.619  35.647  1.00  0.00    -0.246 OA
BRANCH   9  11
ATOM     11  C   UNL A   1      38.544  31.567  33.571  1.00  0.00     0.060 A 
ATOM     12  C   UNL A   1      39.571  30.667  33.857  1.00  0.00     0.016 A 
ATOM     13  C   UNL A   1      38.270  31.853  32.223  1.00  0.00     0.016 A 
ATOM     14  C   UNL A   1      40.411  30.195  32.848  1.00  0.00     0.010 A 
ATOM     15  C   UNL A   1      39.061  31.320  31.200  1.00  0.00     0.010 A 
ATOM     16  C   UNL A   1      40.177  30.535  31.512  1.00  0.00    -0.014 A 
BRANCH  16  17
ATOM     17  C   UNL A   1      41.155  30.136  30.467  1.00  0.00     0.031 A 
ATOM     18  C   UNL A   1      42.324  31.030  30.194  1.00  0.00     0.074 A 
ATOM     19  C   UNL A   1      41.032  28.955  29.833  1.00  0.00     0.049 A 
ATOM     20  N   UNL A   1      43.345  30.829  29.405  1.00  0.00    -0.248 NA
ATOM     21  C   UNL A   1      42.359  32.314  30.916  1.00  0.00     0.031 C 
ATOM     22  C   UNL A   1      39.962  28.012  30.105  1.00  0.00     0.029 A 
ATOM     23  N   UNL A   1      41.798  28.319  28.881  1.00  0.00    -0.354 N 
ATOM     24  C   UNL A   1      44.132  31.965  29.521  1.00  0.00     0.074 A 
ATOM     25  C   UNL A   1      43.465  32.861  30.438  1.00  0.00     0.031 C 
ATOM     26  C   UNL A   1      40.183  26.902  29.392  1.00  0.00     0.029 A 
ATOM     27  C   UNL A   1      41.376  27.030  28.580  1.00  0.00     0.049 A 
ATOM     28  H   UNL A   1      42.577  28.741  28.451  1.00  0.00     0.167 HD
ATOM     29  C   UNL A   1      45.313  32.233  28.920  1.00  0.00     0.031 A 
ATOM     30  C   UNL A   1      41.920  26.099  27.758  1.00  0.00     0.031 A 
ATOM     31  C   UNL A   1      45.971  31.337  28.013  1.00  0.00     0.049 A 
ATOM     32  C   UNL A   1      43.104  26.612  26.959  1.00  0.00     0.074 A 
ATOM     33  C   UNL A   1      47.152  31.518  27.317  1.00  0.00     0.029 A 
ATOM     34  N   UNL A   1      45.487  30.083  27.670  1.00  0.00    -0.354 N 
ATOM     35  N   UNL A   1      43.966  27.563  27.242  1.00  0.00    -0.248 NA
ATOM     36  C   UNL A   1      43.372  25.943  25.683  1.00  0.00     0.031 C 
ATOM     37  C   UNL A   1      47.359  30.387  26.517  1.00  0.00     0.029 A 
ATOM     38  C   UNL A   1      46.317  29.498  26.730  1.00  0.00     0.049 A 
ATOM     39  H   UNL A   1      44.673  29.671  28.040  1.00  0.00     0.167 HD
ATOM     40  C   UNL A   1      44.960  27.471  26.273  1.00  0.00     0.074 A 
ATOM     41  C   UNL A   1      44.601  26.358  25.421  1.00  0.00     0.031 C 
ATOM     42  C   UNL A   1      46.053  28.249  26.068  1.00  0.00     0.031 A 
BRANCH  29  43
ATOM     43  C   UNL A   1      45.915  33.577  29.199  1.00  0.00    -0.014 A 
ATOM     44  C   UNL A   1      46.959  33.728  30.125  1.00  0.00     0.009 A 
ATOM     45  C   UNL A   1      45.395  34.712  28.562  1.00  0.00     0.009 A 
ATOM     46  C   UNL A   1      47.447  34.999  30.433  1.00  0.00     0.001 A 
ATOM     47  C   UNL A   1      45.900  35.979  28.857  1.00  0.00     0.001 A 
ATOM     48  C   UNL A   1      46.919  36.123  29.799  1.00  0.00     0.000 A 
ENDBRANCH  29  43
BRANCH  30  49
ATOM     49  C   UNL A   1      41.465  24.642  27.587  1.00  0.00    -0.014 A 
ATOM     50  C   UNL A   1      42.541  23.281  28.157  1.00  0.00     0.009 A 
ATOM     51  C   UNL A   1      39.919  24.179  26.746  1.00  0.00     0.009 A 
ATOM     52  C   UNL A   1      42.084  21.544  27.929  1.00  0.00     0.001 A 
ATOM     53  C   UNL A   1      39.410  22.439  26.587  1.00  0.00     0.001 A 
ATOM     54  C   UNL A   1      40.522  21.129  27.129  1.00  0.00     0.000 A 
ENDBRANCH  30  49
BRANCH  42  55
ATOM     55  C   UNL A   1      47.056  27.754  25.061  1.00  0.00    -0.014 A 
ATOM     56  C   UNL A   1      48.143  26.945  25.427  1.00  0.00     0.009 A 
ATOM     57  C   UNL A   1      46.922  28.144  23.719  1.00  0.00     0.009 A 
ATOM     58  C   UNL A   1      49.122  26.613  24.490  1.00  0.00     0.001 A 
ATOM     59  C   UNL A   1      47.878  27.771  22.773  1.00  0.00     0.001 A 
ATOM     60  C   UNL A   1      48.989  27.028  23.165  1.00  0.00     0.000 A 
ENDBRANCH  42  55
ENDBRANCH  16  17
ENDBRANCH   9  11
ENDBRANCH   8   9
ENDBRANCH   7   8
ENDBRANCH   6   7
ENDBRANCH   5   6
ENDBRANCH   4   5
ENDBRANCH   3   4
ENDBRANCH   2   3
ENDBRANCH   1   2
BRANCH   1  61
ATOM     61  C   UNL A   1      34.460  31.386  27.621  1.00  0.00     0.261 C 
BRANCH  61  62
ATOM     62  O   UNL A   1      33.408  30.422  27.517  1.00  0.00    -0.460 OA
BRANCH  62  63
ATOM     63  C   UNL A   1      33.759  29.295  26.852  1.00  0.00     0.338 C 
ATOM     64  O   UNL A   1      34.753  28.605  27.002  1.00  0.00    -0.246 OA
BRANCH  63  65
ATOM     65  C   UNL A   1      32.850  29.119  25.727  1.00  0.00     0.060 A 
ATOM     66  C   UNL A   1      31.726  29.898  25.483  1.00  0.00     0.016 A 
ATOM     67  C   UNL A   1      33.103  27.973  24.991  1.00  0.00     0.020 A 
ATOM     68  C   UNL A   1      30.846  29.498  24.473  1.00  0.00     0.001 A 
ATOM     69  C   UNL A   1      32.212  27.529  24.026  1.00  0.00    -0.038 A 
ATOM     70  C   UNL A   1      31.080  28.314  23.756  1.00  0.00     0.004 A 
BRANCH  69  71
ATOM     71  C   UNL A   1      32.527  26.256  23.274  1.00  0.00     0.074 C 
ATOM     72  C   UNL A   1      31.371  25.669  22.444  1.00  0.00     0.020 C 
ATOM     73  C   UNL A   1      33.062  25.194  24.240  1.00  0.00     0.270 C 
ATOM     74  C   UNL A   1      30.420  24.752  23.229  1.00  0.00     0.062 C 
ATOM     75  N   UNL A   1      32.071  24.466  25.043  1.00  0.00    -0.331 N 
ATOM     76  C   UNL A   1      31.134  23.764  24.167  1.00  0.00     0.262 C 
ATOM     77  H   UNL A   1      31.529  25.146  25.577  1.00  0.00     0.348 HD
BRANCH  75  78
ATOM     78  C   UNL A   1      32.681  23.613  26.099  1.00  0.00     0.299 C 
BRANCH  78  79
ATOM     79  C   UNL A   1      33.842  22.736  25.669  1.00  0.00     0.010 A 
ATOM     80  C   UNL A   1      35.166  23.048  25.964  1.00  0.00     0.010 A 
ATOM     81  C   UNL A   1      33.573  21.528  25.006  1.00  0.00     0.056 A 
ATOM     82  C   UNL A   1      36.162  22.112  25.694  1.00  0.00     0.004 A 
ATOM     83  C   UNL A   1      34.492  20.493  24.927  1.00  0.00     0.119 A 
ATOM     84  C   UNL A   1      35.820  20.834  25.232  1.00  0.00     0.046 A 
BRANCH  83  85
ATOM     85  O   UNL A   1      34.215  19.133  24.650  1.00  0.00    -0.491 OA
BRANCH  85  86
ATOM     86  C   UNL A   1      33.644  17.370  23.882  1.00  0.00     0.257 C 
BRANCH  86  87
ATOM     87  C   UNL A   1      33.213  15.947  24.625  1.00  0.00     0.197 C 
BRANCH  87  88
ATOM     88  O   UNL A   1      33.214  15.959  26.055  1.00  0.00    -0.393 OA
ATOM     89  H   UNL A   1      33.968  16.481  26.374  1.00  0.00     0.210 HD
ENDBRANCH  87  88
ENDBRANCH  86  87
ENDBRANCH  85  86
ENDBRANCH  83  85
ENDBRANCH  78  79
ENDBRANCH  75  78
ENDBRANCH  69  71
ENDBRANCH  63  65
ENDBRANCH  62  63
ENDBRANCH  61  62
ENDBRANCH   1  61
TORSDOF 24
ENDMDL
MODEL 2
REMARK VINA RESULT:      -9.1      5.596     10.433
REMARK SMILES O=C(OCCOCCOCCOC(=O)c1cccc([C@@H]2CCC[N@@H+](Cc3cccc(OCCO)c3)C2)c1)c1ccc(-c2c3nc(c(-c4ccccc4)c4ccc([nH]4)c(-c4ccccc4)c4nc(c(-c5ccccc5)c5ccc2[nH]5)C=C4)C=C3)cc1
REMARK SMILES IDX 10 1 9 2 8 3 7 4 6 5 5 6 4 7 3 8 2 9 1 10 38 11 39 12 85 13
REMARK SMILES IDX 40 14 84 15 41 16 42 17 43 18 78 19 44 20 83 21 77 22 79 23
REMARK SMILES IDX 45 24 82 25 76 26 75 27 46 29 68 30 53 31 67 32 54 33 57 34
REMARK SMILES IDX 66 35 80 36 55 37 56 38 65 40 81 41 58 42 47 43 48 44 52 45
REMARK SMILES IDX 49 46 51 47 50 48 69 49 70 50 74 51 71 52 73 53 72 54 59 55
REMARK SMILES IDX 60 56 64 57 61 58 63 59 62 60 11 61 12 62 13 63 14 64 15 65
REMARK SMILES IDX 16 66 37 67 17 68 19 69 18 70 20 71 21 72 36 73 22 74 24 75
REMARK SMILES IDX 23 76 25 78 26 79 27 80 35 81 28 82 30 83 29 84 31 85 32 86
REMARK SMILES IDX 33 87 34 88
REMARK H PARENT 79 28 57 39 24 77 34 89
REMARK Flexibility Score: inf
ROOT
ATOM      1  C   UNL A   1      36.361  30.295  27.895  1.00  0.00     0.202 C 
ENDROOT
BRANCH   1   2
ATOM      2  O   UNL A   1      35.210  30.951  27.378  1.00  0.00    -0.376 OA
BRANCH   2   3
ATOM      3  C   UNL A   1      34.655  32.034  28.124  1.00  0.00     0.188 C 
BRANCH   3   4
ATOM      4  C   UNL A   1      35.233  33.423  27.861  1.00  0.00     0.188 C 
BRANCH   4   5
ATOM      5  O   UNL A   1      34.272  34.469  28.069  1.00  0.00    -0.376 OA
BRANCH   5   6
ATOM      6  C   UNL A   1      33.484  34.269  29.246  1.00  0.00     0.202 C 
BRANCH   6   7
ATOM      7  C   UNL A   1      33.858  35.176  30.425  1.00  0.00     0.261 C 
BRANCH   7   8
ATOM      8  O   UNL A   1      34.923  34.639  31.228  1.00  0.00    -0.460 OA
BRANCH   8   9
ATOM      9  C   UNL A   1      35.111  34.777  32.565  1.00  0.00     0.338 C 
ATOM     10  O   UNL A   1      34.226  35.297  33.242  1.00  0.00    -0.246 OA
BRANCH   9  11
ATOM     11  C   UNL A   1      36.298  34.223  33.277  1.00  0.00     0.060 A 
ATOM     12  C   UNL A   1      36.265  33.165  34.187  1.00  0.00     0.016 A 
ATOM     13  C   UNL A   1      37.547  34.781  32.956  1.00  0.00     0.016 A 
ATOM     14  C   UNL A   1      37.412  32.785  34.885  1.00  0.00     0.010 A 
ATOM     15  C   UNL A   1      38.714  34.350  33.595  1.00  0.00     0.010 A 
ATOM     16  C   UNL A   1      38.643  33.389  34.611  1.00  0.00    -0.014 A 
BRANCH  16  17
ATOM     17  C   UNL A   1      39.825  33.069  35.453  1.00  0.00     0.031 A 
ATOM     18  C   UNL A   1      40.205  34.012  36.550  1.00  0.00     0.074 A 
ATOM     19  C   UNL A   1      40.493  31.913  35.279  1.00  0.00     0.049 A 
ATOM     20  N   UNL A   1      41.130  33.881  37.463  1.00  0.00    -0.248 NA
ATOM     21  C   UNL A   1      39.433  35.264  36.646  1.00  0.00     0.031 C 
ATOM     22  C   UNL A   1      40.129  30.924  34.280  1.00  0.00     0.029 A 
ATOM     23  N   UNL A   1      41.567  31.346  35.929  1.00  0.00    -0.354 N 
ATOM     24  C   UNL A   1      41.063  35.037  38.228  1.00  0.00     0.074 A 
ATOM     25  C   UNL A   1      40.025  35.869  37.663  1.00  0.00     0.031 C 
ATOM     26  C   UNL A   1      40.918  29.855  34.435  1.00  0.00     0.029 A 
ATOM     27  C   UNL A   1      41.872  30.058  35.506  1.00  0.00     0.049 A 
ATOM     28  H   UNL A   1      42.075  31.812  36.632  1.00  0.00     0.167 HD
ATOM     29  C   UNL A   1      41.801  35.370  39.311  1.00  0.00     0.031 A 
ATOM     30  C   UNL A   1      42.802  29.183  35.962  1.00  0.00     0.031 A 
ATOM     31  C   UNL A   1      42.828  34.537  39.867  1.00  0.00     0.049 A 
ATOM     32  C   UNL A   1      43.724  29.771  37.016  1.00  0.00     0.074 A 
ATOM     33  C   UNL A   1      43.663  34.788  40.939  1.00  0.00     0.029 A 
ATOM     34  N   UNL A   1      43.165  33.284  39.376  1.00  0.00    -0.354 N 
ATOM     35  N   UNL A   1      43.510  30.736  37.881  1.00  0.00    -0.248 NA
ATOM     36  C   UNL A   1      45.054  29.168  37.130  1.00  0.00     0.031 C 
ATOM     37  C   UNL A   1      44.537  33.701  41.070  1.00  0.00     0.029 A 
ATOM     38  C   UNL A   1      44.232  32.769  40.090  1.00  0.00     0.049 A 
ATOM     39  H   UNL A   1      42.712  32.829  38.629  1.00  0.00     0.167 HD
ATOM     40  C   UNL A   1      44.604  30.720  38.740  1.00  0.00     0.074 A 
ATOM     41  C   UNL A   1      45.455  29.634  38.302  1.00  0.00     0.031 C 
ATOM     42  C   UNL A   1      44.914  31.542  39.775  1.00  0.00     0.031 A 
BRANCH  29  43
ATOM     43  C   UNL A   1      41.538  36.719  39.908  1.00  0.00    -0.014 A 
ATOM     44  C   UNL A   1      40.613  36.887  40.949  1.00  0.00     0.009 A 
ATOM     45  C   UNL A   1      42.192  37.844  39.385  1.00  0.00     0.009 A 
ATOM     46  C   UNL A   1      40.321  38.164  41.432  1.00  0.00     0.001 A 
ATOM     47  C   UNL A   1      41.913  39.117  39.884  1.00  0.00     0.001 A 
ATOM     48  C   UNL A   1      40.971  39.277  40.901  1.00  0.00     0.000 A 
ENDBRANCH  29  43
BRANCH  30  49
ATOM     49  C   UNL A   1      42.981  27.721  35.528  1.00  0.00    -0.014 A 
ATOM     50  C   UNL A   1      43.881  27.334  33.986  1.00  0.00     0.009 A 
ATOM     51  C   UNL A   1      42.251  26.322  36.434  1.00  0.00     0.009 A 
ATOM     52  C   UNL A   1      44.070  25.634  33.394  1.00  0.00     0.001 A 
ATOM     53  C   UNL A   1      42.508  24.603  35.894  1.00  0.00     0.001 A 
ATOM     54  C   UNL A   1      43.369  24.273  34.345  1.00  0.00     0.000 A 
ENDBRANCH  30  49
BRANCH  42  55
ATOM     55  C   UNL A   1      46.066  31.126  40.648  1.00  0.00    -0.014 A 
ATOM     56  C   UNL A   1      47.383  31.537  40.390  1.00  0.00     0.009 A 
ATOM     57  C   UNL A   1      45.822  30.270  41.733  1.00  0.00     0.009 A 
ATOM     58  C   UNL A   1      48.441  31.027  41.144  1.00  0.00     0.001 A 
ATOM     59  C   UNL A   1      46.878  29.799  42.516  1.00  0.00     0.001 A 
ATOM     60  C   UNL A   1      48.187  30.158  42.205  1.00  0.00     0.000 A 
ENDBRANCH  42  55
ENDBRANCH  16  17
ENDBRANCH   9  11
ENDBRANCH   8   9
ENDBRANCH   7   8
ENDBRANCH   6   7
ENDBRANCH   5   6
ENDBRANCH   4   5
ENDBRANCH   3   4
ENDBRANCH   2   3
ENDBRANCH   1   2
BRANCH   1  61
ATOM     61  C   UNL A   1      36.220  29.535  29.217  1.00  0.00     0.261 C 
BRANCH  61  62
ATOM     62  O   UNL A   1      37.364  29.590  30.073  1.00  0.00    -0.460 OA
BRANCH  62  63
ATOM     63  C   UNL A   1      37.239  30.461  31.103  1.00  0.00     0.338 C 
ATOM     64  O   UNL A   1      36.456  30.423  32.035  1.00  0.00    -0.246 OA
BRANCH  63  65
ATOM     65  C   UNL A   1      38.068  31.627  30.826  1.00  0.00     0.060 A 
ATOM     66  C   UNL A   1      37.652  32.750  30.123  1.00  0.00     0.016 A 
ATOM     67  C   UNL A   1      39.395  31.455  31.183  1.00  0.00     0.020 A 
ATOM     68  C   UNL A   1      38.608  33.709  29.775  1.00  0.00     0.001 A 
ATOM     69  C   UNL A   1      40.366  32.365  30.797  1.00  0.00    -0.038 A 
ATOM     70  C   UNL A   1      39.960  33.513  30.099  1.00  0.00     0.004 A 
BRANCH  69  71
ATOM     71  C   UNL A   1      41.803  32.110  31.191  1.00  0.00     0.074 C 
ATOM     72  C   UNL A   1      42.803  33.220  30.820  1.00  0.00     0.020 C 
ATOM     73  C   UNL A   1      42.277  30.773  30.611  1.00  0.00     0.270 C 
ATOM     74  C   UNL A   1      43.370  33.124  29.395  1.00  0.00     0.062 C 
ATOM     75  N   UNL A   1      42.670  30.764  29.195  1.00  0.00    -0.331 N 
ATOM     76  C   UNL A   1      43.772  31.700  28.976  1.00  0.00     0.262 C 
ATOM     77  H   UNL A   1      41.881  31.096  28.641  1.00  0.00     0.348 HD
BRANCH  75  78
ATOM     78  C   UNL A   1      42.911  29.396  28.660  1.00  0.00     0.299 C 
BRANCH  78  79
ATOM     79  C   UNL A   1      41.700  28.485  28.571  1.00  0.00     0.010 A 
ATOM     80  C   UNL A   1      40.457  28.932  28.132  1.00  0.00     0.010 A 
ATOM     81  C   UNL A   1      41.850  27.124  28.878  1.00  0.00     0.056 A 
ATOM     82  C   UNL A   1      39.441  28.005  27.907  1.00  0.00     0.004 A 
ATOM     83  C   UNL A   1      40.949  26.156  28.460  1.00  0.00     0.119 A 
ATOM     84  C   UNL A   1      39.704  26.633  28.020  1.00  0.00     0.046 A 
BRANCH  83  85
ATOM     85  O   UNL A   1      41.186  24.764  28.364  1.00  0.00    -0.491 OA
BRANCH  85  86
ATOM     86  C   UNL A   1      41.780  22.909  27.884  1.00  0.00     0.257 C 
BRANCH  86  87
ATOM     87  C   UNL A   1      41.453  21.971  26.553  1.00  0.00     0.197 C 
BRANCH  87  88
ATOM     88  O   UNL A   1      41.958  22.453  25.304  1.00  0.00    -0.393 OA
ATOM     89  H   UNL A   1      42.680  21.879  25.003  1.00  0.00     0.210 HD
ENDBRANCH  87  88
ENDBRANCH  86  87
ENDBRANCH  85  86
ENDBRANCH  83  85
ENDBRANCH  78  79
ENDBRANCH  75  78
ENDBRANCH  69  71
ENDBRANCH  63  65
ENDBRANCH  62  63
ENDBRANCH  61  62
ENDBRANCH   1  61
TORSDOF 24
ENDMDL
MODEL 3
REMARK VINA RESULT:      -9.0      5.484      9.768
REMARK SMILES O=C(OCCOCCOCCOC(=O)c1cccc([C@@H]2CCC[N@@H+](Cc3cccc(OCCO)c3)C2)c1)c1ccc(-c2c3nc(c(-c4ccccc4)c4ccc([nH]4)c(-c4ccccc4)c4nc(c(-c5ccccc5)c5ccc2[nH]5)C=C4)C=C3)cc1
REMARK SMILES IDX 10 1 9 2 8 3 7 4 6 5 5 6 4 7 3 8 2 9 1 10 38 11 39 12 85 13
REMARK SMILES IDX 40 14 84 15 41 16 42 17 43 18 78 19 44 20 83 21 77 22 79 23
REMARK SMILES IDX 45 24 82 25 76 26 75 27 46 29 68 30 53 31 67 32 54 33 57 34
REMARK SMILES IDX 66 35 80 36 55 37 56 38 65 40 81 41 58 42 47 43 48 44 52 45
REMARK SMILES IDX 49 46 51 47 50 48 69 49 70 50 74 51 71 52 73 53 72 54 59 55
REMARK SMILES IDX 60 56 64 57 61 58 63 59 62 60 11 61 12 62 13 63 14 64 15 65
REMARK SMILES IDX 16 66 37 67 17 68 19 69 18 70 20 71 21 72 36 73 22 74 24 75
REMARK SMILES IDX 23 76 25 78 26 79 27 80 35 81 28 82 30 83 29 84 31 85 32 86
REMARK SMILES IDX 33 87 34 88
REMARK H PARENT 79 28 57 39 24 77 34 89
REMARK Flexibility Score: inf
ROOT
ATOM      1  C   UNL A   1      39.155  23.009  26.351  1.00  0.00     0.202 C 
ENDROOT
BRANCH   1   2
ATOM      2  O   UNL A   1      40.237  23.878  26.665  1.00  0.00    -0.376 OA
BRANCH   2   3
ATOM      3  C   UNL A   1      40.055  24.836  27.707  1.00  0.00     0.188 C 
BRANCH   3   4
ATOM      4  C   UNL A   1      41.307  25.294  28.451  1.00  0.00     0.188 C 
BRANCH   4   5
ATOM      5  O   UNL A   1      41.209  26.648  28.916  1.00  0.00    -0.376 OA
BRANCH   5   6
ATOM      6  C   UNL A   1      40.200  27.396  28.231  1.00  0.00     0.202 C 
BRANCH   6   7
ATOM      7  C   UNL A   1      40.604  28.833  27.874  1.00  0.00     0.261 C 
BRANCH   7   8
ATOM      8  O   UNL A   1      40.902  29.000  26.476  1.00  0.00    -0.460 OA
BRANCH   8   9
ATOM      9  C   UNL A   1      42.026  28.628  25.813  1.00  0.00     0.338 C 
ATOM     10  O   UNL A   1      42.062  28.740  24.590  1.00  0.00    -0.246 OA
BRANCH   9  11
ATOM     11  C   UNL A   1      43.270  28.192  26.510  1.00  0.00     0.060 A 
ATOM     12  C   UNL A   1      43.840  26.921  26.412  1.00  0.00     0.016 A 
ATOM     13  C   UNL A   1      43.940  29.161  27.276  1.00  0.00     0.016 A 
ATOM     14  C   UNL A   1      44.948  26.573  27.186  1.00  0.00     0.010 A 
ATOM     15  C   UNL A   1      45.097  28.839  27.992  1.00  0.00     0.010 A 
ATOM     16  C   UNL A   1      45.573  27.522  28.000  1.00  0.00    -0.014 A 
BRANCH  16  17
ATOM     17  C   UNL A   1      46.666  27.103  28.916  1.00  0.00     0.031 A 
ATOM     18  C   UNL A   1      46.306  26.525  30.249  1.00  0.00     0.074 A 
ATOM     19  C   UNL A   1      47.951  27.171  28.522  1.00  0.00     0.049 A 
ATOM     20  N   UNL A   1      47.089  26.003  31.156  1.00  0.00    -0.248 NA
ATOM     21  C   UNL A   1      44.876  26.516  30.604  1.00  0.00     0.031 C 
ATOM     22  C   UNL A   1      48.358  27.654  27.215  1.00  0.00     0.029 A 
ATOM     23  N   UNL A   1      49.136  26.815  29.127  1.00  0.00    -0.354 N 
ATOM     24  C   UNL A   1      46.250  25.622  32.194  1.00  0.00     0.074 A 
ATOM     25  C   UNL A   1      44.903  25.990  31.818  1.00  0.00     0.031 C 
ATOM     26  C   UNL A   1      49.682  27.497  27.099  1.00  0.00     0.029 A 
ATOM     27  C   UNL A   1      50.252  26.939  28.308  1.00  0.00     0.049 A 
ATOM     28  H   UNL A   1      49.188  26.500  30.058  1.00  0.00     0.167 HD
ATOM     29  C   UNL A   1      46.576  25.013  33.356  1.00  0.00     0.031 A 
ATOM     30  C   UNL A   1      51.549  26.618  28.540  1.00  0.00     0.031 A 
ATOM     31  C   UNL A   1      47.916  24.649  33.720  1.00  0.00     0.049 A 
ATOM     32  C   UNL A   1      51.819  26.172  29.966  1.00  0.00     0.074 A 
ATOM     33  C   UNL A   1      48.369  24.061  34.886  1.00  0.00     0.029 A 
ATOM     34  N   UNL A   1      49.025  24.855  32.913  1.00  0.00    -0.354 N 
ATOM     35  N   UNL A   1      51.020  25.596  30.835  1.00  0.00    -0.248 NA
ATOM     36  C   UNL A   1      53.180  26.375  30.467  1.00  0.00     0.031 C 
ATOM     37  C   UNL A   1      49.762  23.951  34.801  1.00  0.00     0.029 A 
ATOM     38  C   UNL A   1      50.171  24.454  33.576  1.00  0.00     0.049 A 
ATOM     39  H   UNL A   1      49.000  25.231  32.003  1.00  0.00     0.167 HD
ATOM     40  C   UNL A   1      51.834  25.214  31.898  1.00  0.00     0.074 A 
ATOM     41  C   UNL A   1      53.182  25.604  31.542  1.00  0.00     0.031 C 
ATOM     42  C   UNL A   1      51.510  24.633  33.081  1.00  0.00     0.031 A 
BRANCH  29  43
ATOM     43  C   UNL A   1      45.455  24.766  34.318  1.00  0.00    -0.014 A 
ATOM     44  C   UNL A   1      45.161  25.679  35.342  1.00  0.00     0.009 A 
ATOM     45  C   UNL A   1      44.715  23.578  34.227  1.00  0.00     0.009 A 
ATOM     46  C   UNL A   1      44.167  25.389  36.280  1.00  0.00     0.001 A 
ATOM     47  C   UNL A   1      43.709  23.301  35.153  1.00  0.00     0.001 A 
ATOM     48  C   UNL A   1      43.443  24.202  36.184  1.00  0.00     0.000 A 
ENDBRANCH  29  43
BRANCH  30  49
ATOM     49  C   UNL A   1      52.702  26.659  27.527  1.00  0.00    -0.014 A 
ATOM     50  C   UNL A   1      53.660  28.197  27.301  1.00  0.00     0.009 A 
ATOM     51  C   UNL A   1      53.119  25.257  26.444  1.00  0.00     0.009 A 
ATOM     52  C   UNL A   1      54.991  28.321  26.079  1.00  0.00     0.001 A 
ATOM     53  C   UNL A   1      54.509  25.343  25.272  1.00  0.00     0.001 A 
ATOM     54  C   UNL A   1      55.401  26.894  25.057  1.00  0.00     0.000 A 
ENDBRANCH  30  49
BRANCH  42  55
ATOM     55  C   UNL A   1      52.652  24.148  33.932  1.00  0.00    -0.014 A 
ATOM     56  C   UNL A   1      53.298  24.982  34.856  1.00  0.00     0.009 A 
ATOM     57  C   UNL A   1      53.110  22.831  33.769  1.00  0.00     0.009 A 
ATOM     58  C   UNL A   1      54.435  24.537  35.533  1.00  0.00     0.001 A 
ATOM     59  C   UNL A   1      54.218  22.372  34.482  1.00  0.00     0.001 A 
ATOM     60  C   UNL A   1      54.894  23.234  35.344  1.00  0.00     0.000 A 
ENDBRANCH  42  55
ENDBRANCH  16  17
ENDBRANCH   9  11
ENDBRANCH   8   9
ENDBRANCH   7   8
ENDBRANCH   6   7
ENDBRANCH   5   6
ENDBRANCH   4   5
ENDBRANCH   3   4
ENDBRANCH   2   3
ENDBRANCH   1   2
BRANCH   1  61
ATOM     61  C   UNL A   1      37.822  23.641  25.944  1.00  0.00     0.261 C 
BRANCH  61  62
ATOM     62  O   UNL A   1      37.121  22.961  24.900  1.00  0.00    -0.460 OA
BRANCH  62  63
ATOM     63  C   UNL A   1      36.626  21.754  25.266  1.00  0.00     0.338 C 
ATOM     64  O   UNL A   1      37.113  20.650  25.091  1.00  0.00    -0.246 OA
BRANCH  63  65
ATOM     65  C   UNL A   1      35.259  21.937  25.738  1.00  0.00     0.060 A 
ATOM     66  C   UNL A   1      34.844  21.776  27.054  1.00  0.00     0.016 A 
ATOM     67  C   UNL A   1      34.345  22.123  24.714  1.00  0.00     0.020 A 
ATOM     68  C   UNL A   1      33.473  21.803  27.326  1.00  0.00     0.001 A 
ATOM     69  C   UNL A   1      32.981  22.095  24.956  1.00  0.00    -0.038 A 
ATOM     70  C   UNL A   1      32.545  21.949  26.282  1.00  0.00     0.004 A 
BRANCH  69  71
ATOM     71  C   UNL A   1      32.031  22.276  23.794  1.00  0.00     0.074 C 
ATOM     72  C   UNL A   1      32.691  22.488  22.420  1.00  0.00     0.020 C 
ATOM     73  C   UNL A   1      31.060  23.425  24.085  1.00  0.00     0.270 C 
ATOM     74  C   UNL A   1      33.062  23.945  22.105  1.00  0.00     0.062 C 
ATOM     75  N   UNL A   1      31.563  24.789  23.877  1.00  0.00    -0.331 N 
ATOM     76  C   UNL A   1      31.974  24.964  22.485  1.00  0.00     0.262 C 
ATOM     77  H   UNL A   1      32.395  24.915  24.452  1.00  0.00     0.348 HD
BRANCH  75  78
ATOM     78  C   UNL A   1      30.638  25.841  24.381  1.00  0.00     0.299 C 
BRANCH  78  79
ATOM     79  C   UNL A   1      31.210  27.242  24.497  1.00  0.00     0.010 A 
ATOM     80  C   UNL A   1      30.508  28.373  24.091  1.00  0.00     0.010 A 
ATOM     81  C   UNL A   1      32.467  27.415  25.097  1.00  0.00     0.056 A 
ATOM     82  C   UNL A   1      31.019  29.634  24.389  1.00  0.00     0.004 A 
ATOM     83  C   UNL A   1      32.895  28.633  25.605  1.00  0.00     0.119 A 
ATOM     84  C   UNL A   1      32.169  29.758  25.182  1.00  0.00     0.046 A 
BRANCH  83  85
ATOM     85  O   UNL A   1      33.926  28.840  26.552  1.00  0.00    -0.491 OA
BRANCH  85  86
ATOM     86  C   UNL A   1      35.362  29.557  27.756  1.00  0.00     0.257 C 
BRANCH  86  87
ATOM     87  C   UNL A   1      35.738  31.115  28.195  1.00  0.00     0.197 C 
BRANCH  87  88
ATOM     88  O   UNL A   1      35.013  32.150  27.523  1.00  0.00    -0.393 OA
ATOM     89  H   UNL A   1      34.712  31.826  26.659  1.00  0.00     0.210 HD
ENDBRANCH  87  88
ENDBRANCH  86  87
ENDBRANCH  85  86
ENDBRANCH  83  85
ENDBRANCH  78  79
ENDBRANCH  75  78
ENDBRANCH  69  71
ENDBRANCH  63  65
ENDBRANCH  62  63
ENDBRANCH  61  62
ENDBRANCH   1  61
TORSDOF 24
ENDMDL
