MODEL 1
REMARK VINA RESULT:     -11.8      0.000      0.000
REMARK SMILES C[C@H]1c2ccc(O)cc2OC(=O)[C@@H]1CC(=O)N[C@@H](CC1=c2ccccc2=NC1)C(=O)OCCOCCOCCOC(=O)c1ccc(-c2c3nc(c(-c4ccccc4)c4ccc([nH]4)c(-c4ccccc4)c4nc(c(-c5ccccc5)c5ccc2[nH]5)C=C4)C=C3)cc1
REMARK SMILES IDX 35 1 34 2 33 3 32 4 31 5 29 6 30 7 18 8 17 9 15 10 16 11
REMARK SMILES IDX 14 13 13 14 1 15 2 16 3 17 4 18 9 19 11 20 5 21 8 22 10 23
REMARK SMILES IDX 12 24 6 25 7 26 19 28 20 29 21 30 28 31 22 32 26 33 27 34
REMARK SMILES IDX 23 35 25 36 24 37 36 38 37 39 38 40 39 41 40 42 41 43 42 44
REMARK SMILES IDX 43 45 44 46 90 47 45 48 89 49 46 50 47 51 48 52 83 53 49 54
REMARK SMILES IDX 88 55 82 56 84 57 50 58 87 59 81 60 80 61 51 63 73 64 58 65
REMARK SMILES IDX 72 66 59 67 62 68 71 69 85 70 60 71 61 72 70 74 86 75 63 76
REMARK SMILES IDX 52 77 53 78 57 79 54 80 56 81 55 82 74 83 75 84 79 85 76 86
REMARK SMILES IDX 78 87 77 88 64 89 65 90 69 91 66 92 68 93 67 94
REMARK H PARENT 17 12 7 27 84 62 62 73
REMARK Flexibility Score: inf
ROOT
ATOM      1  C   UNL A   1      34.592  31.373  27.994  1.00  0.00     0.188 C 
ENDROOT
BRANCH   1   2
ATOM      2  O   UNL A   1      33.897  30.697  26.958  1.00  0.00    -0.376 OA
BRANCH   2   3
ATOM      3  C   UNL A   1      32.538  30.316  27.153  1.00  0.00     0.202 C 
BRANCH   3   4
ATOM      4  C   UNL A   1      31.861  29.351  26.168  1.00  0.00     0.261 C 
BRANCH   4   5
ATOM      5  O   UNL A   1      31.448  28.097  26.750  1.00  0.00    -0.462 OA
BRANCH   5   6
ATOM      6  C   UNL A   1      32.108  27.010  26.299  1.00  0.00     0.329 C 
ATOM      7  O   UNL A   1      33.316  26.983  26.064  1.00  0.00    -0.250 OA
BRANCH   6   8
ATOM      8  C   UNL A   1      31.239  25.774  26.029  1.00  0.00     0.196 C 
BRANCH   8   9
ATOM      9  N   UNL A   1      30.825  24.733  26.992  1.00  0.00    -0.342 N 
ATOM     10  C   UNL A   1      30.428  23.436  26.777  1.00  0.00     0.221 C 
ATOM     11  O   UNL A   1      29.797  22.859  27.664  1.00  0.00    -0.275 OA
ATOM     12  H   UNL A   1      30.834  25.012  27.936  1.00  0.00     0.164 HD
BRANCH  10  13
ATOM     13  C   UNL A   1      30.876  22.661  25.537  1.00  0.00     0.116 C 
BRANCH  13  14
ATOM     14  C   UNL A   1      32.323  22.890  25.049  1.00  0.00     0.116 C 
ATOM     15  C   UNL A   1      34.028  22.605  23.155  1.00  0.00     0.014 C 
ATOM     16  C   UNL A   1      32.650  22.199  23.700  1.00  0.00     0.034 C 
ATOM     17  C   UNL A   1      32.622  20.703  23.884  1.00  0.00    -0.001 A 
ATOM     18  C   UNL A   1      32.426  19.820  22.823  1.00  0.00     0.011 A 
ATOM     19  C   UNL A   1      32.835  20.173  25.159  1.00  0.00     0.138 A 
ATOM     20  C   UNL A   1      33.325  22.366  26.039  1.00  0.00     0.315 C 
ATOM     21  C   UNL A   1      32.385  18.447  23.070  1.00  0.00     0.047 A 
ATOM     22  C   UNL A   1      32.678  18.822  25.439  1.00  0.00     0.093 A 
ATOM     23  O   UNL A   1      33.318  20.987  26.198  1.00  0.00    -0.426 OA
ATOM     24  O   UNL A   1      34.063  23.088  26.695  1.00  0.00    -0.251 OA
ATOM     25  C   UNL A   1      32.449  17.964  24.377  1.00  0.00     0.119 A 
BRANCH  25  26
ATOM     26  O   UNL A   1      32.304  16.627  24.586  1.00  0.00    -0.508 OA
ATOM     27  H   UNL A   1      32.733  16.217  25.310  1.00  0.00     0.293 HD
ENDBRANCH  25  26
ENDBRANCH  13  14
ENDBRANCH  10  13
ENDBRANCH   8   9
BRANCH   8  28
ATOM     28  C   UNL A   1      30.021  26.301  25.243  1.00  0.00     0.070 C 
BRANCH  28  29
ATOM     29  C   UNL A   1      30.074  26.392  23.706  1.00  0.00    -0.037 C 
ATOM     30  C   UNL A   1      31.245  26.297  23.064  1.00  0.00     0.001 A 
ATOM     31  C   UNL A   1      29.462  27.718  23.283  1.00  0.00     0.174 C 
ATOM     32  C   UNL A   1      31.763  25.383  22.082  1.00  0.00     0.010 A 
ATOM     33  C   UNL A   1      31.571  27.724  22.840  1.00  0.00     0.065 A 
ATOM     34  N   UNL A   1      30.619  28.590  22.983  1.00  0.00    -0.280 NA
ATOM     35  C   UNL A   1      32.904  25.737  21.457  1.00  0.00     0.001 A 
ATOM     36  C   UNL A   1      32.980  27.965  22.473  1.00  0.00     0.028 A 
ATOM     37  C   UNL A   1      33.602  26.965  21.824  1.00  0.00     0.002 A 
ENDBRANCH  28  29
ENDBRANCH   8  28
ENDBRANCH   6   8
ENDBRANCH   5   6
ENDBRANCH   4   5
ENDBRANCH   3   4
ENDBRANCH   2   3
ENDBRANCH   1   2
BRANCH   1  38
ATOM     38  C   UNL A   1      34.558  32.908  28.053  1.00  0.00     0.188 C 
BRANCH  38  39
ATOM     39  O   UNL A   1      33.683  33.465  28.998  1.00  0.00    -0.376 OA
BRANCH  39  40
ATOM     40  C   UNL A   1      34.199  34.273  30.041  1.00  0.00     0.202 C 
BRANCH  40  41
ATOM     41  C   UNL A   1      34.630  33.735  31.423  1.00  0.00     0.261 C 
BRANCH  41  42
ATOM     42  O   UNL A   1      35.030  32.364  31.526  1.00  0.00    -0.460 OA
BRANCH  42  43
ATOM     43  C   UNL A   1      35.992  32.072  32.446  1.00  0.00     0.338 C 
ATOM     44  O   UNL A   1      35.906  32.159  33.647  1.00  0.00    -0.246 OA
BRANCH  43  45
ATOM     45  C   UNL A   1      37.097  31.386  31.724  1.00  0.00     0.060 A 
ATOM     46  C   UNL A   1      37.243  31.538  30.347  1.00  0.00     0.016 A 
ATOM     47  C   UNL A   1      37.976  30.557  32.441  1.00  0.00     0.016 A 
ATOM     48  C   UNL A   1      38.294  30.890  29.691  1.00  0.00     0.010 A 
ATOM     49  C   UNL A   1      39.009  29.885  31.778  1.00  0.00     0.010 A 
ATOM     50  C   UNL A   1      39.194  30.072  30.401  1.00  0.00    -0.014 A 
BRANCH  50  51
ATOM     51  C   UNL A   1      40.427  29.588  29.725  1.00  0.00     0.031 A 
ATOM     52  C   UNL A   1      40.515  28.249  29.062  1.00  0.00     0.074 A 
ATOM     53  C   UNL A   1      41.472  30.432  29.648  1.00  0.00     0.049 A 
ATOM     54  N   UNL A   1      41.529  27.701  28.436  1.00  0.00    -0.248 NA
ATOM     55  C   UNL A   1      39.307  27.423  29.098  1.00  0.00     0.031 C 
ATOM     56  C   UNL A   1      41.486  31.790  30.186  1.00  0.00     0.029 A 
ATOM     57  N   UNL A   1      42.690  30.293  29.033  1.00  0.00    -0.354 N 
ATOM     58  C   UNL A   1      41.108  26.426  28.072  1.00  0.00     0.074 A 
ATOM     59  C   UNL A   1      39.722  26.332  28.467  1.00  0.00     0.031 C 
ATOM     60  C   UNL A   1      42.621  32.393  29.805  1.00  0.00     0.029 A 
ATOM     61  C   UNL A   1      43.435  31.446  29.044  1.00  0.00     0.049 A 
ATOM     62  H   UNL A   1      42.999  29.453  28.625  1.00  0.00     0.167 HD
ATOM     63  C   UNL A   1      41.829  25.423  27.509  1.00  0.00     0.031 A 
ATOM     64  C   UNL A   1      44.628  31.725  28.483  1.00  0.00     0.031 A 
ATOM     65  C   UNL A   1      43.166  25.589  26.989  1.00  0.00     0.049 A 
ATOM     66  C   UNL A   1      45.340  30.670  27.684  1.00  0.00     0.074 A 
ATOM     67  C   UNL A   1      43.951  24.662  26.323  1.00  0.00     0.029 A 
ATOM     68  N   UNL A   1      43.888  26.771  27.021  1.00  0.00    -0.354 N 
ATOM     69  N   UNL A   1      44.971  29.439  27.433  1.00  0.00    -0.248 NA
ATOM     70  C   UNL A   1      46.626  31.047  27.077  1.00  0.00     0.031 C 
ATOM     71  C   UNL A   1      45.157  25.273  25.977  1.00  0.00     0.029 A 
ATOM     72  C   UNL A   1      45.094  26.601  26.364  1.00  0.00     0.049 A 
ATOM     73  H   UNL A   1      43.587  27.606  27.446  1.00  0.00     0.167 HD
ATOM     74  C   UNL A   1      45.967  28.898  26.628  1.00  0.00     0.074 A 
ATOM     75  C   UNL A   1      46.944  29.944  26.409  1.00  0.00     0.031 C 
ATOM     76  C   UNL A   1      46.060  27.643  26.128  1.00  0.00     0.031 A 
BRANCH  63  77
ATOM     77  C   UNL A   1      41.236  24.032  27.443  1.00  0.00    -0.014 A 
ATOM     78  C   UNL A   1      41.779  23.020  28.260  1.00  0.00     0.009 A 
ATOM     79  C   UNL A   1      40.240  23.679  26.524  1.00  0.00     0.009 A 
ATOM     80  C   UNL A   1      41.353  21.694  28.147  1.00  0.00     0.001 A 
ATOM     81  C   UNL A   1      39.778  22.360  26.447  1.00  0.00     0.001 A 
ATOM     82  C   UNL A   1      40.344  21.368  27.246  1.00  0.00     0.000 A 
ENDBRANCH  63  77
BRANCH  64  83
ATOM     83  C   UNL A   1      45.167  33.104  28.606  1.00  0.00    -0.014 A 
ATOM     84  C   UNL A   1      46.141  33.410  29.571  1.00  0.00     0.009 A 
ATOM     85  C   UNL A   1      44.638  34.140  27.823  1.00  0.00     0.009 A 
ATOM     86  C   UNL A   1      46.546  34.730  29.774  1.00  0.00     0.001 A 
ATOM     87  C   UNL A   1      45.072  35.455  28.003  1.00  0.00     0.001 A 
ATOM     88  C   UNL A   1      46.015  35.750  28.986  1.00  0.00     0.000 A 
ENDBRANCH  64  83
BRANCH  76  89
ATOM     89  C   UNL A   1      47.245  27.294  25.268  1.00  0.00    -0.014 A 
ATOM     90  C   UNL A   1      48.414  26.792  25.866  1.00  0.00     0.009 A 
ATOM     91  C   UNL A   1      47.262  27.596  23.899  1.00  0.00     0.009 A 
ATOM     92  C   UNL A   1      49.581  26.623  25.117  1.00  0.00     0.001 A 
ATOM     93  C   UNL A   1      48.423  27.398  23.145  1.00  0.00     0.001 A 
ATOM     94  C   UNL A   1      49.583  26.925  23.757  1.00  0.00     0.000 A 
ENDBRANCH  76  89
ENDBRANCH  50  51
ENDBRANCH  43  45
ENDBRANCH  42  43
ENDBRANCH  41  42
ENDBRANCH  40  41
ENDBRANCH  39  40
ENDBRANCH  38  39
ENDBRANCH   1  38
TORSDOF 23
ENDMDL
MODEL 2
REMARK VINA RESULT:     -11.2      4.167      6.775
REMARK SMILES C[C@H]1c2ccc(O)cc2OC(=O)[C@@H]1CC(=O)N[C@@H](CC1=c2ccccc2=NC1)C(=O)OCCOCCOCCOC(=O)c1ccc(-c2c3nc(c(-c4ccccc4)c4ccc([nH]4)c(-c4ccccc4)c4nc(c(-c5ccccc5)c5ccc2[nH]5)C=C4)C=C3)cc1
REMARK SMILES IDX 35 1 34 2 33 3 32 4 31 5 29 6 30 7 18 8 17 9 15 10 16 11
REMARK SMILES IDX 14 13 13 14 1 15 2 16 3 17 4 18 9 19 11 20 5 21 8 22 10 23
REMARK SMILES IDX 12 24 6 25 7 26 19 28 20 29 21 30 28 31 22 32 26 33 27 34
REMARK SMILES IDX 23 35 25 36 24 37 36 38 37 39 38 40 39 41 40 42 41 43 42 44
REMARK SMILES IDX 43 45 44 46 90 47 45 48 89 49 46 50 47 51 48 52 83 53 49 54
REMARK SMILES IDX 88 55 82 56 84 57 50 58 87 59 81 60 80 61 51 63 73 64 58 65
REMARK SMILES IDX 72 66 59 67 62 68 71 69 85 70 60 71 61 72 70 74 86 75 63 76
REMARK SMILES IDX 52 77 53 78 57 79 54 80 56 81 55 82 74 83 75 84 79 85 76 86
REMARK SMILES IDX 78 87 77 88 64 89 65 90 69 91 66 92 68 93 67 94
REMARK H PARENT 17 12 7 27 84 62 62 73
REMARK Flexibility Score: inf
ROOT
ATOM      1  C   UNL A   1      35.059  32.634  28.070  1.00  0.00     0.188 C 
ENDROOT
BRANCH   1   2
ATOM      2  O   UNL A   1      34.609  31.288  28.054  1.00  0.00    -0.376 OA
BRANCH   2   3
ATOM      3  C   UNL A   1      33.419  30.950  27.348  1.00  0.00     0.202 C 
BRANCH   3   4
ATOM      4  C   UNL A   1      33.370  29.678  26.488  1.00  0.00     0.261 C 
BRANCH   4   5
ATOM      5  O   UNL A   1      33.218  28.456  27.239  1.00  0.00    -0.462 OA
BRANCH   5   6
ATOM      6  C   UNL A   1      31.974  27.932  27.235  1.00  0.00     0.329 C 
ATOM      7  O   UNL A   1      31.064  28.306  27.976  1.00  0.00    -0.250 OA
BRANCH   6   8
ATOM      8  C   UNL A   1      31.751  26.766  26.263  1.00  0.00     0.196 C 
BRANCH   8   9
ATOM      9  N   UNL A   1      31.536  25.343  26.593  1.00  0.00    -0.342 N 
ATOM     10  C   UNL A   1      31.768  24.215  25.844  1.00  0.00     0.221 C 
ATOM     11  O   UNL A   1      31.201  23.170  26.163  1.00  0.00    -0.275 OA
ATOM     12  H   UNL A   1      31.168  25.175  27.490  1.00  0.00     0.164 HD
BRANCH  10  13
ATOM     13  C   UNL A   1      32.818  24.200  24.731  1.00  0.00     0.116 C 
BRANCH  13  14
ATOM     14  C   UNL A   1      32.652  23.138  23.624  1.00  0.00     0.116 C 
ATOM     15  C   UNL A   1      32.703  20.650  23.003  1.00  0.00     0.014 C 
ATOM     16  C   UNL A   1      33.059  21.706  24.059  1.00  0.00     0.034 C 
ATOM     17  C   UNL A   1      34.546  21.662  24.308  1.00  0.00    -0.001 A 
ATOM     18  C   UNL A   1      35.143  20.697  25.117  1.00  0.00     0.011 A 
ATOM     19  C   UNL A   1      35.367  22.601  23.677  1.00  0.00     0.138 A 
ATOM     20  C   UNL A   1      33.494  23.462  22.422  1.00  0.00     0.315 C 
ATOM     21  C   UNL A   1      36.523  20.732  25.325  1.00  0.00     0.047 A 
ATOM     22  C   UNL A   1      36.719  22.721  23.967  1.00  0.00     0.093 A 
ATOM     23  O   UNL A   1      34.864  23.404  22.638  1.00  0.00    -0.426 OA
ATOM     24  O   UNL A   1      33.024  23.799  21.344  1.00  0.00    -0.251 OA
ATOM     25  C   UNL A   1      37.288  21.775  24.802  1.00  0.00     0.119 A 
BRANCH  25  26
ATOM     26  O   UNL A   1      38.613  21.829  25.110  1.00  0.00    -0.508 OA
ATOM     27  H   UNL A   1      38.954  22.563  25.582  1.00  0.00     0.293 HD
ENDBRANCH  25  26
ENDBRANCH  13  14
ENDBRANCH  10  13
ENDBRANCH   8   9
BRANCH   8  28
ATOM     28  C   UNL A   1      30.672  27.262  25.279  1.00  0.00     0.070 C 
BRANCH  28  29
ATOM     29  C   UNL A   1      30.982  28.425  24.315  1.00  0.00    -0.037 C 
ATOM     30  C   UNL A   1      30.034  29.316  24.005  1.00  0.00     0.001 A 
ATOM     31  C   UNL A   1      31.465  27.839  22.997  1.00  0.00     0.174 C 
ATOM     32  C   UNL A   1      29.920  30.739  24.176  1.00  0.00     0.010 A 
ATOM     33  C   UNL A   1      29.553  28.790  22.706  1.00  0.00     0.065 A 
ATOM     34  N   UNL A   1      30.294  27.922  22.096  1.00  0.00    -0.280 NA
ATOM     35  C   UNL A   1      28.926  31.359  23.510  1.00  0.00     0.001 A 
ATOM     36  C   UNL A   1      28.257  29.350  22.277  1.00  0.00     0.028 A 
ATOM     37  C   UNL A   1      27.976  30.592  22.710  1.00  0.00     0.002 A 
ENDBRANCH  28  29
ENDBRANCH   8  28
ENDBRANCH   6   8
ENDBRANCH   5   6
ENDBRANCH   4   5
ENDBRANCH   3   4
ENDBRANCH   2   3
ENDBRANCH   1   2
BRANCH   1  38
ATOM     38  C   UNL A   1      34.542  33.593  29.154  1.00  0.00     0.188 C 
BRANCH  38  39
ATOM     39  O   UNL A   1      33.507  34.457  28.764  1.00  0.00    -0.376 OA
BRANCH  39  40
ATOM     40  C   UNL A   1      33.516  35.803  29.201  1.00  0.00     0.202 C 
BRANCH  40  41
ATOM     41  C   UNL A   1      32.452  36.421  30.134  1.00  0.00     0.261 C 
BRANCH  41  42
ATOM     42  O   UNL A   1      32.850  36.820  31.452  1.00  0.00    -0.460 OA
BRANCH  42  43
ATOM     43  C   UNL A   1      32.614  35.934  32.460  1.00  0.00     0.338 C 
ATOM     44  O   UNL A   1      31.562  35.717  33.011  1.00  0.00    -0.246 OA
BRANCH  43  45
ATOM     45  C   UNL A   1      33.833  35.095  32.601  1.00  0.00     0.060 A 
ATOM     46  C   UNL A   1      35.100  35.652  32.433  1.00  0.00     0.016 A 
ATOM     47  C   UNL A   1      33.696  33.724  32.876  1.00  0.00     0.016 A 
ATOM     48  C   UNL A   1      36.231  34.845  32.579  1.00  0.00     0.010 A 
ATOM     49  C   UNL A   1      34.829  32.911  32.992  1.00  0.00     0.010 A 
ATOM     50  C   UNL A   1      36.108  33.474  32.875  1.00  0.00    -0.014 A 
BRANCH  50  51
ATOM     51  C   UNL A   1      37.320  32.698  33.251  1.00  0.00     0.031 A 
ATOM     52  C   UNL A   1      38.038  31.803  32.292  1.00  0.00     0.074 A 
ATOM     53  C   UNL A   1      37.822  32.880  34.485  1.00  0.00     0.049 A 
ATOM     54  N   UNL A   1      39.107  31.067  32.488  1.00  0.00    -0.248 NA
ATOM     55  C   UNL A   1      37.494  31.729  30.935  1.00  0.00     0.031 C 
ATOM     56  C   UNL A   1      37.260  33.783  35.488  1.00  0.00     0.029 A 
ATOM     57  N   UNL A   1      38.948  32.369  35.078  1.00  0.00    -0.354 N 
ATOM     58  C   UNL A   1      39.318  30.376  31.299  1.00  0.00     0.074 A 
ATOM     59  C   UNL A   1      38.322  30.859  30.371  1.00  0.00     0.031 C 
ATOM     60  C   UNL A   1      38.089  33.828  36.541  1.00  0.00     0.029 A 
ATOM     61  C   UNL A   1      39.210  32.918  36.308  1.00  0.00     0.049 A 
ATOM     62  H   UNL A   1      39.513  31.678  34.662  1.00  0.00     0.167 HD
ATOM     63  C   UNL A   1      40.225  29.402  31.034  1.00  0.00     0.031 A 
ATOM     64  C   UNL A   1      40.247  32.736  37.148  1.00  0.00     0.031 A 
ATOM     65  C   UNL A   1      41.302  29.043  31.925  1.00  0.00     0.049 A 
ATOM     66  C   UNL A   1      41.360  31.802  36.765  1.00  0.00     0.074 A 
ATOM     67  C   UNL A   1      42.325  28.132  31.716  1.00  0.00     0.029 A 
ATOM     68  N   UNL A   1      41.532  29.621  33.163  1.00  0.00    -0.354 N 
ATOM     69  N   UNL A   1      41.494  31.083  35.678  1.00  0.00    -0.248 NA
ATOM     70  C   UNL A   1      42.476  31.667  37.714  1.00  0.00     0.031 C 
ATOM     71  C   UNL A   1      43.156  28.137  32.837  1.00  0.00     0.029 A 
ATOM     72  C   UNL A   1      42.692  29.104  33.713  1.00  0.00     0.049 A 
ATOM     73  H   UNL A   1      40.957  30.298  33.588  1.00  0.00     0.167 HD
ATOM     74  C   UNL A   1      42.711  30.423  35.804  1.00  0.00     0.074 A 
ATOM     75  C   UNL A   1      43.291  30.847  37.061  1.00  0.00     0.031 C 
ATOM     76  C   UNL A   1      43.282  29.536  34.954  1.00  0.00     0.031 A 
BRANCH  63  77
ATOM     77  C   UNL A   1      40.101  28.605  29.753  1.00  0.00    -0.014 A 
ATOM     78  C   UNL A   1      39.440  27.361  29.786  1.00  0.00     0.009 A 
ATOM     79  C   UNL A   1      40.711  28.999  28.556  1.00  0.00     0.009 A 
ATOM     80  C   UNL A   1      39.408  26.529  28.664  1.00  0.00     0.001 A 
ATOM     81  C   UNL A   1      40.635  28.188  27.417  1.00  0.00     0.001 A 
ATOM     82  C   UNL A   1      39.997  26.951  27.476  1.00  0.00     0.000 A 
ENDBRANCH  63  77
BRANCH  64  83
ATOM     83  C   UNL A   1      40.296  33.531  38.402  1.00  0.00    -0.014 A 
ATOM     84  C   UNL A   1      41.026  34.730  38.462  1.00  0.00     0.009 A 
ATOM     85  C   UNL A   1      39.689  33.045  39.569  1.00  0.00     0.009 A 
ATOM     86  C   UNL A   1      41.180  35.404  39.675  1.00  0.00     0.001 A 
ATOM     87  C   UNL A   1      39.814  33.741  40.773  1.00  0.00     0.001 A 
ATOM     88  C   UNL A   1      40.570  34.912  40.827  1.00  0.00     0.000 A 
ENDBRANCH  64  83
BRANCH  76  89
ATOM     89  C   UNL A   1      44.624  28.954  35.312  1.00  0.00    -0.014 A 
ATOM     90  C   UNL A   1      44.690  27.818  36.137  1.00  0.00     0.009 A 
ATOM     91  C   UNL A   1      45.815  29.606  34.963  1.00  0.00     0.009 A 
ATOM     92  C   UNL A   1      45.916  27.361  36.623  1.00  0.00     0.001 A 
ATOM     93  C   UNL A   1      47.044  29.130  35.427  1.00  0.00     0.001 A 
ATOM     94  C   UNL A   1      47.093  28.017  36.266  1.00  0.00     0.000 A 
ENDBRANCH  76  89
ENDBRANCH  50  51
ENDBRANCH  43  45
ENDBRANCH  42  43
ENDBRANCH  41  42
ENDBRANCH  40  41
ENDBRANCH  39  40
ENDBRANCH  38  39
ENDBRANCH   1  38
TORSDOF 23
ENDMDL
MODEL 3
REMARK VINA RESULT:     -11.1      2.527      4.019
REMARK SMILES C[C@H]1c2ccc(O)cc2OC(=O)[C@@H]1CC(=O)N[C@@H](CC1=c2ccccc2=NC1)C(=O)OCCOCCOCCOC(=O)c1ccc(-c2c3nc(c(-c4ccccc4)c4ccc([nH]4)c(-c4ccccc4)c4nc(c(-c5ccccc5)c5ccc2[nH]5)C=C4)C=C3)cc1
REMARK SMILES IDX 35 1 34 2 33 3 32 4 31 5 29 6 30 7 18 8 17 9 15 10 16 11
REMARK SMILES IDX 14 13 13 14 1 15 2 16 3 17 4 18 9 19 11 20 5 21 8 22 10 23
REMARK SMILES IDX 12 24 6 25 7 26 19 28 20 29 21 30 28 31 22 32 26 33 27 34
REMARK SMILES IDX 23 35 25 36 24 37 36 38 37 39 38 40 39 41 40 42 41 43 42 44
REMARK SMILES IDX 43 45 44 46 90 47 45 48 89 49 46 50 47 51 48 52 83 53 49 54
REMARK SMILES IDX 88 55 82 56 84 57 50 58 87 59 81 60 80 61 51 63 73 64 58 65
REMARK SMILES IDX 72 66 59 67 62 68 71 69 85 70 60 71 61 72 70 74 86 75 63 76
REMARK SMILES IDX 52 77 53 78 57 79 54 80 56 81 55 82 74 83 75 84 79 85 76 86
REMARK SMILES IDX 78 87 77 88 64 89 65 90 69 91 66 92 68 93 67 94
REMARK H PARENT 17 12 7 27 84 62 62 73
REMARK Flexibility Score: inf
ROOT
ATOM      1  C   UNL A   1      33.384  33.866  27.978  1.00  0.00     0.188 C 
ENDROOT
BRANCH   1   2
ATOM      2  O   UNL A   1      32.138  33.459  27.436  1.00  0.00    -0.376 OA
BRANCH   2   3
ATOM      3  C   UNL A   1      31.954  32.107  27.028  1.00  0.00     0.202 C 
BRANCH   3   4
ATOM      4  C   UNL A   1      33.096  31.092  27.191  1.00  0.00     0.261 C 
BRANCH   4   5
ATOM      5  O   UNL A   1      32.662  29.743  27.462  1.00  0.00    -0.462 OA
BRANCH   5   6
ATOM      6  C   UNL A   1      33.603  28.793  27.288  1.00  0.00     0.329 C 
ATOM      7  O   UNL A   1      34.808  28.972  27.464  1.00  0.00    -0.250 OA
BRANCH   6   8
ATOM      8  C   UNL A   1      33.087  27.436  26.787  1.00  0.00     0.196 C 
BRANCH   8   9
ATOM      9  N   UNL A   1      31.719  26.892  26.898  1.00  0.00    -0.342 N 
ATOM     10  C   UNL A   1      31.097  25.905  26.173  1.00  0.00     0.221 C 
ATOM     11  O   UNL A   1      29.866  25.850  26.189  1.00  0.00    -0.275 OA
ATOM     12  H   UNL A   1      31.165  27.301  27.602  1.00  0.00     0.164 HD
BRANCH  10  13
ATOM     13  C   UNL A   1      31.898  24.802  25.479  1.00  0.00     0.116 C 
BRANCH  13  14
ATOM     14  C   UNL A   1      32.196  23.528  26.299  1.00  0.00     0.116 C 
ATOM     15  C   UNL A   1      33.847  22.282  27.815  1.00  0.00     0.014 C 
ATOM     16  C   UNL A   1      33.644  23.460  26.851  1.00  0.00     0.034 C 
ATOM     17  C   UNL A   1      34.611  23.320  25.703  1.00  0.00    -0.001 A 
ATOM     18  C   UNL A   1      35.955  23.678  25.807  1.00  0.00     0.011 A 
ATOM     19  C   UNL A   1      34.159  22.779  24.497  1.00  0.00     0.138 A 
ATOM     20  C   UNL A   1      32.007  22.288  25.474  1.00  0.00     0.315 C 
ATOM     21  C   UNL A   1      36.789  23.546  24.695  1.00  0.00     0.047 A 
ATOM     22  C   UNL A   1      34.943  22.754  23.353  1.00  0.00     0.093 A 
ATOM     23  O   UNL A   1      32.907  22.142  24.427  1.00  0.00    -0.426 OA
ATOM     24  O   UNL A   1      31.106  21.483  25.666  1.00  0.00    -0.251 OA
ATOM     25  C   UNL A   1      36.266  23.147  23.465  1.00  0.00     0.119 A 
BRANCH  25  26
ATOM     26  O   UNL A   1      37.089  23.128  22.382  1.00  0.00    -0.508 OA
ATOM     27  H   UNL A   1      37.810  23.724  22.331  1.00  0.00     0.293 HD
ENDBRANCH  25  26
ENDBRANCH  13  14
ENDBRANCH  10  13
ENDBRANCH   8   9
BRANCH   8  28
ATOM     28  C   UNL A   1      33.600  27.321  25.337  1.00  0.00     0.070 C 
BRANCH  28  29
ATOM     29  C   UNL A   1      33.146  28.340  24.274  1.00  0.00    -0.037 C 
ATOM     30  C   UNL A   1      31.843  28.581  24.082  1.00  0.00     0.001 A 
ATOM     31  C   UNL A   1      33.703  27.908  22.926  1.00  0.00     0.174 C 
ATOM     32  C   UNL A   1      31.029  29.761  24.194  1.00  0.00     0.010 A 
ATOM     33  C   UNL A   1      31.556  27.717  22.914  1.00  0.00     0.065 A 
ATOM     34  N   UNL A   1      32.562  27.268  22.234  1.00  0.00    -0.280 NA
ATOM     35  C   UNL A   1      29.787  29.700  23.674  1.00  0.00     0.001 A 
ATOM     36  C   UNL A   1      30.118  27.484  22.682  1.00  0.00     0.028 A 
ATOM     37  C   UNL A   1      29.286  28.460  23.088  1.00  0.00     0.002 A 
ENDBRANCH  28  29
ENDBRANCH   8  28
ENDBRANCH   6   8
ENDBRANCH   5   6
ENDBRANCH   4   5
ENDBRANCH   3   4
ENDBRANCH   2   3
ENDBRANCH   1   2
BRANCH   1  38
ATOM     38  C   UNL A   1      33.443  35.087  28.909  1.00  0.00     0.188 C 
BRANCH  38  39
ATOM     39  O   UNL A   1      32.526  35.092  29.971  1.00  0.00    -0.376 OA
BRANCH  39  40
ATOM     40  C   UNL A   1      32.565  36.136  30.927  1.00  0.00     0.202 C 
BRANCH  40  41
ATOM     41  C   UNL A   1      32.804  35.922  32.437  1.00  0.00     0.261 C 
BRANCH  41  42
ATOM     42  O   UNL A   1      34.012  35.272  32.851  1.00  0.00    -0.460 OA
BRANCH  42  43
ATOM     43  C   UNL A   1      33.971  33.916  32.968  1.00  0.00     0.338 C 
ATOM     44  O   UNL A   1      33.007  33.232  33.217  1.00  0.00    -0.246 OA
BRANCH  43  45
ATOM     45  C   UNL A   1      35.277  33.393  32.487  1.00  0.00     0.060 A 
ATOM     46  C   UNL A   1      35.860  33.903  31.329  1.00  0.00     0.016 A 
ATOM     47  C   UNL A   1      35.906  32.358  33.197  1.00  0.00     0.016 A 
ATOM     48  C   UNL A   1      37.093  33.403  30.901  1.00  0.00     0.010 A 
ATOM     49  C   UNL A   1      37.126  31.836  32.750  1.00  0.00     0.010 A 
ATOM     50  C   UNL A   1      37.744  32.378  31.615  1.00  0.00    -0.014 A 
BRANCH  50  51
ATOM     51  C   UNL A   1      39.149  32.031  31.272  1.00  0.00     0.031 A 
ATOM     52  C   UNL A   1      39.502  30.957  30.292  1.00  0.00     0.074 A 
ATOM     53  C   UNL A   1      40.128  32.775  31.816  1.00  0.00     0.049 A 
ATOM     54  N   UNL A   1      40.686  30.550  29.901  1.00  0.00    -0.248 NA
ATOM     55  C   UNL A   1      38.382  30.254  29.663  1.00  0.00     0.031 C 
ATOM     56  C   UNL A   1      39.913  33.899  32.725  1.00  0.00     0.029 A 
ATOM     57  N   UNL A   1      41.487  32.739  31.631  1.00  0.00    -0.354 N 
ATOM     58  C   UNL A   1      40.458  29.483  29.038  1.00  0.00     0.074 A 
ATOM     59  C   UNL A   1      39.023  29.379  28.898  1.00  0.00     0.031 C 
ATOM     60  C   UNL A   1      41.089  34.500  32.953  1.00  0.00     0.029 A 
ATOM     61  C   UNL A   1      42.145  33.772  32.251  1.00  0.00     0.049 A 
ATOM     62  H   UNL A   1      41.944  32.042  31.108  1.00  0.00     0.167 HD
ATOM     63  C   UNL A   1      41.360  28.649  28.462  1.00  0.00     0.031 A 
ATOM     64  C   UNL A   1      43.447  34.117  32.236  1.00  0.00     0.031 A 
ATOM     65  C   UNL A   1      42.787  28.863  28.498  1.00  0.00     0.049 A 
ATOM     66  C   UNL A   1      44.424  33.306  31.433  1.00  0.00     0.074 A 
ATOM     67  C   UNL A   1      43.783  28.126  27.876  1.00  0.00     0.029 A 
ATOM     68  N   UNL A   1      43.415  29.919  29.137  1.00  0.00    -0.354 N 
ATOM     69  N   UNL A   1      44.204  32.242  30.700  1.00  0.00    -0.248 NA
ATOM     70  C   UNL A   1      45.826  33.750  31.438  1.00  0.00     0.031 C 
ATOM     71  C   UNL A   1      45.014  28.720  28.162  1.00  0.00     0.029 A 
ATOM     72  C   UNL A   1      44.778  29.866  28.901  1.00  0.00     0.049 A 
ATOM     73  H   UNL A   1      42.960  30.605  29.677  1.00  0.00     0.167 HD
ATOM     74  C   UNL A   1      45.432  31.899  30.146  1.00  0.00     0.074 A 
ATOM     75  C   UNL A   1      46.389  32.884  30.605  1.00  0.00     0.031 C 
ATOM     76  C   UNL A   1      45.732  30.853  29.340  1.00  0.00     0.031 A 
BRANCH  63  77
ATOM     77  C   UNL A   1      40.872  27.395  27.770  1.00  0.00    -0.014 A 
ATOM     78  C   UNL A   1      40.212  26.409  28.531  1.00  0.00     0.009 A 
ATOM     79  C   UNL A   1      41.144  27.120  26.424  1.00  0.00     0.009 A 
ATOM     80  C   UNL A   1      39.854  25.181  27.969  1.00  0.00     0.001 A 
ATOM     81  C   UNL A   1      40.740  25.910  25.848  1.00  0.00     0.001 A 
ATOM     82  C   UNL A   1      40.109  24.938  26.622  1.00  0.00     0.000 A 
ENDBRANCH  63  77
BRANCH  64  83
ATOM     83  C   UNL A   1      43.865  35.347  32.958  1.00  0.00    -0.014 A 
ATOM     84  C   UNL A   1      44.220  35.296  34.316  1.00  0.00     0.009 A 
ATOM     85  C   UNL A   1      43.818  36.592  32.314  1.00  0.00     0.009 A 
ATOM     86  C   UNL A   1      44.481  36.470  35.024  1.00  0.00     0.001 A 
ATOM     87  C   UNL A   1      44.117  37.762  33.015  1.00  0.00     0.001 A 
ATOM     88  C   UNL A   1      44.434  37.701  34.371  1.00  0.00     0.000 A 
ENDBRANCH  64  83
BRANCH  76  89
ATOM     89  C   UNL A   1      47.149  30.695  28.859  1.00  0.00    -0.014 A 
ATOM     90  C   UNL A   1      47.537  31.272  27.638  1.00  0.00     0.009 A 
ATOM     91  C   UNL A   1      48.054  29.859  29.530  1.00  0.00     0.009 A 
ATOM     92  C   UNL A   1      48.791  30.998  27.087  1.00  0.00     0.001 A 
ATOM     93  C   UNL A   1      49.319  29.610  28.991  1.00  0.00     0.001 A 
ATOM     94  C   UNL A   1      49.681  30.168  27.765  1.00  0.00     0.000 A 
ENDBRANCH  76  89
ENDBRANCH  50  51
ENDBRANCH  43  45
ENDBRANCH  42  43
ENDBRANCH  41  42
ENDBRANCH  40  41
ENDBRANCH  39  40
ENDBRANCH  38  39
ENDBRANCH   1  38
TORSDOF 23
ENDMDL
