MODEL 1
REMARK VINA RESULT:      -9.9      0.000      0.000
REMARK SMILES COC(=O)[C@H]1CCN(C(=O)N[C@H](C(=O)OCCOCCOCCOC(=O)c2ccc(-c3c4nc(c(-c5ccccc5)c5ccc([nH]5)c(-c5ccccc5)c5nc(c(-c6ccccc6)c6ccc3[nH]6)C=C5)C=C4)cc2)C2CC2)C1
REMARK SMILES IDX 19 1 18 2 17 3 16 4 15 5 13 6 14 7 12 8 11 9 9 10 10 11 8 13
REMARK SMILES IDX 5 14 6 15 78 16 7 17 3 18 4 19 2 20 1 21 75 22 76 23 77 24
REMARK SMILES IDX 20 25 21 26 22 27 23 28 24 29 25 30 26 31 27 32 28 33 74 34
REMARK SMILES IDX 29 35 73 36 30 37 31 38 32 39 67 40 33 41 72 42 66 43 68 44
REMARK SMILES IDX 34 45 71 46 65 47 64 48 35 50 57 51 42 52 56 53 43 54 46 55
REMARK SMILES IDX 55 56 69 57 44 58 45 59 54 61 70 62 47 63 36 64 37 65 41 66
REMARK SMILES IDX 38 67 40 68 39 69 58 70 59 71 63 72 60 73 62 74 61 75 48 76
REMARK SMILES IDX 49 77 53 78 50 79 52 80 51 81
REMARK H PARENT 11 12 68 49 46 60
REMARK Flexibility Score: inf
ROOT
ATOM      1  C   UNL A   1      32.729  19.570  24.051  1.00  0.00     0.188 C 
ENDROOT
BRANCH   1   2
ATOM      2  O   UNL A   1      31.904  20.248  24.960  1.00  0.00    -0.376 OA
BRANCH   2   3
ATOM      3  C   UNL A   1      32.166  21.643  25.050  1.00  0.00     0.202 C 
BRANCH   3   4
ATOM      4  C   UNL A   1      31.004  22.545  25.538  1.00  0.00     0.261 C 
BRANCH   4   5
ATOM      5  O   UNL A   1      31.099  23.973  25.225  1.00  0.00    -0.462 OA
BRANCH   5   6
ATOM      6  C   UNL A   1      32.015  24.693  25.948  1.00  0.00     0.329 C 
ATOM      7  O   UNL A   1      32.413  24.327  27.055  1.00  0.00    -0.250 OA
BRANCH   6   8
ATOM      8  C   UNL A   1      32.708  25.905  25.188  1.00  0.00     0.197 C 
BRANCH   8   9
ATOM      9  N   UNL A   1      33.042  27.138  25.899  1.00  0.00    -0.324 N 
ATOM     10  C   UNL A   1      33.355  28.394  25.493  1.00  0.00     0.318 C 
ATOM     11  O   UNL A   1      34.243  28.983  26.115  1.00  0.00    -0.249 OA
ATOM     12  H   UNL A   1      33.039  27.035  26.878  1.00  0.00     0.166 HD
BRANCH  10  13
ATOM     13  N   UNL A   1      32.624  29.075  24.533  1.00  0.00    -0.324 N 
ATOM     14  C   UNL A   1      29.686  29.934  23.579  1.00  0.00     0.120 C 
ATOM     15  C   UNL A   1      30.787  29.318  21.939  1.00  0.00     0.039 C 
ATOM     16  C   UNL A   1      30.964  29.917  25.170  1.00  0.00     0.136 C 
ATOM     17  C   UNL A   1      32.624  28.863  22.629  1.00  0.00     0.122 C 
BRANCH  14  18
ATOM     18  C   UNL A   1      28.780  31.171  23.605  1.00  0.00     0.310 C 
ATOM     19  O   UNL A   1      29.187  32.323  23.555  1.00  0.00    -0.252 OA
BRANCH  18  20
ATOM     20  O   UNL A   1      27.480  30.791  23.687  1.00  0.00    -0.469 OA
ATOM     21  C   UNL A   1      27.195  29.458  23.263  1.00  0.00     0.282 C 
ENDBRANCH  18  20
ENDBRANCH  14  18
ENDBRANCH  10  13
ENDBRANCH   8   9
BRANCH   8  22
ATOM     22  C   UNL A   1      33.950  25.361  24.471  1.00  0.00     0.023 C 
ATOM     23  C   UNL A   1      34.052  24.042  23.731  1.00  0.00     0.007 C 
ATOM     24  C   UNL A   1      34.006  25.324  22.955  1.00  0.00     0.007 C 
ENDBRANCH   8  22
ENDBRANCH   6   8
ENDBRANCH   5   6
ENDBRANCH   4   5
ENDBRANCH   3   4
ENDBRANCH   2   3
ENDBRANCH   1   2
BRANCH   1  25
ATOM     25  C   UNL A   1      33.783  18.613  24.622  1.00  0.00     0.188 C 
BRANCH  25  26
ATOM     26  O   UNL A   1      35.172  18.875  24.596  1.00  0.00    -0.376 OA
BRANCH  26  27
ATOM     27  C   UNL A   1      35.425  20.242  24.996  1.00  0.00     0.202 C 
BRANCH  27  28
ATOM     28  C   UNL A   1      36.858  20.695  24.663  1.00  0.00     0.261 C 
BRANCH  28  29
ATOM     29  O   UNL A   1      37.947  19.802  25.091  1.00  0.00    -0.460 OA
BRANCH  29  30
ATOM     30  C   UNL A   1      39.190  20.220  25.723  1.00  0.00     0.338 C 
ATOM     31  O   UNL A   1      39.750  19.095  25.762  1.00  0.00    -0.246 OA
BRANCH  30  32
ATOM     32  C   UNL A   1      39.673  22.146  26.559  1.00  0.00     0.060 A 
ATOM     33  C   UNL A   1      40.793  22.531  27.537  1.00  0.00     0.016 A 
ATOM     34  C   UNL A   1      39.088  23.511  26.295  1.00  0.00     0.016 A 
ATOM     35  C   UNL A   1      41.377  23.798  27.766  1.00  0.00     0.010 A 
ATOM     36  C   UNL A   1      39.663  24.769  26.465  1.00  0.00     0.010 A 
ATOM     37  C   UNL A   1      40.849  24.900  27.142  1.00  0.00    -0.014 A 
BRANCH  37  38
ATOM     38  C   UNL A   1      41.308  26.266  27.351  1.00  0.00     0.031 A 
ATOM     39  C   UNL A   1      42.664  26.578  26.811  1.00  0.00     0.074 A 
ATOM     40  C   UNL A   1      40.643  27.047  28.217  1.00  0.00     0.049 A 
ATOM     41  N   UNL A   1      43.419  27.613  27.029  1.00  0.00    -0.248 NA
ATOM     42  C   UNL A   1      43.290  25.528  25.977  1.00  0.00     0.031 C 
ATOM     43  C   UNL A   1      39.375  26.705  28.873  1.00  0.00     0.029 A 
ATOM     44  N   UNL A   1      40.971  28.263  28.740  1.00  0.00    -0.354 N 
ATOM     45  C   UNL A   1      44.606  27.336  26.368  1.00  0.00     0.074 A 
ATOM     46  C   UNL A   1      44.514  26.000  25.833  1.00  0.00     0.031 C 
ATOM     47  C   UNL A   1      39.038  27.696  29.716  1.00  0.00     0.029 A 
ATOM     48  C   UNL A   1      40.069  28.725  29.666  1.00  0.00     0.049 A 
ATOM     49  H   UNL A   1      41.779  28.762  28.477  1.00  0.00     0.167 HD
ATOM     50  C   UNL A   1      45.664  28.155  26.195  1.00  0.00     0.031 A 
ATOM     51  C   UNL A   1      40.100  29.868  30.376  1.00  0.00     0.031 A 
ATOM     52  C   UNL A   1      45.709  29.464  26.777  1.00  0.00     0.049 A 
ATOM     53  C   UNL A   1      41.266  30.790  30.135  1.00  0.00     0.074 A 
ATOM     54  C   UNL A   1      46.668  30.445  26.641  1.00  0.00     0.029 A 
ATOM     55  N   UNL A   1      44.725  29.965  27.625  1.00  0.00    -0.354 N 
ATOM     56  N   UNL A   1      42.332  30.596  29.388  1.00  0.00    -0.248 NA
ATOM     57  C   UNL A   1      41.225  32.097  30.799  1.00  0.00     0.031 C 
ATOM     58  C   UNL A   1      46.285  31.524  27.444  1.00  0.00     0.029 A 
ATOM     59  C   UNL A   1      45.056  31.241  28.028  1.00  0.00     0.049 A 
ATOM     60  H   UNL A   1      43.913  29.479  27.896  1.00  0.00     0.167 HD
ATOM     61  C   UNL A   1      43.068  31.769  29.460  1.00  0.00     0.074 A 
ATOM     62  C   UNL A   1      42.315  32.672  30.311  1.00  0.00     0.031 C 
ATOM     63  C   UNL A   1      44.254  32.086  28.879  1.00  0.00     0.031 A 
BRANCH  50  64
ATOM     64  C   UNL A   1      46.794  27.640  25.351  1.00  0.00    -0.014 A 
ATOM     65  C   UNL A   1      47.850  26.908  25.928  1.00  0.00     0.009 A 
ATOM     66  C   UNL A   1      46.840  27.919  23.979  1.00  0.00     0.009 A 
ATOM     67  C   UNL A   1      48.950  26.518  25.162  1.00  0.00     0.001 A 
ATOM     68  C   UNL A   1      47.923  27.493  23.206  1.00  0.00     0.001 A 
ATOM     69  C   UNL A   1      48.983  26.808  23.800  1.00  0.00     0.000 A 
ENDBRANCH  50  64
BRANCH  51  70
ATOM     70  C   UNL A   1      38.980  30.231  31.285  1.00  0.00    -0.014 A 
ATOM     71  C   UNL A   1      37.724  30.574  30.755  1.00  0.00     0.009 A 
ATOM     72  C   UNL A   1      39.140  30.228  32.679  1.00  0.00     0.009 A 
ATOM     73  C   UNL A   1      36.670  30.941  31.595  1.00  0.00     0.001 A 
ATOM     74  C   UNL A   1      38.073  30.569  33.519  1.00  0.00     0.001 A 
ATOM     75  C   UNL A   1      36.844  30.936  32.977  1.00  0.00     0.000 A 
ENDBRANCH  51  70
BRANCH  63  76
ATOM     76  C   UNL A   1      44.769  33.473  29.120  1.00  0.00    -0.014 A 
ATOM     77  C   UNL A   1      44.431  34.534  28.268  1.00  0.00     0.009 A 
ATOM     78  C   UNL A   1      45.549  33.727  30.259  1.00  0.00     0.009 A 
ATOM     79  C   UNL A   1      44.896  35.820  28.534  1.00  0.00     0.001 A 
ATOM     80  C   UNL A   1      45.978  35.020  30.544  1.00  0.00     0.001 A 
ATOM     81  C   UNL A   1      45.661  36.064  29.676  1.00  0.00     0.000 A 
ENDBRANCH  63  76
ENDBRANCH  37  38
ENDBRANCH  30  32
ENDBRANCH  29  30
ENDBRANCH  28  29
ENDBRANCH  27  28
ENDBRANCH  26  27
ENDBRANCH  25  26
ENDBRANCH   1  25
TORSDOF 22
ENDMDL
MODEL 2
REMARK VINA RESULT:      -9.6      3.156      4.161
REMARK SMILES COC(=O)[C@H]1CCN(C(=O)N[C@H](C(=O)OCCOCCOCCOC(=O)c2ccc(-c3c4nc(c(-c5ccccc5)c5ccc([nH]5)c(-c5ccccc5)c5nc(c(-c6ccccc6)c6ccc3[nH]6)C=C5)C=C4)cc2)C2CC2)C1
REMARK SMILES IDX 19 1 18 2 17 3 16 4 15 5 13 6 14 7 12 8 11 9 9 10 10 11 8 13
REMARK SMILES IDX 5 14 6 15 78 16 7 17 3 18 4 19 2 20 1 21 75 22 76 23 77 24
REMARK SMILES IDX 20 25 21 26 22 27 23 28 24 29 25 30 26 31 27 32 28 33 74 34
REMARK SMILES IDX 29 35 73 36 30 37 31 38 32 39 67 40 33 41 72 42 66 43 68 44
REMARK SMILES IDX 34 45 71 46 65 47 64 48 35 50 57 51 42 52 56 53 43 54 46 55
REMARK SMILES IDX 55 56 69 57 44 58 45 59 54 61 70 62 47 63 36 64 37 65 41 66
REMARK SMILES IDX 38 67 40 68 39 69 58 70 59 71 63 72 60 73 62 74 61 75 48 76
REMARK SMILES IDX 49 77 53 78 50 79 52 80 51 81
REMARK H PARENT 11 12 68 49 46 60
REMARK Flexibility Score: inf
ROOT
ATOM      1  C   UNL A   1      32.745  19.537  24.408  1.00  0.00     0.188 C 
ENDROOT
BRANCH   1   2
ATOM      2  O   UNL A   1      31.724  20.230  25.074  1.00  0.00    -0.376 OA
BRANCH   2   3
ATOM      3  C   UNL A   1      31.888  21.642  25.074  1.00  0.00     0.202 C 
BRANCH   3   4
ATOM      4  C   UNL A   1      30.917  22.462  25.960  1.00  0.00     0.261 C 
BRANCH   4   5
ATOM      5  O   UNL A   1      30.640  23.839  25.541  1.00  0.00    -0.462 OA
BRANCH   5   6
ATOM      6  C   UNL A   1      31.674  24.730  25.664  1.00  0.00     0.329 C 
ATOM      7  O   UNL A   1      32.482  24.676  26.592  1.00  0.00    -0.250 OA
BRANCH   6   8
ATOM      8  C   UNL A   1      31.912  25.699  24.426  1.00  0.00     0.197 C 
BRANCH   8   9
ATOM      9  N   UNL A   1      32.787  26.864  24.548  1.00  0.00    -0.324 N 
ATOM     10  C   UNL A   1      32.674  28.160  24.165  1.00  0.00     0.318 C 
ATOM     11  O   UNL A   1      33.685  28.706  23.715  1.00  0.00    -0.249 OA
ATOM     12  H   UNL A   1      33.637  26.665  25.004  1.00  0.00     0.166 HD
BRANCH  10  13
ATOM     13  N   UNL A   1      31.537  28.915  24.404  1.00  0.00    -0.324 N 
ATOM     14  C   UNL A   1      29.161  30.594  23.056  1.00  0.00     0.120 C 
ATOM     15  C   UNL A   1      29.882  31.623  24.700  1.00  0.00     0.039 C 
ATOM     16  C   UNL A   1      30.140  28.804  23.023  1.00  0.00     0.136 C 
ATOM     17  C   UNL A   1      31.317  30.465  25.509  1.00  0.00     0.122 C 
BRANCH  14  18
ATOM     18  C   UNL A   1      27.675  30.425  22.718  1.00  0.00     0.310 C 
ATOM     19  O   UNL A   1      26.889  29.770  23.388  1.00  0.00    -0.252 OA
BRANCH  18  20
ATOM     20  O   UNL A   1      27.378  31.105  21.583  1.00  0.00    -0.469 OA
ATOM     21  C   UNL A   1      28.439  31.884  21.030  1.00  0.00     0.282 C 
ENDBRANCH  18  20
ENDBRANCH  14  18
ENDBRANCH  10  13
ENDBRANCH   8   9
BRANCH   8  22
ATOM     22  C   UNL A   1      32.349  24.838  23.235  1.00  0.00     0.023 C 
ATOM     23  C   UNL A   1      32.518  25.307  21.803  1.00  0.00     0.007 C 
ATOM     24  C   UNL A   1      33.732  25.009  22.631  1.00  0.00     0.007 C 
ENDBRANCH   8  22
ENDBRANCH   6   8
ENDBRANCH   5   6
ENDBRANCH   4   5
ENDBRANCH   3   4
ENDBRANCH   2   3
ENDBRANCH   1   2
BRANCH   1  25
ATOM     25  C   UNL A   1      34.160  19.614  24.998  1.00  0.00     0.188 C 
BRANCH  25  26
ATOM     26  O   UNL A   1      35.031  20.709  24.795  1.00  0.00    -0.376 OA
BRANCH  26  27
ATOM     27  C   UNL A   1      35.121  21.499  26.003  1.00  0.00     0.202 C 
BRANCH  27  28
ATOM     28  C   UNL A   1      35.738  22.887  25.751  1.00  0.00     0.261 C 
BRANCH  28  29
ATOM     29  O   UNL A   1      37.060  22.913  25.104  1.00  0.00    -0.460 OA
BRANCH  29  30
ATOM     30  C   UNL A   1      38.343  22.865  25.790  1.00  0.00     0.338 C 
ATOM     31  O   UNL A   1      38.525  21.623  25.729  1.00  0.00    -0.246 OA
BRANCH  30  32
ATOM     32  C   UNL A   1      39.364  24.465  26.811  1.00  0.00     0.060 A 
ATOM     33  C   UNL A   1      40.278  25.558  26.240  1.00  0.00     0.016 A 
ATOM     34  C   UNL A   1      39.323  24.898  28.256  1.00  0.00     0.016 A 
ATOM     35  C   UNL A   1      40.609  26.818  26.790  1.00  0.00     0.010 A 
ATOM     36  C   UNL A   1      39.595  26.145  28.814  1.00  0.00     0.010 A 
ATOM     37  C   UNL A   1      40.176  27.130  28.054  1.00  0.00    -0.014 A 
BRANCH  37  38
ATOM     38  C   UNL A   1      40.510  28.358  28.761  1.00  0.00     0.031 A 
ATOM     39  C   UNL A   1      41.781  28.324  29.543  1.00  0.00     0.074 A 
ATOM     40  C   UNL A   1      39.567  29.305  28.893  1.00  0.00     0.049 A 
ATOM     41  N   UNL A   1      42.223  29.163  30.432  1.00  0.00    -0.248 NA
ATOM     42  C   UNL A   1      42.629  27.127  29.356  1.00  0.00     0.031 C 
ATOM     43  C   UNL A   1      38.251  29.293  28.245  1.00  0.00     0.029 A 
ATOM     44  N   UNL A   1      39.550  30.430  29.664  1.00  0.00    -0.354 N 
ATOM     45  C   UNL A   1      43.391  28.592  30.913  1.00  0.00     0.074 A 
ATOM     46  C   UNL A   1      43.536  27.295  30.300  1.00  0.00     0.031 C 
ATOM     47  C   UNL A   1      37.553  30.367  28.654  1.00  0.00     0.029 A 
ATOM     48  C   UNL A   1      38.367  31.125  29.596  1.00  0.00     0.049 A 
ATOM     49  H   UNL A   1      40.313  30.716  30.217  1.00  0.00     0.167 HD
ATOM     50  C   UNL A   1      44.283  29.135  31.768  1.00  0.00     0.031 A 
ATOM     51  C   UNL A   1      38.015  32.255  30.235  1.00  0.00     0.031 A 
ATOM     52  C   UNL A   1      44.069  30.418  32.368  1.00  0.00     0.049 A 
ATOM     53  C   UNL A   1      39.042  32.870  31.149  1.00  0.00     0.074 A 
ATOM     54  C   UNL A   1      44.902  31.143  33.194  1.00  0.00     0.029 A 
ATOM     55  N   UNL A   1      42.908  31.166  32.195  1.00  0.00    -0.354 N 
ATOM     56  N   UNL A   1      40.222  32.404  31.498  1.00  0.00    -0.248 NA
ATOM     57  C   UNL A   1      38.712  34.175  31.732  1.00  0.00     0.031 C 
ATOM     58  C   UNL A   1      44.225  32.312  33.556  1.00  0.00     0.029 A 
ATOM     59  C   UNL A   1      42.998  32.344  32.905  1.00  0.00     0.049 A 
ATOM     60  H   UNL A   1      42.138  30.894  31.647  1.00  0.00     0.167 HD
ATOM     61  C   UNL A   1      40.793  33.376  32.307  1.00  0.00     0.074 A 
ATOM     62  C   UNL A   1      39.832  34.461  32.381  1.00  0.00     0.031 C 
ATOM     63  C   UNL A   1      41.998  33.385  32.932  1.00  0.00     0.031 A 
BRANCH  50  64
ATOM     64  C   UNL A   1      45.523  28.338  32.055  1.00  0.00    -0.014 A 
ATOM     65  C   UNL A   1      46.678  28.490  31.264  1.00  0.00     0.009 A 
ATOM     66  C   UNL A   1      45.537  27.395  33.091  1.00  0.00     0.009 A 
ATOM     67  C   UNL A   1      47.795  27.677  31.466  1.00  0.00     0.001 A 
ATOM     68  C   UNL A   1      46.671  26.610  33.317  1.00  0.00     0.001 A 
ATOM     69  C   UNL A   1      47.791  26.740  32.496  1.00  0.00     0.000 A 
ENDBRANCH  50  64
BRANCH  51  70
ATOM     70  C   UNL A   1      36.703  32.903  29.970  1.00  0.00    -0.014 A 
ATOM     71  C   UNL A   1      36.525  33.692  28.821  1.00  0.00     0.009 A 
ATOM     72  C   UNL A   1      35.616  32.736  30.842  1.00  0.00     0.009 A 
ATOM     73  C   UNL A   1      35.306  34.328  28.572  1.00  0.00     0.001 A 
ATOM     74  C   UNL A   1      34.387  33.351  30.575  1.00  0.00     0.001 A 
ATOM     75  C   UNL A   1      34.236  34.155  29.447  1.00  0.00     0.000 A 
ENDBRANCH  51  70
BRANCH  63  76
ATOM     76  C   UNL A   1      42.343  34.622  33.706  1.00  0.00    -0.014 A 
ATOM     77  C   UNL A   1      42.845  35.765  33.067  1.00  0.00     0.009 A 
ATOM     78  C   UNL A   1      42.092  34.659  35.086  1.00  0.00     0.009 A 
ATOM     79  C   UNL A   1      43.125  36.913  33.806  1.00  0.00     0.001 A 
ATOM     80  C   UNL A   1      42.334  35.821  35.814  1.00  0.00     0.001 A 
ATOM     81  C   UNL A   1      42.861  36.943  35.176  1.00  0.00     0.000 A 
ENDBRANCH  63  76
ENDBRANCH  37  38
ENDBRANCH  30  32
ENDBRANCH  29  30
ENDBRANCH  28  29
ENDBRANCH  27  28
ENDBRANCH  26  27
ENDBRANCH  25  26
ENDBRANCH   1  25
TORSDOF 22
ENDMDL
MODEL 3
REMARK VINA RESULT:      -9.5      4.213      9.760
REMARK SMILES COC(=O)[C@H]1CCN(C(=O)N[C@H](C(=O)OCCOCCOCCOC(=O)c2ccc(-c3c4nc(c(-c5ccccc5)c5ccc([nH]5)c(-c5ccccc5)c5nc(c(-c6ccccc6)c6ccc3[nH]6)C=C5)C=C4)cc2)C2CC2)C1
REMARK SMILES IDX 19 1 18 2 17 3 16 4 15 5 13 6 14 7 12 8 11 9 9 10 10 11 8 13
REMARK SMILES IDX 5 14 6 15 78 16 7 17 3 18 4 19 2 20 1 21 75 22 76 23 77 24
REMARK SMILES IDX 20 25 21 26 22 27 23 28 24 29 25 30 26 31 27 32 28 33 74 34
REMARK SMILES IDX 29 35 73 36 30 37 31 38 32 39 67 40 33 41 72 42 66 43 68 44
REMARK SMILES IDX 34 45 71 46 65 47 64 48 35 50 57 51 42 52 56 53 43 54 46 55
REMARK SMILES IDX 55 56 69 57 44 58 45 59 54 61 70 62 47 63 36 64 37 65 41 66
REMARK SMILES IDX 38 67 40 68 39 69 58 70 59 71 63 72 60 73 62 74 61 75 48 76
REMARK SMILES IDX 49 77 53 78 50 79 52 80 51 81
REMARK H PARENT 11 12 68 49 46 60
REMARK Flexibility Score: inf
ROOT
ATOM      1  C   UNL A   1      33.576  31.128  27.752  1.00  0.00     0.188 C 
ENDROOT
BRANCH   1   2
ATOM      2  O   UNL A   1      33.631  29.982  26.946  1.00  0.00    -0.376 OA
BRANCH   2   3
ATOM      3  C   UNL A   1      32.390  29.295  26.831  1.00  0.00     0.202 C 
BRANCH   3   4
ATOM      4  C   UNL A   1      31.961  28.854  25.410  1.00  0.00     0.261 C 
BRANCH   4   5
ATOM      5  O   UNL A   1      30.768  28.007  25.311  1.00  0.00    -0.462 OA
BRANCH   5   6
ATOM      6  C   UNL A   1      30.782  27.054  24.326  1.00  0.00     0.329 C 
ATOM      7  O   UNL A   1      30.367  25.909  24.512  1.00  0.00    -0.250 OA
BRANCH   6   8
ATOM      8  C   UNL A   1      31.149  27.565  22.866  1.00  0.00     0.197 C 
BRANCH   8   9
ATOM      9  N   UNL A   1      31.657  26.637  21.856  1.00  0.00    -0.324 N 
ATOM     10  C   UNL A   1      32.853  26.025  21.669  1.00  0.00     0.318 C 
ATOM     11  O   UNL A   1      33.263  25.932  20.508  1.00  0.00    -0.249 OA
ATOM     12  H   UNL A   1      30.991  26.408  21.169  1.00  0.00     0.166 HD
BRANCH  10  13
ATOM     13  N   UNL A   1      33.533  25.380  22.689  1.00  0.00    -0.324 N 
ATOM     14  C   UNL A   1      33.572  22.822  24.622  1.00  0.00     0.120 C 
ATOM     15  C   UNL A   1      34.053  24.514  25.713  1.00  0.00     0.039 C 
ATOM     16  C   UNL A   1      33.419  23.416  22.676  1.00  0.00     0.136 C 
ATOM     17  C   UNL A   1      34.065  26.046  24.406  1.00  0.00     0.122 C 
BRANCH  14  18
ATOM     18  C   UNL A   1      34.295  21.475  24.740  1.00  0.00     0.310 C 
ATOM     19  O   UNL A   1      35.490  21.317  24.535  1.00  0.00    -0.252 OA
BRANCH  18  20
ATOM     20  O   UNL A   1      33.416  20.508  25.103  1.00  0.00    -0.469 OA
ATOM     21  C   UNL A   1      32.381  20.224  24.162  1.00  0.00     0.282 C 
ENDBRANCH  18  20
ENDBRANCH  14  18
ENDBRANCH  10  13
ENDBRANCH   8   9
BRANCH   8  22
ATOM     22  C   UNL A   1      29.936  28.324  22.316  1.00  0.00     0.023 C 
ATOM     23  C   UNL A   1      29.093  29.335  23.069  1.00  0.00     0.007 C 
ATOM     24  C   UNL A   1      30.036  29.806  22.003  1.00  0.00     0.007 C 
ENDBRANCH   8  22
ENDBRANCH   6   8
ENDBRANCH   5   6
ENDBRANCH   4   5
ENDBRANCH   3   4
ENDBRANCH   2   3
ENDBRANCH   1   2
BRANCH   1  25
ATOM     25  C   UNL A   1      34.735  32.128  27.647  1.00  0.00     0.188 C 
BRANCH  25  26
ATOM     26  O   UNL A   1      34.566  33.529  27.726  1.00  0.00    -0.376 OA
BRANCH  26  27
ATOM     27  C   UNL A   1      33.234  33.841  28.193  1.00  0.00     0.202 C 
BRANCH  27  28
ATOM     28  C   UNL A   1      33.109  35.297  28.678  1.00  0.00     0.261 C 
BRANCH  28  29
ATOM     29  O   UNL A   1      32.871  35.494  30.117  1.00  0.00    -0.460 OA
BRANCH  29  30
ATOM     30  C   UNL A   1      33.721  35.008  31.194  1.00  0.00     0.338 C 
ATOM     31  O   UNL A   1      33.357  35.820  32.082  1.00  0.00    -0.246 OA
BRANCH  30  32
ATOM     32  C   UNL A   1      35.293  33.537  31.084  1.00  0.00     0.060 A 
ATOM     33  C   UNL A   1      36.673  33.634  30.419  1.00  0.00     0.016 A 
ATOM     34  C   UNL A   1      35.407  32.167  31.704  1.00  0.00     0.016 A 
ATOM     35  C   UNL A   1      37.841  32.881  30.679  1.00  0.00     0.010 A 
ATOM     36  C   UNL A   1      36.546  31.428  32.016  1.00  0.00     0.010 A 
ATOM     37  C   UNL A   1      37.776  31.830  31.558  1.00  0.00    -0.014 A 
BRANCH  37  38
ATOM     38  C   UNL A   1      38.883  30.932  31.855  1.00  0.00     0.031 A 
ATOM     39  C   UNL A   1      39.740  31.327  33.012  1.00  0.00     0.074 A 
ATOM     40  C   UNL A   1      39.222  30.002  30.948  1.00  0.00     0.049 A 
ATOM     41  N   UNL A   1      40.899  30.865  33.374  1.00  0.00    -0.248 NA
ATOM     42  C   UNL A   1      39.256  32.467  33.820  1.00  0.00     0.031 C 
ATOM     43  C   UNL A   1      38.472  29.689  29.726  1.00  0.00     0.029 A 
ATOM     44  N   UNL A   1      40.317  29.192  30.883  1.00  0.00    -0.354 N 
ATOM     45  C   UNL A   1      41.283  31.660  34.442  1.00  0.00     0.074 A 
ATOM     46  C   UNL A   1      40.292  32.694  34.605  1.00  0.00     0.031 C 
ATOM     47  C   UNL A   1      39.138  28.750  29.032  1.00  0.00     0.029 A 
ATOM     48  C   UNL A   1      40.359  28.413  29.753  1.00  0.00     0.049 A 
ATOM     49  H   UNL A   1      41.012  29.167  31.582  1.00  0.00     0.167 HD
ATOM     50  C   UNL A   1      42.359  31.503  35.241  1.00  0.00     0.031 A 
ATOM     51  C   UNL A   1      41.297  27.526  29.374  1.00  0.00     0.031 A 
ATOM     52  C   UNL A   1      43.327  30.471  35.011  1.00  0.00     0.049 A 
ATOM     53  C   UNL A   1      42.468  27.333  30.302  1.00  0.00     0.074 A 
ATOM     54  C   UNL A   1      44.430  30.129  35.764  1.00  0.00     0.029 A 
ATOM     55  N   UNL A   1      43.290  29.610  33.919  1.00  0.00    -0.354 N 
ATOM     56  N   UNL A   1      42.765  27.986  31.405  1.00  0.00    -0.248 NA
ATOM     57  C   UNL A   1      43.413  26.265  29.961  1.00  0.00     0.031 C 
ATOM     58  C   UNL A   1      45.087  29.088  35.100  1.00  0.00     0.029 A 
ATOM     59  C   UNL A   1      44.358  28.739  33.970  1.00  0.00     0.049 A 
ATOM     60  H   UNL A   1      42.604  29.622  33.214  1.00  0.00     0.167 HD
ATOM     61  C   UNL A   1      43.907  27.384  31.911  1.00  0.00     0.074 A 
ATOM     62  C   UNL A   1      44.236  26.302  31.000  1.00  0.00     0.031 C 
ATOM     63  C   UNL A   1      44.623  27.682  33.024  1.00  0.00     0.031 A 
BRANCH  50  64
ATOM     64  C   UNL A   1      42.494  32.453  36.396  1.00  0.00    -0.014 A 
ATOM     65  C   UNL A   1      43.224  33.651  36.265  1.00  0.00     0.009 A 
ATOM     66  C   UNL A   1      41.933  32.141  37.642  1.00  0.00     0.009 A 
ATOM     67  C   UNL A   1      43.436  34.482  37.365  1.00  0.00     0.001 A 
ATOM     68  C   UNL A   1      42.113  32.996  38.732  1.00  0.00     0.001 A 
ATOM     69  C   UNL A   1      42.876  34.156  38.598  1.00  0.00     0.000 A 
ENDBRANCH  50  64
BRANCH  51  70
ATOM     70  C   UNL A   1      41.126  26.716  28.138  1.00  0.00    -0.014 A 
ATOM     71  C   UNL A   1      40.381  25.525  28.173  1.00  0.00     0.009 A 
ATOM     72  C   UNL A   1      41.685  27.121  26.916  1.00  0.00     0.009 A 
ATOM     73  C   UNL A   1      40.232  24.741  27.026  1.00  0.00     0.001 A 
ATOM     74  C   UNL A   1      41.510  26.348  25.762  1.00  0.00     0.001 A 
ATOM     75  C   UNL A   1      40.794  25.154  25.820  1.00  0.00     0.000 A 
ENDBRANCH  51  70
BRANCH  63  76
ATOM     76  C   UNL A   1      45.797  26.798  33.324  1.00  0.00    -0.014 A 
ATOM     77  C   UNL A   1      45.653  25.627  34.081  1.00  0.00     0.009 A 
ATOM     78  C   UNL A   1      47.051  27.114  32.776  1.00  0.00     0.009 A 
ATOM     79  C   UNL A   1      46.754  24.805  34.314  1.00  0.00     0.001 A 
ATOM     80  C   UNL A   1      48.139  26.271  32.978  1.00  0.00     0.001 A 
ATOM     81  C   UNL A   1      47.993  25.123  33.756  1.00  0.00     0.000 A 
ENDBRANCH  63  76
ENDBRANCH  37  38
ENDBRANCH  30  32
ENDBRANCH  29  30
ENDBRANCH  28  29
ENDBRANCH  27  28
ENDBRANCH  26  27
ENDBRANCH  25  26
ENDBRANCH   1  25
TORSDOF 22
ENDMDL
