MODEL 1
REMARK VINA RESULT:      -9.5      0.000      0.000
REMARK SMILES O=C(Cc1ccc(F)cc1F)Nc1sccc1C(=O)OCCOCCOCCOC(=O)c1ccc(-c2c3nc(c(-c4ccccc4)c4ccc([nH]4)c(-c4ccccc4)c4nc(c(-c5ccccc5)c5ccc2[nH]5)C=C4)C=C3)cc1
REMARK SMILES IDX 24 1 23 2 22 3 21 4 20 5 18 6 19 7 17 8 13 9 14 10 15 11
REMARK SMILES IDX 16 12 12 13 1 14 2 15 3 17 4 18 5 19 10 20 6 21 9 22 11 23
REMARK SMILES IDX 7 24 8 25 25 26 26 27 27 28 28 29 29 30 30 31 31 32 32 33
REMARK SMILES IDX 33 34 79 35 34 36 78 37 35 38 36 39 37 40 72 41 38 42 77 43
REMARK SMILES IDX 71 44 73 45 39 46 76 47 70 48 69 49 40 51 62 52 47 53 61 54
REMARK SMILES IDX 48 55 51 56 60 57 74 58 49 59 50 60 59 62 75 63 52 64 41 65
REMARK SMILES IDX 42 66 46 67 43 68 45 69 44 70 63 71 64 72 68 73 65 74 67 75
REMARK SMILES IDX 66 76 53 77 54 78 58 79 55 80 57 81 56 82
REMARK H PARENT 12 16 73 50 51 61
REMARK Flexibility Score: inf
ROOT
ATOM      1  C   UNL A   1      40.403  21.889  27.225  1.00  0.00     0.188 C 
ENDROOT
BRANCH   1   2
ATOM      2  O   UNL A   1      39.752  23.106  26.869  1.00  0.00    -0.376 OA
BRANCH   2   3
ATOM      3  C   UNL A   1      38.533  23.034  26.132  1.00  0.00     0.202 C 
BRANCH   3   4
ATOM      4  C   UNL A   1      38.166  21.654  25.593  1.00  0.00     0.261 C 
BRANCH   4   5
ATOM      5  O   UNL A   1      36.745  21.461  25.666  1.00  0.00    -0.460 OA
BRANCH   5   6
ATOM      6  C   UNL A   1      36.012  21.891  24.601  1.00  0.00     0.341 C 
ATOM      7  O   UNL A   1      36.481  22.299  23.550  1.00  0.00    -0.246 OA
BRANCH   6   8
ATOM      8  C   UNL A   1      34.591  21.564  24.751  1.00  0.00     0.094 A 
ATOM      9  C   UNL A   1      33.558  22.415  25.105  1.00  0.00     0.110 A 
ATOM     10  S   UNL A   1      32.102  21.589  25.434  1.00  0.00    -0.126 S 
ATOM     11  C   UNL A   1      32.772  20.090  24.973  1.00  0.00     0.068 A 
ATOM     12  C   UNL A   1      34.097  20.215  24.627  1.00  0.00     0.029 A 
BRANCH   9  13
ATOM     13  N   UNL A   1      33.422  23.772  25.292  1.00  0.00    -0.317 N 
ATOM     14  O   UNL A   1      33.758  24.474  23.106  1.00  0.00    -0.274 OA
ATOM     15  C   UNL A   1      33.626  24.713  24.301  1.00  0.00     0.229 C 
ATOM     16  H   UNL A   1      33.163  24.092  26.186  1.00  0.00     0.170 HD
BRANCH  15  17
ATOM     17  C   UNL A   1      33.660  26.136  24.837  1.00  0.00     0.139 C 
BRANCH  17  18
ATOM     18  C   UNL A   1      32.651  27.036  24.174  1.00  0.00    -0.003 A 
ATOM     19  C   UNL A   1      31.274  26.821  24.329  1.00  0.00     0.010 A 
ATOM     20  C   UNL A   1      33.081  28.113  23.386  1.00  0.00     0.129 A 
ATOM     21  C   UNL A   1      30.361  27.664  23.693  1.00  0.00     0.040 A 
ATOM     22  C   UNL A   1      32.178  28.952  22.748  1.00  0.00     0.078 A 
ATOM     23  F   UNL A   1      34.391  28.353  23.244  1.00  0.00    -0.207 F 
ATOM     24  C   UNL A   1      30.821  28.717  22.907  1.00  0.00     0.126 A 
ATOM     25  F   UNL A   1      29.937  29.517  22.298  1.00  0.00    -0.207 F 
ENDBRANCH  17  18
ENDBRANCH  15  17
ENDBRANCH   9  13
ENDBRANCH   6   8
ENDBRANCH   5   6
ENDBRANCH   4   5
ENDBRANCH   3   4
ENDBRANCH   2   3
ENDBRANCH   1   2
BRANCH   1  26
ATOM     26  C   UNL A   1      41.655  21.466  26.432  1.00  0.00     0.188 C 
BRANCH  26  27
ATOM     27  O   UNL A   1      42.493  20.544  27.117  1.00  0.00    -0.376 OA
BRANCH  27  28
ATOM     28  C   UNL A   1      42.237  19.170  26.859  1.00  0.00     0.202 C 
BRANCH  28  29
ATOM     29  C   UNL A   1      42.886  18.669  25.565  1.00  0.00     0.261 C 
BRANCH  29  30
ATOM     30  O   UNL A   1      44.266  19.040  25.410  1.00  0.00    -0.460 OA
BRANCH  30  31
ATOM     31  C   UNL A   1      44.593  19.733  24.297  1.00  0.00     0.338 C 
ATOM     32  O   UNL A   1      44.526  19.350  23.143  1.00  0.00    -0.246 OA
BRANCH  31  33
ATOM     33  C   UNL A   1      44.898  21.123  24.696  1.00  0.00     0.060 A 
ATOM     34  C   UNL A   1      45.449  21.354  25.962  1.00  0.00     0.016 A 
ATOM     35  C   UNL A   1      44.643  22.190  23.828  1.00  0.00     0.016 A 
ATOM     36  C   UNL A   1      45.710  22.661  26.378  1.00  0.00     0.010 A 
ATOM     37  C   UNL A   1      44.894  23.498  24.250  1.00  0.00     0.010 A 
ATOM     38  C   UNL A   1      45.399  23.741  25.537  1.00  0.00    -0.014 A 
BRANCH  38  39
ATOM     39  C   UNL A   1      45.429  25.124  26.070  1.00  0.00     0.031 A 
ATOM     40  C   UNL A   1      46.738  25.864  26.070  1.00  0.00     0.074 A 
ATOM     41  C   UNL A   1      44.319  25.723  26.537  1.00  0.00     0.049 A 
ATOM     42  N   UNL A   1      47.002  27.083  26.467  1.00  0.00    -0.248 NA
ATOM     43  C   UNL A   1      47.904  25.131  25.550  1.00  0.00     0.031 C 
ATOM     44  C   UNL A   1      42.984  25.131  26.575  1.00  0.00     0.029 A 
ATOM     45  N   UNL A   1      44.150  26.975  27.074  1.00  0.00    -0.354 N 
ATOM     46  C   UNL A   1      48.359  27.265  26.235  1.00  0.00     0.074 A 
ATOM     47  C   UNL A   1      48.870  26.025  25.694  1.00  0.00     0.031 C 
ATOM     48  C   UNL A   1      42.130  26.022  27.110  1.00  0.00     0.029 A 
ATOM     49  C   UNL A   1      42.862  27.236  27.468  1.00  0.00     0.049 A 
ATOM     50  H   UNL A   1      44.884  27.625  27.167  1.00  0.00     0.167 HD
ATOM     51  C   UNL A   1      49.116  28.368  26.444  1.00  0.00     0.031 A 
ATOM     52  C   UNL A   1      42.337  28.326  28.059  1.00  0.00     0.031 A 
ATOM     53  C   UNL A   1      48.630  29.594  27.013  1.00  0.00     0.049 A 
ATOM     54  C   UNL A   1      43.217  29.511  28.359  1.00  0.00     0.074 A 
ATOM     55  C   UNL A   1      49.325  30.765  27.261  1.00  0.00     0.029 A 
ATOM     56  N   UNL A   1      47.328  29.801  27.437  1.00  0.00    -0.354 N 
ATOM     57  N   UNL A   1      44.489  29.687  28.095  1.00  0.00    -0.248 NA
ATOM     58  C   UNL A   1      42.581  30.655  29.033  1.00  0.00     0.031 C 
ATOM     59  C   UNL A   1      48.450  31.670  27.874  1.00  0.00     0.029 A 
ATOM     60  C   UNL A   1      47.203  31.074  27.966  1.00  0.00     0.049 A 
ATOM     61  H   UNL A   1      46.601  29.141  27.372  1.00  0.00     0.167 HD
ATOM     62  C   UNL A   1      44.798  30.965  28.543  1.00  0.00     0.074 A 
ATOM     63  C   UNL A   1      43.579  31.526  29.089  1.00  0.00     0.031 C 
ATOM     64  C   UNL A   1      45.984  31.619  28.503  1.00  0.00     0.031 A 
BRANCH  51  65
ATOM     65  C   UNL A   1      50.567  28.275  26.072  1.00  0.00    -0.014 A 
ATOM     66  C   UNL A   1      51.528  27.880  27.016  1.00  0.00     0.009 A 
ATOM     67  C   UNL A   1      50.974  28.576  24.765  1.00  0.00     0.009 A 
ATOM     68  C   UNL A   1      52.877  27.820  26.664  1.00  0.00     0.001 A 
ATOM     69  C   UNL A   1      52.322  28.495  24.410  1.00  0.00     0.001 A 
ATOM     70  C   UNL A   1      53.272  28.125  25.361  1.00  0.00     0.000 A 
ENDBRANCH  51  65
BRANCH  52  71
ATOM     71  C   UNL A   1      40.896  28.362  28.418  1.00  0.00    -0.014 A 
ATOM     72  C   UNL A   1      39.964  28.974  27.567  1.00  0.00     0.009 A 
ATOM     73  C   UNL A   1      40.453  27.814  29.632  1.00  0.00     0.009 A 
ATOM     74  C   UNL A   1      38.619  29.058  27.935  1.00  0.00     0.001 A 
ATOM     75  C   UNL A   1      39.104  27.881  29.987  1.00  0.00     0.001 A 
ATOM     76  C   UNL A   1      38.190  28.510  29.142  1.00  0.00     0.000 A 
ENDBRANCH  52  71
BRANCH  64  77
ATOM     77  C   UNL A   1      46.016  33.026  29.029  1.00  0.00    -0.014 A 
ATOM     78  C   UNL A   1      46.428  33.302  30.340  1.00  0.00     0.009 A 
ATOM     79  C   UNL A   1      45.668  34.090  28.183  1.00  0.00     0.009 A 
ATOM     80  C   UNL A   1      46.466  34.620  30.805  1.00  0.00     0.001 A 
ATOM     81  C   UNL A   1      45.728  35.407  28.643  1.00  0.00     0.001 A 
ATOM     82  C   UNL A   1      46.119  35.671  29.953  1.00  0.00     0.000 A 
ENDBRANCH  64  77
ENDBRANCH  38  39
ENDBRANCH  31  33
ENDBRANCH  30  31
ENDBRANCH  29  30
ENDBRANCH  28  29
ENDBRANCH  27  28
ENDBRANCH  26  27
ENDBRANCH   1  26
TORSDOF 20
ENDMDL
MODEL 2
REMARK VINA RESULT:      -9.2      3.468      7.967
REMARK SMILES O=C(Cc1ccc(F)cc1F)Nc1sccc1C(=O)OCCOCCOCCOC(=O)c1ccc(-c2c3nc(c(-c4ccccc4)c4ccc([nH]4)c(-c4ccccc4)c4nc(c(-c5ccccc5)c5ccc2[nH]5)C=C4)C=C3)cc1
REMARK SMILES IDX 24 1 23 2 22 3 21 4 20 5 18 6 19 7 17 8 13 9 14 10 15 11
REMARK SMILES IDX 16 12 12 13 1 14 2 15 3 17 4 18 5 19 10 20 6 21 9 22 11 23
REMARK SMILES IDX 7 24 8 25 25 26 26 27 27 28 28 29 29 30 30 31 31 32 32 33
REMARK SMILES IDX 33 34 79 35 34 36 78 37 35 38 36 39 37 40 72 41 38 42 77 43
REMARK SMILES IDX 71 44 73 45 39 46 76 47 70 48 69 49 40 51 62 52 47 53 61 54
REMARK SMILES IDX 48 55 51 56 60 57 74 58 49 59 50 60 59 62 75 63 52 64 41 65
REMARK SMILES IDX 42 66 46 67 43 68 45 69 44 70 63 71 64 72 68 73 65 74 67 75
REMARK SMILES IDX 66 76 53 77 54 78 58 79 55 80 57 81 56 82
REMARK H PARENT 12 16 73 50 51 61
REMARK Flexibility Score: inf
ROOT
ATOM      1  C   UNL A   1      39.343  21.733  26.066  1.00  0.00     0.188 C 
ENDROOT
BRANCH   1   2
ATOM      2  O   UNL A   1      38.960  22.971  26.657  1.00  0.00    -0.376 OA
BRANCH   2   3
ATOM      3  C   UNL A   1      37.835  23.664  26.118  1.00  0.00     0.202 C 
BRANCH   3   4
ATOM      4  C   UNL A   1      37.038  22.906  25.059  1.00  0.00     0.261 C 
BRANCH   4   5
ATOM      5  O   UNL A   1      36.635  23.805  24.015  1.00  0.00    -0.460 OA
BRANCH   5   6
ATOM      6  C   UNL A   1      35.363  23.669  23.545  1.00  0.00     0.341 C 
ATOM      7  O   UNL A   1      35.062  23.142  22.485  1.00  0.00    -0.246 OA
BRANCH   6   8
ATOM      8  C   UNL A   1      34.366  23.987  24.572  1.00  0.00     0.094 A 
ATOM      9  C   UNL A   1      33.189  23.314  24.848  1.00  0.00     0.110 A 
ATOM     10  S   UNL A   1      32.179  24.161  25.932  1.00  0.00    -0.126 S 
ATOM     11  C   UNL A   1      33.348  25.379  26.172  1.00  0.00     0.068 A 
ATOM     12  C   UNL A   1      34.465  25.166  25.397  1.00  0.00     0.029 A 
BRANCH   9  13
ATOM     13  N   UNL A   1      32.610  22.135  24.435  1.00  0.00    -0.317 N 
ATOM     14  O   UNL A   1      34.409  20.709  24.780  1.00  0.00    -0.274 OA
ATOM     15  C   UNL A   1      33.287  20.934  24.338  1.00  0.00     0.229 C 
ATOM     16  H   UNL A   1      31.656  22.148  24.195  1.00  0.00     0.170 HD
BRANCH  15  17
ATOM     17  C   UNL A   1      32.484  19.861  23.620  1.00  0.00     0.139 C 
BRANCH  17  18
ATOM     18  C   UNL A   1      32.748  18.477  24.153  1.00  0.00    -0.003 A 
ATOM     19  C   UNL A   1      32.491  18.154  25.493  1.00  0.00     0.010 A 
ATOM     20  C   UNL A   1      33.257  17.483  23.306  1.00  0.00     0.129 A 
ATOM     21  C   UNL A   1      32.756  16.867  25.964  1.00  0.00     0.040 A 
ATOM     22  C   UNL A   1      33.527  16.203  23.768  1.00  0.00     0.078 A 
ATOM     23  F   UNL A   1      33.486  17.761  22.016  1.00  0.00    -0.207 F 
ATOM     24  C   UNL A   1      33.274  15.906  25.099  1.00  0.00     0.126 A 
ATOM     25  F   UNL A   1      33.528  14.676  25.561  1.00  0.00    -0.207 F 
ENDBRANCH  17  18
ENDBRANCH  15  17
ENDBRANCH   9  13
ENDBRANCH   6   8
ENDBRANCH   5   6
ENDBRANCH   4   5
ENDBRANCH   3   4
ENDBRANCH   2   3
ENDBRANCH   1   2
BRANCH   1  26
ATOM     26  C   UNL A   1      40.572  20.995  26.633  1.00  0.00     0.188 C 
BRANCH  26  27
ATOM     27  O   UNL A   1      41.716  21.040  25.789  1.00  0.00    -0.376 OA
BRANCH  27  28
ATOM     28  C   UNL A   1      42.379  22.296  25.718  1.00  0.00     0.202 C 
BRANCH  28  29
ATOM     29  C   UNL A   1      43.426  22.487  26.819  1.00  0.00     0.261 C 
BRANCH  29  30
ATOM     30  O   UNL A   1      42.996  23.314  27.912  1.00  0.00    -0.460 OA
BRANCH  30  31
ATOM     31  C   UNL A   1      42.515  24.538  27.602  1.00  0.00     0.338 C 
ATOM     32  O   UNL A   1      41.359  24.914  27.668  1.00  0.00    -0.246 OA
BRANCH  31  33
ATOM     33  C   UNL A   1      43.664  25.425  27.321  1.00  0.00     0.060 A 
ATOM     34  C   UNL A   1      44.441  25.879  28.392  1.00  0.00     0.016 A 
ATOM     35  C   UNL A   1      43.972  25.804  26.010  1.00  0.00     0.016 A 
ATOM     36  C   UNL A   1      45.508  26.748  28.157  1.00  0.00     0.010 A 
ATOM     37  C   UNL A   1      45.032  26.683  25.778  1.00  0.00     0.010 A 
ATOM     38  C   UNL A   1      45.786  27.182  26.852  1.00  0.00    -0.014 A 
BRANCH  38  39
ATOM     39  C   UNL A   1      46.739  28.295  26.631  1.00  0.00     0.031 A 
ATOM     40  C   UNL A   1      46.214  29.704  26.650  1.00  0.00     0.074 A 
ATOM     41  C   UNL A   1      48.049  28.070  26.426  1.00  0.00     0.049 A 
ATOM     42  N   UNL A   1      46.860  30.832  26.501  1.00  0.00    -0.248 NA
ATOM     43  C   UNL A   1      44.766  29.860  26.872  1.00  0.00     0.031 C 
ATOM     44  C   UNL A   1      48.694  26.759  26.404  1.00  0.00     0.029 A 
ATOM     45  N   UNL A   1      49.072  28.956  26.194  1.00  0.00    -0.354 N 
ATOM     46  C   UNL A   1      45.901  31.830  26.620  1.00  0.00     0.074 A 
ATOM     47  C   UNL A   1      44.626  31.175  26.822  1.00  0.00     0.031 C 
ATOM     48  C   UNL A   1      50.008  26.927  26.169  1.00  0.00     0.029 A 
ATOM     49  C   UNL A   1      50.290  28.352  26.005  1.00  0.00     0.049 A 
ATOM     50  H   UNL A   1      48.944  29.931  26.165  1.00  0.00     0.167 HD
ATOM     51  C   UNL A   1      46.062  33.173  26.574  1.00  0.00     0.031 A 
ATOM     52  C   UNL A   1      51.492  28.890  25.724  1.00  0.00     0.031 A 
ATOM     53  C   UNL A   1      47.314  33.836  26.340  1.00  0.00     0.049 A 
ATOM     54  C   UNL A   1      51.633  30.384  25.596  1.00  0.00     0.074 A 
ATOM     55  C   UNL A   1      47.573  35.195  26.278  1.00  0.00     0.029 A 
ATOM     56  N   UNL A   1      48.516  33.186  26.113  1.00  0.00    -0.354 N 
ATOM     57  N   UNL A   1      50.726  31.318  25.753  1.00  0.00    -0.248 NA
ATOM     58  C   UNL A   1      52.970  30.897  25.257  1.00  0.00     0.031 C 
ATOM     59  C   UNL A   1      48.928  35.366  25.972  1.00  0.00     0.029 A 
ATOM     60  C   UNL A   1      49.518  34.115  25.888  1.00  0.00     0.049 A 
ATOM     61  H   UNL A   1      48.639  32.210  26.111  1.00  0.00     0.167 HD
ATOM     62  C   UNL A   1      51.387  32.525  25.562  1.00  0.00     0.074 A 
ATOM     63  C   UNL A   1      52.772  32.208  25.284  1.00  0.00     0.031 C 
ATOM     64  C   UNL A   1      50.891  33.785  25.615  1.00  0.00     0.031 A 
BRANCH  51  65
ATOM     65  C   UNL A   1      44.831  34.011  26.760  1.00  0.00    -0.014 A 
ATOM     66  C   UNL A   1      44.424  34.419  28.040  1.00  0.00     0.009 A 
ATOM     67  C   UNL A   1      44.077  34.403  25.646  1.00  0.00     0.009 A 
ATOM     68  C   UNL A   1      43.264  35.177  28.202  1.00  0.00     0.001 A 
ATOM     69  C   UNL A   1      42.928  35.179  25.809  1.00  0.00     0.001 A 
ATOM     70  C   UNL A   1      42.519  35.559  27.086  1.00  0.00     0.000 A 
ENDBRANCH  51  65
BRANCH  52  71
ATOM     71  C   UNL A   1      52.678  28.014  25.538  1.00  0.00    -0.014 A 
ATOM     72  C   UNL A   1      53.481  27.658  26.632  1.00  0.00     0.009 A 
ATOM     73  C   UNL A   1      53.031  27.560  24.258  1.00  0.00     0.009 A 
ATOM     74  C   UNL A   1      54.629  26.885  26.445  1.00  0.00     0.001 A 
ATOM     75  C   UNL A   1      54.166  26.768  24.077  1.00  0.00     0.001 A 
ATOM     76  C   UNL A   1      54.969  26.438  25.169  1.00  0.00     0.000 A 
ENDBRANCH  52  71
BRANCH  64  77
ATOM     77  C   UNL A   1      51.857  34.917  25.405  1.00  0.00    -0.014 A 
ATOM     78  C   UNL A   1      52.068  35.466  24.133  1.00  0.00     0.009 A 
ATOM     79  C   UNL A   1      52.531  35.466  26.507  1.00  0.00     0.009 A 
ATOM     80  C   UNL A   1      52.959  36.530  23.962  1.00  0.00     0.001 A 
ATOM     81  C   UNL A   1      53.403  36.543  26.337  1.00  0.00     0.001 A 
ATOM     82  C   UNL A   1      53.622  37.068  25.066  1.00  0.00     0.000 A 
ENDBRANCH  64  77
ENDBRANCH  38  39
ENDBRANCH  31  33
ENDBRANCH  30  31
ENDBRANCH  29  30
ENDBRANCH  28  29
ENDBRANCH  27  28
ENDBRANCH  26  27
ENDBRANCH   1  26
TORSDOF 20
ENDMDL
MODEL 3
REMARK VINA RESULT:      -9.1      3.642      8.462
REMARK SMILES O=C(Cc1ccc(F)cc1F)Nc1sccc1C(=O)OCCOCCOCCOC(=O)c1ccc(-c2c3nc(c(-c4ccccc4)c4ccc([nH]4)c(-c4ccccc4)c4nc(c(-c5ccccc5)c5ccc2[nH]5)C=C4)C=C3)cc1
REMARK SMILES IDX 24 1 23 2 22 3 21 4 20 5 18 6 19 7 17 8 13 9 14 10 15 11
REMARK SMILES IDX 16 12 12 13 1 14 2 15 3 17 4 18 5 19 10 20 6 21 9 22 11 23
REMARK SMILES IDX 7 24 8 25 25 26 26 27 27 28 28 29 29 30 30 31 31 32 32 33
REMARK SMILES IDX 33 34 79 35 34 36 78 37 35 38 36 39 37 40 72 41 38 42 77 43
REMARK SMILES IDX 71 44 73 45 39 46 76 47 70 48 69 49 40 51 62 52 47 53 61 54
REMARK SMILES IDX 48 55 51 56 60 57 74 58 49 59 50 60 59 62 75 63 52 64 41 65
REMARK SMILES IDX 42 66 46 67 43 68 45 69 44 70 63 71 64 72 68 73 65 74 67 75
REMARK SMILES IDX 66 76 53 77 54 78 58 79 55 80 57 81 56 82
REMARK H PARENT 12 16 73 50 51 61
REMARK Flexibility Score: inf
ROOT
ATOM      1  C   UNL A   1      34.870  29.816  27.304  1.00  0.00     0.188 C 
ENDROOT
BRANCH   1   2
ATOM      2  O   UNL A   1      33.781  29.090  27.868  1.00  0.00    -0.376 OA
BRANCH   2   3
ATOM      3  C   UNL A   1      32.694  28.725  27.020  1.00  0.00     0.202 C 
BRANCH   3   4
ATOM      4  C   UNL A   1      31.564  27.947  27.692  1.00  0.00     0.261 C 
BRANCH   4   5
ATOM      5  O   UNL A   1      30.854  27.173  26.713  1.00  0.00    -0.460 OA
BRANCH   5   6
ATOM      6  C   UNL A   1      31.584  26.276  25.993  1.00  0.00     0.341 C 
ATOM      7  O   UNL A   1      32.157  25.304  26.463  1.00  0.00    -0.246 OA
BRANCH   6   8
ATOM      8  C   UNL A   1      31.393  26.450  24.551  1.00  0.00     0.094 A 
ATOM      9  C   UNL A   1      31.919  25.681  23.527  1.00  0.00     0.110 A 
ATOM     10  S   UNL A   1      31.682  26.377  21.987  1.00  0.00    -0.126 S 
ATOM     11  C   UNL A   1      30.747  27.649  22.632  1.00  0.00     0.068 A 
ATOM     12  C   UNL A   1      30.665  27.569  24.003  1.00  0.00     0.029 A 
BRANCH   9  13
ATOM     13  N   UNL A   1      32.621  24.500  23.445  1.00  0.00    -0.317 N 
ATOM     14  O   UNL A   1      30.883  23.016  23.850  1.00  0.00    -0.274 OA
ATOM     15  C   UNL A   1      32.077  23.258  23.707  1.00  0.00     0.229 C 
ATOM     16  H   UNL A   1      33.569  24.543  23.183  1.00  0.00     0.170 HD
BRANCH  15  17
ATOM     17  C   UNL A   1      33.126  22.160  23.791  1.00  0.00     0.139 C 
BRANCH  17  18
ATOM     18  C   UNL A   1      34.462  22.662  24.274  1.00  0.00    -0.003 A 
ATOM     19  C   UNL A   1      35.500  22.943  23.373  1.00  0.00     0.010 A 
ATOM     20  C   UNL A   1      34.686  22.859  25.643  1.00  0.00     0.129 A 
ATOM     21  C   UNL A   1      36.732  23.396  23.849  1.00  0.00     0.040 A 
ATOM     22  C   UNL A   1      35.910  23.305  26.122  1.00  0.00     0.078 A 
ATOM     23  F   UNL A   1      33.701  22.622  26.520  1.00  0.00    -0.207 F 
ATOM     24  C   UNL A   1      36.926  23.568  25.217  1.00  0.00     0.126 A 
ATOM     25  F   UNL A   1      38.112  23.999  25.663  1.00  0.00    -0.207 F 
ENDBRANCH  17  18
ENDBRANCH  15  17
ENDBRANCH   9  13
ENDBRANCH   6   8
ENDBRANCH   5   6
ENDBRANCH   4   5
ENDBRANCH   3   4
ENDBRANCH   2   3
ENDBRANCH   1   2
BRANCH   1  26
ATOM     26  C   UNL A   1      34.987  31.322  27.610  1.00  0.00     0.188 C 
BRANCH  26  27
ATOM     27  O   UNL A   1      34.094  31.782  28.617  1.00  0.00    -0.376 OA
BRANCH  27  28
ATOM     28  C   UNL A   1      34.468  32.992  29.264  1.00  0.00     0.202 C 
BRANCH  28  29
ATOM     29  C   UNL A   1      35.975  33.256  29.221  1.00  0.00     0.261 C 
BRANCH  29  30
ATOM     30  O   UNL A   1      36.648  33.076  30.479  1.00  0.00    -0.460 OA
BRANCH  30  31
ATOM     31  C   UNL A   1      36.578  31.850  31.041  1.00  0.00     0.338 C 
ATOM     32  O   UNL A   1      35.670  31.398  31.715  1.00  0.00    -0.246 OA
BRANCH  31  33
ATOM     33  C   UNL A   1      37.731  31.059  30.562  1.00  0.00     0.060 A 
ATOM     34  C   UNL A   1      38.542  30.414  31.503  1.00  0.00     0.016 A 
ATOM     35  C   UNL A   1      38.009  30.953  29.195  1.00  0.00     0.016 A 
ATOM     36  C   UNL A   1      39.659  29.692  31.078  1.00  0.00     0.010 A 
ATOM     37  C   UNL A   1      39.133  30.241  28.773  1.00  0.00     0.010 A 
ATOM     38  C   UNL A   1      39.980  29.634  29.713  1.00  0.00    -0.014 A 
BRANCH  38  39
ATOM     39  C   UNL A   1      41.294  29.097  29.286  1.00  0.00     0.031 A 
ATOM     40  C   UNL A   1      42.482  30.018  29.293  1.00  0.00     0.074 A 
ATOM     41  C   UNL A   1      41.441  27.815  28.906  1.00  0.00     0.049 A 
ATOM     42  N   UNL A   1      43.728  29.768  28.980  1.00  0.00    -0.248 NA
ATOM     43  C   UNL A   1      42.230  31.407  29.713  1.00  0.00     0.031 C 
ATOM     44  C   UNL A   1      40.381  26.810  28.873  1.00  0.00     0.029 A 
ATOM     45  N   UNL A   1      42.558  27.144  28.473  1.00  0.00    -0.354 N 
ATOM     46  C   UNL A   1      44.408  30.963  29.176  1.00  0.00     0.074 A 
ATOM     47  C   UNL A   1      43.435  31.945  29.602  1.00  0.00     0.031 C 
ATOM     48  C   UNL A   1      40.899  25.647  28.439  1.00  0.00     0.029 A 
ATOM     49  C   UNL A   1      42.321  25.833  28.147  1.00  0.00     0.049 A 
ATOM     50  H   UNL A   1      43.445  27.565  28.402  1.00  0.00     0.167 HD
ATOM     51  C   UNL A   1      45.728  31.223  29.022  1.00  0.00     0.031 A 
ATOM     52  C   UNL A   1      43.154  24.894  27.660  1.00  0.00     0.031 A 
ATOM     53  C   UNL A   1      46.699  30.269  28.566  1.00  0.00     0.049 A 
ATOM     54  C   UNL A   1      44.601  25.230  27.418  1.00  0.00     0.074 A 
ATOM     55  C   UNL A   1      48.061  30.444  28.382  1.00  0.00     0.029 A 
ATOM     56  N   UNL A   1      46.409  28.964  28.208  1.00  0.00    -0.354 N 
ATOM     57  N   UNL A   1      45.241  26.351  27.648  1.00  0.00    -0.248 NA
ATOM     58  C   UNL A   1      45.445  24.162  26.857  1.00  0.00     0.031 C 
ATOM     59  C   UNL A   1      48.588  29.253  27.872  1.00  0.00     0.029 A 
ATOM     60  C   UNL A   1      47.562  28.326  27.781  1.00  0.00     0.049 A 
ATOM     61  H   UNL A   1      45.517  28.552  28.249  1.00  0.00     0.167 HD
ATOM     62  C   UNL A   1      46.562  26.116  27.286  1.00  0.00     0.074 A 
ATOM     63  C   UNL A   1      46.636  24.744  26.830  1.00  0.00     0.031 C 
ATOM     64  C   UNL A   1      47.621  26.961  27.333  1.00  0.00     0.031 A 
BRANCH  51  65
ATOM     65  C   UNL A   1      46.184  32.619  29.333  1.00  0.00    -0.014 A 
ATOM     66  C   UNL A   1      46.648  32.957  30.614  1.00  0.00     0.009 A 
ATOM     67  C   UNL A   1      46.159  33.602  28.334  1.00  0.00     0.009 A 
ATOM     68  C   UNL A   1      47.046  34.264  30.897  1.00  0.00     0.001 A 
ATOM     69  C   UNL A   1      46.578  34.904  28.613  1.00  0.00     0.001 A 
ATOM     70  C   UNL A   1      47.014  35.236  29.896  1.00  0.00     0.000 A 
ENDBRANCH  51  65
BRANCH  52  71
ATOM     71  C   UNL A   1      42.648  23.530  27.358  1.00  0.00    -0.014 A 
ATOM     72  C   UNL A   1      42.211  23.200  26.066  1.00  0.00     0.009 A 
ATOM     73  C   UNL A   1      42.566  22.563  28.373  1.00  0.00     0.009 A 
ATOM     74  C   UNL A   1      41.681  21.935  25.801  1.00  0.00     0.001 A 
ATOM     75  C   UNL A   1      42.056  21.292  28.098  1.00  0.00     0.001 A 
ATOM     76  C   UNL A   1      41.606  20.983  26.815  1.00  0.00     0.000 A 
ENDBRANCH  52  71
BRANCH  64  77
ATOM     77  C   UNL A   1      48.957  26.416  26.913  1.00  0.00    -0.014 A 
ATOM     78  C   UNL A   1      49.422  26.562  25.598  1.00  0.00     0.009 A 
ATOM     79  C   UNL A   1      49.778  25.787  27.862  1.00  0.00     0.009 A 
ATOM     80  C   UNL A   1      50.675  26.063  25.233  1.00  0.00     0.001 A 
ATOM     81  C   UNL A   1      51.039  25.309  27.500  1.00  0.00     0.001 A 
ATOM     82  C   UNL A   1      51.483  25.440  26.186  1.00  0.00     0.000 A 
ENDBRANCH  64  77
ENDBRANCH  38  39
ENDBRANCH  31  33
ENDBRANCH  30  31
ENDBRANCH  29  30
ENDBRANCH  28  29
ENDBRANCH  27  28
ENDBRANCH  26  27
ENDBRANCH   1  26
TORSDOF 20
ENDMDL
