MODEL 1
REMARK VINA RESULT:      -8.9      0.000      0.000
REMARK SMILES C[C@H]1CCc2sc3ncn4nc(/C=C\C(=O)OCCOCCOCCOC(=O)c5ccc(-c6c7nc(c(-c8ccccc8)c8ccc([nH]8)c(-c8ccccc8)c8nc(c(-c9ccccc9)c9ccc6[nH]9)C=C8)C=C7)cc5)nc4c3c2C1
REMARK SMILES IDX 22 1 21 2 20 3 19 4 18 5 17 6 15 7 16 8 14 9 13 10 12 11
REMARK SMILES IDX 1 12 2 13 3 14 81 15 4 16 80 17 5 18 79 19 6 20 7 21 78 22
REMARK SMILES IDX 8 23 10 24 77 25 9 26 11 27 23 28 24 29 25 30 26 31 27 32
REMARK SMILES IDX 28 33 29 34 30 35 76 36 31 37 75 38 32 39 33 40 34 41 69 42
REMARK SMILES IDX 35 43 74 44 68 45 70 46 36 47 73 48 67 49 66 50 37 52 59 53
REMARK SMILES IDX 44 54 58 55 45 56 48 57 57 58 71 59 46 60 47 61 56 63 72 64
REMARK SMILES IDX 49 65 38 66 39 67 43 68 40 69 42 70 41 71 60 72 61 73 65 74
REMARK SMILES IDX 62 75 64 76 63 77 50 78 51 79 55 80 52 81 54 82 53 83
REMARK H PARENT 70 51 48 62
REMARK Flexibility Score: inf
ROOT
ATOM      1  C   UNL A   1      43.254  18.537  25.752  1.00  0.00     0.188 C 
ENDROOT
BRANCH   1   2
ATOM      2  C   UNL A   1      44.531  18.980  24.990  1.00  0.00     0.188 C 
BRANCH   2   3
ATOM      3  O   UNL A   1      45.188  20.192  25.306  1.00  0.00    -0.376 OA
BRANCH   3   4
ATOM      4  C   UNL A   1      45.480  21.107  24.258  1.00  0.00     0.202 C 
BRANCH   4   5
ATOM      5  C   UNL A   1      44.591  22.330  23.984  1.00  0.00     0.261 C 
BRANCH   5   6
ATOM      6  O   UNL A   1      44.493  23.236  25.081  1.00  0.00    -0.460 OA
BRANCH   6   7
ATOM      7  C   UNL A   1      45.201  24.380  24.999  1.00  0.00     0.330 C 
ATOM      8  O   UNL A   1      46.309  24.511  24.500  1.00  0.00    -0.247 OA
BRANCH   7   9
ATOM      9  C   UNL A   1      44.389  25.552  25.377  1.00  0.00     0.097 C 
ATOM     10  C   UNL A   1      44.530  26.400  26.406  1.00  0.00     0.058 C 
BRANCH  10  11
ATOM     11  C   UNL A   1      45.508  26.465  27.441  1.00  0.00     0.175 A 
ATOM     12  C   UNL A   1      44.406  23.333  33.396  1.00  0.00     0.008 C 
ATOM     13  C   UNL A   1      44.144  24.837  33.311  1.00  0.00    -0.009 C 
ATOM     14  C   UNL A   1      44.779  25.619  34.483  1.00  0.00     0.009 C 
ATOM     15  C   UNL A   1      44.601  25.378  31.945  1.00  0.00     0.041 C 
ATOM     16  C   UNL A   1      46.318  25.668  34.436  1.00  0.00     0.047 C 
ATOM     17  C   UNL A   1      46.014  25.841  31.913  1.00  0.00    -0.020 A 
ATOM     18  C   UNL A   1      46.785  25.982  33.049  1.00  0.00     0.011 A 
ATOM     19  C   UNL A   1      46.738  26.243  30.773  1.00  0.00     0.060 A 
ATOM     20  S   UNL A   1      48.368  26.532  32.705  1.00  0.00    -0.120 S 
ATOM     21  C   UNL A   1      48.040  26.645  31.024  1.00  0.00     0.129 A 
ATOM     22  C   UNL A   1      46.344  26.335  29.358  1.00  0.00     0.168 A 
ATOM     23  N   UNL A   1      48.971  27.091  30.113  1.00  0.00    -0.225 NA
ATOM     24  N   UNL A   1      47.264  26.829  28.491  1.00  0.00    -0.201 N 
ATOM     25  N   UNL A   1      45.243  26.033  28.722  1.00  0.00    -0.207 NA
ATOM     26  C   UNL A   1      48.559  27.179  28.870  1.00  0.00     0.227 A 
ATOM     27  N   UNL A   1      46.759  26.933  27.249  1.00  0.00    -0.145 NA
ENDBRANCH  10  11
ENDBRANCH   7   9
ENDBRANCH   6   7
ENDBRANCH   5   6
ENDBRANCH   4   5
ENDBRANCH   3   4
ENDBRANCH   2   3
ENDBRANCH   1   2
BRANCH   1  28
ATOM     28  O   UNL A   1      41.974  19.061  25.468  1.00  0.00    -0.376 OA
BRANCH  28  29
ATOM     29  C   UNL A   1      41.230  19.935  26.301  1.00  0.00     0.202 C 
BRANCH  29  30
ATOM     30  C   UNL A   1      41.266  21.453  26.254  1.00  0.00     0.261 C 
BRANCH  30  31
ATOM     31  O   UNL A   1      40.492  22.034  27.275  1.00  0.00    -0.460 OA
BRANCH  31  32
ATOM     32  C   UNL A   1      39.872  23.159  26.871  1.00  0.00     0.338 C 
ATOM     33  O   UNL A   1      38.720  23.288  26.502  1.00  0.00    -0.246 OA
BRANCH  32  34
ATOM     34  C   UNL A   1      40.834  24.257  26.900  1.00  0.00     0.060 A 
ATOM     35  C   UNL A   1      41.649  24.293  28.030  1.00  0.00     0.016 A 
ATOM     36  C   UNL A   1      40.563  25.377  26.106  1.00  0.00     0.016 A 
ATOM     37  C   UNL A   1      41.868  25.521  28.589  1.00  0.00     0.010 A 
ATOM     38  C   UNL A   1      40.774  26.601  26.670  1.00  0.00     0.010 A 
ATOM     39  C   UNL A   1      41.289  26.627  27.961  1.00  0.00    -0.014 A 
BRANCH  39  40
ATOM     40  C   UNL A   1      41.202  27.846  28.717  1.00  0.00     0.031 A 
ATOM     41  C   UNL A   1      42.245  28.808  28.338  1.00  0.00     0.074 A 
ATOM     42  C   UNL A   1      40.221  28.057  29.612  1.00  0.00     0.049 A 
ATOM     43  N   UNL A   1      43.271  29.151  29.037  1.00  0.00    -0.248 NA
ATOM     44  C   UNL A   1      42.257  29.279  26.944  1.00  0.00     0.031 C 
ATOM     45  C   UNL A   1      39.002  27.280  29.858  1.00  0.00     0.029 A 
ATOM     46  N   UNL A   1      40.071  29.120  30.434  1.00  0.00    -0.354 N 
ATOM     47  C   UNL A   1      43.977  30.029  28.231  1.00  0.00     0.074 A 
ATOM     48  C   UNL A   1      43.426  29.914  26.904  1.00  0.00     0.031 C 
ATOM     49  C   UNL A   1      38.131  28.042  30.564  1.00  0.00     0.029 A 
ATOM     50  C   UNL A   1      38.789  29.287  30.931  1.00  0.00     0.049 A 
ATOM     51  H   UNL A   1      40.812  29.727  30.659  1.00  0.00     0.167 HD
ATOM     52  C   UNL A   1      44.790  30.978  28.760  1.00  0.00     0.031 A 
ATOM     53  C   UNL A   1      38.314  30.419  31.508  1.00  0.00     0.031 A 
ATOM     54  C   UNL A   1      45.080  30.731  30.147  1.00  0.00     0.049 A 
ATOM     55  C   UNL A   1      39.491  31.230  31.918  1.00  0.00     0.074 A 
ATOM     56  C   UNL A   1      45.739  29.730  30.831  1.00  0.00     0.029 A 
ATOM     57  N   UNL A   1      44.293  31.374  31.075  1.00  0.00    -0.354 N 
ATOM     58  N   UNL A   1      40.314  30.870  32.862  1.00  0.00    -0.248 NA
ATOM     59  C   UNL A   1      40.027  32.188  30.960  1.00  0.00     0.031 C 
ATOM     60  C   UNL A   1      44.977  29.528  32.019  1.00  0.00     0.029 A 
ATOM     61  C   UNL A   1      43.933  30.456  32.029  1.00  0.00     0.049 A 
ATOM     62  H   UNL A   1      44.034  32.324  31.057  1.00  0.00     0.167 HD
ATOM     63  C   UNL A   1      41.574  31.194  32.379  1.00  0.00     0.074 A 
ATOM     64  C   UNL A   1      41.330  32.085  31.245  1.00  0.00     0.031 C 
ATOM     65  C   UNL A   1      42.678  30.482  32.752  1.00  0.00     0.031 A 
BRANCH  52  66
ATOM     66  C   UNL A   1      44.976  32.313  28.111  1.00  0.00    -0.014 A 
ATOM     67  C   UNL A   1      46.227  32.647  27.579  1.00  0.00     0.009 A 
ATOM     68  C   UNL A   1      44.025  33.349  28.224  1.00  0.00     0.009 A 
ATOM     69  C   UNL A   1      46.517  33.962  27.200  1.00  0.00     0.001 A 
ATOM     70  C   UNL A   1      44.294  34.651  27.806  1.00  0.00     0.001 A 
ATOM     71  C   UNL A   1      45.552  34.961  27.314  1.00  0.00     0.000 A 
ENDBRANCH  52  66
BRANCH  53  72
ATOM     72  C   UNL A   1      36.969  31.021  31.372  1.00  0.00    -0.014 A 
ATOM     73  C   UNL A   1      36.293  31.514  32.500  1.00  0.00     0.009 A 
ATOM     74  C   UNL A   1      36.479  31.388  30.104  1.00  0.00     0.009 A 
ATOM     75  C   UNL A   1      35.200  32.382  32.364  1.00  0.00     0.001 A 
ATOM     76  C   UNL A   1      35.387  32.252  29.969  1.00  0.00     0.001 A 
ATOM     77  C   UNL A   1      34.758  32.763  31.099  1.00  0.00     0.000 A 
ENDBRANCH  53  72
BRANCH  65  78
ATOM     78  C   UNL A   1      42.512  29.459  33.854  1.00  0.00    -0.014 A 
ATOM     79  C   UNL A   1      42.801  29.724  35.206  1.00  0.00     0.009 A 
ATOM     80  C   UNL A   1      41.902  28.236  33.537  1.00  0.00     0.009 A 
ATOM     81  C   UNL A   1      42.516  28.782  36.201  1.00  0.00     0.001 A 
ATOM     82  C   UNL A   1      41.599  27.305  34.532  1.00  0.00     0.001 A 
ATOM     83  C   UNL A   1      41.911  27.574  35.863  1.00  0.00     0.000 A 
ENDBRANCH  65  78
ENDBRANCH  39  40
ENDBRANCH  32  34
ENDBRANCH  31  32
ENDBRANCH  30  31
ENDBRANCH  29  30
ENDBRANCH  28  29
ENDBRANCH   1  28
TORSDOF 18
ENDMDL
MODEL 2
REMARK VINA RESULT:      -8.7      5.151      9.575
REMARK SMILES C[C@H]1CCc2sc3ncn4nc(/C=C\C(=O)OCCOCCOCCOC(=O)c5ccc(-c6c7nc(c(-c8ccccc8)c8ccc([nH]8)c(-c8ccccc8)c8nc(c(-c9ccccc9)c9ccc6[nH]9)C=C8)C=C7)cc5)nc4c3c2C1
REMARK SMILES IDX 22 1 21 2 20 3 19 4 18 5 17 6 15 7 16 8 14 9 13 10 12 11
REMARK SMILES IDX 1 12 2 13 3 14 81 15 4 16 80 17 5 18 79 19 6 20 7 21 78 22
REMARK SMILES IDX 8 23 10 24 77 25 9 26 11 27 23 28 24 29 25 30 26 31 27 32
REMARK SMILES IDX 28 33 29 34 30 35 76 36 31 37 75 38 32 39 33 40 34 41 69 42
REMARK SMILES IDX 35 43 74 44 68 45 70 46 36 47 73 48 67 49 66 50 37 52 59 53
REMARK SMILES IDX 44 54 58 55 45 56 48 57 57 58 71 59 46 60 47 61 56 63 72 64
REMARK SMILES IDX 49 65 38 66 39 67 43 68 40 69 42 70 41 71 60 72 61 73 65 74
REMARK SMILES IDX 62 75 64 76 63 77 50 78 51 79 55 80 52 81 54 82 53 83
REMARK H PARENT 70 51 48 62
REMARK Flexibility Score: inf
ROOT
ATOM      1  C   UNL A   1      39.695  22.215  26.955  1.00  0.00     0.188 C 
ENDROOT
BRANCH   1   2
ATOM      2  C   UNL A   1      38.924  23.257  26.103  1.00  0.00     0.188 C 
BRANCH   2   3
ATOM      3  O   UNL A   1      37.523  23.410  26.226  1.00  0.00    -0.376 OA
BRANCH   3   4
ATOM      4  C   UNL A   1      36.694  23.043  25.131  1.00  0.00     0.202 C 
BRANCH   4   5
ATOM      5  C   UNL A   1      35.876  21.743  25.139  1.00  0.00     0.261 C 
BRANCH   5   6
ATOM      6  O   UNL A   1      34.862  21.685  24.138  1.00  0.00    -0.460 OA
BRANCH   6   7
ATOM      7  C   UNL A   1      33.626  21.321  24.535  1.00  0.00     0.330 C 
ATOM      8  O   UNL A   1      33.312  20.918  25.646  1.00  0.00    -0.247 OA
BRANCH   7   9
ATOM      9  C   UNL A   1      32.604  21.683  23.536  1.00  0.00     0.097 C 
ATOM     10  C   UNL A   1      31.976  22.850  23.331  1.00  0.00     0.058 C 
BRANCH  10  11
ATOM     11  C   UNL A   1      32.103  24.111  23.983  1.00  0.00     0.175 A 
ATOM     12  C   UNL A   1      27.241  28.839  23.275  1.00  0.00     0.008 C 
ATOM     13  C   UNL A   1      28.500  28.962  22.416  1.00  0.00    -0.009 C 
ATOM     14  C   UNL A   1      29.095  30.387  22.433  1.00  0.00     0.009 C 
ATOM     15  C   UNL A   1      29.533  27.902  22.835  1.00  0.00     0.041 C 
ATOM     16  C   UNL A   1      29.722  30.783  23.784  1.00  0.00     0.047 C 
ATOM     17  C   UNL A   1      30.475  28.352  23.895  1.00  0.00    -0.020 A 
ATOM     18  C   UNL A   1      30.564  29.664  24.313  1.00  0.00     0.011 A 
ATOM     19  C   UNL A   1      31.420  27.554  24.569  1.00  0.00     0.060 A 
ATOM     20  S   UNL A   1      31.733  29.884  25.542  1.00  0.00    -0.120 S 
ATOM     21  C   UNL A   1      32.187  28.229  25.505  1.00  0.00     0.129 A 
ATOM     22  C   UNL A   1      31.755  26.128  24.435  1.00  0.00     0.168 A 
ATOM     23  N   UNL A   1      33.183  27.713  26.303  1.00  0.00    -0.225 NA
ATOM     24  N   UNL A   1      32.779  25.659  25.195  1.00  0.00    -0.201 N 
ATOM     25  N   UNL A   1      31.261  25.164  23.703  1.00  0.00    -0.207 NA
ATOM     26  C   UNL A   1      33.460  26.443  26.124  1.00  0.00     0.227 A 
ATOM     27  N   UNL A   1      33.034  24.366  24.926  1.00  0.00    -0.145 NA
ENDBRANCH  10  11
ENDBRANCH   7   9
ENDBRANCH   6   7
ENDBRANCH   5   6
ENDBRANCH   4   5
ENDBRANCH   3   4
ENDBRANCH   2   3
ENDBRANCH   1   2
BRANCH   1  28
ATOM     28  O   UNL A   1      40.057  20.942  26.463  1.00  0.00    -0.376 OA
BRANCH  28  29
ATOM     29  C   UNL A   1      41.090  20.116  26.975  1.00  0.00     0.202 C 
BRANCH  29  30
ATOM     30  C   UNL A   1      42.537  20.112  26.514  1.00  0.00     0.261 C 
BRANCH  30  31
ATOM     31  O   UNL A   1      42.704  20.769  25.282  1.00  0.00    -0.460 OA
BRANCH  31  32
ATOM     32  C   UNL A   1      43.929  20.576  24.758  1.00  0.00     0.338 C 
ATOM     33  O   UNL A   1      44.410  19.538  24.343  1.00  0.00    -0.246 OA
BRANCH  32  34
ATOM     34  C   UNL A   1      44.656  21.841  24.796  1.00  0.00     0.060 A 
ATOM     35  C   UNL A   1      45.665  21.909  25.757  1.00  0.00     0.016 A 
ATOM     36  C   UNL A   1      44.027  22.968  24.257  1.00  0.00     0.016 A 
ATOM     37  C   UNL A   1      45.763  23.075  26.461  1.00  0.00     0.010 A 
ATOM     38  C   UNL A   1      44.120  24.128  24.966  1.00  0.00     0.010 A 
ATOM     39  C   UNL A   1      44.874  24.102  26.134  1.00  0.00    -0.014 A 
BRANCH  39  40
ATOM     40  C   UNL A   1      44.720  25.171  27.081  1.00  0.00     0.031 A 
ATOM     41  C   UNL A   1      45.898  26.046  27.125  1.00  0.00     0.074 A 
ATOM     42  C   UNL A   1      43.583  25.342  27.778  1.00  0.00     0.049 A 
ATOM     43  N   UNL A   1      46.764  26.131  28.075  1.00  0.00    -0.248 NA
ATOM     44  C   UNL A   1      46.265  26.749  25.886  1.00  0.00     0.031 C 
ATOM     45  C   UNL A   1      42.280  24.693  27.608  1.00  0.00     0.029 A 
ATOM     46  N   UNL A   1      43.340  26.256  28.746  1.00  0.00    -0.354 N 
ATOM     47  C   UNL A   1      47.706  27.041  27.623  1.00  0.00     0.074 A 
ATOM     48  C   UNL A   1      47.461  27.230  26.214  1.00  0.00     0.031 C 
ATOM     49  C   UNL A   1      41.338  25.423  28.256  1.00  0.00     0.029 A 
ATOM     50  C   UNL A   1      41.997  26.492  28.990  1.00  0.00     0.049 A 
ATOM     51  H   UNL A   1      44.059  26.716  29.236  1.00  0.00     0.167 HD
ATOM     52  C   UNL A   1      48.453  27.773  28.486  1.00  0.00     0.031 A 
ATOM     53  C   UNL A   1      41.501  27.556  29.670  1.00  0.00     0.031 A 
ATOM     54  C   UNL A   1      48.400  27.254  29.826  1.00  0.00     0.049 A 
ATOM     55  C   UNL A   1      42.617  28.129  30.467  1.00  0.00     0.074 A 
ATOM     56  C   UNL A   1      48.801  26.073  30.418  1.00  0.00     0.029 A 
ATOM     57  N   UNL A   1      47.480  27.817  30.679  1.00  0.00    -0.354 N 
ATOM     58  N   UNL A   1      43.172  27.509  31.470  1.00  0.00    -0.248 NA
ATOM     59  C   UNL A   1      43.435  29.165  29.849  1.00  0.00     0.031 C 
ATOM     60  C   UNL A   1      47.776  25.763  31.359  1.00  0.00     0.029 A 
ATOM     61  C   UNL A   1      46.838  26.798  31.338  1.00  0.00     0.049 A 
ATOM     62  H   UNL A   1      47.313  28.780  30.797  1.00  0.00     0.167 HD
ATOM     63  C   UNL A   1      44.532  27.752  31.332  1.00  0.00     0.074 A 
ATOM     64  C   UNL A   1      44.626  28.852  30.371  1.00  0.00     0.031 C 
ATOM     65  C   UNL A   1      45.459  26.853  31.776  1.00  0.00     0.031 A 
BRANCH  52  66
ATOM     66  C   UNL A   1      48.893  29.168  28.167  1.00  0.00    -0.014 A 
ATOM     67  C   UNL A   1      47.979  30.220  28.302  1.00  0.00     0.009 A 
ATOM     68  C   UNL A   1      50.105  29.447  27.501  1.00  0.00     0.009 A 
ATOM     69  C   UNL A   1      48.261  31.486  27.775  1.00  0.00     0.001 A 
ATOM     70  C   UNL A   1      50.408  30.717  27.015  1.00  0.00     0.001 A 
ATOM     71  C   UNL A   1      49.473  31.733  27.134  1.00  0.00     0.000 A 
ENDBRANCH  52  66
BRANCH  53  72
ATOM     72  C   UNL A   1      40.276  28.335  29.381  1.00  0.00    -0.014 A 
ATOM     73  C   UNL A   1      40.082  28.910  28.114  1.00  0.00     0.009 A 
ATOM     74  C   UNL A   1      39.165  28.259  30.241  1.00  0.00     0.009 A 
ATOM     75  C   UNL A   1      38.812  29.345  27.706  1.00  0.00     0.001 A 
ATOM     76  C   UNL A   1      37.899  28.695  29.835  1.00  0.00     0.001 A 
ATOM     77  C   UNL A   1      37.719  29.222  28.561  1.00  0.00     0.000 A 
ENDBRANCH  53  72
BRANCH  65  78
ATOM     78  C   UNL A   1      44.963  25.682  32.594  1.00  0.00    -0.014 A 
ATOM     79  C   UNL A   1      44.672  25.767  33.969  1.00  0.00     0.009 A 
ATOM     80  C   UNL A   1      44.636  24.495  31.923  1.00  0.00     0.009 A 
ATOM     81  C   UNL A   1      44.102  24.686  34.652  1.00  0.00     0.001 A 
ATOM     82  C   UNL A   1      44.049  23.424  32.599  1.00  0.00     0.001 A 
ATOM     83  C   UNL A   1      43.787  23.516  33.965  1.00  0.00     0.000 A 
ENDBRANCH  65  78
ENDBRANCH  39  40
ENDBRANCH  32  34
ENDBRANCH  31  32
ENDBRANCH  30  31
ENDBRANCH  29  30
ENDBRANCH  28  29
ENDBRANCH   1  28
TORSDOF 18
ENDMDL
MODEL 3
REMARK VINA RESULT:      -8.6      4.655      7.984
REMARK SMILES C[C@H]1CCc2sc3ncn4nc(/C=C\C(=O)OCCOCCOCCOC(=O)c5ccc(-c6c7nc(c(-c8ccccc8)c8ccc([nH]8)c(-c8ccccc8)c8nc(c(-c9ccccc9)c9ccc6[nH]9)C=C8)C=C7)cc5)nc4c3c2C1
REMARK SMILES IDX 22 1 21 2 20 3 19 4 18 5 17 6 15 7 16 8 14 9 13 10 12 11
REMARK SMILES IDX 1 12 2 13 3 14 81 15 4 16 80 17 5 18 79 19 6 20 7 21 78 22
REMARK SMILES IDX 8 23 10 24 77 25 9 26 11 27 23 28 24 29 25 30 26 31 27 32
REMARK SMILES IDX 28 33 29 34 30 35 76 36 31 37 75 38 32 39 33 40 34 41 69 42
REMARK SMILES IDX 35 43 74 44 68 45 70 46 36 47 73 48 67 49 66 50 37 52 59 53
REMARK SMILES IDX 44 54 58 55 45 56 48 57 57 58 71 59 46 60 47 61 56 63 72 64
REMARK SMILES IDX 49 65 38 66 39 67 43 68 40 69 42 70 41 71 60 72 61 73 65 74
REMARK SMILES IDX 62 75 64 76 63 77 50 78 51 79 55 80 52 81 54 82 53 83
REMARK H PARENT 70 51 48 62
REMARK Flexibility Score: inf
ROOT
ATOM      1  C   UNL A   1      42.261  21.023  27.613  1.00  0.00     0.188 C 
ENDROOT
BRANCH   1   2
ATOM      2  C   UNL A   1      40.867  21.024  26.931  1.00  0.00     0.188 C 
BRANCH   2   3
ATOM      3  O   UNL A   1      40.188  22.234  26.656  1.00  0.00    -0.376 OA
BRANCH   3   4
ATOM      4  C   UNL A   1      38.879  22.177  26.107  1.00  0.00     0.202 C 
BRANCH   4   5
ATOM      5  C   UNL A   1      37.980  23.420  26.032  1.00  0.00     0.261 C 
BRANCH   5   6
ATOM      6  O   UNL A   1      36.609  23.134  25.765  1.00  0.00    -0.460 OA
BRANCH   6   7
ATOM      7  C   UNL A   1      36.299  22.718  24.520  1.00  0.00     0.330 C 
ATOM      8  O   UNL A   1      37.014  22.798  23.532  1.00  0.00    -0.247 OA
BRANCH   7   9
ATOM      9  C   UNL A   1      35.060  21.920  24.505  1.00  0.00     0.097 C 
ATOM     10  C   UNL A   1      33.811  22.277  24.173  1.00  0.00     0.058 C 
BRANCH  10  11
ATOM     11  C   UNL A   1      33.280  23.516  23.709  1.00  0.00     0.175 A 
ATOM     12  C   UNL A   1      34.567  29.285  27.108  1.00  0.00     0.008 C 
ATOM     13  C   UNL A   1      33.221  28.596  27.335  1.00  0.00    -0.009 C 
ATOM     14  C   UNL A   1      32.030  29.576  27.251  1.00  0.00     0.009 C 
ATOM     15  C   UNL A   1      33.062  27.412  26.367  1.00  0.00     0.041 C 
ATOM     16  C   UNL A   1      31.760  30.104  25.829  1.00  0.00     0.047 C 
ATOM     17  C   UNL A   1      32.418  27.763  25.073  1.00  0.00    -0.020 A 
ATOM     18  C   UNL A   1      31.818  28.983  24.838  1.00  0.00     0.011 A 
ATOM     19  C   UNL A   1      32.278  26.922  23.952  1.00  0.00     0.060 A 
ATOM     20  S   UNL A   1      31.162  29.102  23.263  1.00  0.00    -0.120 S 
ATOM     21  C   UNL A   1      31.622  27.495  22.874  1.00  0.00     0.129 A 
ATOM     22  C   UNL A   1      32.686  25.525  23.731  1.00  0.00     0.168 A 
ATOM     23  N   UNL A   1      31.338  26.915  21.658  1.00  0.00    -0.225 NA
ATOM     24  N   UNL A   1      32.345  24.961  22.544  1.00  0.00    -0.201 N 
ATOM     25  N   UNL A   1      33.335  24.663  24.469  1.00  0.00    -0.207 NA
ATOM     26  C   UNL A   1      31.700  25.660  21.525  1.00  0.00     0.227 A 
ATOM     27  N   UNL A   1      32.707  23.667  22.497  1.00  0.00    -0.145 NA
ENDBRANCH  10  11
ENDBRANCH   7   9
ENDBRANCH   6   7
ENDBRANCH   5   6
ENDBRANCH   4   5
ENDBRANCH   3   4
ENDBRANCH   2   3
ENDBRANCH   1   2
BRANCH   1  28
ATOM     28  O   UNL A   1      43.379  21.693  27.070  1.00  0.00    -0.376 OA
BRANCH  28  29
ATOM     29  C   UNL A   1      43.866  21.554  25.745  1.00  0.00     0.202 C 
BRANCH  29  30
ATOM     30  C   UNL A   1      43.815  22.618  24.662  1.00  0.00     0.261 C 
BRANCH  30  31
ATOM     31  O   UNL A   1      42.762  23.529  24.862  1.00  0.00    -0.460 OA
BRANCH  31  32
ATOM     32  C   UNL A   1      43.183  24.691  25.396  1.00  0.00     0.338 C 
ATOM     33  O   UNL A   1      44.151  25.355  25.077  1.00  0.00    -0.246 OA
BRANCH  32  34
ATOM     34  C   UNL A   1      42.295  25.044  26.500  1.00  0.00     0.060 A 
ATOM     35  C   UNL A   1      41.112  25.678  26.120  1.00  0.00     0.016 A 
ATOM     36  C   UNL A   1      42.859  25.162  27.775  1.00  0.00     0.016 A 
ATOM     37  C   UNL A   1      40.711  26.737  26.885  1.00  0.00     0.010 A 
ATOM     38  C   UNL A   1      42.463  26.225  28.532  1.00  0.00     0.010 A 
ATOM     39  C   UNL A   1      41.498  27.067  27.992  1.00  0.00    -0.014 A 
BRANCH  39  40
ATOM     40  C   UNL A   1      41.305  28.364  28.577  1.00  0.00     0.031 A 
ATOM     41  C   UNL A   1      42.353  29.312  28.180  1.00  0.00     0.074 A 
ATOM     42  C   UNL A   1      40.237  28.644  29.344  1.00  0.00     0.049 A 
ATOM     43  N   UNL A   1      43.297  29.778  28.923  1.00  0.00    -0.248 NA
ATOM     44  C   UNL A   1      42.488  29.610  26.746  1.00  0.00     0.031 C 
ATOM     45  C   UNL A   1      39.021  27.857  29.570  1.00  0.00     0.029 A 
ATOM     46  N   UNL A   1      39.978  29.794  30.008  1.00  0.00    -0.354 N 
ATOM     47  C   UNL A   1      44.054  30.578  28.083  1.00  0.00     0.074 A 
ATOM     48  C   UNL A   1      43.638  30.280  26.735  1.00  0.00     0.031 C 
ATOM     49  C   UNL A   1      38.065  28.665  30.091  1.00  0.00     0.029 A 
ATOM     50  C   UNL A   1      38.650  29.970  30.359  1.00  0.00     0.049 A 
ATOM     51  H   UNL A   1      40.677  30.452  30.224  1.00  0.00     0.167 HD
ATOM     52  C   UNL A   1      44.786  31.615  28.563  1.00  0.00     0.031 A 
ATOM     53  C   UNL A   1      38.091  31.145  30.743  1.00  0.00     0.031 A 
ATOM     54  C   UNL A   1      44.946  31.552  29.990  1.00  0.00     0.049 A 
ATOM     55  C   UNL A   1      39.200  32.045  31.156  1.00  0.00     0.074 A 
ATOM     56  C   UNL A   1      45.562  30.667  30.853  1.00  0.00     0.029 A 
ATOM     57  N   UNL A   1      44.055  32.272  30.752  1.00  0.00    -0.354 N 
ATOM     58  N   UNL A   1      39.937  31.835  32.210  1.00  0.00    -0.248 NA
ATOM     59  C   UNL A   1      39.801  32.898  30.139  1.00  0.00     0.031 C 
ATOM     60  C   UNL A   1      44.694  30.583  31.980  1.00  0.00     0.029 A 
ATOM     61  C   UNL A   1      43.629  31.464  31.777  1.00  0.00     0.049 A 
ATOM     62  H   UNL A   1      43.774  33.202  30.592  1.00  0.00     0.167 HD
ATOM     63  C   UNL A   1      41.229  32.147  31.810  1.00  0.00     0.074 A 
ATOM     64  C   UNL A   1      41.072  32.882  30.555  1.00  0.00     0.031 C 
ATOM     65  C   UNL A   1      42.310  31.529  32.371  1.00  0.00     0.031 A 
BRANCH  52  66
ATOM     66  C   UNL A   1      44.998  32.868  27.771  1.00  0.00    -0.014 A 
ATOM     67  C   UNL A   1      43.892  33.652  27.423  1.00  0.00     0.009 A 
ATOM     68  C   UNL A   1      46.226  33.169  27.146  1.00  0.00     0.009 A 
ATOM     69  C   UNL A   1      44.009  34.677  26.477  1.00  0.00     0.001 A 
ATOM     70  C   UNL A   1      46.357  34.217  26.237  1.00  0.00     0.001 A 
ATOM     71  C   UNL A   1      45.240  34.958  25.886  1.00  0.00     0.000 A 
ENDBRANCH  52  66
BRANCH  53  72
ATOM     72  C   UNL A   1      36.749  31.673  30.408  1.00  0.00    -0.014 A 
ATOM     73  C   UNL A   1      35.800  31.896  31.419  1.00  0.00     0.009 A 
ATOM     74  C   UNL A   1      36.505  32.243  29.144  1.00  0.00     0.009 A 
ATOM     75  C   UNL A   1      34.675  32.701  31.187  1.00  0.00     0.001 A 
ATOM     76  C   UNL A   1      35.381  33.044  28.913  1.00  0.00     0.001 A 
ATOM     77  C   UNL A   1      34.475  33.287  29.939  1.00  0.00     0.000 A 
ENDBRANCH  53  72
BRANCH  65  78
ATOM     78  C   UNL A   1      42.065  30.642  33.572  1.00  0.00    -0.014 A 
ATOM     79  C   UNL A   1      42.295  31.055  34.898  1.00  0.00     0.009 A 
ATOM     80  C   UNL A   1      41.440  29.404  33.365  1.00  0.00     0.009 A 
ATOM     81  C   UNL A   1      41.939  30.239  35.977  1.00  0.00     0.001 A 
ATOM     82  C   UNL A   1      41.066  28.599  34.443  1.00  0.00     0.001 A 
ATOM     83  C   UNL A   1      41.321  29.012  35.749  1.00  0.00     0.000 A 
ENDBRANCH  65  78
ENDBRANCH  39  40
ENDBRANCH  32  34
ENDBRANCH  31  32
ENDBRANCH  30  31
ENDBRANCH  29  30
ENDBRANCH  28  29
ENDBRANCH   1  28
TORSDOF 18
ENDMDL
