MODEL 1
REMARK VINA RESULT:     -10.9      0.000      0.000
REMARK SMILES COc1ccc(/C=C2/C(=O)N(c3ccccc3)C(=O)N=C2OCCOCCOCCOC(=O)c2ccc(-c3c4nc(c(-c5ccccc5)c5ccc([nH]5)c(-c5ccccc5)c5nc(c(-c6ccccc6)c6ccc3[nH]6)C=C5)C=C4)cc2)cc1C(=O)[O-]
REMARK SMILES IDX 27 1 26 2 25 3 24 4 23 5 22 6 21 7 7 8 8 9 9 10 10 11 11 12
REMARK SMILES IDX 20 13 18 14 19 15 6 16 3 17 4 18 83 19 5 20 82 21 2 22 1 23
REMARK SMILES IDX 84 24 85 25 86 26 12 27 13 28 17 29 14 30 16 31 15 32 28 33
REMARK SMILES IDX 29 34 30 35 31 36 32 37 33 38 34 39 35 40 81 41 36 42 80 43
REMARK SMILES IDX 37 44 38 45 39 46 74 47 40 48 79 49 73 50 75 51 41 52 78 53
REMARK SMILES IDX 72 54 71 55 42 57 64 58 49 59 63 60 50 61 53 62 62 63 76 64
REMARK SMILES IDX 51 65 52 66 61 68 77 69 54 70 43 71 44 72 48 73 45 74 47 75
REMARK SMILES IDX 46 76 65 77 66 78 70 79 67 80 69 81 68 82 55 83 56 84 60 85
REMARK SMILES IDX 57 86 59 87 58 88
REMARK H PARENT 75 56 53 67
REMARK Flexibility Score: inf
ROOT
ATOM      1  C   UNL A   1      36.118  22.700  25.623  1.00  0.00     0.188 C 
ENDROOT
BRANCH   1   2
ATOM      2  C   UNL A   1      35.784  23.720  24.516  1.00  0.00     0.188 C 
BRANCH   2   3
ATOM      3  O   UNL A   1      35.771  23.351  23.151  1.00  0.00    -0.376 OA
BRANCH   3   4
ATOM      4  C   UNL A   1      34.560  22.958  22.524  1.00  0.00     0.201 C 
BRANCH   4   5
ATOM      5  C   UNL A   1      33.424  23.967  22.412  1.00  0.00     0.260 C 
BRANCH   5   6
ATOM      6  O   UNL A   1      32.150  23.367  22.731  1.00  0.00    -0.475 OA
BRANCH   6   7
ATOM      7  C   UNL A   1      32.122  22.157  23.313  1.00  0.00     0.231 C 
ATOM      8  C   UNL A   1      32.341  23.202  25.658  1.00  0.00     0.027 C 
ATOM      9  C   UNL A   1      32.347  22.174  24.769  1.00  0.00     0.103 C 
ATOM     10  C   UNL A   1      32.718  20.817  25.323  1.00  0.00     0.272 C 
ATOM     11  O   UNL A   1      32.994  20.675  26.515  1.00  0.00    -0.268 OA
ATOM     12  N   UNL A   1      32.777  19.790  24.384  1.00  0.00    -0.226 N 
ATOM     13  N   UNL A   1      32.030  21.117  22.574  1.00  0.00    -0.156 NA
ATOM     14  C   UNL A   1      32.294  19.885  23.078  1.00  0.00     0.358 C 
ATOM     15  O   UNL A   1      32.143  18.903  22.354  1.00  0.00    -0.245 OA
BRANCH   8  16
ATOM     16  C   UNL A   1      32.134  24.681  25.609  1.00  0.00    -0.024 A 
ATOM     17  C   UNL A   1      31.525  27.469  25.507  1.00  0.00     0.127 A 
ATOM     18  C   UNL A   1      32.688  27.009  26.115  1.00  0.00     0.048 A 
ATOM     19  C   UNL A   1      30.719  26.556  24.830  1.00  0.00     0.040 A 
ATOM     20  C   UNL A   1      33.010  25.644  26.111  1.00  0.00     0.012 A 
ATOM     21  C   UNL A   1      30.993  25.172  24.936  1.00  0.00     0.022 A 
BRANCH  17  22
ATOM     22  O   UNL A   1      31.329  28.823  25.561  1.00  0.00    -0.496 OA
ATOM     23  C   UNL A   1      32.538  29.558  25.371  1.00  0.00     0.278 C 
ENDBRANCH  17  22
BRANCH  19  24
ATOM     24  C   UNL A   1      29.624  26.952  23.910  1.00  0.00     0.075 C 
ATOM     25  O   UNL A   1      28.450  26.722  24.065  1.00  0.00    -0.545 OA
ATOM     26  O   UNL A   1      30.090  27.503  22.769  1.00  0.00    -0.545 OA
ENDBRANCH  19  24
ENDBRANCH   8  16
BRANCH  12  27
ATOM     27  C   UNL A   1      33.307  18.527  24.769  1.00  0.00     0.054 A 
ATOM     28  C   UNL A   1      34.625  18.201  24.417  1.00  0.00     0.027 A 
ATOM     29  C   UNL A   1      32.505  17.580  25.408  1.00  0.00     0.027 A 
ATOM     30  C   UNL A   1      35.138  16.939  24.715  1.00  0.00     0.002 A 
ATOM     31  C   UNL A   1      33.012  16.304  25.666  1.00  0.00     0.002 A 
ATOM     32  C   UNL A   1      34.326  15.985  25.322  1.00  0.00     0.000 A 
ENDBRANCH  12  27
ENDBRANCH   6   7
ENDBRANCH   5   6
ENDBRANCH   4   5
ENDBRANCH   3   4
ENDBRANCH   2   3
ENDBRANCH   1   2
BRANCH   1  33
ATOM     33  O   UNL A   1      37.320  21.961  25.601  1.00  0.00    -0.376 OA
BRANCH  33  34
ATOM     34  C   UNL A   1      37.453  20.840  24.743  1.00  0.00     0.202 C 
BRANCH  34  35
ATOM     35  C   UNL A   1      38.589  19.828  24.926  1.00  0.00     0.261 C 
BRANCH  35  36
ATOM     36  O   UNL A   1      39.261  19.900  26.192  1.00  0.00    -0.460 OA
BRANCH  36  37
ATOM     37  C   UNL A   1      40.615  19.831  26.136  1.00  0.00     0.338 C 
ATOM     38  O   UNL A   1      41.286  18.956  25.617  1.00  0.00    -0.246 OA
BRANCH  37  39
ATOM     39  C   UNL A   1      41.204  21.089  26.637  1.00  0.00     0.060 A 
ATOM     40  C   UNL A   1      41.255  21.285  28.025  1.00  0.00     0.016 A 
ATOM     41  C   UNL A   1      41.681  22.074  25.768  1.00  0.00     0.016 A 
ATOM     42  C   UNL A   1      41.752  22.480  28.544  1.00  0.00     0.010 A 
ATOM     43  C   UNL A   1      42.157  23.283  26.290  1.00  0.00     0.010 A 
ATOM     44  C   UNL A   1      42.171  23.501  27.679  1.00  0.00    -0.014 A 
BRANCH  44  45
ATOM     45  C   UNL A   1      42.446  24.854  28.225  1.00  0.00     0.031 A 
ATOM     46  C   UNL A   1      43.874  25.238  28.503  1.00  0.00     0.074 A 
ATOM     47  C   UNL A   1      41.459  25.740  28.442  1.00  0.00     0.049 A 
ATOM     48  N   UNL A   1      44.358  26.371  28.943  1.00  0.00    -0.248 NA
ATOM     49  C   UNL A   1      44.889  24.200  28.259  1.00  0.00     0.031 C 
ATOM     50  C   UNL A   1      40.041  25.508  28.187  1.00  0.00     0.029 A 
ATOM     51  N   UNL A   1      41.514  27.039  28.888  1.00  0.00    -0.354 N 
ATOM     52  C   UNL A   1      45.727  26.173  29.062  1.00  0.00     0.074 A 
ATOM     53  C   UNL A   1      46.000  24.818  28.634  1.00  0.00     0.031 C 
ATOM     54  C   UNL A   1      39.367  26.650  28.415  1.00  0.00     0.029 A 
ATOM     55  C   UNL A   1      40.296  27.675  28.886  1.00  0.00     0.049 A 
ATOM     56  H   UNL A   1      42.348  27.472  29.182  1.00  0.00     0.167 HD
ATOM     57  C   UNL A   1      46.674  27.031  29.512  1.00  0.00     0.031 A 
ATOM     58  C   UNL A   1      39.973  28.940  29.222  1.00  0.00     0.031 A 
ATOM     59  C   UNL A   1      46.409  28.369  29.968  1.00  0.00     0.049 A 
ATOM     60  C   UNL A   1      41.044  29.867  29.744  1.00  0.00     0.074 A 
ATOM     61  C   UNL A   1      47.306  29.304  30.455  1.00  0.00     0.029 A 
ATOM     62  N   UNL A   1      45.156  28.957  30.005  1.00  0.00    -0.354 N 
ATOM     63  N   UNL A   1      42.337  29.672  29.840  1.00  0.00    -0.248 NA
ATOM     64  C   UNL A   1      40.600  31.186  30.223  1.00  0.00     0.031 C 
ATOM     65  C   UNL A   1      46.587  30.438  30.844  1.00  0.00     0.029 A 
ATOM     66  C   UNL A   1      45.251  30.232  30.536  1.00  0.00     0.049 A 
ATOM     67  H   UNL A   1      44.322  28.532  29.700  1.00  0.00     0.167 HD
ATOM     68  C   UNL A   1      42.858  30.843  30.383  1.00  0.00     0.074 A 
ATOM     69  C   UNL A   1      41.748  31.754  30.561  1.00  0.00     0.031 C 
ATOM     70  C   UNL A   1      44.141  31.131  30.714  1.00  0.00     0.031 A 
BRANCH  57  71
ATOM     71  C   UNL A   1      48.079  26.512  29.608  1.00  0.00    -0.014 A 
ATOM     72  C   UNL A   1      49.000  26.684  28.564  1.00  0.00     0.009 A 
ATOM     73  C   UNL A   1      48.491  25.857  30.780  1.00  0.00     0.009 A 
ATOM     74  C   UNL A   1      50.298  26.182  28.681  1.00  0.00     0.001 A 
ATOM     75  C   UNL A   1      49.796  25.381  30.905  1.00  0.00     0.001 A 
ATOM     76  C   UNL A   1      50.695  25.535  29.852  1.00  0.00     0.000 A 
ENDBRANCH  57  71
BRANCH  58  77
ATOM     77  C   UNL A   1      38.572  29.426  29.090  1.00  0.00    -0.014 A 
ATOM     78  C   UNL A   1      37.688  29.340  30.177  1.00  0.00     0.009 A 
ATOM     79  C   UNL A   1      38.097  29.939  27.874  1.00  0.00     0.009 A 
ATOM     80  C   UNL A   1      36.354  29.732  30.042  1.00  0.00     0.001 A 
ATOM     81  C   UNL A   1      36.771  30.362  27.750  1.00  0.00     0.001 A 
ATOM     82  C   UNL A   1      35.898  30.248  28.830  1.00  0.00     0.000 A 
ENDBRANCH  58  77
BRANCH  70  83
ATOM     83  C   UNL A   1      44.425  32.491  31.291  1.00  0.00    -0.014 A 
ATOM     84  C   UNL A   1      44.712  33.589  30.465  1.00  0.00     0.009 A 
ATOM     85  C   UNL A   1      44.342  32.691  32.679  1.00  0.00     0.009 A 
ATOM     86  C   UNL A   1      44.938  34.852  31.019  1.00  0.00     0.001 A 
ATOM     87  C   UNL A   1      44.540  33.959  33.228  1.00  0.00     0.001 A 
ATOM     88  C   UNL A   1      44.847  35.037  32.398  1.00  0.00     0.000 A 
ENDBRANCH  70  83
ENDBRANCH  44  45
ENDBRANCH  37  39
ENDBRANCH  36  37
ENDBRANCH  35  36
ENDBRANCH  34  35
ENDBRANCH  33  34
ENDBRANCH   1  33
TORSDOF 20
ENDMDL
MODEL 2
REMARK VINA RESULT:     -10.8      0.410      5.545
REMARK SMILES COc1ccc(/C=C2/C(=O)N(c3ccccc3)C(=O)N=C2OCCOCCOCCOC(=O)c2ccc(-c3c4nc(c(-c5ccccc5)c5ccc([nH]5)c(-c5ccccc5)c5nc(c(-c6ccccc6)c6ccc3[nH]6)C=C5)C=C4)cc2)cc1C(=O)[O-]
REMARK SMILES IDX 27 1 26 2 25 3 24 4 23 5 22 6 21 7 7 8 8 9 9 10 10 11 11 12
REMARK SMILES IDX 20 13 18 14 19 15 6 16 3 17 4 18 83 19 5 20 82 21 2 22 1 23
REMARK SMILES IDX 84 24 85 25 86 26 12 27 13 28 17 29 14 30 16 31 15 32 28 33
REMARK SMILES IDX 29 34 30 35 31 36 32 37 33 38 34 39 35 40 81 41 36 42 80 43
REMARK SMILES IDX 37 44 38 45 39 46 74 47 40 48 79 49 73 50 75 51 41 52 78 53
REMARK SMILES IDX 72 54 71 55 42 57 64 58 49 59 63 60 50 61 53 62 62 63 76 64
REMARK SMILES IDX 51 65 52 66 61 68 77 69 54 70 43 71 44 72 48 73 45 74 47 75
REMARK SMILES IDX 46 76 65 77 66 78 70 79 67 80 69 81 68 82 55 83 56 84 60 85
REMARK SMILES IDX 57 86 59 87 58 88
REMARK H PARENT 75 56 53 67
REMARK Flexibility Score: inf
ROOT
ATOM      1  C   UNL A   1      36.053  22.854  25.675  1.00  0.00     0.188 C 
ENDROOT
BRANCH   1   2
ATOM      2  C   UNL A   1      35.730  23.811  24.509  1.00  0.00     0.188 C 
BRANCH   2   3
ATOM      3  O   UNL A   1      35.751  23.373  23.166  1.00  0.00    -0.376 OA
BRANCH   3   4
ATOM      4  C   UNL A   1      34.545  23.036  22.498  1.00  0.00     0.201 C 
BRANCH   4   5
ATOM      5  C   UNL A   1      33.429  24.070  22.421  1.00  0.00     0.260 C 
BRANCH   5   6
ATOM      6  O   UNL A   1      32.148  23.491  22.748  1.00  0.00    -0.475 OA
BRANCH   6   7
ATOM      7  C   UNL A   1      32.102  22.274  23.313  1.00  0.00     0.231 C 
ATOM      8  C   UNL A   1      32.288  23.285  25.675  1.00  0.00     0.027 C 
ATOM      9  C   UNL A   1      32.302  22.269  24.773  1.00  0.00     0.103 C 
ATOM     10  C   UNL A   1      32.655  20.903  25.314  1.00  0.00     0.272 C 
ATOM     11  O   UNL A   1      32.910  20.743  26.508  1.00  0.00    -0.268 OA
ATOM     12  N   UNL A   1      32.724  19.888  24.363  1.00  0.00    -0.226 N 
ATOM     13  N   UNL A   1      32.017  21.245  22.559  1.00  0.00    -0.156 NA
ATOM     14  C   UNL A   1      32.264  20.003  23.050  1.00  0.00     0.358 C 
ATOM     15  O   UNL A   1      32.119  19.033  22.311  1.00  0.00    -0.245 OA
BRANCH   8  16
ATOM     16  C   UNL A   1      32.091  24.766  25.643  1.00  0.00    -0.024 A 
ATOM     17  C   UNL A   1      31.501  27.560  25.569  1.00  0.00     0.127 A 
ATOM     18  C   UNL A   1      32.651  27.084  26.188  1.00  0.00     0.048 A 
ATOM     19  C   UNL A   1      30.699  26.660  24.868  1.00  0.00     0.040 A 
ATOM     20  C   UNL A   1      32.964  25.717  26.171  1.00  0.00     0.012 A 
ATOM     21  C   UNL A   1      30.963  25.273  24.959  1.00  0.00     0.022 A 
BRANCH  17  22
ATOM     22  O   UNL A   1      31.312  28.913  25.638  1.00  0.00    -0.496 OA
ATOM     23  C   UNL A   1      32.395  29.646  25.063  1.00  0.00     0.278 C 
ENDBRANCH  17  22
BRANCH  19  24
ATOM     24  C   UNL A   1      29.621  27.075  23.936  1.00  0.00     0.075 C 
ATOM     25  O   UNL A   1      29.674  27.991  23.153  1.00  0.00    -0.545 OA
ATOM     26  O   UNL A   1      28.477  26.390  24.143  1.00  0.00    -0.545 OA
ENDBRANCH  19  24
ENDBRANCH   8  16
BRANCH  12  27
ATOM     27  C   UNL A   1      33.240  18.617  24.739  1.00  0.00     0.054 A 
ATOM     28  C   UNL A   1      34.549  18.272  24.371  1.00  0.00     0.027 A 
ATOM     29  C   UNL A   1      32.431  17.681  25.387  1.00  0.00     0.027 A 
ATOM     30  C   UNL A   1      35.046  17.002  24.662  1.00  0.00     0.002 A 
ATOM     31  C   UNL A   1      32.922  16.397  25.636  1.00  0.00     0.002 A 
ATOM     32  C   UNL A   1      34.227  16.059  25.277  1.00  0.00     0.000 A 
ENDBRANCH  12  27
ENDBRANCH   6   7
ENDBRANCH   5   6
ENDBRANCH   4   5
ENDBRANCH   3   4
ENDBRANCH   2   3
ENDBRANCH   1   2
BRANCH   1  33
ATOM     33  O   UNL A   1      37.253  22.111  25.703  1.00  0.00    -0.376 OA
BRANCH  33  34
ATOM     34  C   UNL A   1      37.409  20.975  24.870  1.00  0.00     0.202 C 
BRANCH  34  35
ATOM     35  C   UNL A   1      38.554  19.979  25.089  1.00  0.00     0.261 C 
BRANCH  35  36
ATOM     36  O   UNL A   1      39.282  20.160  26.313  1.00  0.00    -0.460 OA
BRANCH  36  37
ATOM     37  C   UNL A   1      40.621  19.961  26.225  1.00  0.00     0.338 C 
ATOM     38  O   UNL A   1      41.193  19.011  25.718  1.00  0.00    -0.246 OA
BRANCH  37  39
ATOM     39  C   UNL A   1      41.340  21.172  26.673  1.00  0.00     0.060 A 
ATOM     40  C   UNL A   1      41.457  21.395  28.052  1.00  0.00     0.016 A 
ATOM     41  C   UNL A   1      41.873  22.087  25.761  1.00  0.00     0.016 A 
ATOM     42  C   UNL A   1      42.079  22.552  28.522  1.00  0.00     0.010 A 
ATOM     43  C   UNL A   1      42.474  23.259  26.235  1.00  0.00     0.010 A 
ATOM     44  C   UNL A   1      42.557  23.509  27.616  1.00  0.00    -0.014 A 
BRANCH  44  45
ATOM     45  C   UNL A   1      42.973  24.843  28.115  1.00  0.00     0.031 A 
ATOM     46  C   UNL A   1      41.908  25.866  28.402  1.00  0.00     0.074 A 
ATOM     47  C   UNL A   1      44.265  25.139  28.344  1.00  0.00     0.049 A 
ATOM     48  N   UNL A   1      42.028  27.079  28.878  1.00  0.00    -0.248 NA
ATOM     49  C   UNL A   1      40.523  25.468  28.102  1.00  0.00     0.031 C 
ATOM     50  C   UNL A   1      45.391  24.233  28.137  1.00  0.00     0.029 A 
ATOM     51  N   UNL A   1      44.839  26.283  28.845  1.00  0.00    -0.354 N 
ATOM     52  C   UNL A   1      40.741  27.601  28.903  1.00  0.00     0.074 A 
ATOM     53  C   UNL A   1      39.854  26.570  28.409  1.00  0.00     0.031 C 
ATOM     54  C   UNL A   1      46.514  24.830  28.575  1.00  0.00     0.029 A 
ATOM     55  C   UNL A   1      46.196  26.180  29.038  1.00  0.00     0.049 A 
ATOM     56  H   UNL A   1      44.326  27.099  29.047  1.00  0.00     0.167 HD
ATOM     57  C   UNL A   1      40.334  28.837  29.277  1.00  0.00     0.031 A 
ATOM     58  C   UNL A   1      47.075  27.073  29.534  1.00  0.00     0.031 A 
ATOM     59  C   UNL A   1      41.211  29.878  29.741  1.00  0.00     0.049 A 
ATOM     60  C   UNL A   1      46.597  28.452  29.920  1.00  0.00     0.074 A 
ATOM     61  C   UNL A   1      40.885  31.167  30.127  1.00  0.00     0.029 A 
ATOM     62  N   UNL A   1      42.584  29.756  29.867  1.00  0.00    -0.354 N 
ATOM     63  N   UNL A   1      45.377  28.930  29.951  1.00  0.00    -0.248 NA
ATOM     64  C   UNL A   1      47.630  29.420  30.322  1.00  0.00     0.031 C 
ATOM     65  C   UNL A   1      42.070  31.844  30.431  1.00  0.00     0.029 A 
ATOM     66  C   UNL A   1      43.125  30.955  30.297  1.00  0.00     0.049 A 
ATOM     67  H   UNL A   1      43.099  28.938  29.679  1.00  0.00     0.167 HD
ATOM     68  C   UNL A   1      45.495  30.248  30.380  1.00  0.00     0.074 A 
ATOM     69  C   UNL A   1      46.901  30.483  30.632  1.00  0.00     0.031 C 
ATOM     70  C   UNL A   1      44.526  31.182  30.541  1.00  0.00     0.031 A 
BRANCH  57  71
ATOM     71  C   UNL A   1      38.874  29.154  29.122  1.00  0.00    -0.014 A 
ATOM     72  C   UNL A   1      37.979  29.046  30.197  1.00  0.00     0.009 A 
ATOM     73  C   UNL A   1      38.395  29.590  27.876  1.00  0.00     0.009 A 
ATOM     74  C   UNL A   1      36.626  29.340  30.017  1.00  0.00     0.001 A 
ATOM     75  C   UNL A   1      37.048  29.909  27.707  1.00  0.00     0.001 A 
ATOM     76  C   UNL A   1      36.163  29.774  28.774  1.00  0.00     0.000 A 
ENDBRANCH  57  71
BRANCH  58  77
ATOM     77  C   UNL A   1      48.511  26.714  29.697  1.00  0.00    -0.014 A 
ATOM     78  C   UNL A   1      48.963  26.131  30.892  1.00  0.00     0.009 A 
ATOM     79  C   UNL A   1      49.443  26.987  28.685  1.00  0.00     0.009 A 
ATOM     80  C   UNL A   1      50.319  25.853  31.079  1.00  0.00     0.001 A 
ATOM     81  C   UNL A   1      50.794  26.676  28.861  1.00  0.00     0.001 A 
ATOM     82  C   UNL A   1      51.232  26.120  30.061  1.00  0.00     0.000 A 
ENDBRANCH  58  77
BRANCH  70  83
ATOM     83  C   UNL A   1      44.942  32.546  31.023  1.00  0.00    -0.014 A 
ATOM     84  C   UNL A   1      45.029  32.839  32.393  1.00  0.00     0.009 A 
ATOM     85  C   UNL A   1      45.314  33.530  30.093  1.00  0.00     0.009 A 
ATOM     86  C   UNL A   1      45.451  34.101  32.820  1.00  0.00     0.001 A 
ATOM     87  C   UNL A   1      45.763  34.780  30.524  1.00  0.00     0.001 A 
ATOM     88  C   UNL A   1      45.823  35.067  31.886  1.00  0.00     0.000 A 
ENDBRANCH  70  83
ENDBRANCH  44  45
ENDBRANCH  37  39
ENDBRANCH  36  37
ENDBRANCH  35  36
ENDBRANCH  34  35
ENDBRANCH  33  34
ENDBRANCH   1  33
TORSDOF 20
ENDMDL
MODEL 3
REMARK VINA RESULT:     -10.7      2.688      7.749
REMARK SMILES COc1ccc(/C=C2/C(=O)N(c3ccccc3)C(=O)N=C2OCCOCCOCCOC(=O)c2ccc(-c3c4nc(c(-c5ccccc5)c5ccc([nH]5)c(-c5ccccc5)c5nc(c(-c6ccccc6)c6ccc3[nH]6)C=C5)C=C4)cc2)cc1C(=O)[O-]
REMARK SMILES IDX 27 1 26 2 25 3 24 4 23 5 22 6 21 7 7 8 8 9 9 10 10 11 11 12
REMARK SMILES IDX 20 13 18 14 19 15 6 16 3 17 4 18 83 19 5 20 82 21 2 22 1 23
REMARK SMILES IDX 84 24 85 25 86 26 12 27 13 28 17 29 14 30 16 31 15 32 28 33
REMARK SMILES IDX 29 34 30 35 31 36 32 37 33 38 34 39 35 40 81 41 36 42 80 43
REMARK SMILES IDX 37 44 38 45 39 46 74 47 40 48 79 49 73 50 75 51 41 52 78 53
REMARK SMILES IDX 72 54 71 55 42 57 64 58 49 59 63 60 50 61 53 62 62 63 76 64
REMARK SMILES IDX 51 65 52 66 61 68 77 69 54 70 43 71 44 72 48 73 45 74 47 75
REMARK SMILES IDX 46 76 65 77 66 78 70 79 67 80 69 81 68 82 55 83 56 84 60 85
REMARK SMILES IDX 57 86 59 87 58 88
REMARK H PARENT 75 56 53 67
REMARK Flexibility Score: inf
ROOT
ATOM      1  C   UNL A   1      32.129  29.421  27.058  1.00  0.00     0.188 C 
ENDROOT
BRANCH   1   2
ATOM      2  C   UNL A   1      31.768  28.049  26.452  1.00  0.00     0.188 C 
BRANCH   2   3
ATOM      3  O   UNL A   1      32.584  26.913  26.655  1.00  0.00    -0.376 OA
BRANCH   3   4
ATOM      4  C   UNL A   1      33.799  26.761  25.937  1.00  0.00     0.201 C 
BRANCH   4   5
ATOM      5  C   UNL A   1      34.318  25.358  25.651  1.00  0.00     0.260 C 
BRANCH   5   6
ATOM      6  O   UNL A   1      33.245  24.393  25.620  1.00  0.00    -0.475 OA
BRANCH   6   7
ATOM      7  C   UNL A   1      33.470  23.177  25.096  1.00  0.00     0.231 C 
ATOM      8  C   UNL A   1      31.721  23.572  23.246  1.00  0.00     0.027 C 
ATOM      9  C   UNL A   1      32.573  22.814  23.986  1.00  0.00     0.103 C 
ATOM     10  C   UNL A   1      32.565  21.330  23.697  1.00  0.00     0.272 C 
ATOM     11  O   UNL A   1      31.822  20.858  22.836  1.00  0.00    -0.268 OA
ATOM     12  N   UNL A   1      33.399  20.564  24.509  1.00  0.00    -0.226 N 
ATOM     13  N   UNL A   1      34.327  22.412  25.657  1.00  0.00    -0.156 NA
ATOM     14  C   UNL A   1      34.376  21.089  25.355  1.00  0.00     0.358 C 
ATOM     15  O   UNL A   1      35.248  20.395  25.872  1.00  0.00    -0.245 OA
BRANCH   8  16
ATOM     16  C   UNL A   1      31.304  25.006  23.197  1.00  0.00    -0.024 A 
ATOM     17  C   UNL A   1      30.655  27.776  22.948  1.00  0.00     0.127 A 
ATOM     18  C   UNL A   1      29.713  26.854  23.389  1.00  0.00     0.048 A 
ATOM     19  C   UNL A   1      31.967  27.348  22.751  1.00  0.00     0.040 A 
ATOM     20  C   UNL A   1      30.054  25.505  23.565  1.00  0.00     0.012 A 
ATOM     21  C   UNL A   1      32.268  25.967  22.817  1.00  0.00     0.022 A 
BRANCH  17  22
ATOM     22  O   UNL A   1      30.210  29.065  22.833  1.00  0.00    -0.496 OA
ATOM     23  C   UNL A   1      28.823  29.135  22.497  1.00  0.00     0.278 C 
ENDBRANCH  17  22
BRANCH  19  24
ATOM     24  C   UNL A   1      33.113  28.273  22.565  1.00  0.00     0.075 C 
ATOM     25  O   UNL A   1      33.285  29.315  23.147  1.00  0.00    -0.545 OA
ATOM     26  O   UNL A   1      33.916  27.892  21.549  1.00  0.00    -0.545 OA
ENDBRANCH  19  24
ENDBRANCH   8  16
BRANCH  12  27
ATOM     27  C   UNL A   1      33.314  19.146  24.449  1.00  0.00     0.054 A 
ATOM     28  C   UNL A   1      32.558  18.464  25.414  1.00  0.00     0.027 A 
ATOM     29  C   UNL A   1      34.044  18.424  23.502  1.00  0.00     0.027 A 
ATOM     30  C   UNL A   1      32.525  17.069  25.421  1.00  0.00     0.002 A 
ATOM     31  C   UNL A   1      34.040  17.028  23.542  1.00  0.00     0.002 A 
ATOM     32  C   UNL A   1      33.281  16.352  24.498  1.00  0.00     0.000 A 
ENDBRANCH  12  27
ENDBRANCH   6   7
ENDBRANCH   5   6
ENDBRANCH   4   5
ENDBRANCH   3   4
ENDBRANCH   2   3
ENDBRANCH   1   2
BRANCH   1  33
ATOM     33  O   UNL A   1      33.470  29.853  27.147  1.00  0.00    -0.376 OA
BRANCH  33  34
ATOM     34  C   UNL A   1      33.767  31.230  27.311  1.00  0.00     0.202 C 
BRANCH  34  35
ATOM     35  C   UNL A   1      32.673  32.242  27.665  1.00  0.00     0.261 C 
BRANCH  35  36
ATOM     36  O   UNL A   1      33.079  33.617  27.590  1.00  0.00    -0.460 OA
BRANCH  36  37
ATOM     37  C   UNL A   1      33.325  34.215  28.783  1.00  0.00     0.338 C 
ATOM     38  O   UNL A   1      32.561  34.913  29.429  1.00  0.00    -0.246 OA
BRANCH  37  39
ATOM     39  C   UNL A   1      34.619  33.749  29.322  1.00  0.00     0.060 A 
ATOM     40  C   UNL A   1      35.784  34.091  28.621  1.00  0.00     0.016 A 
ATOM     41  C   UNL A   1      34.695  32.973  30.481  1.00  0.00     0.016 A 
ATOM     42  C   UNL A   1      37.025  33.628  29.060  1.00  0.00     0.010 A 
ATOM     43  C   UNL A   1      35.939  32.490  30.906  1.00  0.00     0.010 A 
ATOM     44  C   UNL A   1      37.105  32.794  30.184  1.00  0.00    -0.014 A 
BRANCH  44  45
ATOM     45  C   UNL A   1      38.380  32.097  30.486  1.00  0.00     0.031 A 
ATOM     46  C   UNL A   1      39.264  32.656  31.568  1.00  0.00     0.074 A 
ATOM     47  C   UNL A   1      38.739  30.973  29.842  1.00  0.00     0.049 A 
ATOM     48  N   UNL A   1      40.400  32.200  32.030  1.00  0.00    -0.248 NA
ATOM     49  C   UNL A   1      38.808  33.902  32.205  1.00  0.00     0.031 C 
ATOM     50  C   UNL A   1      37.963  30.310  28.798  1.00  0.00     0.029 A 
ATOM     51  N   UNL A   1      39.838  30.166  30.010  1.00  0.00    -0.354 N 
ATOM     52  C   UNL A   1      40.811  33.119  32.987  1.00  0.00     0.074 A 
ATOM     53  C   UNL A   1      39.798  34.150  33.050  1.00  0.00     0.031 C 
ATOM     54  C   UNL A   1      38.576  29.159  28.467  1.00  0.00     0.029 A 
ATOM     55  C   UNL A   1      39.815  29.032  29.232  1.00  0.00     0.049 A 
ATOM     56  H   UNL A   1      40.574  30.379  30.629  1.00  0.00     0.167 HD
ATOM     57  C   UNL A   1      41.944  33.122  33.729  1.00  0.00     0.031 A 
ATOM     58  C   UNL A   1      40.691  28.011  29.154  1.00  0.00     0.031 A 
ATOM     59  C   UNL A   1      42.971  32.119  33.652  1.00  0.00     0.049 A 
ATOM     60  C   UNL A   1      41.957  28.053  29.974  1.00  0.00     0.074 A 
ATOM     61  C   UNL A   1      44.160  32.050  34.357  1.00  0.00     0.029 A 
ATOM     62  N   UNL A   1      42.939  31.019  32.812  1.00  0.00    -0.354 N 
ATOM     63  N   UNL A   1      42.329  28.920  30.885  1.00  0.00    -0.248 NA
ATOM     64  C   UNL A   1      42.934  26.978  29.737  1.00  0.00     0.031 C 
ATOM     65  C   UNL A   1      44.876  30.939  33.900  1.00  0.00     0.029 A 
ATOM     66  C   UNL A   1      44.101  30.281  32.958  1.00  0.00     0.049 A 
ATOM     67  H   UNL A   1      42.200  30.794  32.201  1.00  0.00     0.167 HD
ATOM     68  C   UNL A   1      43.575  28.492  31.331  1.00  0.00     0.074 A 
ATOM     69  C   UNL A   1      43.880  27.270  30.618  1.00  0.00     0.031 C 
ATOM     70  C   UNL A   1      44.398  29.068  32.242  1.00  0.00     0.031 A 
BRANCH  57  71
ATOM     71  C   UNL A   1      42.166  34.298  34.636  1.00  0.00    -0.014 A 
ATOM     72  C   UNL A   1      41.764  34.277  35.980  1.00  0.00     0.009 A 
ATOM     73  C   UNL A   1      42.810  35.440  34.135  1.00  0.00     0.009 A 
ATOM     74  C   UNL A   1      41.977  35.390  36.795  1.00  0.00     0.001 A 
ATOM     75  C   UNL A   1      43.046  36.540  34.959  1.00  0.00     0.001 A 
ATOM     76  C   UNL A   1      42.621  36.518  36.286  1.00  0.00     0.000 A 
ENDBRANCH  57  71
BRANCH  58  77
ATOM     77  C   UNL A   1      40.425  26.850  28.261  1.00  0.00    -0.014 A 
ATOM     78  C   UNL A   1      40.931  26.834  26.951  1.00  0.00     0.009 A 
ATOM     79  C   UNL A   1      39.635  25.774  28.691  1.00  0.00     0.009 A 
ATOM     80  C   UNL A   1      40.631  25.779  26.086  1.00  0.00     0.001 A 
ATOM     81  C   UNL A   1      39.364  24.704  27.835  1.00  0.00     0.001 A 
ATOM     82  C   UNL A   1      39.852  24.713  26.530  1.00  0.00     0.000 A 
ENDBRANCH  58  77
BRANCH  70  83
ATOM     83  C   UNL A   1      45.705  28.381  32.536  1.00  0.00    -0.014 A 
ATOM     84  C   UNL A   1      46.874  28.706  31.831  1.00  0.00     0.009 A 
ATOM     85  C   UNL A   1      45.779  27.441  33.577  1.00  0.00     0.009 A 
ATOM     86  C   UNL A   1      48.085  28.082  32.143  1.00  0.00     0.001 A 
ATOM     87  C   UNL A   1      46.996  26.841  33.905  1.00  0.00     0.001 A 
ATOM     88  C   UNL A   1      48.146  27.155  33.183  1.00  0.00     0.000 A 
ENDBRANCH  70  83
ENDBRANCH  44  45
ENDBRANCH  37  39
ENDBRANCH  36  37
ENDBRANCH  35  36
ENDBRANCH  34  35
ENDBRANCH  33  34
ENDBRANCH   1  33
TORSDOF 20
ENDMDL
