MODEL 1
REMARK VINA RESULT:     -10.3      0.000      0.000
REMARK SMILES COc1cccc(-c2ccc(=O)n(CC(=O)N[C@@H](C(=O)OCCOCCOCCOC(=O)c3ccc(-c4c5nc(c(-c6ccccc6)c6ccc([nH]6)c(-c6ccccc6)c6nc(c(-c7ccccc7)c7ccc4[nH]7)C=C6)C=C5)cc3)C(C)C)n2)c1
REMARK SMILES IDX 24 1 23 2 22 3 21 4 19 5 20 6 18 7 17 8 15 9 16 10 14 12
REMARK SMILES IDX 13 13 8 14 9 15 84 16 10 17 11 18 12 19 7 20 3 21 4 22 85 23
REMARK SMILES IDX 5 24 6 25 2 26 1 27 81 28 82 29 83 30 25 31 26 32 27 33
REMARK SMILES IDX 28 34 29 35 30 36 31 37 32 38 33 39 34 40 80 41 35 42 79 43
REMARK SMILES IDX 36 44 37 45 38 46 73 47 39 48 78 49 72 50 74 51 40 52 77 53
REMARK SMILES IDX 71 54 70 55 41 57 63 58 48 59 62 60 49 61 52 62 61 63 75 64
REMARK SMILES IDX 50 65 51 66 60 68 76 69 53 70 42 71 43 72 47 73 44 74 46 75
REMARK SMILES IDX 45 76 64 77 65 78 69 79 66 80 68 81 67 82 54 83 55 84 59 85
REMARK SMILES IDX 56 86 58 87 57 88
REMARK H PARENT 17 11 74 56 52 67
REMARK Flexibility Score: inf
ROOT
ATOM      1  O   UNL A   1      32.818  27.945  27.244  1.00  0.00    -0.376 OA
ENDROOT
BRANCH   1   2
ATOM      2  C   UNL A   1      32.596  26.757  26.498  1.00  0.00     0.202 C 
BRANCH   2   3
ATOM      3  C   UNL A   1      33.599  26.360  25.401  1.00  0.00     0.261 C 
BRANCH   3   4
ATOM      4  O   UNL A   1      33.700  24.958  25.056  1.00  0.00    -0.462 OA
BRANCH   4   5
ATOM      5  C   UNL A   1      33.529  24.639  23.741  1.00  0.00     0.328 C 
ATOM      6  O   UNL A   1      34.373  24.900  22.890  1.00  0.00    -0.250 OA
BRANCH   5   7
ATOM      7  C   UNL A   1      32.210  23.865  23.402  1.00  0.00     0.194 C 
BRANCH   7   8
ATOM      8  N   UNL A   1      32.303  22.707  22.486  1.00  0.00    -0.341 N 
ATOM      9  C   UNL A   1      32.160  21.372  22.721  1.00  0.00     0.242 C 
ATOM     10  O   UNL A   1      31.869  20.672  21.745  1.00  0.00    -0.273 OA
ATOM     11  H   UNL A   1      32.502  22.939  21.551  1.00  0.00     0.164 HD
BRANCH   9  12
ATOM     12  C   UNL A   1      32.172  20.797  24.131  1.00  0.00     0.248 C 
BRANCH  12  13
ATOM     13  N   UNL A   1      33.486  20.263  24.447  1.00  0.00    -0.220 N 
ATOM     14  C   UNL A   1      35.651  20.717  25.011  1.00  0.00     0.091 A 
ATOM     15  C   UNL A   1      36.054  19.307  24.857  1.00  0.00     0.036 A 
ATOM     16  N   UNL A   1      34.447  21.164  24.837  1.00  0.00    -0.169 NA
ATOM     17  C   UNL A   1      35.084  18.442  24.553  1.00  0.00     0.075 A 
ATOM     18  C   UNL A   1      33.692  18.896  24.350  1.00  0.00     0.267 A 
ATOM     19  O   UNL A   1      32.827  18.068  24.084  1.00  0.00    -0.268 OA
BRANCH  14  20
ATOM     20  C   UNL A   1      36.711  21.678  25.383  1.00  0.00     0.006 A 
ATOM     21  C   UNL A   1      38.978  22.045  26.107  1.00  0.00     0.119 A 
ATOM     22  C   UNL A   1      38.689  23.395  26.316  1.00  0.00     0.046 A 
ATOM     23  C   UNL A   1      37.975  21.174  25.685  1.00  0.00     0.056 A 
ATOM     24  C   UNL A   1      37.421  23.895  26.027  1.00  0.00     0.005 A 
ATOM     25  C   UNL A   1      36.439  23.041  25.531  1.00  0.00     0.011 A 
BRANCH  21  26
ATOM     26  O   UNL A   1      40.256  21.646  26.383  1.00  0.00    -0.497 OA
ATOM     27  C   UNL A   1      40.452  20.242  26.219  1.00  0.00     0.278 C 
ENDBRANCH  21  26
ENDBRANCH  14  20
ENDBRANCH  12  13
ENDBRANCH   9  12
ENDBRANCH   7   8
BRANCH   7  28
ATOM     28  C   UNL A   1      31.129  24.838  22.824  1.00  0.00     0.017 C 
ATOM     29  C   UNL A   1      30.286  25.452  23.953  1.00  0.00     0.010 C 
ATOM     30  C   UNL A   1      31.712  25.981  21.985  1.00  0.00     0.010 C 
ENDBRANCH   7  28
ENDBRANCH   5   7
ENDBRANCH   4   5
ENDBRANCH   3   4
ENDBRANCH   2   3
ENDBRANCH   1   2
BRANCH   1  31
ATOM     31  C   UNL A   1      31.886  29.013  27.136  1.00  0.00     0.188 C 
BRANCH  31  32
ATOM     32  C   UNL A   1      32.392  30.446  26.877  1.00  0.00     0.188 C 
BRANCH  32  33
ATOM     33  O   UNL A   1      31.456  31.286  26.248  1.00  0.00    -0.376 OA
BRANCH  33  34
ATOM     34  C   UNL A   1      31.392  32.635  26.665  1.00  0.00     0.202 C 
BRANCH  34  35
ATOM     35  C   UNL A   1      32.664  33.305  27.218  1.00  0.00     0.261 C 
BRANCH  35  36
ATOM     36  O   UNL A   1      32.499  34.233  28.305  1.00  0.00    -0.460 OA
BRANCH  36  37
ATOM     37  C   UNL A   1      33.582  34.937  28.703  1.00  0.00     0.338 C 
ATOM     38  O   UNL A   1      33.635  36.137  28.930  1.00  0.00    -0.246 OA
BRANCH  37  39
ATOM     39  C   UNL A   1      34.652  33.970  29.048  1.00  0.00     0.060 A 
ATOM     40  C   UNL A   1      34.311  32.753  29.660  1.00  0.00     0.016 A 
ATOM     41  C   UNL A   1      35.985  34.251  28.745  1.00  0.00     0.016 A 
ATOM     42  C   UNL A   1      35.303  31.823  29.983  1.00  0.00     0.010 A 
ATOM     43  C   UNL A   1      36.980  33.334  29.098  1.00  0.00     0.010 A 
ATOM     44  C   UNL A   1      36.648  32.127  29.743  1.00  0.00    -0.014 A 
BRANCH  44  45
ATOM     45  C   UNL A   1      37.726  31.290  30.328  1.00  0.00     0.031 A 
ATOM     46  C   UNL A   1      38.045  31.461  31.790  1.00  0.00     0.074 A 
ATOM     47  C   UNL A   1      38.423  30.407  29.590  1.00  0.00     0.049 A 
ATOM     48  N   UNL A   1      39.007  30.929  32.499  1.00  0.00    -0.248 NA
ATOM     49  C   UNL A   1      37.159  32.359  32.549  1.00  0.00     0.031 C 
ATOM     50  C   UNL A   1      38.183  30.098  28.183  1.00  0.00     0.029 A 
ATOM     51  N   UNL A   1      39.494  29.617  29.933  1.00  0.00    -0.354 N 
ATOM     52  C   UNL A   1      38.853  31.440  33.782  1.00  0.00     0.074 A 
ATOM     53  C   UNL A   1      37.721  32.341  33.748  1.00  0.00     0.031 C 
ATOM     54  C   UNL A   1      39.095  29.197  27.775  1.00  0.00     0.029 A 
ATOM     55  C   UNL A   1      40.006  28.899  28.879  1.00  0.00     0.049 A 
ATOM     56  H   UNL A   1      39.859  29.569  30.845  1.00  0.00     0.167 HD
ATOM     57  C   UNL A   1      39.587  31.186  34.892  1.00  0.00     0.031 A 
ATOM     58  C   UNL A   1      41.105  28.120  28.806  1.00  0.00     0.031 A 
ATOM     59  C   UNL A   1      40.724  30.307  34.926  1.00  0.00     0.049 A 
ATOM     60  C   UNL A   1      41.966  27.928  30.031  1.00  0.00     0.074 A 
ATOM     61  C   UNL A   1      41.523  29.975  36.006  1.00  0.00     0.029 A 
ATOM     62  N   UNL A   1      41.232  29.630  33.829  1.00  0.00    -0.354 N 
ATOM     63  N   UNL A   1      41.799  28.399  31.244  1.00  0.00    -0.248 NA
ATOM     64  C   UNL A   1      43.167  27.094  29.873  1.00  0.00     0.031 C 
ATOM     65  C   UNL A   1      42.555  29.152  35.549  1.00  0.00     0.029 A 
ATOM     66  C   UNL A   1      42.355  28.909  34.199  1.00  0.00     0.049 A 
ATOM     67  H   UNL A   1      40.851  29.657  32.921  1.00  0.00     0.167 HD
ATOM     68  C   UNL A   1      42.851  27.890  31.998  1.00  0.00     0.074 A 
ATOM     69  C   UNL A   1      43.642  27.065  31.111  1.00  0.00     0.031 C 
ATOM     70  C   UNL A   1      43.135  28.086  33.309  1.00  0.00     0.031 A 
BRANCH  57  71
ATOM     71  C   UNL A   1      39.208  31.910  36.154  1.00  0.00    -0.014 A 
ATOM     72  C   UNL A   1      39.924  33.032  36.602  1.00  0.00     0.009 A 
ATOM     73  C   UNL A   1      38.092  31.480  36.890  1.00  0.00     0.009 A 
ATOM     74  C   UNL A   1      39.552  33.684  37.778  1.00  0.00     0.001 A 
ATOM     75  C   UNL A   1      37.703  32.153  38.048  1.00  0.00     0.001 A 
ATOM     76  C   UNL A   1      38.439  33.250  38.497  1.00  0.00     0.000 A 
ENDBRANCH  57  71
BRANCH  58  77
ATOM     77  C   UNL A   1      41.488  27.481  27.517  1.00  0.00    -0.014 A 
ATOM     78  C   UNL A   1      41.079  26.172  27.216  1.00  0.00     0.009 A 
ATOM     79  C   UNL A   1      42.296  28.165  26.596  1.00  0.00     0.009 A 
ATOM     80  C   UNL A   1      41.497  25.553  26.034  1.00  0.00     0.001 A 
ATOM     81  C   UNL A   1      42.684  27.557  25.400  1.00  0.00     0.001 A 
ATOM     82  C   UNL A   1      42.294  26.247  25.125  1.00  0.00     0.000 A 
ENDBRANCH  58  77
BRANCH  70  83
ATOM     83  C   UNL A   1      44.322  27.362  33.885  1.00  0.00    -0.014 A 
ATOM     84  C   UNL A   1      44.188  26.118  34.519  1.00  0.00     0.009 A 
ATOM     85  C   UNL A   1      45.606  27.914  33.740  1.00  0.00     0.009 A 
ATOM     86  C   UNL A   1      45.311  25.457  35.025  1.00  0.00     0.001 A 
ATOM     87  C   UNL A   1      46.730  27.236  34.215  1.00  0.00     0.001 A 
ATOM     88  C   UNL A   1      46.580  26.013  34.866  1.00  0.00     0.000 A 
ENDBRANCH  70  83
ENDBRANCH  44  45
ENDBRANCH  37  39
ENDBRANCH  36  37
ENDBRANCH  35  36
ENDBRANCH  34  35
ENDBRANCH  33  34
ENDBRANCH  32  33
ENDBRANCH  31  32
ENDBRANCH   1  31
TORSDOF 23
ENDMDL
MODEL 2
REMARK VINA RESULT:     -10.3      2.191      7.422
REMARK SMILES COc1cccc(-c2ccc(=O)n(CC(=O)N[C@@H](C(=O)OCCOCCOCCOC(=O)c3ccc(-c4c5nc(c(-c6ccccc6)c6ccc([nH]6)c(-c6ccccc6)c6nc(c(-c7ccccc7)c7ccc4[nH]7)C=C6)C=C5)cc3)C(C)C)n2)c1
REMARK SMILES IDX 24 1 23 2 22 3 21 4 19 5 20 6 18 7 17 8 15 9 16 10 14 12
REMARK SMILES IDX 13 13 8 14 9 15 84 16 10 17 11 18 12 19 7 20 3 21 4 22 85 23
REMARK SMILES IDX 5 24 6 25 2 26 1 27 81 28 82 29 83 30 25 31 26 32 27 33
REMARK SMILES IDX 28 34 29 35 30 36 31 37 32 38 33 39 34 40 80 41 35 42 79 43
REMARK SMILES IDX 36 44 37 45 38 46 73 47 39 48 78 49 72 50 74 51 40 52 77 53
REMARK SMILES IDX 71 54 70 55 41 57 63 58 48 59 62 60 49 61 52 62 61 63 75 64
REMARK SMILES IDX 50 65 51 66 60 68 76 69 53 70 42 71 43 72 47 73 44 74 46 75
REMARK SMILES IDX 45 76 64 77 65 78 69 79 66 80 68 81 67 82 54 83 55 84 59 85
REMARK SMILES IDX 56 86 58 87 57 88
REMARK H PARENT 17 11 74 56 52 67
REMARK Flexibility Score: inf
ROOT
ATOM      1  O   UNL A   1      33.140  27.684  26.656  1.00  0.00    -0.376 OA
ENDROOT
BRANCH   1   2
ATOM      2  C   UNL A   1      33.075  26.491  25.889  1.00  0.00     0.202 C 
BRANCH   2   3
ATOM      3  C   UNL A   1      34.325  25.602  25.772  1.00  0.00     0.261 C 
BRANCH   3   4
ATOM      4  O   UNL A   1      34.137  24.167  25.791  1.00  0.00    -0.462 OA
BRANCH   4   5
ATOM      5  C   UNL A   1      34.498  23.489  24.664  1.00  0.00     0.328 C 
ATOM      6  O   UNL A   1      35.642  23.518  24.222  1.00  0.00    -0.250 OA
BRANCH   5   7
ATOM      7  C   UNL A   1      33.369  22.626  24.007  1.00  0.00     0.194 C 
BRANCH   7   8
ATOM      8  N   UNL A   1      31.989  23.159  24.025  1.00  0.00    -0.341 N 
ATOM      9  C   UNL A   1      31.323  23.938  23.126  1.00  0.00     0.242 C 
ATOM     10  O   UNL A   1      30.089  23.889  23.167  1.00  0.00    -0.273 OA
ATOM     11  H   UNL A   1      31.465  22.910  24.819  1.00  0.00     0.164 HD
BRANCH   9  12
ATOM     12  C   UNL A   1      32.049  24.682  22.013  1.00  0.00     0.248 C 
BRANCH  12  13
ATOM     13  N   UNL A   1      32.118  26.101  22.317  1.00  0.00    -0.220 N 
ATOM     14  C   UNL A   1      30.967  28.038  22.687  1.00  0.00     0.091 A 
ATOM     15  C   UNL A   1      32.202  28.844  22.694  1.00  0.00     0.036 A 
ATOM     16  N   UNL A   1      30.926  26.752  22.528  1.00  0.00    -0.169 NA
ATOM     17  C   UNL A   1      33.349  28.176  22.564  1.00  0.00     0.075 A 
ATOM     18  C   UNL A   1      33.362  26.709  22.387  1.00  0.00     0.267 A 
ATOM     19  O   UNL A   1      34.438  26.129  22.283  1.00  0.00    -0.268 OA
BRANCH  14  20
ATOM     20  C   UNL A   1      29.692  28.765  22.867  1.00  0.00     0.006 A 
ATOM     21  C   UNL A   1      28.570  30.851  23.296  1.00  0.00     0.119 A 
ATOM     22  C   UNL A   1      27.362  30.168  23.443  1.00  0.00     0.046 A 
ATOM     23  C   UNL A   1      29.747  30.145  23.054  1.00  0.00     0.056 A 
ATOM     24  C   UNL A   1      27.311  28.785  23.270  1.00  0.00     0.005 A 
ATOM     25  C   UNL A   1      28.473  28.087  22.951  1.00  0.00     0.011 A 
BRANCH  21  26
ATOM     26  O   UNL A   1      28.524  32.209  23.449  1.00  0.00    -0.497 OA
ATOM     27  C   UNL A   1      28.614  32.916  22.212  1.00  0.00     0.278 C 
ENDBRANCH  21  26
ENDBRANCH  14  20
ENDBRANCH  12  13
ENDBRANCH   9  12
ENDBRANCH   7   8
BRANCH   7  28
ATOM     28  C   UNL A   1      33.330  21.194  24.637  1.00  0.00     0.017 C 
ATOM     29  C   UNL A   1      32.549  20.222  23.738  1.00  0.00     0.010 C 
ATOM     30  C   UNL A   1      34.717  20.595  24.900  1.00  0.00     0.010 C 
ENDBRANCH   7  28
ENDBRANCH   5   7
ENDBRANCH   4   5
ENDBRANCH   3   4
ENDBRANCH   2   3
ENDBRANCH   1   2
BRANCH   1  31
ATOM     31  C   UNL A   1      32.028  28.569  26.655  1.00  0.00     0.188 C 
BRANCH  31  32
ATOM     32  C   UNL A   1      32.225  30.046  27.048  1.00  0.00     0.188 C 
BRANCH  32  33
ATOM     33  O   UNL A   1      31.530  30.958  26.236  1.00  0.00    -0.376 OA
BRANCH  33  34
ATOM     34  C   UNL A   1      31.311  32.261  26.741  1.00  0.00     0.202 C 
BRANCH  34  35
ATOM     35  C   UNL A   1      32.509  33.058  27.288  1.00  0.00     0.261 C 
BRANCH  35  36
ATOM     36  O   UNL A   1      32.270  33.908  28.424  1.00  0.00    -0.460 OA
BRANCH  36  37
ATOM     37  C   UNL A   1      33.205  34.838  28.725  1.00  0.00     0.338 C 
ATOM     38  O   UNL A   1      33.030  36.040  28.854  1.00  0.00    -0.246 OA
BRANCH  37  39
ATOM     39  C   UNL A   1      34.447  34.125  29.107  1.00  0.00     0.060 A 
ATOM     40  C   UNL A   1      34.417  33.205  30.168  1.00  0.00     0.016 A 
ATOM     41  C   UNL A   1      35.634  34.344  28.405  1.00  0.00     0.016 A 
ATOM     42  C   UNL A   1      35.575  32.515  30.537  1.00  0.00     0.010 A 
ATOM     43  C   UNL A   1      36.799  33.676  28.796  1.00  0.00     0.010 A 
ATOM     44  C   UNL A   1      36.783  32.778  29.880  1.00  0.00    -0.014 A 
BRANCH  44  45
ATOM     45  C   UNL A   1      38.067  32.277  30.433  1.00  0.00     0.031 A 
ATOM     46  C   UNL A   1      38.637  31.004  29.865  1.00  0.00     0.074 A 
ATOM     47  C   UNL A   1      38.715  32.917  31.422  1.00  0.00     0.049 A 
ATOM     48  N   UNL A   1      39.679  30.313  30.253  1.00  0.00    -0.248 NA
ATOM     49  C   UNL A   1      37.930  30.432  28.708  1.00  0.00     0.031 C 
ATOM     50  C   UNL A   1      38.310  34.186  32.023  1.00  0.00     0.029 A 
ATOM     51  N   UNL A   1      39.854  32.567  32.107  1.00  0.00    -0.354 N 
ATOM     52  C   UNL A   1      39.742  29.219  29.399  1.00  0.00     0.074 A 
ATOM     53  C   UNL A   1      38.621  29.325  28.490  1.00  0.00     0.031 C 
ATOM     54  C   UNL A   1      39.177  34.499  33.003  1.00  0.00     0.029 A 
ATOM     55  C   UNL A   1      40.172  33.433  33.125  1.00  0.00     0.049 A 
ATOM     56  H   UNL A   1      40.391  31.772  31.889  1.00  0.00     0.167 HD
ATOM     57  C   UNL A   1      40.648  28.213  29.372  1.00  0.00     0.031 A 
ATOM     58  C   UNL A   1      41.133  33.357  34.068  1.00  0.00     0.031 A 
ATOM     59  C   UNL A   1      41.752  28.094  30.286  1.00  0.00     0.049 A 
ATOM     60  C   UNL A   1      42.072  32.176  34.081  1.00  0.00     0.074 A 
ATOM     61  C   UNL A   1      42.732  27.118  30.329  1.00  0.00     0.029 A 
ATOM     62  N   UNL A   1      42.015  28.973  31.325  1.00  0.00    -0.354 N 
ATOM     63  N   UNL A   1      42.136  31.157  33.257  1.00  0.00    -0.248 NA
ATOM     64  C   UNL A   1      43.075  32.137  35.157  1.00  0.00     0.031 C 
ATOM     65  C   UNL A   1      43.548  27.367  31.436  1.00  0.00     0.029 A 
ATOM     66  C   UNL A   1      43.122  28.542  32.037  1.00  0.00     0.049 A 
ATOM     67  H   UNL A   1      41.493  29.782  31.527  1.00  0.00     0.167 HD
ATOM     68  C   UNL A   1      43.204  30.381  33.693  1.00  0.00     0.074 A 
ATOM     69  C   UNL A   1      43.767  31.050  34.845  1.00  0.00     0.031 C 
ATOM     70  C   UNL A   1      43.678  29.217  33.182  1.00  0.00     0.031 A 
BRANCH  57  71
ATOM     71  C   UNL A   1      40.453  27.132  28.346  1.00  0.00    -0.014 A 
ATOM     72  C   UNL A   1      39.690  25.986  28.621  1.00  0.00     0.009 A 
ATOM     73  C   UNL A   1      41.018  27.280  27.069  1.00  0.00     0.009 A 
ATOM     74  C   UNL A   1      39.527  24.997  27.650  1.00  0.00     0.001 A 
ATOM     75  C   UNL A   1      40.827  26.305  26.090  1.00  0.00     0.001 A 
ATOM     76  C   UNL A   1      40.089  25.159  26.384  1.00  0.00     0.000 A 
ENDBRANCH  57  71
BRANCH  58  77
ATOM     77  C   UNL A   1      41.244  34.411  35.113  1.00  0.00    -0.014 A 
ATOM     78  C   UNL A   1      40.470  34.348  36.282  1.00  0.00     0.009 A 
ATOM     79  C   UNL A   1      42.101  35.508  34.930  1.00  0.00     0.009 A 
ATOM     80  C   UNL A   1      40.529  35.375  37.229  1.00  0.00     0.001 A 
ATOM     81  C   UNL A   1      42.185  36.515  35.893  1.00  0.00     0.001 A 
ATOM     82  C   UNL A   1      41.390  36.454  37.036  1.00  0.00     0.000 A 
ENDBRANCH  58  77
BRANCH  70  83
ATOM     83  C   UNL A   1      44.895  28.612  33.830  1.00  0.00    -0.014 A 
ATOM     84  C   UNL A   1      46.191  29.028  33.494  1.00  0.00     0.009 A 
ATOM     85  C   UNL A   1      44.733  27.644  34.835  1.00  0.00     0.009 A 
ATOM     86  C   UNL A   1      47.302  28.465  34.128  1.00  0.00     0.001 A 
ATOM     87  C   UNL A   1      45.842  27.108  35.492  1.00  0.00     0.001 A 
ATOM     88  C   UNL A   1      47.126  27.511  35.130  1.00  0.00     0.000 A 
ENDBRANCH  70  83
ENDBRANCH  44  45
ENDBRANCH  37  39
ENDBRANCH  36  37
ENDBRANCH  35  36
ENDBRANCH  34  35
ENDBRANCH  33  34
ENDBRANCH  32  33
ENDBRANCH  31  32
ENDBRANCH   1  31
TORSDOF 23
ENDMDL
MODEL 3
REMARK VINA RESULT:     -10.1      1.946      5.081
REMARK SMILES COc1cccc(-c2ccc(=O)n(CC(=O)N[C@@H](C(=O)OCCOCCOCCOC(=O)c3ccc(-c4c5nc(c(-c6ccccc6)c6ccc([nH]6)c(-c6ccccc6)c6nc(c(-c7ccccc7)c7ccc4[nH]7)C=C6)C=C5)cc3)C(C)C)n2)c1
REMARK SMILES IDX 24 1 23 2 22 3 21 4 19 5 20 6 18 7 17 8 15 9 16 10 14 12
REMARK SMILES IDX 13 13 8 14 9 15 84 16 10 17 11 18 12 19 7 20 3 21 4 22 85 23
REMARK SMILES IDX 5 24 6 25 2 26 1 27 81 28 82 29 83 30 25 31 26 32 27 33
REMARK SMILES IDX 28 34 29 35 30 36 31 37 32 38 33 39 34 40 80 41 35 42 79 43
REMARK SMILES IDX 36 44 37 45 38 46 73 47 39 48 78 49 72 50 74 51 40 52 77 53
REMARK SMILES IDX 71 54 70 55 41 57 63 58 48 59 62 60 49 61 52 62 61 63 75 64
REMARK SMILES IDX 50 65 51 66 60 68 76 69 53 70 42 71 43 72 47 73 44 74 46 75
REMARK SMILES IDX 45 76 64 77 65 78 69 79 66 80 68 81 67 82 54 83 55 84 59 85
REMARK SMILES IDX 56 86 58 87 57 88
REMARK H PARENT 17 11 74 56 52 67
REMARK Flexibility Score: inf
ROOT
ATOM      1  O   UNL A   1      32.993  27.659  26.772  1.00  0.00    -0.376 OA
ENDROOT
BRANCH   1   2
ATOM      2  C   UNL A   1      32.953  26.448  26.031  1.00  0.00     0.202 C 
BRANCH   2   3
ATOM      3  C   UNL A   1      34.264  25.694  25.752  1.00  0.00     0.261 C 
BRANCH   3   4
ATOM      4  O   UNL A   1      34.264  24.256  25.918  1.00  0.00    -0.462 OA
BRANCH   4   5
ATOM      5  C   UNL A   1      34.639  23.517  24.835  1.00  0.00     0.328 C 
ATOM      6  O   UNL A   1      35.770  23.578  24.362  1.00  0.00    -0.250 OA
BRANCH   5   7
ATOM      7  C   UNL A   1      33.551  22.541  24.274  1.00  0.00     0.194 C 
BRANCH   7   8
ATOM      8  N   UNL A   1      32.159  23.035  24.183  1.00  0.00    -0.341 N 
ATOM      9  C   UNL A   1      31.531  23.755  23.211  1.00  0.00     0.242 C 
ATOM     10  O   UNL A   1      30.298  23.673  23.177  1.00  0.00    -0.273 OA
ATOM     11  H   UNL A   1      31.592  22.806  24.954  1.00  0.00     0.164 HD
BRANCH   9  12
ATOM     12  C   UNL A   1      32.305  24.471  22.112  1.00  0.00     0.248 C 
BRANCH  12  13
ATOM     13  N   UNL A   1      32.281  25.907  22.332  1.00  0.00    -0.220 N 
ATOM     14  C   UNL A   1      31.009  27.792  22.531  1.00  0.00     0.091 A 
ATOM     15  C   UNL A   1      32.195  28.668  22.544  1.00  0.00     0.036 A 
ATOM     16  N   UNL A   1      31.047  26.499  22.449  1.00  0.00    -0.169 NA
ATOM     17  C   UNL A   1      33.383  28.060  22.507  1.00  0.00     0.075 A 
ATOM     18  C   UNL A   1      33.485  26.589  22.421  1.00  0.00     0.267 A 
ATOM     19  O   UNL A   1      34.595  26.067  22.401  1.00  0.00    -0.268 OA
BRANCH  14  20
ATOM     20  C   UNL A   1      29.689  28.453  22.608  1.00  0.00     0.006 A 
ATOM     21  C   UNL A   1      28.368  30.433  22.244  1.00  0.00     0.119 A 
ATOM     22  C   UNL A   1      27.304  29.846  22.930  1.00  0.00     0.046 A 
ATOM     23  C   UNL A   1      29.580  29.756  22.123  1.00  0.00     0.056 A 
ATOM     24  C   UNL A   1      27.419  28.549  23.427  1.00  0.00     0.005 A 
ATOM     25  C   UNL A   1      28.603  27.840  23.239  1.00  0.00     0.011 A 
BRANCH  21  26
ATOM     26  O   UNL A   1      28.159  31.695  21.760  1.00  0.00    -0.497 OA
ATOM     27  C   UNL A   1      28.769  32.709  22.557  1.00  0.00     0.278 C 
ENDBRANCH  21  26
ENDBRANCH  14  20
ENDBRANCH  12  13
ENDBRANCH   9  12
ENDBRANCH   7   8
BRANCH   7  28
ATOM     28  C   UNL A   1      33.525  21.209  25.094  1.00  0.00     0.017 C 
ATOM     29  C   UNL A   1      32.202  20.457  24.877  1.00  0.00     0.010 C 
ATOM     30  C   UNL A   1      34.679  20.256  24.761  1.00  0.00     0.010 C 
ENDBRANCH   7  28
ENDBRANCH   5   7
ENDBRANCH   4   5
ENDBRANCH   3   4
ENDBRANCH   2   3
ENDBRANCH   1   2
BRANCH   1  31
ATOM     31  C   UNL A   1      32.130  28.725  26.400  1.00  0.00     0.188 C 
BRANCH  31  32
ATOM     32  C   UNL A   1      32.461  30.166  26.838  1.00  0.00     0.188 C 
BRANCH  32  33
ATOM     33  O   UNL A   1      31.732  31.159  26.160  1.00  0.00    -0.376 OA
BRANCH  33  34
ATOM     34  C   UNL A   1      31.454  32.361  26.849  1.00  0.00     0.202 C 
BRANCH  34  35
ATOM     35  C   UNL A   1      32.628  33.199  27.388  1.00  0.00     0.261 C 
BRANCH  35  36
ATOM     36  O   UNL A   1      32.330  34.169  28.409  1.00  0.00    -0.460 OA
BRANCH  36  37
ATOM     37  C   UNL A   1      33.260  35.114  28.672  1.00  0.00     0.338 C 
ATOM     38  O   UNL A   1      33.128  36.325  28.566  1.00  0.00    -0.246 OA
BRANCH  37  39
ATOM     39  C   UNL A   1      34.406  34.451  29.340  1.00  0.00     0.060 A 
ATOM     40  C   UNL A   1      35.655  34.419  28.700  1.00  0.00     0.016 A 
ATOM     41  C   UNL A   1      34.254  33.885  30.607  1.00  0.00     0.016 A 
ATOM     42  C   UNL A   1      36.750  33.808  29.318  1.00  0.00     0.010 A 
ATOM     43  C   UNL A   1      35.342  33.245  31.210  1.00  0.00     0.010 A 
ATOM     44  C   UNL A   1      36.589  33.180  30.559  1.00  0.00    -0.014 A 
BRANCH  44  45
ATOM     45  C   UNL A   1      37.649  32.291  31.097  1.00  0.00     0.031 A 
ATOM     46  C   UNL A   1      38.181  32.571  32.477  1.00  0.00     0.074 A 
ATOM     47  C   UNL A   1      38.147  31.264  30.385  1.00  0.00     0.049 A 
ATOM     48  N   UNL A   1      39.174  32.009  33.117  1.00  0.00    -0.248 NA
ATOM     49  C   UNL A   1      37.501  33.636  33.233  1.00  0.00     0.031 C 
ATOM     50  C   UNL A   1      37.687  30.843  29.064  1.00  0.00     0.029 A 
ATOM     51  N   UNL A   1      39.171  30.396  30.679  1.00  0.00    -0.354 N 
ATOM     52  C   UNL A   1      39.249  32.661  34.342  1.00  0.00     0.074 A 
ATOM     53  C   UNL A   1      38.218  33.676  34.346  1.00  0.00     0.031 C 
ATOM     54  C   UNL A   1      38.440  29.807  28.651  1.00  0.00     0.029 A 
ATOM     55  C   UNL A   1      39.460  29.522  29.659  1.00  0.00     0.049 A 
ATOM     56  H   UNL A   1      39.652  30.400  31.538  1.00  0.00     0.167 HD
ATOM     57  C   UNL A   1      40.099  32.440  35.372  1.00  0.00     0.031 A 
ATOM     58  C   UNL A   1      40.456  28.620  29.539  1.00  0.00     0.031 A 
ATOM     59  C   UNL A   1      41.137  31.445  35.364  1.00  0.00     0.049 A 
ATOM     60  C   UNL A   1      41.454  28.457  30.660  1.00  0.00     0.074 A 
ATOM     61  C   UNL A   1      42.040  31.136  36.367  1.00  0.00     0.029 A 
ATOM     62  N   UNL A   1      41.421  30.607  34.297  1.00  0.00    -0.354 N 
ATOM     63  N   UNL A   1      41.503  29.064  31.821  1.00  0.00    -0.248 NA
ATOM     64  C   UNL A   1      42.534  27.480  30.450  1.00  0.00     0.031 C 
ATOM     65  C   UNL A   1      42.914  30.159  35.881  1.00  0.00     0.029 A 
ATOM     66  C   UNL A   1      42.506  29.805  34.605  1.00  0.00     0.049 A 
ATOM     67  H   UNL A   1      40.923  30.585  33.448  1.00  0.00     0.167 HD
ATOM     68  C   UNL A   1      42.592  28.519  32.491  1.00  0.00     0.074 A 
ATOM     69  C   UNL A   1      43.169  27.523  31.613  1.00  0.00     0.031 C 
ATOM     70  C   UNL A   1      43.072  28.813  33.725  1.00  0.00     0.031 A 
BRANCH  57  71
ATOM     71  C   UNL A   1      39.970  33.326  36.579  1.00  0.00    -0.014 A 
ATOM     72  C   UNL A   1      40.745  34.488  36.724  1.00  0.00     0.009 A 
ATOM     73  C   UNL A   1      39.033  33.008  37.574  1.00  0.00     0.009 A 
ATOM     74  C   UNL A   1      40.607  35.293  37.857  1.00  0.00     0.001 A 
ATOM     75  C   UNL A   1      38.874  33.831  38.690  1.00  0.00     0.001 A 
ATOM     76  C   UNL A   1      39.668  34.968  38.835  1.00  0.00     0.000 A 
ENDBRANCH  57  71
BRANCH  58  77
ATOM     77  C   UNL A   1      40.593  27.814  28.294  1.00  0.00    -0.014 A 
ATOM     78  C   UNL A   1      40.021  26.536  28.200  1.00  0.00     0.009 A 
ATOM     79  C   UNL A   1      41.330  28.306  27.205  1.00  0.00     0.009 A 
ATOM     80  C   UNL A   1      40.209  25.757  27.055  1.00  0.00     0.001 A 
ATOM     81  C   UNL A   1      41.487  27.540  26.049  1.00  0.00     0.001 A 
ATOM     82  C   UNL A   1      40.937  26.261  25.979  1.00  0.00     0.000 A 
ENDBRANCH  58  77
BRANCH  70  83
ATOM     83  C   UNL A   1      44.249  28.021  34.227  1.00  0.00    -0.014 A 
ATOM     84  C   UNL A   1      44.081  26.849  34.980  1.00  0.00     0.009 A 
ATOM     85  C   UNL A   1      45.551  28.429  33.891  1.00  0.00     0.009 A 
ATOM     86  C   UNL A   1      45.192  26.121  35.413  1.00  0.00     0.001 A 
ATOM     87  C   UNL A   1      46.658  27.681  34.296  1.00  0.00     0.001 A 
ATOM     88  C   UNL A   1      46.478  26.534  35.065  1.00  0.00     0.000 A 
ENDBRANCH  70  83
ENDBRANCH  44  45
ENDBRANCH  37  39
ENDBRANCH  36  37
ENDBRANCH  35  36
ENDBRANCH  34  35
ENDBRANCH  33  34
ENDBRANCH  32  33
ENDBRANCH  31  32
ENDBRANCH   1  31
TORSDOF 23
ENDMDL
