MODEL 1
REMARK VINA RESULT:      -9.0      0.000      0.000
REMARK SMILES O=C(N/N=C/c1ccc(C(=O)OCCOCCOCCOC(=O)c2ccc(-c3c4nc(c(-c5ccccc5)c5ccc([nH]5)c(-c5ccccc5)c5nc(c(-c6ccccc6)c6ccc3[nH]6)C=C5)C=C4)cc2)cc1)C(=O)Nc1ccc2c(c1)OCO2
REMARK SMILES IDX 16 1 15 2 14 3 13 4 12 5 10 6 11 7 9 8 6 9 7 10 73 11 8 12
REMARK SMILES IDX 72 13 5 14 4 15 3 16 1 17 2 18 74 20 75 21 76 22 77 24 78 25
REMARK SMILES IDX 82 26 79 27 81 28 80 29 83 30 85 31 84 32 17 33 18 34 19 35
REMARK SMILES IDX 20 36 21 37 22 38 23 39 24 40 25 41 71 42 26 43 70 44 27 45
REMARK SMILES IDX 28 46 29 47 64 48 30 49 69 50 63 51 65 52 31 53 68 54 62 55
REMARK SMILES IDX 61 56 32 58 54 59 39 60 53 61 40 62 43 63 52 64 66 65 41 66
REMARK SMILES IDX 42 67 51 69 67 70 44 71 33 72 34 73 38 74 35 75 37 76 36 77
REMARK SMILES IDX 55 78 56 79 60 80 57 81 59 82 58 83 45 84 46 85 50 86 47 87
REMARK SMILES IDX 49 88 48 89
REMARK H PARENT 3 19 76 23 65 57 43 68
REMARK Flexibility Score: inf
ROOT
ATOM      1  C   UNL A   1      34.360  34.386  31.961  1.00  0.00     0.188 C 
ENDROOT
BRANCH   1   2
ATOM      2  O   UNL A   1      34.208  33.570  30.812  1.00  0.00    -0.376 OA
BRANCH   2   3
ATOM      3  C   UNL A   1      35.352  33.147  30.080  1.00  0.00     0.202 C 
BRANCH   3   4
ATOM      4  C   UNL A   1      35.546  31.677  29.684  1.00  0.00     0.261 C 
BRANCH   4   5
ATOM      5  O   UNL A   1      36.872  31.181  29.917  1.00  0.00    -0.460 OA
BRANCH   5   6
ATOM      6  C   UNL A   1      36.936  30.014  30.601  1.00  0.00     0.338 C 
ATOM      7  O   UNL A   1      36.243  29.674  31.546  1.00  0.00    -0.246 OA
BRANCH   6   8
ATOM      8  C   UNL A   1      37.856  29.075  29.930  1.00  0.00     0.060 A 
ATOM      9  C   UNL A   1      39.372  26.955  28.293  1.00  0.00    -0.005 A 
ATOM     10  C   UNL A   1      38.953  28.344  27.881  1.00  0.00     0.010 A 
ATOM     11  C   UNL A   1      39.191  27.064  29.803  1.00  0.00     0.010 A 
ATOM     12  C   UNL A   1      38.190  29.296  28.611  1.00  0.00     0.016 A 
ATOM     13  C   UNL A   1      38.462  28.022  30.564  1.00  0.00     0.016 A 
BRANCH   9  14
ATOM     14  C   UNL A   1      39.879  25.279  27.061  1.00  0.00     0.141 C 
ATOM     15  N   UNL A   1      40.551  24.084  27.202  1.00  0.00    -0.180 NA
BRANCH  15  16
ATOM     16  N   UNL A   1      41.088  23.639  26.042  1.00  0.00    -0.239 N 
ATOM     17  O   UNL A   1      42.763  22.645  24.880  1.00  0.00    -0.262 OA
ATOM     18  C   UNL A   1      42.291  22.948  25.975  1.00  0.00     0.329 C 
ATOM     19  H   UNL A   1      40.602  23.812  25.204  1.00  0.00     0.194 HD
BRANCH  18  20
ATOM     20  C   UNL A   1      43.007  22.440  27.259  1.00  0.00     0.315 C 
ATOM     21  O   UNL A   1      42.462  21.543  27.903  1.00  0.00    -0.263 OA
ATOM     22  N   UNL A   1      44.287  22.846  27.649  1.00  0.00    -0.318 N 
ATOM     23  H   UNL A   1      44.904  22.166  28.005  1.00  0.00     0.170 HD
BRANCH  22  24
ATOM     24  C   UNL A   1      44.738  24.175  27.562  1.00  0.00     0.045 A 
ATOM     25  C   UNL A   1      45.472  24.673  25.944  1.00  0.00     0.030 A 
ATOM     26  C   UNL A   1      43.848  25.399  28.596  1.00  0.00     0.076 A 
ATOM     27  C   UNL A   1      45.245  26.394  25.346  1.00  0.00     0.053 A 
ATOM     28  C   UNL A   1      43.512  27.034  27.887  1.00  0.00     0.167 A 
ATOM     29  C   UNL A   1      44.192  27.506  26.292  1.00  0.00     0.165 A 
ATOM     30  O   UNL A   1      42.640  28.013  28.234  1.00  0.00    -0.454 OA
ATOM     31  O   UNL A   1      43.649  28.706  25.985  1.00  0.00    -0.454 OA
ATOM     32  C   UNL A   1      42.567  28.809  26.989  1.00  0.00     0.468 C 
ENDBRANCH  22  24
ENDBRANCH  18  20
ENDBRANCH  15  16
ENDBRANCH   9  14
ENDBRANCH   6   8
ENDBRANCH   5   6
ENDBRANCH   4   5
ENDBRANCH   3   4
ENDBRANCH   2   3
ENDBRANCH   1   2
BRANCH   1  33
ATOM     33  C   UNL A   1      34.160  33.792  33.372  1.00  0.00     0.188 C 
BRANCH  33  34
ATOM     34  O   UNL A   1      35.211  33.021  33.895  1.00  0.00    -0.376 OA
BRANCH  34  35
ATOM     35  C   UNL A   1      36.146  33.598  34.791  1.00  0.00     0.202 C 
BRANCH  35  36
ATOM     36  C   UNL A   1      37.633  33.210  34.939  1.00  0.00     0.261 C 
BRANCH  36  37
ATOM     37  O   UNL A   1      38.063  32.585  36.150  1.00  0.00    -0.460 OA
BRANCH  37  38
ATOM     38  C   UNL A   1      38.374  31.269  36.053  1.00  0.00     0.338 C 
ATOM     39  O   UNL A   1      37.837  30.336  36.623  1.00  0.00    -0.246 OA
BRANCH  38  40
ATOM     40  C   UNL A   1      39.373  31.095  34.982  1.00  0.00     0.060 A 
ATOM     41  C   UNL A   1      39.025  30.340  33.854  1.00  0.00     0.016 A 
ATOM     42  C   UNL A   1      40.654  31.634  35.110  1.00  0.00     0.016 A 
ATOM     43  C   UNL A   1      39.972  30.097  32.858  1.00  0.00     0.010 A 
ATOM     44  C   UNL A   1      41.606  31.372  34.122  1.00  0.00     0.010 A 
ATOM     45  C   UNL A   1      41.280  30.579  33.007  1.00  0.00    -0.014 A 
BRANCH  45  46
ATOM     46  C   UNL A   1      42.355  30.106  32.101  1.00  0.00     0.031 A 
ATOM     47  C   UNL A   1      43.058  28.818  32.431  1.00  0.00     0.074 A 
ATOM     48  C   UNL A   1      42.703  30.799  31.004  1.00  0.00     0.049 A 
ATOM     49  N   UNL A   1      44.067  28.244  31.827  1.00  0.00    -0.248 NA
ATOM     50  C   UNL A   1      42.553  28.080  33.600  1.00  0.00     0.031 C 
ATOM     51  C   UNL A   1      42.067  32.030  30.539  1.00  0.00     0.029 A 
ATOM     52  N   UNL A   1      43.693  30.561  30.083  1.00  0.00    -0.354 N 
ATOM     53  C   UNL A   1      44.322  27.083  32.546  1.00  0.00     0.074 A 
ATOM     54  C   UNL A   1      43.383  27.050  33.648  1.00  0.00     0.031 C 
ATOM     55  C   UNL A   1      42.688  32.443  29.420  1.00  0.00     0.029 A 
ATOM     56  C   UNL A   1      43.788  31.529  29.115  1.00  0.00     0.049 A 
ATOM     57  H   UNL A   1      44.279  29.771  30.115  1.00  0.00     0.167 HD
ATOM     58  C   UNL A   1      45.251  26.125  32.313  1.00  0.00     0.031 A 
ATOM     59  C   UNL A   1      44.677  31.672  28.112  1.00  0.00     0.031 A 
ATOM     60  C   UNL A   1      46.207  26.167  31.239  1.00  0.00     0.049 A 
ATOM     61  C   UNL A   1      45.773  30.653  27.938  1.00  0.00     0.074 A 
ATOM     62  C   UNL A   1      47.189  25.248  30.921  1.00  0.00     0.029 A 
ATOM     63  N   UNL A   1      46.304  27.194  30.313  1.00  0.00    -0.354 N 
ATOM     64  N   UNL A   1      45.998  29.553  28.615  1.00  0.00    -0.248 NA
ATOM     65  C   UNL A   1      46.738  30.897  26.855  1.00  0.00     0.031 C 
ATOM     66  C   UNL A   1      47.920  25.745  29.837  1.00  0.00     0.029 A 
ATOM     67  C   UNL A   1      47.349  26.943  29.439  1.00  0.00     0.049 A 
ATOM     68  H   UNL A   1      45.718  27.984  30.280  1.00  0.00     0.167 HD
ATOM     69  C   UNL A   1      47.104  28.957  28.019  1.00  0.00     0.074 A 
ATOM     70  C   UNL A   1      47.499  29.815  26.920  1.00  0.00     0.031 C 
ATOM     71  C   UNL A   1      47.732  27.802  28.347  1.00  0.00     0.031 A 
BRANCH  58  72
ATOM     72  C   UNL A   1      45.300  24.970  33.274  1.00  0.00    -0.014 A 
ATOM     73  C   UNL A   1      46.108  25.008  34.422  1.00  0.00     0.009 A 
ATOM     74  C   UNL A   1      44.516  23.830  33.033  1.00  0.00     0.009 A 
ATOM     75  C   UNL A   1      46.165  23.911  35.283  1.00  0.00     0.001 A 
ATOM     76  C   UNL A   1      44.551  22.748  33.914  1.00  0.00     0.001 A 
ATOM     77  C   UNL A   1      45.383  22.784  35.030  1.00  0.00     0.000 A 
ENDBRANCH  58  72
BRANCH  59  78
ATOM     78  C   UNL A   1      44.584  32.837  27.192  1.00  0.00    -0.014 A 
ATOM     79  C   UNL A   1      45.137  34.075  27.554  1.00  0.00     0.009 A 
ATOM     80  C   UNL A   1      43.916  32.727  25.963  1.00  0.00     0.009 A 
ATOM     81  C   UNL A   1      45.004  35.183  26.714  1.00  0.00     0.001 A 
ATOM     82  C   UNL A   1      43.810  33.829  25.113  1.00  0.00     0.001 A 
ATOM     83  C   UNL A   1      44.345  35.058  25.492  1.00  0.00     0.000 A 
ENDBRANCH  59  78
BRANCH  71  84
ATOM     84  C   UNL A   1      48.882  27.365  27.481  1.00  0.00    -0.014 A 
ATOM     85  C   UNL A   1      50.204  27.736  27.771  1.00  0.00     0.009 A 
ATOM     86  C   UNL A   1      48.638  26.528  26.379  1.00  0.00     0.009 A 
ATOM     87  C   UNL A   1      51.254  27.304  26.957  1.00  0.00     0.001 A 
ATOM     88  C   UNL A   1      49.692  26.072  25.586  1.00  0.00     0.001 A 
ATOM     89  C   UNL A   1      50.998  26.469  25.869  1.00  0.00     0.000 A 
ENDBRANCH  71  84
ENDBRANCH  45  46
ENDBRANCH  38  40
ENDBRANCH  37  38
ENDBRANCH  36  37
ENDBRANCH  35  36
ENDBRANCH  34  35
ENDBRANCH  33  34
ENDBRANCH   1  33
TORSDOF 21
ENDMDL
MODEL 2
REMARK VINA RESULT:      -8.9      1.736      6.195
REMARK SMILES O=C(N/N=C/c1ccc(C(=O)OCCOCCOCCOC(=O)c2ccc(-c3c4nc(c(-c5ccccc5)c5ccc([nH]5)c(-c5ccccc5)c5nc(c(-c6ccccc6)c6ccc3[nH]6)C=C5)C=C4)cc2)cc1)C(=O)Nc1ccc2c(c1)OCO2
REMARK SMILES IDX 16 1 15 2 14 3 13 4 12 5 10 6 11 7 9 8 6 9 7 10 73 11 8 12
REMARK SMILES IDX 72 13 5 14 4 15 3 16 1 17 2 18 74 20 75 21 76 22 77 24 78 25
REMARK SMILES IDX 82 26 79 27 81 28 80 29 83 30 85 31 84 32 17 33 18 34 19 35
REMARK SMILES IDX 20 36 21 37 22 38 23 39 24 40 25 41 71 42 26 43 70 44 27 45
REMARK SMILES IDX 28 46 29 47 64 48 30 49 69 50 63 51 65 52 31 53 68 54 62 55
REMARK SMILES IDX 61 56 32 58 54 59 39 60 53 61 40 62 43 63 52 64 66 65 41 66
REMARK SMILES IDX 42 67 51 69 67 70 44 71 33 72 34 73 38 74 35 75 37 76 36 77
REMARK SMILES IDX 55 78 56 79 60 80 57 81 59 82 58 83 45 84 46 85 50 86 47 87
REMARK SMILES IDX 49 88 48 89
REMARK H PARENT 3 19 76 23 65 57 43 68
REMARK Flexibility Score: inf
ROOT
ATOM      1  C   UNL A   1      32.862  36.111  31.239  1.00  0.00     0.188 C 
ENDROOT
BRANCH   1   2
ATOM      2  O   UNL A   1      32.790  36.299  29.835  1.00  0.00    -0.376 OA
BRANCH   2   3
ATOM      3  C   UNL A   1      32.774  35.175  28.964  1.00  0.00     0.202 C 
BRANCH   3   4
ATOM      4  C   UNL A   1      34.077  34.540  28.460  1.00  0.00     0.261 C 
BRANCH   4   5
ATOM      5  O   UNL A   1      34.075  33.106  28.488  1.00  0.00    -0.460 OA
BRANCH   5   6
ATOM      6  C   UNL A   1      34.780  32.551  29.502  1.00  0.00     0.338 C 
ATOM      7  O   UNL A   1      34.471  32.514  30.682  1.00  0.00    -0.246 OA
BRANCH   6   8
ATOM      8  C   UNL A   1      35.932  31.794  28.973  1.00  0.00     0.060 A 
ATOM      9  C   UNL A   1      38.112  29.821  28.062  1.00  0.00    -0.005 A 
ATOM     10  C   UNL A   1      36.791  30.139  27.405  1.00  0.00     0.010 A 
ATOM     11  C   UNL A   1      38.213  30.997  29.028  1.00  0.00     0.010 A 
ATOM     12  C   UNL A   1      35.754  30.996  27.863  1.00  0.00     0.016 A 
ATOM     13  C   UNL A   1      37.201  31.891  29.480  1.00  0.00     0.016 A 
BRANCH   9  14
ATOM     14  C   UNL A   1      39.356  28.097  27.819  1.00  0.00     0.141 C 
ATOM     15  N   UNL A   1      40.700  27.831  27.659  1.00  0.00    -0.180 NA
BRANCH  15  16
ATOM     16  N   UNL A   1      40.935  26.675  26.994  1.00  0.00    -0.239 N 
ATOM     17  O   UNL A   1      41.882  25.523  25.286  1.00  0.00    -0.262 OA
ATOM     18  C   UNL A   1      41.777  26.588  25.894  1.00  0.00     0.329 C 
ATOM     19  H   UNL A   1      40.488  25.857  27.308  1.00  0.00     0.194 HD
BRANCH  18  20
ATOM     20  C   UNL A   1      42.689  27.775  25.474  1.00  0.00     0.315 C 
ATOM     21  O   UNL A   1      42.241  28.584  24.660  1.00  0.00    -0.263 OA
ATOM     22  N   UNL A   1      43.928  28.051  26.061  1.00  0.00    -0.318 N 
ATOM     23  H   UNL A   1      44.156  28.989  26.250  1.00  0.00     0.170 HD
BRANCH  22  24
ATOM     24  C   UNL A   1      44.866  27.057  26.393  1.00  0.00     0.045 A 
ATOM     25  C   UNL A   1      44.459  26.025  27.868  1.00  0.00     0.030 A 
ATOM     26  C   UNL A   1      45.821  26.350  24.998  1.00  0.00     0.076 A 
ATOM     27  C   UNL A   1      44.964  24.260  27.897  1.00  0.00     0.053 A 
ATOM     28  C   UNL A   1      46.151  24.567  25.004  1.00  0.00     0.167 A 
ATOM     29  C   UNL A   1      45.717  23.553  26.423  1.00  0.00     0.165 A 
ATOM     30  O   UNL A   1      46.525  23.708  24.023  1.00  0.00    -0.454 OA
ATOM     31  O   UNL A   1      45.954  22.271  26.064  1.00  0.00    -0.454 OA
ATOM     32  C   UNL A   1      46.143  22.401  24.602  1.00  0.00     0.468 C 
ENDBRANCH  22  24
ENDBRANCH  18  20
ENDBRANCH  15  16
ENDBRANCH   9  14
ENDBRANCH   6   8
ENDBRANCH   5   6
ENDBRANCH   4   5
ENDBRANCH   3   4
ENDBRANCH   2   3
ENDBRANCH   1   2
BRANCH   1  33
ATOM     33  C   UNL A   1      34.207  36.273  31.979  1.00  0.00     0.188 C 
BRANCH  33  34
ATOM     34  O   UNL A   1      34.216  35.995  33.356  1.00  0.00    -0.376 OA
BRANCH  34  35
ATOM     35  C   UNL A   1      34.488  34.684  33.820  1.00  0.00     0.202 C 
BRANCH  35  36
ATOM     36  C   UNL A   1      35.747  33.846  33.513  1.00  0.00     0.261 C 
BRANCH  36  37
ATOM     37  O   UNL A   1      36.928  34.071  34.287  1.00  0.00    -0.460 OA
BRANCH  37  38
ATOM     38  C   UNL A   1      37.447  32.976  34.896  1.00  0.00     0.338 C 
ATOM     39  O   UNL A   1      36.972  32.349  35.826  1.00  0.00    -0.246 OA
BRANCH  38  40
ATOM     40  C   UNL A   1      38.624  32.521  34.132  1.00  0.00     0.060 A 
ATOM     41  C   UNL A   1      38.459  31.498  33.188  1.00  0.00     0.016 A 
ATOM     42  C   UNL A   1      39.885  33.067  34.375  1.00  0.00     0.016 A 
ATOM     43  C   UNL A   1      39.565  30.997  32.502  1.00  0.00     0.010 A 
ATOM     44  C   UNL A   1      40.994  32.549  33.703  1.00  0.00     0.010 A 
ATOM     45  C   UNL A   1      40.845  31.493  32.785  1.00  0.00    -0.014 A 
BRANCH  45  46
ATOM     46  C   UNL A   1      42.046  30.793  32.269  1.00  0.00     0.031 A 
ATOM     47  C   UNL A   1      42.704  31.318  31.022  1.00  0.00     0.074 A 
ATOM     48  C   UNL A   1      42.551  29.713  32.890  1.00  0.00     0.049 A 
ATOM     49  N   UNL A   1      43.719  30.836  30.352  1.00  0.00    -0.248 NA
ATOM     50  C   UNL A   1      42.139  32.555  30.459  1.00  0.00     0.031 C 
ATOM     51  C   UNL A   1      42.045  29.135  34.133  1.00  0.00     0.029 A 
ATOM     52  N   UNL A   1      43.606  28.906  32.545  1.00  0.00    -0.354 N 
ATOM     53  C   UNL A   1      43.909  31.704  29.284  1.00  0.00     0.074 A 
ATOM     54  C   UNL A   1      42.886  32.725  29.380  1.00  0.00     0.031 C 
ATOM     55  C   UNL A   1      42.790  28.058  34.445  1.00  0.00     0.029 A 
ATOM     56  C   UNL A   1      43.795  27.851  33.403  1.00  0.00     0.049 A 
ATOM     57  H   UNL A   1      44.173  29.068  31.757  1.00  0.00     0.167 HD
ATOM     58  C   UNL A   1      44.850  31.663  28.311  1.00  0.00     0.031 A 
ATOM     59  C   UNL A   1      44.665  26.824  33.340  1.00  0.00     0.031 A 
ATOM     60  C   UNL A   1      45.849  30.635  28.194  1.00  0.00     0.049 A 
ATOM     61  C   UNL A   1      45.631  26.735  32.188  1.00  0.00     0.074 A 
ATOM     62  C   UNL A   1      46.844  30.503  27.242  1.00  0.00     0.029 A 
ATOM     63  N   UNL A   1      45.971  29.554  29.053  1.00  0.00    -0.354 N 
ATOM     64  N   UNL A   1      45.811  27.568  31.191  1.00  0.00    -0.248 NA
ATOM     65  C   UNL A   1      46.517  25.562  32.155  1.00  0.00     0.031 C 
ATOM     66  C   UNL A   1      47.533  29.311  27.492  1.00  0.00     0.029 A 
ATOM     67  C   UNL A   1      47.008  28.736  28.638  1.00  0.00     0.049 A 
ATOM     68  H   UNL A   1      45.405  29.392  29.842  1.00  0.00     0.167 HD
ATOM     69  C   UNL A   1      46.852  27.040  30.436  1.00  0.00     0.074 A 
ATOM     70  C   UNL A   1      47.269  25.819  31.094  1.00  0.00     0.031 C 
ATOM     71  C   UNL A   1      47.417  27.524  29.303  1.00  0.00     0.031 A 
BRANCH  58  72
ATOM     72  C   UNL A   1      44.807  32.747  27.271  1.00  0.00    -0.014 A 
ATOM     73  C   UNL A   1      44.127  32.567  26.055  1.00  0.00     0.009 A 
ATOM     74  C   UNL A   1      45.449  33.971  27.515  1.00  0.00     0.009 A 
ATOM     75  C   UNL A   1      44.129  33.574  25.088  1.00  0.00     0.001 A 
ATOM     76  C   UNL A   1      45.421  34.989  26.559  1.00  0.00     0.001 A 
ATOM     77  C   UNL A   1      44.773  34.785  25.343  1.00  0.00     0.000 A 
ENDBRANCH  58  72
BRANCH  59  78
ATOM     78  C   UNL A   1      44.661  25.777  34.396  1.00  0.00    -0.014 A 
ATOM     79  C   UNL A   1      45.478  25.906  35.531  1.00  0.00     0.009 A 
ATOM     80  C   UNL A   1      43.866  24.628  34.262  1.00  0.00     0.009 A 
ATOM     81  C   UNL A   1      45.514  24.899  36.497  1.00  0.00     0.001 A 
ATOM     82  C   UNL A   1      43.883  23.635  35.244  1.00  0.00     0.001 A 
ATOM     83  C   UNL A   1      44.713  23.767  36.355  1.00  0.00     0.000 A 
ENDBRANCH  59  78
BRANCH  71  84
ATOM     84  C   UNL A   1      48.581  26.766  28.726  1.00  0.00    -0.014 A 
ATOM     85  C   UNL A   1      49.893  26.980  29.175  1.00  0.00     0.009 A 
ATOM     86  C   UNL A   1      48.351  25.787  27.746  1.00  0.00     0.009 A 
ATOM     87  C   UNL A   1      50.954  26.252  28.632  1.00  0.00     0.001 A 
ATOM     88  C   UNL A   1      49.407  25.038  27.227  1.00  0.00     0.001 A 
ATOM     89  C   UNL A   1      50.710  25.278  27.663  1.00  0.00     0.000 A 
ENDBRANCH  71  84
ENDBRANCH  45  46
ENDBRANCH  38  40
ENDBRANCH  37  38
ENDBRANCH  36  37
ENDBRANCH  35  36
ENDBRANCH  34  35
ENDBRANCH  33  34
ENDBRANCH   1  33
TORSDOF 21
ENDMDL
MODEL 3
REMARK VINA RESULT:      -8.9      4.011     10.256
REMARK SMILES O=C(N/N=C/c1ccc(C(=O)OCCOCCOCCOC(=O)c2ccc(-c3c4nc(c(-c5ccccc5)c5ccc([nH]5)c(-c5ccccc5)c5nc(c(-c6ccccc6)c6ccc3[nH]6)C=C5)C=C4)cc2)cc1)C(=O)Nc1ccc2c(c1)OCO2
REMARK SMILES IDX 16 1 15 2 14 3 13 4 12 5 10 6 11 7 9 8 6 9 7 10 73 11 8 12
REMARK SMILES IDX 72 13 5 14 4 15 3 16 1 17 2 18 74 20 75 21 76 22 77 24 78 25
REMARK SMILES IDX 82 26 79 27 81 28 80 29 83 30 85 31 84 32 17 33 18 34 19 35
REMARK SMILES IDX 20 36 21 37 22 38 23 39 24 40 25 41 71 42 26 43 70 44 27 45
REMARK SMILES IDX 28 46 29 47 64 48 30 49 69 50 63 51 65 52 31 53 68 54 62 55
REMARK SMILES IDX 61 56 32 58 54 59 39 60 53 61 40 62 43 63 52 64 66 65 41 66
REMARK SMILES IDX 42 67 51 69 67 70 44 71 33 72 34 73 38 74 35 75 37 76 36 77
REMARK SMILES IDX 55 78 56 79 60 80 57 81 59 82 58 83 45 84 46 85 50 86 47 87
REMARK SMILES IDX 49 88 48 89
REMARK H PARENT 3 19 76 23 65 57 43 68
REMARK Flexibility Score: inf
ROOT
ATOM      1  C   UNL A   1      34.600  21.629  24.790  1.00  0.00     0.188 C 
ENDROOT
BRANCH   1   2
ATOM      2  O   UNL A   1      33.415  22.364  25.047  1.00  0.00    -0.376 OA
BRANCH   2   3
ATOM      3  C   UNL A   1      32.661  22.904  23.969  1.00  0.00     0.202 C 
BRANCH   3   4
ATOM      4  C   UNL A   1      31.507  23.886  24.216  1.00  0.00     0.261 C 
BRANCH   4   5
ATOM      5  O   UNL A   1      31.925  25.251  24.358  1.00  0.00    -0.460 OA
BRANCH   5   6
ATOM      6  C   UNL A   1      31.126  26.017  25.140  1.00  0.00     0.338 C 
ATOM      7  O   UNL A   1      29.930  25.874  25.336  1.00  0.00    -0.246 OA
BRANCH   6   8
ATOM      8  C   UNL A   1      31.934  26.980  25.913  1.00  0.00     0.060 A 
ATOM      9  C   UNL A   1      33.487  29.316  27.181  1.00  0.00    -0.005 A 
ATOM     10  C   UNL A   1      32.022  28.977  27.306  1.00  0.00     0.010 A 
ATOM     11  C   UNL A   1      34.011  28.003  26.608  1.00  0.00     0.010 A 
ATOM     12  C   UNL A   1      31.291  27.941  26.663  1.00  0.00     0.016 A 
ATOM     13  C   UNL A   1      33.302  26.935  25.988  1.00  0.00     0.016 A 
BRANCH   9  14
ATOM     14  C   UNL A   1      34.472  31.183  27.532  1.00  0.00     0.141 C 
ATOM     15  N   UNL A   1      34.511  32.138  28.527  1.00  0.00    -0.180 NA
BRANCH  15  16
ATOM     16  N   UNL A   1      34.821  33.371  28.064  1.00  0.00    -0.239 N 
ATOM     17  O   UNL A   1      34.597  35.627  28.116  1.00  0.00    -0.262 OA
ATOM     18  C   UNL A   1      34.342  34.542  28.637  1.00  0.00     0.329 C 
ATOM     19  H   UNL A   1      35.415  33.442  27.283  1.00  0.00     0.194 HD
BRANCH  18  20
ATOM     20  C   UNL A   1      33.587  34.529  29.996  1.00  0.00     0.315 C 
ATOM     21  O   UNL A   1      32.484  35.077  30.046  1.00  0.00    -0.263 OA
ATOM     22  N   UNL A   1      34.021  33.823  31.122  1.00  0.00    -0.318 N 
ATOM     23  H   UNL A   1      33.350  33.343  31.660  1.00  0.00     0.170 HD
BRANCH  22  24
ATOM     24  C   UNL A   1      35.367  33.764  31.528  1.00  0.00     0.045 A 
ATOM     25  C   UNL A   1      35.900  35.045  32.743  1.00  0.00     0.030 A 
ATOM     26  C   UNL A   1      36.135  32.101  31.532  1.00  0.00     0.076 A 
ATOM     27  C   UNL A   1      37.165  34.618  34.004  1.00  0.00     0.053 A 
ATOM     28  C   UNL A   1      37.255  31.680  32.895  1.00  0.00     0.167 A 
ATOM     29  C   UNL A   1      37.743  32.917  34.104  1.00  0.00     0.165 A 
ATOM     30  O   UNL A   1      37.716  30.491  33.359  1.00  0.00    -0.454 OA
ATOM     31  O   UNL A   1      38.452  32.265  35.053  1.00  0.00    -0.454 OA
ATOM     32  C   UNL A   1      38.163  30.852  34.722  1.00  0.00     0.468 C 
ENDBRANCH  22  24
ENDBRANCH  18  20
ENDBRANCH  15  16
ENDBRANCH   9  14
ENDBRANCH   6   8
ENDBRANCH   5   6
ENDBRANCH   4   5
ENDBRANCH   3   4
ENDBRANCH   2   3
ENDBRANCH   1   2
BRANCH   1  33
ATOM     33  C   UNL A   1      35.943  22.073  25.408  1.00  0.00     0.188 C 
BRANCH  33  34
ATOM     34  O   UNL A   1      36.905  21.074  25.630  1.00  0.00    -0.376 OA
BRANCH  34  35
ATOM     35  C   UNL A   1      38.226  21.230  25.138  1.00  0.00     0.202 C 
BRANCH  35  36
ATOM     36  C   UNL A   1      39.518  21.266  25.981  1.00  0.00     0.261 C 
BRANCH  36  37
ATOM     37  O   UNL A   1      40.132  20.029  26.352  1.00  0.00    -0.460 OA
BRANCH  37  38
ATOM     38  C   UNL A   1      41.442  19.903  26.022  1.00  0.00     0.338 C 
ATOM     39  O   UNL A   1      41.952  19.042  25.326  1.00  0.00    -0.246 OA
BRANCH  38  40
ATOM     40  C   UNL A   1      42.166  21.100  26.490  1.00  0.00     0.060 A 
ATOM     41  C   UNL A   1      42.247  21.340  27.868  1.00  0.00     0.016 A 
ATOM     42  C   UNL A   1      42.722  21.997  25.577  1.00  0.00     0.016 A 
ATOM     43  C   UNL A   1      42.862  22.501  28.338  1.00  0.00     0.010 A 
ATOM     44  C   UNL A   1      43.319  23.168  26.049  1.00  0.00     0.010 A 
ATOM     45  C   UNL A   1      43.366  23.440  27.428  1.00  0.00    -0.014 A 
BRANCH  45  46
ATOM     46  C   UNL A   1      43.775  24.787  27.898  1.00  0.00     0.031 A 
ATOM     47  C   UNL A   1      42.703  25.794  28.214  1.00  0.00     0.074 A 
ATOM     48  C   UNL A   1      45.069  25.115  28.046  1.00  0.00     0.049 A 
ATOM     49  N   UNL A   1      42.820  27.046  28.575  1.00  0.00    -0.248 NA
ATOM     50  C   UNL A   1      41.313  25.321  28.109  1.00  0.00     0.031 C 
ATOM     51  C   UNL A   1      46.203  24.220  27.829  1.00  0.00     0.029 A 
ATOM     52  N   UNL A   1      45.644  26.307  28.412  1.00  0.00    -0.354 N 
ATOM     53  C   UNL A   1      41.521  27.513  28.732  1.00  0.00     0.074 A 
ATOM     54  C   UNL A   1      40.633  26.419  28.398  1.00  0.00     0.031 C 
ATOM     55  C   UNL A   1      47.342  24.898  28.060  1.00  0.00     0.029 A 
ATOM     56  C   UNL A   1      47.017  26.282  28.402  1.00  0.00     0.049 A 
ATOM     57  H   UNL A   1      45.121  27.104  28.657  1.00  0.00     0.167 HD
ATOM     58  C   UNL A   1      41.099  28.740  29.121  1.00  0.00     0.031 A 
ATOM     59  C   UNL A   1      47.906  27.270  28.620  1.00  0.00     0.031 A 
ATOM     60  C   UNL A   1      41.976  29.839  29.424  1.00  0.00     0.049 A 
ATOM     61  C   UNL A   1      47.414  28.657  28.943  1.00  0.00     0.074 A 
ATOM     62  C   UNL A   1      41.646  31.121  29.825  1.00  0.00     0.029 A 
ATOM     63  N   UNL A   1      43.359  29.787  29.348  1.00  0.00    -0.354 N 
ATOM     64  N   UNL A   1      46.185  29.085  29.101  1.00  0.00    -0.248 NA
ATOM     65  C   UNL A   1      48.438  29.698  29.120  1.00  0.00     0.031 C 
ATOM     66  C   UNL A   1      42.827  31.863  29.936  1.00  0.00     0.029 A 
ATOM     67  C   UNL A   1      43.896  31.022  29.669  1.00  0.00     0.049 A 
ATOM     68  H   UNL A   1      43.882  28.989  29.104  1.00  0.00     0.167 HD
ATOM     69  C   UNL A   1      46.289  30.432  29.432  1.00  0.00     0.074 A 
ATOM     70  C   UNL A   1      47.703  30.747  29.458  1.00  0.00     0.031 C 
ATOM     71  C   UNL A   1      45.305  31.325  29.695  1.00  0.00     0.031 A 
BRANCH  58  72
ATOM     72  C   UNL A   1      39.614  28.961  29.197  1.00  0.00    -0.014 A 
ATOM     73  C   UNL A   1      38.895  28.696  30.374  1.00  0.00     0.009 A 
ATOM     74  C   UNL A   1      38.926  29.452  28.077  1.00  0.00     0.009 A 
ATOM     75  C   UNL A   1      37.512  28.876  30.412  1.00  0.00     0.001 A 
ATOM     76  C   UNL A   1      37.546  29.662  28.129  1.00  0.00     0.001 A 
ATOM     77  C   UNL A   1      36.839  29.362  29.291  1.00  0.00     0.000 A 
ENDBRANCH  58  72
BRANCH  59  78
ATOM     78  C   UNL A   1      49.365  26.995  28.529  1.00  0.00    -0.014 A 
ATOM     79  C   UNL A   1      50.026  27.064  27.293  1.00  0.00     0.009 A 
ATOM     80  C   UNL A   1      50.097  26.632  29.670  1.00  0.00     0.009 A 
ATOM     81  C   UNL A   1      51.385  26.754  27.198  1.00  0.00     0.001 A 
ATOM     82  C   UNL A   1      51.462  26.351  29.576  1.00  0.00     0.001 A 
ATOM     83  C   UNL A   1      52.102  26.403  28.340  1.00  0.00     0.000 A 
ENDBRANCH  59  78
BRANCH  71  84
ATOM     84  C   UNL A   1      45.716  32.718  30.086  1.00  0.00    -0.014 A 
ATOM     85  C   UNL A   1      45.845  33.096  31.431  1.00  0.00     0.009 A 
ATOM     86  C   UNL A   1      46.023  33.655  29.086  1.00  0.00     0.009 A 
ATOM     87  C   UNL A   1      46.242  34.393  31.766  1.00  0.00     0.001 A 
ATOM     88  C   UNL A   1      46.449  34.940  29.422  1.00  0.00     0.001 A 
ATOM     89  C   UNL A   1      46.549  35.312  30.762  1.00  0.00     0.000 A 
ENDBRANCH  71  84
ENDBRANCH  45  46
ENDBRANCH  38  40
ENDBRANCH  37  38
ENDBRANCH  36  37
ENDBRANCH  35  36
ENDBRANCH  34  35
ENDBRANCH  33  34
ENDBRANCH   1  33
TORSDOF 21
ENDMDL
