MODEL 1
REMARK VINA RESULT:      -9.7      0.000      0.000
REMARK SMILES Cc1cc(N2CC[C@H](CC(=O)OCCOCCOCCOC(=O)c3ccc(-c4c5nc(c(-c6ccccc6)c6ccc([nH]6)c(-c6ccccc6)c6nc(c(-c7ccccc7)c7ccc4[nH]7)C=C6)C=C5)cc3)C2)ncc1[N+](=O)[O-]
REMARK SMILES IDX 16 1 15 2 14 3 13 4 12 5 10 6 11 7 9 8 8 9 5 10 6 11 72 12
REMARK SMILES IDX 7 13 4 14 1 15 2 16 3 17 75 18 74 19 73 20 76 21 77 22 78 23
REMARK SMILES IDX 17 24 18 25 19 26 20 27 21 28 22 29 23 30 24 31 25 32 71 33
REMARK SMILES IDX 26 34 70 35 27 36 28 37 29 38 64 39 30 40 69 41 63 42 65 43
REMARK SMILES IDX 31 44 68 45 62 46 61 47 32 49 54 50 39 51 53 52 40 53 43 54
REMARK SMILES IDX 52 55 66 56 41 57 42 58 51 60 67 61 44 62 33 63 34 64 38 65
REMARK SMILES IDX 35 66 37 67 36 68 55 69 56 70 60 71 57 72 59 73 58 74 45 75
REMARK SMILES IDX 46 76 50 77 47 78 49 79 48 80
REMARK H PARENT 65 48 43 59
REMARK Flexibility Score: inf
ROOT
ATOM      1  C   UNL A   1      33.687  31.712  27.731  1.00  0.00     0.188 C 
ENDROOT
BRANCH   1   2
ATOM      2  O   UNL A   1      34.597  30.721  27.263  1.00  0.00    -0.376 OA
BRANCH   2   3
ATOM      3  C   UNL A   1      34.186  29.360  27.403  1.00  0.00     0.202 C 
BRANCH   3   4
ATOM      4  C   UNL A   1      34.036  28.554  26.101  1.00  0.00     0.261 C 
BRANCH   4   5
ATOM      5  O   UNL A   1      33.142  27.421  26.198  1.00  0.00    -0.463 OA
BRANCH   5   6
ATOM      6  C   UNL A   1      33.642  26.234  25.774  1.00  0.00     0.306 C 
ATOM      7  O   UNL A   1      33.689  25.214  26.455  1.00  0.00    -0.252 OA
BRANCH   6   8
ATOM      8  C   UNL A   1      34.062  26.204  24.316  1.00  0.00     0.128 C 
BRANCH   8   9
ATOM      9  C   UNL A   1      33.023  26.031  23.209  1.00  0.00     0.021 C 
ATOM     10  N   UNL A   1      31.175  27.164  22.208  1.00  0.00    -0.356 N 
ATOM     11  C   UNL A   1      30.722  25.829  22.591  1.00  0.00     0.118 C 
ATOM     12  C   UNL A   1      32.537  27.406  22.686  1.00  0.00     0.122 C 
ATOM     13  C   UNL A   1      31.719  25.372  23.650  1.00  0.00     0.027 C 
BRANCH  10  14
ATOM     14  C   UNL A   1      30.277  28.210  22.352  1.00  0.00     0.129 A 
ATOM     15  C   UNL A   1      26.696  28.573  23.515  1.00  0.00     0.052 C 
ATOM     16  C   UNL A   1      28.043  28.988  22.993  1.00  0.00     0.032 A 
ATOM     17  C   UNL A   1      28.967  27.945  22.752  1.00  0.00     0.057 A 
ATOM     18  C   UNL A   1      28.482  30.296  22.743  1.00  0.00     0.290 A 
ATOM     19  C   UNL A   1      29.796  30.479  22.318  1.00  0.00     0.199 A 
ATOM     20  N   UNL A   1      30.688  29.473  22.132  1.00  0.00    -0.232 NA
BRANCH  18  21
ATOM     21  N   UNL A   1      27.663  31.500  22.891  1.00  0.00     0.064 N 
ATOM     22  O   UNL A   1      26.971  31.598  23.916  1.00  0.00    -0.258 OA
ATOM     23  O   UNL A   1      27.722  32.372  22.016  1.00  0.00    -0.258 OA
ENDBRANCH  18  21
ENDBRANCH  10  14
ENDBRANCH   8   9
ENDBRANCH   6   8
ENDBRANCH   5   6
ENDBRANCH   4   5
ENDBRANCH   3   4
ENDBRANCH   2   3
ENDBRANCH   1   2
BRANCH   1  24
ATOM     24  C   UNL A   1      34.315  32.918  28.430  1.00  0.00     0.188 C 
BRANCH  24  25
ATOM     25  O   UNL A   1      33.916  34.188  27.943  1.00  0.00    -0.376 OA
BRANCH  25  26
ATOM     26  C   UNL A   1      34.110  35.310  28.808  1.00  0.00     0.202 C 
BRANCH  26  27
ATOM     27  C   UNL A   1      32.868  35.926  29.494  1.00  0.00     0.261 C 
BRANCH  27  28
ATOM     28  O   UNL A   1      32.362  35.234  30.658  1.00  0.00    -0.460 OA
BRANCH  28  29
ATOM     29  C   UNL A   1      32.721  35.698  31.875  1.00  0.00     0.338 C 
ATOM     30  O   UNL A   1      32.065  36.447  32.583  1.00  0.00    -0.246 OA
BRANCH  29  31
ATOM     31  C   UNL A   1      33.915  34.942  32.352  1.00  0.00     0.060 A 
ATOM     32  C   UNL A   1      35.163  35.579  32.272  1.00  0.00     0.016 A 
ATOM     33  C   UNL A   1      33.829  33.672  32.931  1.00  0.00     0.016 A 
ATOM     34  C   UNL A   1      36.321  34.935  32.719  1.00  0.00     0.010 A 
ATOM     35  C   UNL A   1      34.994  33.018  33.364  1.00  0.00     0.010 A 
ATOM     36  C   UNL A   1      36.254  33.631  33.226  1.00  0.00    -0.014 A 
BRANCH  36  37
ATOM     37  C   UNL A   1      37.513  32.860  33.421  1.00  0.00     0.031 A 
ATOM     38  C   UNL A   1      38.302  33.079  34.689  1.00  0.00     0.074 A 
ATOM     39  C   UNL A   1      37.928  31.929  32.541  1.00  0.00     0.049 A 
ATOM     40  N   UNL A   1      39.400  32.496  35.098  1.00  0.00    -0.248 NA
ATOM     41  C   UNL A   1      37.771  34.086  35.623  1.00  0.00     0.031 C 
ATOM     42  C   UNL A   1      37.249  31.570  31.298  1.00  0.00     0.029 A 
ATOM     43  N   UNL A   1      39.030  31.106  32.571  1.00  0.00    -0.354 N 
ATOM     44  C   UNL A   1      39.693  33.065  36.332  1.00  0.00     0.074 A 
ATOM     45  C   UNL A   1      38.677  34.064  36.587  1.00  0.00     0.031 C 
ATOM     46  C   UNL A   1      37.947  30.596  30.686  1.00  0.00     0.029 A 
ATOM     47  C   UNL A   1      39.138  30.283  31.475  1.00  0.00     0.049 A 
ATOM     48  H   UNL A   1      39.681  31.106  33.309  1.00  0.00     0.167 HD
ATOM     49  C   UNL A   1      40.706  32.783  37.186  1.00  0.00     0.031 A 
ATOM     50  C   UNL A   1      40.092  29.389  31.139  1.00  0.00     0.031 A 
ATOM     51  C   UNL A   1      41.734  31.807  36.937  1.00  0.00     0.049 A 
ATOM     52  C   UNL A   1      41.262  29.159  32.064  1.00  0.00     0.074 A 
ATOM     53  C   UNL A   1      42.795  31.448  37.752  1.00  0.00     0.029 A 
ATOM     54  N   UNL A   1      41.839  31.042  35.787  1.00  0.00    -0.354 N 
ATOM     55  N   UNL A   1      41.506  29.682  33.241  1.00  0.00    -0.248 NA
ATOM     56  C   UNL A   1      42.284  28.201  31.612  1.00  0.00     0.031 C 
ATOM     57  C   UNL A   1      43.579  30.514  37.067  1.00  0.00     0.029 A 
ATOM     58  C   UNL A   1      42.965  30.237  35.857  1.00  0.00     0.049 A 
ATOM     59  H   UNL A   1      41.207  31.066  35.033  1.00  0.00     0.167 HD
ATOM     60  C   UNL A   1      42.689  29.095  33.681  1.00  0.00     0.074 A 
ATOM     61  C   UNL A   1      43.099  28.161  32.656  1.00  0.00     0.031 C 
ATOM     62  C   UNL A   1      43.372  29.310  34.833  1.00  0.00     0.031 A 
BRANCH  49  63
ATOM     63  C   UNL A   1      40.773  33.572  38.464  1.00  0.00    -0.014 A 
ATOM     64  C   UNL A   1      40.165  33.108  39.642  1.00  0.00     0.009 A 
ATOM     65  C   UNL A   1      41.491  34.777  38.500  1.00  0.00     0.009 A 
ATOM     66  C   UNL A   1      40.247  33.854  40.821  1.00  0.00     0.001 A 
ATOM     67  C   UNL A   1      41.598  35.504  39.686  1.00  0.00     0.001 A 
ATOM     68  C   UNL A   1      40.968  35.047  40.843  1.00  0.00     0.000 A 
ENDBRANCH  49  63
BRANCH  50  69
ATOM     69  C   UNL A   1      40.010  28.648  29.851  1.00  0.00    -0.014 A 
ATOM     70  C   UNL A   1      39.426  27.372  29.787  1.00  0.00     0.009 A 
ATOM     71  C   UNL A   1      40.570  29.191  28.683  1.00  0.00     0.009 A 
ATOM     72  C   UNL A   1      39.435  26.645  28.593  1.00  0.00     0.001 A 
ATOM     73  C   UNL A   1      40.547  28.477  27.483  1.00  0.00     0.001 A 
ATOM     74  C   UNL A   1      39.991  27.200  27.441  1.00  0.00     0.000 A 
ENDBRANCH  50  69
BRANCH  62  75
ATOM     75  C   UNL A   1      44.615  28.492  35.066  1.00  0.00    -0.014 A 
ATOM     76  C   UNL A   1      45.887  28.965  34.704  1.00  0.00     0.009 A 
ATOM     77  C   UNL A   1      44.513  27.234  35.683  1.00  0.00     0.009 A 
ATOM     78  C   UNL A   1      47.020  28.175  34.909  1.00  0.00     0.001 A 
ATOM     79  C   UNL A   1      45.652  26.463  35.920  1.00  0.00     0.001 A 
ATOM     80  C   UNL A   1      46.903  26.927  35.521  1.00  0.00     0.000 A 
ENDBRANCH  62  75
ENDBRANCH  36  37
ENDBRANCH  29  31
ENDBRANCH  28  29
ENDBRANCH  27  28
ENDBRANCH  26  27
ENDBRANCH  25  26
ENDBRANCH  24  25
ENDBRANCH   1  24
TORSDOF 20
ENDMDL
MODEL 2
REMARK VINA RESULT:      -9.6      5.182     10.680
REMARK SMILES Cc1cc(N2CC[C@H](CC(=O)OCCOCCOCCOC(=O)c3ccc(-c4c5nc(c(-c6ccccc6)c6ccc([nH]6)c(-c6ccccc6)c6nc(c(-c7ccccc7)c7ccc4[nH]7)C=C6)C=C5)cc3)C2)ncc1[N+](=O)[O-]
REMARK SMILES IDX 16 1 15 2 14 3 13 4 12 5 10 6 11 7 9 8 8 9 5 10 6 11 72 12
REMARK SMILES IDX 7 13 4 14 1 15 2 16 3 17 75 18 74 19 73 20 76 21 77 22 78 23
REMARK SMILES IDX 17 24 18 25 19 26 20 27 21 28 22 29 23 30 24 31 25 32 71 33
REMARK SMILES IDX 26 34 70 35 27 36 28 37 29 38 64 39 30 40 69 41 63 42 65 43
REMARK SMILES IDX 31 44 68 45 62 46 61 47 32 49 54 50 39 51 53 52 40 53 43 54
REMARK SMILES IDX 52 55 66 56 41 57 42 58 51 60 67 61 44 62 33 63 34 64 38 65
REMARK SMILES IDX 35 66 37 67 36 68 55 69 56 70 60 71 57 72 59 73 58 74 45 75
REMARK SMILES IDX 46 76 50 77 47 78 49 79 48 80
REMARK H PARENT 65 48 43 59
REMARK Flexibility Score: inf
ROOT
ATOM      1  C   UNL A   1      35.387  23.321  24.049  1.00  0.00     0.188 C 
ENDROOT
BRANCH   1   2
ATOM      2  O   UNL A   1      34.786  24.240  23.142  1.00  0.00    -0.376 OA
BRANCH   2   3
ATOM      3  C   UNL A   1      34.287  25.455  23.702  1.00  0.00     0.202 C 
BRANCH   3   4
ATOM      4  C   UNL A   1      33.604  26.428  22.726  1.00  0.00     0.261 C 
BRANCH   4   5
ATOM      5  O   UNL A   1      33.841  27.826  23.010  1.00  0.00    -0.463 OA
BRANCH   5   6
ATOM      6  C   UNL A   1      33.335  28.287  24.181  1.00  0.00     0.306 C 
ATOM      7  O   UNL A   1      33.981  28.415  25.217  1.00  0.00    -0.252 OA
BRANCH   6   8
ATOM      8  C   UNL A   1      31.893  28.755  24.111  1.00  0.00     0.128 C 
BRANCH   8   9
ATOM      9  C   UNL A   1      30.747  27.804  24.455  1.00  0.00     0.021 C 
ATOM     10  N   UNL A   1      30.341  25.519  25.017  1.00  0.00    -0.356 N 
ATOM     11  C   UNL A   1      29.478  25.858  23.888  1.00  0.00     0.118 C 
ATOM     12  C   UNL A   1      31.249  26.625  25.325  1.00  0.00     0.122 C 
ATOM     13  C   UNL A   1      30.130  27.084  23.259  1.00  0.00     0.027 C 
BRANCH  10  14
ATOM     14  C   UNL A   1      30.890  24.246  25.045  1.00  0.00     0.129 A 
ATOM     15  C   UNL A   1      32.130  21.770  22.468  1.00  0.00     0.052 C 
ATOM     16  C   UNL A   1      31.801  22.325  23.826  1.00  0.00     0.032 A 
ATOM     17  C   UNL A   1      31.164  23.587  23.846  1.00  0.00     0.057 A 
ATOM     18  C   UNL A   1      32.077  21.734  25.066  1.00  0.00     0.290 A 
ATOM     19  C   UNL A   1      31.748  22.440  26.220  1.00  0.00     0.199 A 
ATOM     20  N   UNL A   1      31.177  23.672  26.228  1.00  0.00    -0.232 NA
BRANCH  18  21
ATOM     21  N   UNL A   1      32.690  20.418  25.252  1.00  0.00     0.064 N 
ATOM     22  O   UNL A   1      33.914  20.380  25.452  1.00  0.00    -0.258 OA
ATOM     23  O   UNL A   1      31.967  19.415  25.236  1.00  0.00    -0.258 OA
ENDBRANCH  18  21
ENDBRANCH  10  14
ENDBRANCH   8   9
ENDBRANCH   6   8
ENDBRANCH   5   6
ENDBRANCH   4   5
ENDBRANCH   3   4
ENDBRANCH   2   3
ENDBRANCH   1   2
BRANCH   1  24
ATOM     24  C   UNL A   1      36.623  22.585  23.531  1.00  0.00     0.188 C 
BRANCH  24  25
ATOM     25  O   UNL A   1      37.447  21.993  24.523  1.00  0.00    -0.376 OA
BRANCH  25  26
ATOM     26  C   UNL A   1      37.280  20.593  24.761  1.00  0.00     0.202 C 
BRANCH  26  27
ATOM     27  C   UNL A   1      38.545  19.742  25.023  1.00  0.00     0.261 C 
BRANCH  27  28
ATOM     28  O   UNL A   1      39.189  19.919  26.305  1.00  0.00    -0.460 OA
BRANCH  28  29
ATOM     29  C   UNL A   1      40.528  20.098  26.319  1.00  0.00     0.338 C 
ATOM     30  O   UNL A   1      41.358  19.369  25.799  1.00  0.00    -0.246 OA
BRANCH  29  31
ATOM     31  C   UNL A   1      40.831  21.468  26.827  1.00  0.00     0.060 A 
ATOM     32  C   UNL A   1      40.155  22.546  26.235  1.00  0.00     0.016 A 
ATOM     33  C   UNL A   1      41.696  21.707  27.900  1.00  0.00     0.016 A 
ATOM     34  C   UNL A   1      40.377  23.854  26.675  1.00  0.00     0.010 A 
ATOM     35  C   UNL A   1      41.932  23.023  28.331  1.00  0.00     0.010 A 
ATOM     36  C   UNL A   1      41.301  24.109  27.695  1.00  0.00    -0.014 A 
BRANCH  36  37
ATOM     37  C   UNL A   1      41.738  25.511  27.948  1.00  0.00     0.031 A 
ATOM     38  C   UNL A   1      43.054  25.970  27.369  1.00  0.00     0.074 A 
ATOM     39  C   UNL A   1      40.967  26.394  28.611  1.00  0.00     0.049 A 
ATOM     40  N   UNL A   1      43.621  27.149  27.419  1.00  0.00    -0.248 NA
ATOM     41  C   UNL A   1      43.828  24.961  26.626  1.00  0.00     0.031 C 
ATOM     42  C   UNL A   1      39.653  26.115  29.185  1.00  0.00     0.029 A 
ATOM     43  N   UNL A   1      41.187  27.721  28.904  1.00  0.00    -0.354 N 
ATOM     44  C   UNL A   1      44.815  27.024  26.719  1.00  0.00     0.074 A 
ATOM     45  C   UNL A   1      44.908  25.647  26.285  1.00  0.00     0.031 C 
ATOM     46  C   UNL A   1      39.181  27.237  29.758  1.00  0.00     0.029 A 
ATOM     47  C   UNL A   1      40.170  28.306  29.620  1.00  0.00     0.049 A 
ATOM     48  H   UNL A   1      41.997  28.205  28.627  1.00  0.00     0.167 HD
ATOM     49  C   UNL A   1      45.750  27.966  26.449  1.00  0.00     0.031 A 
ATOM     50  C   UNL A   1      40.053  29.554  30.118  1.00  0.00     0.031 A 
ATOM     51  C   UNL A   1      45.681  29.334  26.889  1.00  0.00     0.049 A 
ATOM     52  C   UNL A   1      41.152  30.560  29.883  1.00  0.00     0.074 A 
ATOM     53  C   UNL A   1      46.581  30.360  26.653  1.00  0.00     0.029 A 
ATOM     54  N   UNL A   1      44.664  29.866  27.664  1.00  0.00    -0.354 N 
ATOM     55  N   UNL A   1      42.260  30.435  29.192  1.00  0.00    -0.248 NA
ATOM     56  C   UNL A   1      40.975  31.889  30.493  1.00  0.00     0.031 C 
ATOM     57  C   UNL A   1      46.141  31.496  27.340  1.00  0.00     0.029 A 
ATOM     58  C   UNL A   1      44.931  31.197  27.942  1.00  0.00     0.049 A 
ATOM     59  H   UNL A   1      43.870  29.372  27.971  1.00  0.00     0.167 HD
ATOM     60  C   UNL A   1      42.892  31.673  29.258  1.00  0.00     0.074 A 
ATOM     61  C   UNL A   1      42.035  32.541  30.036  1.00  0.00     0.031 C 
ATOM     62  C   UNL A   1      44.076  32.057  28.720  1.00  0.00     0.031 A 
BRANCH  49  63
ATOM     63  C   UNL A   1      46.957  27.536  25.661  1.00  0.00    -0.014 A 
ATOM     64  C   UNL A   1      47.012  27.686  24.266  1.00  0.00     0.009 A 
ATOM     65  C   UNL A   1      48.072  27.010  26.332  1.00  0.00     0.009 A 
ATOM     66  C   UNL A   1      48.147  27.286  23.556  1.00  0.00     0.001 A 
ATOM     67  C   UNL A   1      49.217  26.641  25.623  1.00  0.00     0.001 A 
ATOM     68  C   UNL A   1      49.250  26.771  24.236  1.00  0.00     0.000 A 
ENDBRANCH  49  63
BRANCH  50  69
ATOM     69  C   UNL A   1      38.858  29.937  30.920  1.00  0.00    -0.014 A 
ATOM     70  C   UNL A   1      37.792  30.642  30.337  1.00  0.00     0.009 A 
ATOM     71  C   UNL A   1      38.803  29.649  32.293  1.00  0.00     0.009 A 
ATOM     72  C   UNL A   1      36.717  31.077  31.116  1.00  0.00     0.001 A 
ATOM     73  C   UNL A   1      37.711  30.055  33.063  1.00  0.00     0.001 A 
ATOM     74  C   UNL A   1      36.675  30.779  32.477  1.00  0.00     0.000 A 
ENDBRANCH  50  69
BRANCH  62  75
ATOM     75  C   UNL A   1      44.498  33.490  28.919  1.00  0.00    -0.014 A 
ATOM     76  C   UNL A   1      45.420  33.854  29.914  1.00  0.00     0.009 A 
ATOM     77  C   UNL A   1      43.982  34.489  28.079  1.00  0.00     0.009 A 
ATOM     78  C   UNL A   1      45.776  35.193  30.093  1.00  0.00     0.001 A 
ATOM     79  C   UNL A   1      44.367  35.822  28.237  1.00  0.00     0.001 A 
ATOM     80  C   UNL A   1      45.252  36.174  29.252  1.00  0.00     0.000 A 
ENDBRANCH  62  75
ENDBRANCH  36  37
ENDBRANCH  29  31
ENDBRANCH  28  29
ENDBRANCH  27  28
ENDBRANCH  26  27
ENDBRANCH  25  26
ENDBRANCH  24  25
ENDBRANCH   1  24
TORSDOF 20
ENDMDL
MODEL 3
REMARK VINA RESULT:      -9.6      4.801     10.016
REMARK SMILES Cc1cc(N2CC[C@H](CC(=O)OCCOCCOCCOC(=O)c3ccc(-c4c5nc(c(-c6ccccc6)c6ccc([nH]6)c(-c6ccccc6)c6nc(c(-c7ccccc7)c7ccc4[nH]7)C=C6)C=C5)cc3)C2)ncc1[N+](=O)[O-]
REMARK SMILES IDX 16 1 15 2 14 3 13 4 12 5 10 6 11 7 9 8 8 9 5 10 6 11 72 12
REMARK SMILES IDX 7 13 4 14 1 15 2 16 3 17 75 18 74 19 73 20 76 21 77 22 78 23
REMARK SMILES IDX 17 24 18 25 19 26 20 27 21 28 22 29 23 30 24 31 25 32 71 33
REMARK SMILES IDX 26 34 70 35 27 36 28 37 29 38 64 39 30 40 69 41 63 42 65 43
REMARK SMILES IDX 31 44 68 45 62 46 61 47 32 49 54 50 39 51 53 52 40 53 43 54
REMARK SMILES IDX 52 55 66 56 41 57 42 58 51 60 67 61 44 62 33 63 34 64 38 65
REMARK SMILES IDX 35 66 37 67 36 68 55 69 56 70 60 71 57 72 59 73 58 74 45 75
REMARK SMILES IDX 46 76 50 77 47 78 49 79 48 80
REMARK H PARENT 65 48 43 59
REMARK Flexibility Score: inf
ROOT
ATOM      1  C   UNL A   1      39.788  21.782  26.612  1.00  0.00     0.188 C 
ENDROOT
BRANCH   1   2
ATOM      2  O   UNL A   1      38.649  21.459  25.821  1.00  0.00    -0.376 OA
BRANCH   2   3
ATOM      3  C   UNL A   1      37.880  22.558  25.331  1.00  0.00     0.202 C 
BRANCH   3   4
ATOM      4  C   UNL A   1      36.372  22.312  25.150  1.00  0.00     0.261 C 
BRANCH   4   5
ATOM      5  O   UNL A   1      35.570  23.515  25.100  1.00  0.00    -0.463 OA
BRANCH   5   6
ATOM      6  C   UNL A   1      34.486  23.538  25.916  1.00  0.00     0.306 C 
ATOM      7  O   UNL A   1      34.525  23.367  27.131  1.00  0.00    -0.252 OA
BRANCH   6   8
ATOM      8  C   UNL A   1      33.183  23.907  25.232  1.00  0.00     0.128 C 
BRANCH   8   9
ATOM      9  C   UNL A   1      32.320  22.835  24.569  1.00  0.00     0.021 C 
ATOM     10  N   UNL A   1      32.135  20.462  24.377  1.00  0.00    -0.356 N 
ATOM     11  C   UNL A   1      32.164  21.016  23.025  1.00  0.00     0.118 C 
ATOM     12  C   UNL A   1      32.370  21.511  25.370  1.00  0.00     0.122 C 
ATOM     13  C   UNL A   1      32.792  22.395  23.186  1.00  0.00     0.027 C 
BRANCH  10  14
ATOM     14  C   UNL A   1      32.785  19.256  24.588  1.00  0.00     0.129 A 
ATOM     15  C   UNL A   1      36.380  18.080  24.620  1.00  0.00     0.052 C 
ATOM     16  C   UNL A   1      34.883  17.996  24.726  1.00  0.00     0.032 A 
ATOM     17  C   UNL A   1      34.170  19.183  24.438  1.00  0.00     0.057 A 
ATOM     18  C   UNL A   1      34.127  16.876  25.099  1.00  0.00     0.290 A 
ATOM     19  C   UNL A   1      32.745  17.019  25.199  1.00  0.00     0.199 A 
ATOM     20  N   UNL A   1      32.075  18.176  24.963  1.00  0.00    -0.232 NA
BRANCH  18  21
ATOM     21  N   UNL A   1      34.676  15.552  25.393  1.00  0.00     0.064 N 
ATOM     22  O   UNL A   1      33.902  14.584  25.323  1.00  0.00    -0.258 OA
ATOM     23  O   UNL A   1      35.877  15.451  25.665  1.00  0.00    -0.258 OA
ENDBRANCH  18  21
ENDBRANCH  10  14
ENDBRANCH   8   9
ENDBRANCH   6   8
ENDBRANCH   5   6
ENDBRANCH   4   5
ENDBRANCH   3   4
ENDBRANCH   2   3
ENDBRANCH   1   2
BRANCH   1  24
ATOM     24  C   UNL A   1      40.789  20.648  26.833  1.00  0.00     0.188 C 
BRANCH  24  25
ATOM     25  O   UNL A   1      41.513  20.234  25.686  1.00  0.00    -0.376 OA
BRANCH  25  26
ATOM     26  C   UNL A   1      42.939  20.328  25.744  1.00  0.00     0.202 C 
BRANCH  26  27
ATOM     27  C   UNL A   1      43.572  21.731  25.895  1.00  0.00     0.261 C 
BRANCH  27  28
ATOM     28  O   UNL A   1      43.021  22.782  25.068  1.00  0.00    -0.460 OA
BRANCH  28  29
ATOM     29  C   UNL A   1      43.647  23.979  25.069  1.00  0.00     0.338 C 
ATOM     30  O   UNL A   1      44.475  24.359  24.256  1.00  0.00    -0.246 OA
BRANCH  29  31
ATOM     31  C   UNL A   1      42.975  24.880  26.050  1.00  0.00     0.060 A 
ATOM     32  C   UNL A   1      43.473  26.185  26.183  1.00  0.00     0.016 A 
ATOM     33  C   UNL A   1      41.842  24.501  26.777  1.00  0.00     0.016 A 
ATOM     34  C   UNL A   1      42.879  27.087  27.070  1.00  0.00     0.010 A 
ATOM     35  C   UNL A   1      41.255  25.402  27.680  1.00  0.00     0.010 A 
ATOM     36  C   UNL A   1      41.793  26.690  27.860  1.00  0.00    -0.014 A 
BRANCH  36  37
ATOM     37  C   UNL A   1      41.364  27.554  28.995  1.00  0.00     0.031 A 
ATOM     38  C   UNL A   1      42.151  27.497  30.281  1.00  0.00     0.074 A 
ATOM     39  C   UNL A   1      40.347  28.431  28.885  1.00  0.00     0.049 A 
ATOM     40  N   UNL A   1      41.994  28.182  31.386  1.00  0.00    -0.248 NA
ATOM     41  C   UNL A   1      43.271  26.541  30.320  1.00  0.00     0.031 C 
ATOM     42  C   UNL A   1      39.526  28.636  27.694  1.00  0.00     0.029 A 
ATOM     43  N   UNL A   1      39.839  29.323  29.801  1.00  0.00    -0.354 N 
ATOM     44  C   UNL A   1      42.991  27.741  32.249  1.00  0.00     0.074 A 
ATOM     45  C   UNL A   1      43.723  26.705  31.553  1.00  0.00     0.031 C 
ATOM     46  C   UNL A   1      38.619  29.597  27.951  1.00  0.00     0.029 A 
ATOM     47  C   UNL A   1      38.774  30.053  29.332  1.00  0.00     0.049 A 
ATOM     48  H   UNL A   1      40.205  29.428  30.708  1.00  0.00     0.167 HD
ATOM     49  C   UNL A   1      43.283  28.161  33.503  1.00  0.00     0.031 A 
ATOM     50  C   UNL A   1      38.002  30.974  29.947  1.00  0.00     0.031 A 
ATOM     51  C   UNL A   1      42.553  29.176  34.214  1.00  0.00     0.049 A 
ATOM     52  C   UNL A   1      38.290  31.358  31.377  1.00  0.00     0.074 A 
ATOM     53  C   UNL A   1      42.785  29.671  35.487  1.00  0.00     0.029 A 
ATOM     54  N   UNL A   1      41.443  29.844  33.724  1.00  0.00    -0.354 N 
ATOM     55  N   UNL A   1      39.256  30.955  32.167  1.00  0.00    -0.248 NA
ATOM     56  C   UNL A   1      37.381  32.337  31.995  1.00  0.00     0.031 C 
ATOM     57  C   UNL A   1      41.777  30.591  35.791  1.00  0.00     0.029 A 
ATOM     58  C   UNL A   1      40.961  30.723  34.681  1.00  0.00     0.049 A 
ATOM     59  H   UNL A   1      41.055  29.714  32.829  1.00  0.00     0.167 HD
ATOM     60  C   UNL A   1      39.089  31.653  33.360  1.00  0.00     0.074 A 
ATOM     61  C   UNL A   1      37.945  32.520  33.181  1.00  0.00     0.031 C 
ATOM     62  C   UNL A   1      39.820  31.582  34.500  1.00  0.00     0.031 A 
BRANCH  49  63
ATOM     63  C   UNL A   1      44.432  27.491  34.206  1.00  0.00    -0.014 A 
ATOM     64  C   UNL A   1      45.744  27.978  34.091  1.00  0.00     0.009 A 
ATOM     65  C   UNL A   1      44.189  26.380  35.028  1.00  0.00     0.009 A 
ATOM     66  C   UNL A   1      46.794  27.344  34.759  1.00  0.00     0.001 A 
ATOM     67  C   UNL A   1      45.236  25.768  35.720  1.00  0.00     0.001 A 
ATOM     68  C   UNL A   1      46.538  26.245  35.577  1.00  0.00     0.000 A 
ENDBRANCH  49  63
BRANCH  50  69
ATOM     69  C   UNL A   1      36.854  31.595  29.230  1.00  0.00    -0.014 A 
ATOM     70  C   UNL A   1      35.670  30.876  29.003  1.00  0.00     0.009 A 
ATOM     71  C   UNL A   1      36.960  32.898  28.717  1.00  0.00     0.009 A 
ATOM     72  C   UNL A   1      34.632  31.434  28.251  1.00  0.00     0.001 A 
ATOM     73  C   UNL A   1      35.908  33.466  27.995  1.00  0.00     0.001 A 
ATOM     74  C   UNL A   1      34.750  32.731  27.752  1.00  0.00     0.000 A 
ENDBRANCH  50  69
BRANCH  62  75
ATOM     75  C   UNL A   1      39.430  32.497  35.633  1.00  0.00    -0.014 A 
ATOM     76  C   UNL A   1      40.096  33.712  35.861  1.00  0.00     0.009 A 
ATOM     77  C   UNL A   1      38.359  32.146  36.471  1.00  0.00     0.009 A 
ATOM     78  C   UNL A   1      39.730  34.529  36.932  1.00  0.00     0.001 A 
ATOM     79  C   UNL A   1      37.971  32.982  37.519  1.00  0.00     0.001 A 
ATOM     80  C   UNL A   1      38.666  34.166  37.758  1.00  0.00     0.000 A 
ENDBRANCH  62  75
ENDBRANCH  36  37
ENDBRANCH  29  31
ENDBRANCH  28  29
ENDBRANCH  27  28
ENDBRANCH  26  27
ENDBRANCH  25  26
ENDBRANCH  24  25
ENDBRANCH   1  24
TORSDOF 20
ENDMDL
