MODEL 1
REMARK VINA RESULT:      -9.4      0.000      0.000
REMARK SMILES O=C(Cc1c(F)cc(Cl)cc1F)OCCOCCOCCOC(=O)c1ccc(-c2c3nc(c(-c4ccccc4)c4ccc([nH]4)c(-c4ccccc4)c4nc(c(-c5ccccc5)c5ccc2[nH]5)C=C4)C=C3)cc1
REMARK SMILES IDX 18 1 17 2 16 3 15 4 14 5 13 6 2 7 1 8 3 9 4 10 5 11 11 12
REMARK SMILES IDX 6 13 7 14 10 15 12 16 8 17 9 18 19 19 20 20 21 21 22 22
REMARK SMILES IDX 23 23 24 24 25 25 26 26 72 27 27 28 71 29 28 30 29 31 30 32
REMARK SMILES IDX 65 33 31 34 70 35 64 36 66 37 32 38 69 39 63 40 62 41 33 43
REMARK SMILES IDX 55 44 40 45 54 46 41 47 44 48 53 49 67 50 42 51 43 52 52 54
REMARK SMILES IDX 68 55 45 56 34 57 35 58 39 59 36 60 38 61 37 62 56 63 57 64
REMARK SMILES IDX 61 65 58 66 60 67 59 68 46 69 47 70 51 71 48 72 50 73 49 74
REMARK H PARENT 66 42 44 53
REMARK Flexibility Score: inf
ROOT
ATOM      1  C   UNL A   1      40.666  21.271  26.126  1.00  0.00     0.188 C 
ENDROOT
BRANCH   1   2
ATOM      2  C   UNL A   1      39.674  22.202  26.832  1.00  0.00     0.188 C 
BRANCH   2   3
ATOM      3  O   UNL A   1      38.505  22.528  26.106  1.00  0.00    -0.376 OA
BRANCH   3   4
ATOM      4  C   UNL A   1      37.814  21.532  25.358  1.00  0.00     0.202 C 
BRANCH   4   5
ATOM      5  C   UNL A   1      36.793  21.915  24.287  1.00  0.00     0.261 C 
BRANCH   5   6
ATOM      6  O   UNL A   1      35.362  21.879  24.547  1.00  0.00    -0.463 OA
BRANCH   6   7
ATOM      7  C   UNL A   1      34.599  21.572  25.609  1.00  0.00     0.310 C 
ATOM      8  O   UNL A   1      34.016  20.488  25.631  1.00  0.00    -0.252 OA
BRANCH   7   9
ATOM      9  C   UNL A   1      34.497  22.505  26.781  1.00  0.00     0.164 C 
BRANCH   9  10
ATOM     10  C   UNL A   1      33.676  23.714  26.458  1.00  0.00     0.035 A 
ATOM     11  C   UNL A   1      32.301  23.749  26.689  1.00  0.00     0.131 A 
ATOM     12  C   UNL A   1      34.260  24.818  25.837  1.00  0.00     0.131 A 
ATOM     13  F   UNL A   1      31.690  22.714  27.276  1.00  0.00    -0.207 F 
ATOM     14  C   UNL A   1      31.524  24.836  26.313  1.00  0.00     0.060 A 
ATOM     15  C   UNL A   1      33.503  25.917  25.448  1.00  0.00     0.060 A 
ATOM     16  F   UNL A   1      35.579  24.827  25.600  1.00  0.00    -0.207 F 
ATOM     17  C   UNL A   1      32.132  25.917  25.683  1.00  0.00     0.046 A 
ATOM     18  Cl  UNL A   1      31.177  27.256  25.188  1.00  0.00    -0.084 Cl
ENDBRANCH   9  10
ENDBRANCH   7   9
ENDBRANCH   6   7
ENDBRANCH   5   6
ENDBRANCH   4   5
ENDBRANCH   3   4
ENDBRANCH   2   3
ENDBRANCH   1   2
BRANCH   1  19
ATOM     19  O   UNL A   1      41.986  21.208  26.639  1.00  0.00    -0.376 OA
BRANCH  19  20
ATOM     20  C   UNL A   1      43.034  20.851  25.738  1.00  0.00     0.202 C 
BRANCH  20  21
ATOM     21  C   UNL A   1      44.027  21.926  25.263  1.00  0.00     0.261 C 
BRANCH  21  22
ATOM     22  O   UNL A   1      43.410  23.146  24.786  1.00  0.00    -0.460 OA
BRANCH  22  23
ATOM     23  C   UNL A   1      44.096  24.285  25.011  1.00  0.00     0.338 C 
ATOM     24  O   UNL A   1      45.176  24.612  24.529  1.00  0.00    -0.246 OA
BRANCH  23  25
ATOM     25  C   UNL A   1      43.312  25.211  25.847  1.00  0.00     0.060 A 
ATOM     26  C   UNL A   1      43.812  26.500  26.084  1.00  0.00     0.016 A 
ATOM     27  C   UNL A   1      42.170  24.767  26.521  1.00  0.00     0.016 A 
ATOM     28  C   UNL A   1      43.177  27.342  26.998  1.00  0.00     0.010 A 
ATOM     29  C   UNL A   1      41.551  25.606  27.456  1.00  0.00     0.010 A 
ATOM     30  C   UNL A   1      42.069  26.887  27.722  1.00  0.00    -0.014 A 
BRANCH  30  31
ATOM     31  C   UNL A   1      41.582  27.681  28.881  1.00  0.00     0.031 A 
ATOM     32  C   UNL A   1      42.317  27.572  30.192  1.00  0.00     0.074 A 
ATOM     33  C   UNL A   1      40.539  28.525  28.771  1.00  0.00     0.049 A 
ATOM     34  N   UNL A   1      42.103  28.206  31.316  1.00  0.00    -0.248 NA
ATOM     35  C   UNL A   1      43.448  26.628  30.239  1.00  0.00     0.031 C 
ATOM     36  C   UNL A   1      39.762  28.758  27.556  1.00  0.00     0.029 A 
ATOM     37  N   UNL A   1      39.960  29.352  29.705  1.00  0.00    -0.354 N 
ATOM     38  C   UNL A   1      43.073  27.747  32.198  1.00  0.00     0.074 A 
ATOM     39  C   UNL A   1      43.857  26.757  31.493  1.00  0.00     0.031 C 
ATOM     40  C   UNL A   1      38.804  29.666  27.819  1.00  0.00     0.029 A 
ATOM     41  C   UNL A   1      38.887  30.064  29.225  1.00  0.00     0.049 A 
ATOM     42  H   UNL A   1      40.285  29.426  30.631  1.00  0.00     0.167 HD
ATOM     43  C   UNL A   1      43.303  28.126  33.476  1.00  0.00     0.031 A 
ATOM     44  C   UNL A   1      38.061  30.929  29.849  1.00  0.00     0.031 A 
ATOM     45  C   UNL A   1      42.531  29.105  34.188  1.00  0.00     0.049 A 
ATOM     46  C   UNL A   1      38.285  31.262  31.304  1.00  0.00     0.074 A 
ATOM     47  C   UNL A   1      42.722  29.575  35.476  1.00  0.00     0.029 A 
ATOM     48  N   UNL A   1      41.418  29.754  33.682  1.00  0.00    -0.354 N 
ATOM     49  N   UNL A   1      39.250  30.873  32.101  1.00  0.00    -0.248 NA
ATOM     50  C   UNL A   1      37.305  32.155  31.946  1.00  0.00     0.031 C 
ATOM     51  C   UNL A   1      41.687  30.462  35.773  1.00  0.00     0.029 A 
ATOM     52  C   UNL A   1      40.885  30.586  34.652  1.00  0.00     0.049 A 
ATOM     53  H   UNL A   1      41.061  29.643  32.772  1.00  0.00     0.167 HD
ATOM     54  C   UNL A   1      39.004  31.487  33.325  1.00  0.00     0.074 A 
ATOM     55  C   UNL A   1      37.812  32.290  33.163  1.00  0.00     0.031 C 
ATOM     56  C   UNL A   1      39.701  31.387  34.482  1.00  0.00     0.031 A 
BRANCH  43  57
ATOM     57  C   UNL A   1      44.441  27.478  34.211  1.00  0.00    -0.014 A 
ATOM     58  C   UNL A   1      45.715  28.063  34.220  1.00  0.00     0.009 A 
ATOM     59  C   UNL A   1      44.204  26.337  34.993  1.00  0.00     0.009 A 
ATOM     60  C   UNL A   1      46.737  27.510  34.996  1.00  0.00     0.001 A 
ATOM     61  C   UNL A   1      45.220  25.799  35.783  1.00  0.00     0.001 A 
ATOM     62  C   UNL A   1      46.486  26.386  35.783  1.00  0.00     0.000 A 
ENDBRANCH  43  57
BRANCH  44  63
ATOM     63  C   UNL A   1      36.913  31.532  29.119  1.00  0.00    -0.014 A 
ATOM     64  C   UNL A   1      36.972  32.854  28.650  1.00  0.00     0.009 A 
ATOM     65  C   UNL A   1      35.728  30.803  28.934  1.00  0.00     0.009 A 
ATOM     66  C   UNL A   1      35.860  33.441  28.041  1.00  0.00     0.001 A 
ATOM     67  C   UNL A   1      34.627  31.381  28.297  1.00  0.00     0.001 A 
ATOM     68  C   UNL A   1      34.690  32.703  27.862  1.00  0.00     0.000 A 
ENDBRANCH  44  63
BRANCH  56  69
ATOM     69  C   UNL A   1      39.213  32.153  35.678  1.00  0.00    -0.014 A 
ATOM     70  C   UNL A   1      39.592  33.489  35.877  1.00  0.00     0.009 A 
ATOM     71  C   UNL A   1      38.269  31.576  36.544  1.00  0.00     0.009 A 
ATOM     72  C   UNL A   1      39.038  34.232  36.922  1.00  0.00     0.001 A 
ATOM     73  C   UNL A   1      37.698  32.329  37.571  1.00  0.00     0.001 A 
ATOM     74  C   UNL A   1      38.083  33.655  37.760  1.00  0.00     0.000 A 
ENDBRANCH  56  69
ENDBRANCH  30  31
ENDBRANCH  23  25
ENDBRANCH  22  23
ENDBRANCH  21  22
ENDBRANCH  20  21
ENDBRANCH  19  20
ENDBRANCH   1  19
TORSDOF 18
ENDMDL
MODEL 2
REMARK VINA RESULT:      -9.2      3.488      4.955
REMARK SMILES O=C(Cc1c(F)cc(Cl)cc1F)OCCOCCOCCOC(=O)c1ccc(-c2c3nc(c(-c4ccccc4)c4ccc([nH]4)c(-c4ccccc4)c4nc(c(-c5ccccc5)c5ccc2[nH]5)C=C4)C=C3)cc1
REMARK SMILES IDX 18 1 17 2 16 3 15 4 14 5 13 6 2 7 1 8 3 9 4 10 5 11 11 12
REMARK SMILES IDX 6 13 7 14 10 15 12 16 8 17 9 18 19 19 20 20 21 21 22 22
REMARK SMILES IDX 23 23 24 24 25 25 26 26 72 27 27 28 71 29 28 30 29 31 30 32
REMARK SMILES IDX 65 33 31 34 70 35 64 36 66 37 32 38 69 39 63 40 62 41 33 43
REMARK SMILES IDX 55 44 40 45 54 46 41 47 44 48 53 49 67 50 42 51 43 52 52 54
REMARK SMILES IDX 68 55 45 56 34 57 35 58 39 59 36 60 38 61 37 62 56 63 57 64
REMARK SMILES IDX 61 65 58 66 60 67 59 68 46 69 47 70 51 71 48 72 50 73 49 74
REMARK H PARENT 66 42 44 53
REMARK Flexibility Score: inf
ROOT
ATOM      1  C   UNL A   1      34.040  22.516  24.016  1.00  0.00     0.188 C 
ENDROOT
BRANCH   1   2
ATOM      2  C   UNL A   1      34.467  23.460  22.886  1.00  0.00     0.188 C 
BRANCH   2   3
ATOM      3  O   UNL A   1      33.580  23.557  21.789  1.00  0.00    -0.376 OA
BRANCH   3   4
ATOM      4  C   UNL A   1      32.885  24.771  21.523  1.00  0.00     0.202 C 
BRANCH   4   5
ATOM      5  C   UNL A   1      33.323  26.089  22.161  1.00  0.00     0.261 C 
BRANCH   5   6
ATOM      6  O   UNL A   1      32.438  27.242  22.222  1.00  0.00    -0.463 OA
BRANCH   6   7
ATOM      7  C   UNL A   1      31.216  27.473  22.728  1.00  0.00     0.310 C 
ATOM      8  O   UNL A   1      30.331  27.892  21.982  1.00  0.00    -0.252 OA
BRANCH   7   9
ATOM      9  C   UNL A   1      30.908  27.174  24.167  1.00  0.00     0.164 C 
BRANCH   9  10
ATOM     10  C   UNL A   1      31.759  27.982  25.096  1.00  0.00     0.035 A 
ATOM     11  C   UNL A   1      31.561  29.351  25.269  1.00  0.00     0.131 A 
ATOM     12  C   UNL A   1      32.836  27.392  25.758  1.00  0.00     0.131 A 
ATOM     13  F   UNL A   1      30.547  29.968  24.652  1.00  0.00    -0.207 F 
ATOM     14  C   UNL A   1      32.402  30.118  26.063  1.00  0.00     0.060 A 
ATOM     15  C   UNL A   1      33.694  28.138  26.557  1.00  0.00     0.060 A 
ATOM     16  F   UNL A   1      33.060  26.078  25.623  1.00  0.00    -0.207 F 
ATOM     17  C   UNL A   1      33.475  29.504  26.701  1.00  0.00     0.046 A 
ATOM     18  Cl  UNL A   1      34.539  30.447  27.665  1.00  0.00    -0.084 Cl
ENDBRANCH   9  10
ENDBRANCH   7   9
ENDBRANCH   6   7
ENDBRANCH   5   6
ENDBRANCH   4   5
ENDBRANCH   3   4
ENDBRANCH   2   3
ENDBRANCH   1   2
BRANCH   1  19
ATOM     19  O   UNL A   1      35.029  21.666  24.570  1.00  0.00    -0.376 OA
BRANCH  19  20
ATOM     20  C   UNL A   1      35.543  21.996  25.860  1.00  0.00     0.202 C 
BRANCH  20  21
ATOM     21  C   UNL A   1      36.104  23.405  26.118  1.00  0.00     0.261 C 
BRANCH  21  22
ATOM     22  O   UNL A   1      37.363  23.681  25.459  1.00  0.00    -0.460 OA
BRANCH  22  23
ATOM     23  C   UNL A   1      38.466  23.187  26.056  1.00  0.00     0.338 C 
ATOM     24  O   UNL A   1      38.903  22.042  25.986  1.00  0.00    -0.246 OA
BRANCH  23  25
ATOM     25  C   UNL A   1      39.212  24.257  26.743  1.00  0.00     0.060 A 
ATOM     26  C   UNL A   1      39.013  24.448  28.118  1.00  0.00     0.016 A 
ATOM     27  C   UNL A   1      39.984  25.166  26.013  1.00  0.00     0.016 A 
ATOM     28  C   UNL A   1      39.578  25.548  28.764  1.00  0.00     0.010 A 
ATOM     29  C   UNL A   1      40.527  26.283  26.660  1.00  0.00     0.010 A 
ATOM     30  C   UNL A   1      40.303  26.497  28.032  1.00  0.00    -0.014 A 
BRANCH  30  31
ATOM     31  C   UNL A   1      40.653  27.793  28.669  1.00  0.00     0.031 A 
ATOM     32  C   UNL A   1      42.072  28.014  29.126  1.00  0.00     0.074 A 
ATOM     33  C   UNL A   1      39.750  28.783  28.799  1.00  0.00     0.049 A 
ATOM     34  N   UNL A   1      42.613  29.080  29.660  1.00  0.00    -0.248 NA
ATOM     35  C   UNL A   1      43.006  26.887  28.954  1.00  0.00     0.031 C 
ATOM     36  C   UNL A   1      38.356  28.721  28.366  1.00  0.00     0.029 A 
ATOM     37  N   UNL A   1      39.882  30.045  29.330  1.00  0.00    -0.354 N 
ATOM     38  C   UNL A   1      43.947  28.757  29.876  1.00  0.00     0.074 A 
ATOM     39  C   UNL A   1      44.129  27.386  29.450  1.00  0.00     0.031 C 
ATOM     40  C   UNL A   1      37.759  29.893  28.654  1.00  0.00     0.029 A 
ATOM     41  C   UNL A   1      38.721  30.780  29.307  1.00  0.00     0.049 A 
ATOM     42  H   UNL A   1      40.729  30.389  29.694  1.00  0.00     0.167 HD
ATOM     43  C   UNL A   1      44.938  29.534  30.370  1.00  0.00     0.031 A 
ATOM     44  C   UNL A   1      38.462  32.021  29.768  1.00  0.00     0.031 A 
ATOM     45  C   UNL A   1      44.769  30.894  30.799  1.00  0.00     0.049 A 
ATOM     46  C   UNL A   1      39.566  32.831  30.401  1.00  0.00     0.074 A 
ATOM     47  C   UNL A   1      45.733  31.766  31.277  1.00  0.00     0.029 A 
ATOM     48  N   UNL A   1      43.566  31.576  30.813  1.00  0.00    -0.354 N 
ATOM     49  N   UNL A   1      40.836  32.537  30.532  1.00  0.00    -0.248 NA
ATOM     50  C   UNL A   1      39.200  34.148  30.950  1.00  0.00     0.031 C 
ATOM     51  C   UNL A   1      45.100  32.955  31.642  1.00  0.00     0.029 A 
ATOM     52  C   UNL A   1      43.754  32.842  31.338  1.00  0.00     0.049 A 
ATOM     53  H   UNL A   1      42.706  31.215  30.497  1.00  0.00     0.167 HD
ATOM     54  C   UNL A   1      41.420  33.634  31.157  1.00  0.00     0.074 A 
ATOM     55  C   UNL A   1      40.373  34.610  31.362  1.00  0.00     0.031 C 
ATOM     56  C   UNL A   1      42.708  33.811  31.534  1.00  0.00     0.031 A 
BRANCH  43  57
ATOM     57  C   UNL A   1      46.311  28.939  30.487  1.00  0.00    -0.014 A 
ATOM     58  C   UNL A   1      47.218  29.010  29.419  1.00  0.00     0.009 A 
ATOM     59  C   UNL A   1      46.736  28.405  31.714  1.00  0.00     0.009 A 
ATOM     60  C   UNL A   1      48.527  28.551  29.577  1.00  0.00     0.001 A 
ATOM     61  C   UNL A   1      48.051  27.967  31.875  1.00  0.00     0.001 A 
ATOM     62  C   UNL A   1      48.945  28.039  30.806  1.00  0.00     0.000 A 
ENDBRANCH  43  57
BRANCH  44  63
ATOM     63  C   UNL A   1      37.086  32.582  29.682  1.00  0.00    -0.014 A 
ATOM     64  C   UNL A   1      36.130  32.300  30.670  1.00  0.00     0.009 A 
ATOM     65  C   UNL A   1      36.705  33.362  28.578  1.00  0.00     0.009 A 
ATOM     66  C   UNL A   1      34.817  32.760  30.539  1.00  0.00     0.001 A 
ATOM     67  C   UNL A   1      35.400  33.847  28.464  1.00  0.00     0.001 A 
ATOM     68  C   UNL A   1      34.454  33.535  29.438  1.00  0.00     0.000 A 
ENDBRANCH  44  63
BRANCH  56  69
ATOM     69  C   UNL A   1      43.084  35.100  32.210  1.00  0.00    -0.014 A 
ATOM     70  C   UNL A   1      43.596  36.174  31.468  1.00  0.00     0.009 A 
ATOM     71  C   UNL A   1      42.805  35.283  33.574  1.00  0.00     0.009 A 
ATOM     72  C   UNL A   1      43.827  37.408  32.081  1.00  0.00     0.001 A 
ATOM     73  C   UNL A   1      43.012  36.525  34.177  1.00  0.00     0.001 A 
ATOM     74  C   UNL A   1      43.524  37.585  33.432  1.00  0.00     0.000 A 
ENDBRANCH  56  69
ENDBRANCH  30  31
ENDBRANCH  23  25
ENDBRANCH  22  23
ENDBRANCH  21  22
ENDBRANCH  20  21
ENDBRANCH  19  20
ENDBRANCH   1  19
TORSDOF 18
ENDMDL
MODEL 3
REMARK VINA RESULT:      -9.1      8.071     12.287
REMARK SMILES O=C(Cc1c(F)cc(Cl)cc1F)OCCOCCOCCOC(=O)c1ccc(-c2c3nc(c(-c4ccccc4)c4ccc([nH]4)c(-c4ccccc4)c4nc(c(-c5ccccc5)c5ccc2[nH]5)C=C4)C=C3)cc1
REMARK SMILES IDX 18 1 17 2 16 3 15 4 14 5 13 6 2 7 1 8 3 9 4 10 5 11 11 12
REMARK SMILES IDX 6 13 7 14 10 15 12 16 8 17 9 18 19 19 20 20 21 21 22 22
REMARK SMILES IDX 23 23 24 24 25 25 26 26 72 27 27 28 71 29 28 30 29 31 30 32
REMARK SMILES IDX 65 33 31 34 70 35 64 36 66 37 32 38 69 39 63 40 62 41 33 43
REMARK SMILES IDX 55 44 40 45 54 46 41 47 44 48 53 49 67 50 42 51 43 52 52 54
REMARK SMILES IDX 68 55 45 56 34 57 35 58 39 59 36 60 38 61 37 62 56 63 57 64
REMARK SMILES IDX 61 65 58 66 60 67 59 68 46 69 47 70 51 71 48 72 50 73 49 74
REMARK H PARENT 66 42 44 53
REMARK Flexibility Score: inf
ROOT
ATOM      1  C   UNL A   1      46.535  20.480  39.409  1.00  0.00     0.188 C 
ENDROOT
BRANCH   1   2
ATOM      2  C   UNL A   1      47.228  19.275  38.762  1.00  0.00     0.188 C 
BRANCH   2   3
ATOM      3  O   UNL A   1      46.884  18.008  39.286  1.00  0.00    -0.376 OA
BRANCH   3   4
ATOM      4  C   UNL A   1      45.522  17.596  39.355  1.00  0.00     0.202 C 
BRANCH   4   5
ATOM      5  C   UNL A   1      44.973  16.884  40.591  1.00  0.00     0.261 C 
BRANCH   5   6
ATOM      6  O   UNL A   1      43.567  16.531  40.708  1.00  0.00    -0.463 OA
BRANCH   6   7
ATOM      7  C   UNL A   1      42.805  15.515  40.270  1.00  0.00     0.310 C 
ATOM      8  O   UNL A   1      43.116  14.945  39.224  1.00  0.00    -0.252 OA
BRANCH   7   9
ATOM      9  C   UNL A   1      41.624  15.038  41.065  1.00  0.00     0.164 C 
BRANCH   9  10
ATOM     10  C   UNL A   1      41.987  13.906  41.974  1.00  0.00     0.035 A 
ATOM     11  C   UNL A   1      42.629  14.122  43.193  1.00  0.00     0.131 A 
ATOM     12  C   UNL A   1      41.761  12.587  41.583  1.00  0.00     0.131 A 
ATOM     13  F   UNL A   1      42.876  15.368  43.613  1.00  0.00    -0.207 F 
ATOM     14  C   UNL A   1      43.042  13.070  43.998  1.00  0.00     0.060 A 
ATOM     15  C   UNL A   1      42.168  11.516  42.370  1.00  0.00     0.060 A 
ATOM     16  F   UNL A   1      41.143  12.334  40.421  1.00  0.00    -0.207 F 
ATOM     17  C   UNL A   1      42.815  11.765  43.575  1.00  0.00     0.046 A 
ATOM     18  Cl  UNL A   1      43.347  10.454  44.550  1.00  0.00    -0.084 Cl
ENDBRANCH   9  10
ENDBRANCH   7   9
ENDBRANCH   6   7
ENDBRANCH   5   6
ENDBRANCH   4   5
ENDBRANCH   3   4
ENDBRANCH   2   3
ENDBRANCH   1   2
BRANCH   1  19
ATOM     19  O   UNL A   1      45.783  21.335  38.564  1.00  0.00    -0.376 OA
BRANCH  19  20
ATOM     20  C   UNL A   1      46.486  22.350  37.849  1.00  0.00     0.202 C 
BRANCH  20  21
ATOM     21  C   UNL A   1      46.384  23.815  38.310  1.00  0.00     0.261 C 
BRANCH  21  22
ATOM     22  O   UNL A   1      45.588  24.662  37.447  1.00  0.00    -0.460 OA
BRANCH  22  23
ATOM     23  C   UNL A   1      46.272  25.451  36.595  1.00  0.00     0.338 C 
ATOM     24  O   UNL A   1      47.487  25.615  36.543  1.00  0.00    -0.246 OA
BRANCH  23  25
ATOM     25  C   UNL A   1      45.371  26.037  35.587  1.00  0.00     0.060 A 
ATOM     26  C   UNL A   1      45.639  27.327  35.105  1.00  0.00     0.016 A 
ATOM     27  C   UNL A   1      44.185  25.387  35.231  1.00  0.00     0.016 A 
ATOM     28  C   UNL A   1      44.721  27.971  34.275  1.00  0.00     0.010 A 
ATOM     29  C   UNL A   1      43.254  26.048  34.419  1.00  0.00     0.010 A 
ATOM     30  C   UNL A   1      43.503  27.355  33.960  1.00  0.00    -0.014 A 
BRANCH  30  31
ATOM     31  C   UNL A   1      42.428  28.155  33.318  1.00  0.00     0.031 A 
ATOM     32  C   UNL A   1      42.168  27.967  31.846  1.00  0.00     0.074 A 
ATOM     33  C   UNL A   1      41.655  28.998  34.029  1.00  0.00     0.049 A 
ATOM     34  N   UNL A   1      41.253  28.519  31.090  1.00  0.00    -0.248 NA
ATOM     35  C   UNL A   1      43.052  27.029  31.132  1.00  0.00     0.031 C 
ATOM     36  C   UNL A   1      41.770  29.248  35.463  1.00  0.00     0.029 A 
ATOM     37  N   UNL A   1      40.610  29.799  33.630  1.00  0.00    -0.354 N 
ATOM     38  C   UNL A   1      41.444  27.989  29.820  1.00  0.00     0.074 A 
ATOM     39  C   UNL A   1      42.581  27.099  29.895  1.00  0.00     0.031 C 
ATOM     40  C   UNL A   1      40.833  30.145  35.825  1.00  0.00     0.029 A 
ATOM     41  C   UNL A   1      40.066  30.547  34.646  1.00  0.00     0.049 A 
ATOM     42  H   UNL A   1      40.283  29.832  32.703  1.00  0.00     0.167 HD
ATOM     43  C   UNL A   1      40.728  28.210  28.693  1.00  0.00     0.031 A 
ATOM     44  C   UNL A   1      39.071  31.458  34.626  1.00  0.00     0.031 A 
ATOM     45  C   UNL A   1      39.599  29.093  28.606  1.00  0.00     0.049 A 
ATOM     46  C   UNL A   1      38.352  31.754  33.333  1.00  0.00     0.074 A 
ATOM     47  C   UNL A   1      38.793  29.345  27.508  1.00  0.00     0.029 A 
ATOM     48  N   UNL A   1      39.123  29.874  29.644  1.00  0.00    -0.354 N 
ATOM     49  N   UNL A   1      38.499  31.192  32.159  1.00  0.00    -0.248 NA
ATOM     50  C   UNL A   1      37.327  32.811  33.364  1.00  0.00     0.031 C 
ATOM     51  C   UNL A   1      37.869  30.327  27.864  1.00  0.00     0.029 A 
ATOM     52  C   UNL A   1      38.063  30.644  29.197  1.00  0.00     0.049 A 
ATOM     53  H   UNL A   1      39.482  29.880  30.560  1.00  0.00     0.167 HD
ATOM     54  C   UNL A   1      37.576  31.811  31.322  1.00  0.00     0.074 A 
ATOM     55  C   UNL A   1      36.859  32.777  32.124  1.00  0.00     0.031 C 
ATOM     56  C   UNL A   1      37.351  31.601  30.003  1.00  0.00     0.031 A 
BRANCH  43  57
ATOM     57  C   UNL A   1      41.139  27.490  27.443  1.00  0.00    -0.014 A 
ATOM     58  C   UNL A   1      42.117  28.028  26.593  1.00  0.00     0.009 A 
ATOM     59  C   UNL A   1      40.626  26.211  27.175  1.00  0.00     0.009 A 
ATOM     60  C   UNL A   1      42.569  27.298  25.491  1.00  0.00     0.001 A 
ATOM     61  C   UNL A   1      41.095  25.476  26.086  1.00  0.00     0.001 A 
ATOM     62  C   UNL A   1      42.066  26.020  25.245  1.00  0.00     0.000 A 
ENDBRANCH  43  57
BRANCH  44  63
ATOM     63  C   UNL A   1      38.701  32.194  35.866  1.00  0.00    -0.014 A 
ATOM     64  C   UNL A   1      39.191  33.486  36.110  1.00  0.00     0.009 A 
ATOM     65  C   UNL A   1      37.897  31.582  36.841  1.00  0.00     0.009 A 
ATOM     66  C   UNL A   1      38.908  34.137  37.314  1.00  0.00     0.001 A 
ATOM     67  C   UNL A   1      37.591  32.246  38.031  1.00  0.00     0.001 A 
ATOM     68  C   UNL A   1      38.106  33.518  38.272  1.00  0.00     0.000 A 
ENDBRANCH  44  63
BRANCH  56  69
ATOM     69  C   UNL A   1      36.291  32.419  29.321  1.00  0.00    -0.014 A 
ATOM     70  C   UNL A   1      35.008  31.895  29.107  1.00  0.00     0.009 A 
ATOM     71  C   UNL A   1      36.539  33.765  29.005  1.00  0.00     0.009 A 
ATOM     72  C   UNL A   1      33.994  32.701  28.585  1.00  0.00     0.001 A 
ATOM     73  C   UNL A   1      35.517  34.575  28.508  1.00  0.00     0.001 A 
ATOM     74  C   UNL A   1      34.246  34.043  28.297  1.00  0.00     0.000 A 
ENDBRANCH  56  69
ENDBRANCH  30  31
ENDBRANCH  23  25
ENDBRANCH  22  23
ENDBRANCH  21  22
ENDBRANCH  20  21
ENDBRANCH  19  20
ENDBRANCH   1  19
TORSDOF 18
ENDMDL
