MODEL 1
REMARK VINA RESULT:     -10.1      0.000      0.000
REMARK SMILES CSc1nc2nnc(C(=O)OCCOCCOCCOC(=O)c3ccc(-c4c5nc(c(-c6ccccc6)c6ccc([nH]6)c(-c6ccccc6)c6nc(c(-c7ccccc7)c7ccc4[nH]7)C=C6)C=C5)cc3)c(O)n2n1
REMARK SMILES IDX 16 1 15 2 14 3 13 4 12 5 11 6 9 7 10 8 8 9 3 10 4 11 74 12
REMARK SMILES IDX 5 13 73 14 6 15 71 16 7 17 2 18 1 19 72 20 17 22 18 23 19 24
REMARK SMILES IDX 20 25 21 26 22 27 23 28 24 29 70 30 25 31 69 32 26 33 27 34
REMARK SMILES IDX 28 35 63 36 29 37 68 38 62 39 64 40 30 41 67 42 61 43 60 44
REMARK SMILES IDX 31 46 53 47 38 48 52 49 39 50 42 51 51 52 65 53 40 54 41 55
REMARK SMILES IDX 50 57 66 58 43 59 32 60 33 61 37 62 34 63 36 64 35 65 54 66
REMARK SMILES IDX 55 67 59 68 56 69 58 70 57 71 44 72 45 73 49 74 46 75 48 76
REMARK SMILES IDX 47 77
REMARK H PARENT 72 21 64 45 42 56
REMARK Flexibility Score: inf
ROOT
ATOM      1  C   UNL A   1      39.894  21.653  26.085  1.00  0.00     0.188 C 
ENDROOT
BRANCH   1   2
ATOM      2  C   UNL A   1      38.547  22.390  26.186  1.00  0.00     0.188 C 
BRANCH   2   3
ATOM      3  O   UNL A   1      37.529  21.909  25.341  1.00  0.00    -0.376 OA
BRANCH   3   4
ATOM      4  C   UNL A   1      36.166  21.987  25.719  1.00  0.00     0.202 C 
BRANCH   4   5
ATOM      5  C   UNL A   1      35.069  20.936  25.426  1.00  0.00     0.261 C 
BRANCH   5   6
ATOM      6  O   UNL A   1      34.031  21.252  24.496  1.00  0.00    -0.458 OA
BRANCH   6   7
ATOM      7  C   UNL A   1      32.767  21.225  24.973  1.00  0.00     0.364 C 
ATOM      8  O   UNL A   1      32.089  20.221  25.146  1.00  0.00    -0.244 OA
BRANCH   7   9
ATOM      9  C   UNL A   1      32.386  22.554  25.518  1.00  0.00     0.232 A 
ATOM     10  C   UNL A   1      31.696  26.836  25.602  1.00  0.00     0.210 A 
ATOM     11  N   UNL A   1      31.381  26.197  26.767  1.00  0.00    -0.182 NA
ATOM     12  N   UNL A   1      32.075  26.045  24.602  1.00  0.00    -0.134 NA
ATOM     13  C   UNL A   1      31.613  24.930  26.491  1.00  0.00     0.275 A 
ATOM     14  N   UNL A   1      32.073  24.828  25.185  1.00  0.00    -0.159 N 
ATOM     15  N   UNL A   1      31.511  23.799  27.256  1.00  0.00    -0.108 NA
ATOM     16  C   UNL A   1      32.481  23.601  24.672  1.00  0.00     0.251 A 
ATOM     17  N   UNL A   1      31.873  22.674  26.798  1.00  0.00    -0.134 NA
BRANCH  10  18
ATOM     18  S   UNL A   1      31.656  28.571  25.437  1.00  0.00    -0.088 SA
ATOM     19  C   UNL A   1      31.908  29.080  27.155  1.00  0.00     0.094 C 
ENDBRANCH  10  18
BRANCH  16  20
ATOM     20  O   UNL A   1      32.932  23.539  23.360  1.00  0.00    -0.491 OA
ATOM     21  H   UNL A   1      33.298  22.743  23.027  1.00  0.00     0.295 HD
ENDBRANCH  16  20
ENDBRANCH   7   9
ENDBRANCH   6   7
ENDBRANCH   5   6
ENDBRANCH   4   5
ENDBRANCH   3   4
ENDBRANCH   2   3
ENDBRANCH   1   2
BRANCH   1  22
ATOM     22  O   UNL A   1      40.393  20.915  27.185  1.00  0.00    -0.376 OA
BRANCH  22  23
ATOM     23  C   UNL A   1      41.760  20.560  27.329  1.00  0.00     0.202 C 
BRANCH  23  24
ATOM     24  C   UNL A   1      42.500  19.545  26.460  1.00  0.00     0.261 C 
BRANCH  24  25
ATOM     25  O   UNL A   1      42.963  20.015  25.211  1.00  0.00    -0.460 OA
BRANCH  25  26
ATOM     26  C   UNL A   1      44.263  20.331  25.212  1.00  0.00     0.338 C 
ATOM     27  O   UNL A   1      45.221  19.546  25.246  1.00  0.00    -0.246 OA
BRANCH  26  28
ATOM     28  C   UNL A   1      44.421  21.776  25.291  1.00  0.00     0.060 A 
ATOM     29  C   UNL A   1      45.201  22.250  26.344  1.00  0.00     0.016 A 
ATOM     30  C   UNL A   1      43.556  22.609  24.563  1.00  0.00     0.016 A 
ATOM     31  C   UNL A   1      44.922  23.501  26.831  1.00  0.00     0.010 A 
ATOM     32  C   UNL A   1      43.280  23.865  25.054  1.00  0.00     0.010 A 
ATOM     33  C   UNL A   1      43.894  24.250  26.238  1.00  0.00    -0.014 A 
BRANCH  33  34
ATOM     34  C   UNL A   1      43.550  25.495  26.885  1.00  0.00     0.031 A 
ATOM     35  C   UNL A   1      44.533  26.551  26.607  1.00  0.00     0.074 A 
ATOM     36  C   UNL A   1      42.477  25.665  27.677  1.00  0.00     0.049 A 
ATOM     37  N   UNL A   1      45.457  26.963  27.403  1.00  0.00    -0.248 NA
ATOM     38  C   UNL A   1      44.623  27.070  25.235  1.00  0.00     0.031 C 
ATOM     39  C   UNL A   1      41.318  24.782  27.820  1.00  0.00     0.029 A 
ATOM     40  N   UNL A   1      42.160  26.730  28.468  1.00  0.00    -0.354 N 
ATOM     41  C   UNL A   1      46.100  27.978  26.713  1.00  0.00     0.074 A 
ATOM     42  C   UNL A   1      45.691  27.861  25.336  1.00  0.00     0.031 C 
ATOM     43  C   UNL A   1      40.326  25.452  28.453  1.00  0.00     0.029 A 
ATOM     44  C   UNL A   1      40.843  26.735  28.902  1.00  0.00     0.049 A 
ATOM     45  H   UNL A   1      42.807  27.430  28.709  1.00  0.00     0.167 HD
ATOM     46  C   UNL A   1      46.618  29.031  27.397  1.00  0.00     0.031 A 
ATOM     47  C   UNL A   1      40.221  27.746  29.550  1.00  0.00     0.031 A 
ATOM     48  C   UNL A   1      46.737  28.748  28.806  1.00  0.00     0.049 A 
ATOM     49  C   UNL A   1      41.252  28.552  30.239  1.00  0.00     0.074 A 
ATOM     50  C   UNL A   1      47.593  28.065  29.639  1.00  0.00     0.029 A 
ATOM     51  N   UNL A   1      45.575  28.958  29.501  1.00  0.00    -0.354 N 
ATOM     52  N   UNL A   1      41.953  28.105  31.241  1.00  0.00    -0.248 NA
ATOM     53  C   UNL A   1      41.744  29.781  29.626  1.00  0.00     0.031 C 
ATOM     54  C   UNL A   1      46.856  27.775  30.828  1.00  0.00     0.029 A 
ATOM     55  C   UNL A   1      45.576  28.309  30.705  1.00  0.00     0.049 A 
ATOM     56  H   UNL A   1      44.829  29.509  29.173  1.00  0.00     0.167 HD
ATOM     57  C   UNL A   1      43.175  28.730  31.100  1.00  0.00     0.074 A 
ATOM     58  C   UNL A   1      42.933  29.870  30.227  1.00  0.00     0.031 C 
ATOM     59  C   UNL A   1      44.334  28.085  31.413  1.00  0.00     0.031 A 
BRANCH  46  60
ATOM     60  C   UNL A   1      46.461  30.453  26.916  1.00  0.00    -0.014 A 
ATOM     61  C   UNL A   1      47.575  31.306  26.983  1.00  0.00     0.009 A 
ATOM     62  C   UNL A   1      45.208  31.064  26.698  1.00  0.00     0.009 A 
ATOM     63  C   UNL A   1      47.435  32.695  26.883  1.00  0.00     0.001 A 
ATOM     64  C   UNL A   1      45.069  32.447  26.563  1.00  0.00     0.001 A 
ATOM     65  C   UNL A   1      46.182  33.265  26.678  1.00  0.00     0.000 A 
ENDBRANCH  46  60
BRANCH  47  66
ATOM     66  C   UNL A   1      38.836  28.239  29.395  1.00  0.00    -0.014 A 
ATOM     67  C   UNL A   1      38.047  28.486  30.531  1.00  0.00     0.009 A 
ATOM     68  C   UNL A   1      38.407  28.770  28.167  1.00  0.00     0.009 A 
ATOM     69  C   UNL A   1      36.913  29.304  30.455  1.00  0.00     0.001 A 
ATOM     70  C   UNL A   1      37.270  29.582  28.090  1.00  0.00     0.001 A 
ATOM     71  C   UNL A   1      36.538  29.868  29.238  1.00  0.00     0.000 A 
ENDBRANCH  47  66
BRANCH  59  72
ATOM     72  C   UNL A   1      44.268  26.968  32.408  1.00  0.00    -0.014 A 
ATOM     73  C   UNL A   1      44.348  25.609  32.064  1.00  0.00     0.009 A 
ATOM     74  C   UNL A   1      44.186  27.314  33.765  1.00  0.00     0.009 A 
ATOM     75  C   UNL A   1      44.334  24.625  33.059  1.00  0.00     0.001 A 
ATOM     76  C   UNL A   1      44.191  26.334  34.757  1.00  0.00     0.001 A 
ATOM     77  C   UNL A   1      44.261  24.989  34.404  1.00  0.00     0.000 A 
ENDBRANCH  59  72
ENDBRANCH  33  34
ENDBRANCH  26  28
ENDBRANCH  25  26
ENDBRANCH  24  25
ENDBRANCH  23  24
ENDBRANCH  22  23
ENDBRANCH   1  22
TORSDOF 19
ENDMDL
MODEL 2
REMARK VINA RESULT:      -9.7      4.994     10.119
REMARK SMILES CSc1nc2nnc(C(=O)OCCOCCOCCOC(=O)c3ccc(-c4c5nc(c(-c6ccccc6)c6ccc([nH]6)c(-c6ccccc6)c6nc(c(-c7ccccc7)c7ccc4[nH]7)C=C6)C=C5)cc3)c(O)n2n1
REMARK SMILES IDX 16 1 15 2 14 3 13 4 12 5 11 6 9 7 10 8 8 9 3 10 4 11 74 12
REMARK SMILES IDX 5 13 73 14 6 15 71 16 7 17 2 18 1 19 72 20 17 22 18 23 19 24
REMARK SMILES IDX 20 25 21 26 22 27 23 28 24 29 70 30 25 31 69 32 26 33 27 34
REMARK SMILES IDX 28 35 63 36 29 37 68 38 62 39 64 40 30 41 67 42 61 43 60 44
REMARK SMILES IDX 31 46 53 47 38 48 52 49 39 50 42 51 51 52 65 53 40 54 41 55
REMARK SMILES IDX 50 57 66 58 43 59 32 60 33 61 37 62 34 63 36 64 35 65 54 66
REMARK SMILES IDX 55 67 59 68 56 69 58 70 57 71 44 72 45 73 49 74 46 75 48 76
REMARK SMILES IDX 47 77
REMARK H PARENT 72 21 64 45 42 56
REMARK Flexibility Score: inf
ROOT
ATOM      1  C   UNL A   1      33.685  32.762  28.057  1.00  0.00     0.188 C 
ENDROOT
BRANCH   1   2
ATOM      2  C   UNL A   1      34.157  31.330  27.747  1.00  0.00     0.188 C 
BRANCH   2   3
ATOM      3  O   UNL A   1      33.138  30.409  27.442  1.00  0.00    -0.376 OA
BRANCH   3   4
ATOM      4  C   UNL A   1      32.819  30.089  26.100  1.00  0.00     0.202 C 
BRANCH   4   5
ATOM      5  C   UNL A   1      31.450  29.596  25.573  1.00  0.00     0.261 C 
BRANCH   5   6
ATOM      6  O   UNL A   1      31.291  28.218  25.227  1.00  0.00    -0.458 OA
BRANCH   6   7
ATOM      7  C   UNL A   1      31.497  27.322  26.218  1.00  0.00     0.364 C 
ATOM      8  O   UNL A   1      31.064  27.405  27.360  1.00  0.00    -0.244 OA
BRANCH   7   9
ATOM      9  C   UNL A   1      32.100  26.077  25.678  1.00  0.00     0.232 A 
ATOM     10  C   UNL A   1      32.481  21.862  24.721  1.00  0.00     0.210 A 
ATOM     11  N   UNL A   1      33.517  22.632  24.273  1.00  0.00    -0.182 NA
ATOM     12  N   UNL A   1      31.481  22.527  25.293  1.00  0.00    -0.134 NA
ATOM     13  C   UNL A   1      33.161  23.852  24.622  1.00  0.00     0.275 A 
ATOM     14  N   UNL A   1      31.939  23.797  25.278  1.00  0.00    -0.159 N 
ATOM     15  N   UNL A   1      33.790  25.059  24.475  1.00  0.00    -0.108 NA
ATOM     16  C   UNL A   1      31.383  24.945  25.834  1.00  0.00     0.251 A 
ATOM     17  N   UNL A   1      33.290  26.113  24.971  1.00  0.00    -0.134 NA
BRANCH  10  18
ATOM     18  S   UNL A   1      32.477  20.123  24.600  1.00  0.00    -0.088 SA
ATOM     19  C   UNL A   1      34.235  19.764  24.832  1.00  0.00     0.094 C 
ENDBRANCH  10  18
BRANCH  16  20
ATOM     20  O   UNL A   1      30.157  24.850  26.480  1.00  0.00    -0.491 OA
ATOM     21  H   UNL A   1      29.959  24.097  27.002  1.00  0.00     0.295 HD
ENDBRANCH  16  20
ENDBRANCH   7   9
ENDBRANCH   6   7
ENDBRANCH   5   6
ENDBRANCH   4   5
ENDBRANCH   3   4
ENDBRANCH   2   3
ENDBRANCH   1   2
BRANCH   1  22
ATOM     22  O   UNL A   1      34.377  33.558  29.000  1.00  0.00    -0.376 OA
BRANCH  22  23
ATOM     23  C   UNL A   1      34.224  34.966  29.093  1.00  0.00     0.202 C 
BRANCH  23  24
ATOM     24  C   UNL A   1      33.109  35.679  29.856  1.00  0.00     0.261 C 
BRANCH  24  25
ATOM     25  O   UNL A   1      33.457  36.204  31.120  1.00  0.00    -0.460 OA
BRANCH  25  26
ATOM     26  C   UNL A   1      33.040  35.448  32.142  1.00  0.00     0.338 C 
ATOM     27  O   UNL A   1      31.909  35.437  32.649  1.00  0.00    -0.246 OA
BRANCH  26  28
ATOM     28  C   UNL A   1      34.158  34.693  32.687  1.00  0.00     0.060 A 
ATOM     29  C   UNL A   1      35.394  35.339  32.683  1.00  0.00     0.016 A 
ATOM     30  C   UNL A   1      34.038  33.305  32.866  1.00  0.00     0.016 A 
ATOM     31  C   UNL A   1      36.520  34.562  32.600  1.00  0.00     0.010 A 
ATOM     32  C   UNL A   1      35.170  32.528  32.784  1.00  0.00     0.010 A 
ATOM     33  C   UNL A   1      36.382  33.165  32.551  1.00  0.00    -0.014 A 
BRANCH  33  34
ATOM     34  C   UNL A   1      37.590  32.408  32.318  1.00  0.00     0.031 A 
ATOM     35  C   UNL A   1      38.442  32.346  33.514  1.00  0.00     0.074 A 
ATOM     36  C   UNL A   1      37.917  31.851  31.139  1.00  0.00     0.049 A 
ATOM     37  N   UNL A   1      39.506  33.039  33.729  1.00  0.00    -0.248 NA
ATOM     38  C   UNL A   1      37.958  31.580  34.670  1.00  0.00     0.031 C 
ATOM     39  C   UNL A   1      37.053  31.633  29.978  1.00  0.00     0.029 A 
ATOM     40  N   UNL A   1      39.096  31.276  30.765  1.00  0.00    -0.354 N 
ATOM     41  C   UNL A   1      39.969  32.611  34.963  1.00  0.00     0.074 A 
ATOM     42  C   UNL A   1      38.889  31.881  35.577  1.00  0.00     0.031 C 
ATOM     43  C   UNL A   1      37.659  30.768  29.131  1.00  0.00     0.029 A 
ATOM     44  C   UNL A   1      39.009  30.515  29.609  1.00  0.00     0.049 A 
ATOM     45  H   UNL A   1      39.933  31.391  31.270  1.00  0.00     0.167 HD
ATOM     46  C   UNL A   1      41.305  32.587  35.206  1.00  0.00     0.031 A 
ATOM     47  C   UNL A   1      39.972  29.706  29.112  1.00  0.00     0.031 A 
ATOM     48  C   UNL A   1      42.040  33.369  34.243  1.00  0.00     0.049 A 
ATOM     49  C   UNL A   1      41.278  30.193  29.605  1.00  0.00     0.074 A 
ATOM     50  C   UNL A   1      42.325  34.695  34.014  1.00  0.00     0.029 A 
ATOM     51  N   UNL A   1      42.309  32.690  33.084  1.00  0.00    -0.354 N 
ATOM     52  N   UNL A   1      41.798  31.330  29.242  1.00  0.00    -0.248 NA
ATOM     53  C   UNL A   1      41.903  29.558  30.761  1.00  0.00     0.031 C 
ATOM     54  C   UNL A   1      42.674  34.802  32.632  1.00  0.00     0.029 A 
ATOM     55  C   UNL A   1      42.617  33.536  32.055  1.00  0.00     0.049 A 
ATOM     56  H   UNL A   1      42.283  31.709  33.002  1.00  0.00     0.167 HD
ATOM     57  C   UNL A   1      42.497  31.750  30.355  1.00  0.00     0.074 A 
ATOM     58  C   UNL A   1      42.685  30.558  31.171  1.00  0.00     0.031 C 
ATOM     59  C   UNL A   1      42.562  33.070  30.687  1.00  0.00     0.031 A 
BRANCH  46  60
ATOM     60  C   UNL A   1      41.969  31.429  35.913  1.00  0.00    -0.014 A 
ATOM     61  C   UNL A   1      42.762  31.703  37.040  1.00  0.00     0.009 A 
ATOM     62  C   UNL A   1      42.100  30.145  35.343  1.00  0.00     0.009 A 
ATOM     63  C   UNL A   1      43.667  30.759  37.539  1.00  0.00     0.001 A 
ATOM     64  C   UNL A   1      42.977  29.189  35.860  1.00  0.00     0.001 A 
ATOM     65  C   UNL A   1      43.777  29.505  36.947  1.00  0.00     0.000 A 
ENDBRANCH  46  60
BRANCH  47  66
ATOM     66  C   UNL A   1      39.836  28.381  28.473  1.00  0.00    -0.014 A 
ATOM     67  C   UNL A   1      40.486  28.117  27.256  1.00  0.00     0.009 A 
ATOM     68  C   UNL A   1      39.347  27.287  29.208  1.00  0.00     0.009 A 
ATOM     69  C   UNL A   1      40.711  26.802  26.830  1.00  0.00     0.001 A 
ATOM     70  C   UNL A   1      39.566  25.973  28.779  1.00  0.00     0.001 A 
ATOM     71  C   UNL A   1      40.268  25.732  27.603  1.00  0.00     0.000 A 
ENDBRANCH  47  66
BRANCH  59  72
ATOM     72  C   UNL A   1      42.383  34.078  29.593  1.00  0.00    -0.014 A 
ATOM     73  C   UNL A   1      41.205  34.816  29.396  1.00  0.00     0.009 A 
ATOM     74  C   UNL A   1      43.485  34.336  28.765  1.00  0.00     0.009 A 
ATOM     75  C   UNL A   1      41.135  35.780  28.384  1.00  0.00     0.001 A 
ATOM     76  C   UNL A   1      43.421  35.310  27.769  1.00  0.00     0.001 A 
ATOM     77  C   UNL A   1      42.245  36.029  27.575  1.00  0.00     0.000 A 
ENDBRANCH  59  72
ENDBRANCH  33  34
ENDBRANCH  26  28
ENDBRANCH  25  26
ENDBRANCH  24  25
ENDBRANCH  23  24
ENDBRANCH  22  23
ENDBRANCH   1  22
TORSDOF 19
ENDMDL
MODEL 3
REMARK VINA RESULT:      -9.5      5.183     10.114
REMARK SMILES CSc1nc2nnc(C(=O)OCCOCCOCCOC(=O)c3ccc(-c4c5nc(c(-c6ccccc6)c6ccc([nH]6)c(-c6ccccc6)c6nc(c(-c7ccccc7)c7ccc4[nH]7)C=C6)C=C5)cc3)c(O)n2n1
REMARK SMILES IDX 16 1 15 2 14 3 13 4 12 5 11 6 9 7 10 8 8 9 3 10 4 11 74 12
REMARK SMILES IDX 5 13 73 14 6 15 71 16 7 17 2 18 1 19 72 20 17 22 18 23 19 24
REMARK SMILES IDX 20 25 21 26 22 27 23 28 24 29 70 30 25 31 69 32 26 33 27 34
REMARK SMILES IDX 28 35 63 36 29 37 68 38 62 39 64 40 30 41 67 42 61 43 60 44
REMARK SMILES IDX 31 46 53 47 38 48 52 49 39 50 42 51 51 52 65 53 40 54 41 55
REMARK SMILES IDX 50 57 66 58 43 59 32 60 33 61 37 62 34 63 36 64 35 65 54 66
REMARK SMILES IDX 55 67 59 68 56 69 58 70 57 71 44 72 45 73 49 74 46 75 48 76
REMARK SMILES IDX 47 77
REMARK H PARENT 72 21 64 45 42 56
REMARK Flexibility Score: inf
ROOT
ATOM      1  C   UNL A   1      33.781  33.814  28.058  1.00  0.00     0.188 C 
ENDROOT
BRANCH   1   2
ATOM      2  C   UNL A   1      34.762  32.649  27.836  1.00  0.00     0.188 C 
BRANCH   2   3
ATOM      3  O   UNL A   1      34.193  31.469  27.321  1.00  0.00    -0.376 OA
BRANCH   3   4
ATOM      4  C   UNL A   1      34.498  30.205  27.882  1.00  0.00     0.202 C 
BRANCH   4   5
ATOM      5  C   UNL A   1      34.612  28.864  27.118  1.00  0.00     0.261 C 
BRANCH   5   6
ATOM      6  O   UNL A   1      33.456  28.033  26.991  1.00  0.00    -0.458 OA
BRANCH   6   7
ATOM      7  C   UNL A   1      33.416  27.220  25.913  1.00  0.00     0.364 C 
ATOM      8  O   UNL A   1      34.213  26.325  25.661  1.00  0.00    -0.244 OA
BRANCH   7   9
ATOM      9  C   UNL A   1      32.123  27.366  25.195  1.00  0.00     0.232 A 
ATOM     10  C   UNL A   1      29.039  29.220  22.772  1.00  0.00     0.210 A 
ATOM     11  N   UNL A   1      28.743  27.950  23.178  1.00  0.00    -0.182 NA
ATOM     12  N   UNL A   1      30.253  29.655  23.100  1.00  0.00    -0.134 NA
ATOM     13  C   UNL A   1      29.823  27.581  23.834  1.00  0.00     0.275 A 
ATOM     14  N   UNL A   1      30.737  28.626  23.826  1.00  0.00    -0.159 N 
ATOM     15  N   UNL A   1      30.131  26.425  24.499  1.00  0.00    -0.108 NA
ATOM     16  C   UNL A   1      31.931  28.526  24.533  1.00  0.00     0.251 A 
ATOM     17  N   UNL A   1      31.220  26.319  25.141  1.00  0.00    -0.134 NA
BRANCH  10  18
ATOM     18  S   UNL A   1      27.900  30.231  21.924  1.00  0.00    -0.088 SA
ATOM     19  C   UNL A   1      27.692  31.578  23.115  1.00  0.00     0.094 C 
ENDBRANCH  10  18
BRANCH  16  20
ATOM     20  O   UNL A   1      32.822  29.592  24.499  1.00  0.00    -0.491 OA
ATOM     21  H   UNL A   1      33.714  29.465  24.756  1.00  0.00     0.295 HD
ENDBRANCH  16  20
ENDBRANCH   7   9
ENDBRANCH   6   7
ENDBRANCH   5   6
ENDBRANCH   4   5
ENDBRANCH   3   4
ENDBRANCH   2   3
ENDBRANCH   1   2
BRANCH   1  22
ATOM     22  O   UNL A   1      34.176  34.955  28.797  1.00  0.00    -0.376 OA
BRANCH  22  23
ATOM     23  C   UNL A   1      33.324  36.064  29.034  1.00  0.00     0.202 C 
BRANCH  23  24
ATOM     24  C   UNL A   1      32.866  36.541  30.411  1.00  0.00     0.261 C 
BRANCH  24  25
ATOM     25  O   UNL A   1      33.719  36.231  31.493  1.00  0.00    -0.460 OA
BRANCH  25  26
ATOM     26  C   UNL A   1      33.272  35.221  32.249  1.00  0.00     0.338 C 
ATOM     27  O   UNL A   1      32.093  34.972  32.539  1.00  0.00    -0.246 OA
BRANCH  26  28
ATOM     28  C   UNL A   1      34.397  34.489  32.811  1.00  0.00     0.060 A 
ATOM     29  C   UNL A   1      35.616  35.166  32.840  1.00  0.00     0.016 A 
ATOM     30  C   UNL A   1      34.308  33.097  32.973  1.00  0.00     0.016 A 
ATOM     31  C   UNL A   1      36.763  34.418  32.774  1.00  0.00     0.010 A 
ATOM     32  C   UNL A   1      35.461  32.349  32.908  1.00  0.00     0.010 A 
ATOM     33  C   UNL A   1      36.661  33.019  32.708  1.00  0.00    -0.014 A 
BRANCH  33  34
ATOM     34  C   UNL A   1      37.892  32.294  32.494  1.00  0.00     0.031 A 
ATOM     35  C   UNL A   1      38.738  32.275  33.696  1.00  0.00     0.074 A 
ATOM     36  C   UNL A   1      38.244  31.729  31.326  1.00  0.00     0.049 A 
ATOM     37  N   UNL A   1      39.779  33.003  33.907  1.00  0.00    -0.248 NA
ATOM     38  C   UNL A   1      38.270  31.513  34.861  1.00  0.00     0.031 C 
ATOM     39  C   UNL A   1      37.394  31.469  30.162  1.00  0.00     0.029 A 
ATOM     40  N   UNL A   1      39.442  31.184  30.968  1.00  0.00    -0.354 N 
ATOM     41  C   UNL A   1      40.247  32.607  35.150  1.00  0.00     0.074 A 
ATOM     42  C   UNL A   1      39.184  31.855  35.768  1.00  0.00     0.031 C 
ATOM     43  C   UNL A   1      38.032  30.610  29.332  1.00  0.00     0.029 A 
ATOM     44  C   UNL A   1      39.385  30.404  29.823  1.00  0.00     0.049 A 
ATOM     45  H   UNL A   1      40.271  31.332  31.476  1.00  0.00     0.167 HD
ATOM     46  C   UNL A   1      41.582  32.627  35.402  1.00  0.00     0.031 A 
ATOM     47  C   UNL A   1      40.375  29.617  29.344  1.00  0.00     0.031 A 
ATOM     48  C   UNL A   1      42.299  33.416  34.432  1.00  0.00     0.049 A 
ATOM     49  C   UNL A   1      41.663  30.150  29.838  1.00  0.00     0.074 A 
ATOM     50  C   UNL A   1      42.546  34.746  34.184  1.00  0.00     0.029 A 
ATOM     51  N   UNL A   1      42.595  32.728  33.285  1.00  0.00    -0.354 N 
ATOM     52  N   UNL A   1      42.151  31.296  29.461  1.00  0.00    -0.248 NA
ATOM     53  C   UNL A   1      42.298  29.551  31.007  1.00  0.00     0.031 C 
ATOM     54  C   UNL A   1      42.901  34.843  32.804  1.00  0.00     0.029 A 
ATOM     55  C   UNL A   1      42.885  33.567  32.245  1.00  0.00     0.049 A 
ATOM     56  H   UNL A   1      42.600  31.746  33.218  1.00  0.00     0.167 HD
ATOM     57  C   UNL A   1      42.830  31.754  30.572  1.00  0.00     0.074 A 
ATOM     58  C   UNL A   1      43.047  30.580  31.407  1.00  0.00     0.031 C 
ATOM     59  C   UNL A   1      42.854  33.079  30.884  1.00  0.00     0.031 A 
BRANCH  46  60
ATOM     60  C   UNL A   1      42.275  31.500  36.131  1.00  0.00    -0.014 A 
ATOM     61  C   UNL A   1      43.363  31.814  36.961  1.00  0.00     0.009 A 
ATOM     62  C   UNL A   1      42.105  30.140  35.796  1.00  0.00     0.009 A 
ATOM     63  C   UNL A   1      44.256  30.827  37.394  1.00  0.00     0.001 A 
ATOM     64  C   UNL A   1      42.974  29.148  36.254  1.00  0.00     0.001 A 
ATOM     65  C   UNL A   1      44.064  29.496  37.037  1.00  0.00     0.000 A 
ENDBRANCH  46  60
BRANCH  47  66
ATOM     66  C   UNL A   1      40.283  28.278  28.725  1.00  0.00    -0.014 A 
ATOM     67  C   UNL A   1      41.373  27.759  28.006  1.00  0.00     0.009 A 
ATOM     68  C   UNL A   1      39.265  27.389  29.110  1.00  0.00     0.009 A 
ATOM     69  C   UNL A   1      41.480  26.387  27.752  1.00  0.00     0.001 A 
ATOM     70  C   UNL A   1      39.369  26.018  28.851  1.00  0.00     0.001 A 
ATOM     71  C   UNL A   1      40.488  25.515  28.193  1.00  0.00     0.000 A 
ENDBRANCH  47  66
BRANCH  59  72
ATOM     72  C   UNL A   1      42.652  34.065  29.774  1.00  0.00    -0.014 A 
ATOM     73  C   UNL A   1      43.623  34.357  28.803  1.00  0.00     0.009 A 
ATOM     74  C   UNL A   1      41.394  34.676  29.673  1.00  0.00     0.009 A 
ATOM     75  C   UNL A   1      43.338  35.251  27.764  1.00  0.00     0.001 A 
ATOM     76  C   UNL A   1      41.104  35.552  28.627  1.00  0.00     0.001 A 
ATOM     77  C   UNL A   1      42.077  35.843  27.675  1.00  0.00     0.000 A 
ENDBRANCH  59  72
ENDBRANCH  33  34
ENDBRANCH  26  28
ENDBRANCH  25  26
ENDBRANCH  24  25
ENDBRANCH  23  24
ENDBRANCH  22  23
ENDBRANCH   1  22
TORSDOF 19
ENDMDL
