MODEL 1
REMARK VINA RESULT:     -10.5      0.000      0.000
REMARK SMILES Cc1ccc(C(=O)N2CCC(CC(=O)OCCOCCOCCOC(=O)c3ccc(-c4c5nc(c(-c6ccccc6)c6ccc([nH]6)c(-c6ccccc6)c6nc(c(-c7ccccc7)c7ccc4[nH]7)C=C6)C=C5)cc3)CC2)cn1
REMARK SMILES IDX 19 1 18 2 17 3 16 4 15 5 13 6 14 7 12 8 11 9 6 10 7 11 8 12
REMARK SMILES IDX 9 13 76 14 10 15 75 16 5 17 1 18 2 19 3 20 78 21 4 22 77 23
REMARK SMILES IDX 20 24 21 25 22 26 23 27 24 28 25 29 26 30 27 31 28 32 74 33
REMARK SMILES IDX 29 34 73 35 30 36 31 37 32 38 67 39 33 40 72 41 66 42 68 43
REMARK SMILES IDX 34 44 71 45 65 46 64 47 35 49 57 50 42 51 56 52 43 53 46 54
REMARK SMILES IDX 55 55 69 56 44 57 45 58 54 60 70 61 47 62 36 63 37 64 41 65
REMARK SMILES IDX 38 66 40 67 39 68 58 69 59 70 63 71 60 72 62 73 61 74 48 75
REMARK SMILES IDX 49 76 53 77 50 78 52 79 51 80
REMARK H PARENT 68 48 46 59
REMARK Flexibility Score: inf
ROOT
ATOM      1  C   UNL A   1      41.920  21.000  26.430  1.00  0.00     0.188 C 
ENDROOT
BRANCH   1   2
ATOM      2  O   UNL A   1      40.515  20.909  26.214  1.00  0.00    -0.376 OA
BRANCH   2   3
ATOM      3  C   UNL A   1      39.728  22.008  26.677  1.00  0.00     0.202 C 
BRANCH   3   4
ATOM      4  C   UNL A   1      38.429  22.282  25.904  1.00  0.00     0.261 C 
BRANCH   4   5
ATOM      5  O   UNL A   1      38.031  21.200  25.031  1.00  0.00    -0.463 OA
BRANCH   5   6
ATOM      6  C   UNL A   1      36.737  20.801  25.117  1.00  0.00     0.306 C 
ATOM      7  O   UNL A   1      36.347  19.657  24.902  1.00  0.00    -0.252 OA
BRANCH   6   8
ATOM      8  C   UNL A   1      35.776  21.870  25.616  1.00  0.00     0.126 C 
BRANCH   8   9
ATOM      9  C   UNL A   1      35.220  22.952  24.674  1.00  0.00     0.003 C 
ATOM     10  C   UNL A   1      31.713  24.839  23.921  1.00  0.00     0.255 C 
ATOM     11  O   UNL A   1      30.989  23.883  24.187  1.00  0.00    -0.269 OA
ATOM     12  N   UNL A   1      33.083  24.702  23.738  1.00  0.00    -0.339 N 
ATOM     13  C   UNL A   1      33.545  23.594  22.925  1.00  0.00     0.120 C 
ATOM     14  C   UNL A   1      34.044  25.254  24.682  1.00  0.00     0.120 C 
ATOM     15  C   UNL A   1      34.074  22.454  23.784  1.00  0.00     0.026 C 
ATOM     16  C   UNL A   1      34.711  24.152  25.520  1.00  0.00     0.026 C 
BRANCH  10  17
ATOM     17  C   UNL A   1      31.107  26.151  23.568  1.00  0.00     0.058 A 
ATOM     18  C   UNL A   1      29.958  30.026  22.215  1.00  0.00     0.066 C 
ATOM     19  C   UNL A   1      30.310  28.658  22.717  1.00  0.00     0.037 A 
ATOM     20  C   UNL A   1      30.313  28.372  24.079  1.00  0.00     0.024 A 
ATOM     21  N   UNL A   1      30.668  27.743  21.786  1.00  0.00    -0.261 NA
ATOM     22  C   UNL A   1      30.718  27.107  24.508  1.00  0.00     0.017 A 
ATOM     23  C   UNL A   1      31.061  26.520  22.229  1.00  0.00     0.125 A 
ENDBRANCH  10  17
ENDBRANCH   8   9
ENDBRANCH   6   8
ENDBRANCH   5   6
ENDBRANCH   4   5
ENDBRANCH   3   4
ENDBRANCH   2   3
ENDBRANCH   1   2
BRANCH   1  24
ATOM     24  C   UNL A   1      42.743  19.822  25.908  1.00  0.00     0.188 C 
BRANCH  24  25
ATOM     25  O   UNL A   1      43.575  20.097  24.793  1.00  0.00    -0.376 OA
BRANCH  25  26
ATOM     26  C   UNL A   1      44.606  21.072  24.965  1.00  0.00     0.202 C 
BRANCH  26  27
ATOM     27  C   UNL A   1      44.679  22.255  23.971  1.00  0.00     0.261 C 
BRANCH  27  28
ATOM     28  O   UNL A   1      43.996  23.469  24.357  1.00  0.00    -0.460 OA
BRANCH  28  29
ATOM     29  C   UNL A   1      44.725  24.445  24.941  1.00  0.00     0.338 C 
ATOM     30  O   UNL A   1      45.846  24.802  24.616  1.00  0.00    -0.246 OA
BRANCH  29  31
ATOM     31  C   UNL A   1      43.849  25.218  25.869  1.00  0.00     0.060 A 
ATOM     32  C   UNL A   1      44.083  26.597  25.982  1.00  0.00     0.016 A 
ATOM     33  C   UNL A   1      42.785  24.641  26.571  1.00  0.00     0.016 A 
ATOM     34  C   UNL A   1      43.309  27.382  26.840  1.00  0.00     0.010 A 
ATOM     35  C   UNL A   1      42.015  25.428  27.443  1.00  0.00     0.010 A 
ATOM     36  C   UNL A   1      42.307  26.794  27.620  1.00  0.00    -0.014 A 
BRANCH  36  37
ATOM     37  C   UNL A   1      41.755  27.554  28.777  1.00  0.00     0.031 A 
ATOM     38  C   UNL A   1      42.483  27.461  30.096  1.00  0.00     0.074 A 
ATOM     39  C   UNL A   1      40.696  28.376  28.664  1.00  0.00     0.049 A 
ATOM     40  N   UNL A   1      42.231  28.060  31.233  1.00  0.00    -0.248 NA
ATOM     41  C   UNL A   1      43.659  26.575  30.132  1.00  0.00     0.031 C 
ATOM     42  C   UNL A   1      39.928  28.615  27.445  1.00  0.00     0.029 A 
ATOM     43  N   UNL A   1      40.090  29.176  29.604  1.00  0.00    -0.354 N 
ATOM     44  C   UNL A   1      43.212  27.623  32.114  1.00  0.00     0.074 A 
ATOM     45  C   UNL A   1      44.039  26.679  31.395  1.00  0.00     0.031 C 
ATOM     46  C   UNL A   1      38.954  29.506  27.710  1.00  0.00     0.029 A 
ATOM     47  C   UNL A   1      39.010  29.879  29.123  1.00  0.00     0.049 A 
ATOM     48  H   UNL A   1      40.400  29.241  30.536  1.00  0.00     0.167 HD
ATOM     49  C   UNL A   1      43.421  27.977  33.404  1.00  0.00     0.031 A 
ATOM     50  C   UNL A   1      38.160  30.715  29.752  1.00  0.00     0.031 A 
ATOM     51  C   UNL A   1      42.599  28.900  34.137  1.00  0.00     0.049 A 
ATOM     52  C   UNL A   1      38.353  31.019  31.218  1.00  0.00     0.074 A 
ATOM     53  C   UNL A   1      42.740  29.324  35.448  1.00  0.00     0.029 A 
ATOM     54  N   UNL A   1      41.477  29.534  33.630  1.00  0.00    -0.354 N 
ATOM     55  N   UNL A   1      39.302  30.620  32.030  1.00  0.00    -0.248 NA
ATOM     56  C   UNL A   1      37.356  31.898  31.851  1.00  0.00     0.031 C 
ATOM     57  C   UNL A   1      41.664  30.165  35.753  1.00  0.00     0.029 A 
ATOM     58  C   UNL A   1      40.895  30.320  34.611  1.00  0.00     0.049 A 
ATOM     59  H   UNL A   1      41.142  29.440  32.709  1.00  0.00     0.167 HD
ATOM     60  C   UNL A   1      39.035  31.224  33.256  1.00  0.00     0.074 A 
ATOM     61  C   UNL A   1      37.846  32.030  33.074  1.00  0.00     0.031 C 
ATOM     62  C   UNL A   1      39.712  31.119  34.425  1.00  0.00     0.031 A 
BRANCH  49  63
ATOM     63  C   UNL A   1      44.574  27.328  34.118  1.00  0.00    -0.014 A 
ATOM     64  C   UNL A   1      45.863  27.884  34.084  1.00  0.00     0.009 A 
ATOM     65  C   UNL A   1      44.360  26.156  34.859  1.00  0.00     0.009 A 
ATOM     66  C   UNL A   1      46.920  27.257  34.748  1.00  0.00     0.001 A 
ATOM     67  C   UNL A   1      45.412  25.549  35.549  1.00  0.00     0.001 A 
ATOM     68  C   UNL A   1      46.692  26.095  35.484  1.00  0.00     0.000 A 
ENDBRANCH  49  63
BRANCH  50  69
ATOM     69  C   UNL A   1      37.017  31.322  29.015  1.00  0.00    -0.014 A 
ATOM     70  C   UNL A   1      37.052  32.667  28.611  1.00  0.00     0.009 A 
ATOM     71  C   UNL A   1      35.858  30.572  28.759  1.00  0.00     0.009 A 
ATOM     72  C   UNL A   1      35.941  33.252  27.995  1.00  0.00     0.001 A 
ATOM     73  C   UNL A   1      34.762  31.149  28.114  1.00  0.00     0.001 A 
ATOM     74  C   UNL A   1      34.801  32.492  27.743  1.00  0.00     0.000 A 
ENDBRANCH  50  69
BRANCH  62  75
ATOM     75  C   UNL A   1      39.212  31.924  35.595  1.00  0.00    -0.014 A 
ATOM     76  C   UNL A   1      39.698  33.213  35.861  1.00  0.00     0.009 A 
ATOM     77  C   UNL A   1      38.205  31.398  36.421  1.00  0.00     0.009 A 
ATOM     78  C   UNL A   1      39.216  33.941  36.952  1.00  0.00     0.001 A 
ATOM     79  C   UNL A   1      37.700  32.141  37.490  1.00  0.00     0.001 A 
ATOM     80  C   UNL A   1      38.215  33.406  37.762  1.00  0.00     0.000 A 
ENDBRANCH  62  75
ENDBRANCH  36  37
ENDBRANCH  29  31
ENDBRANCH  28  29
ENDBRANCH  27  28
ENDBRANCH  26  27
ENDBRANCH  25  26
ENDBRANCH  24  25
ENDBRANCH   1  24
TORSDOF 19
ENDMDL
MODEL 2
REMARK VINA RESULT:     -10.4      0.648      5.797
REMARK SMILES Cc1ccc(C(=O)N2CCC(CC(=O)OCCOCCOCCOC(=O)c3ccc(-c4c5nc(c(-c6ccccc6)c6ccc([nH]6)c(-c6ccccc6)c6nc(c(-c7ccccc7)c7ccc4[nH]7)C=C6)C=C5)cc3)CC2)cn1
REMARK SMILES IDX 19 1 18 2 17 3 16 4 15 5 13 6 14 7 12 8 11 9 6 10 7 11 8 12
REMARK SMILES IDX 9 13 76 14 10 15 75 16 5 17 1 18 2 19 3 20 78 21 4 22 77 23
REMARK SMILES IDX 20 24 21 25 22 26 23 27 24 28 25 29 26 30 27 31 28 32 74 33
REMARK SMILES IDX 29 34 73 35 30 36 31 37 32 38 67 39 33 40 72 41 66 42 68 43
REMARK SMILES IDX 34 44 71 45 65 46 64 47 35 49 57 50 42 51 56 52 43 53 46 54
REMARK SMILES IDX 55 55 69 56 44 57 45 58 54 60 70 61 47 62 36 63 37 64 41 65
REMARK SMILES IDX 38 66 40 67 39 68 58 69 59 70 63 71 60 72 62 73 61 74 48 75
REMARK SMILES IDX 49 76 53 77 50 78 52 79 51 80
REMARK H PARENT 68 48 46 59
REMARK Flexibility Score: inf
ROOT
ATOM      1  C   UNL A   1      42.319  20.492  26.522  1.00  0.00     0.188 C 
ENDROOT
BRANCH   1   2
ATOM      2  O   UNL A   1      40.917  20.537  26.275  1.00  0.00    -0.376 OA
BRANCH   2   3
ATOM      3  C   UNL A   1      40.200  21.620  26.870  1.00  0.00     0.202 C 
BRANCH   3   4
ATOM      4  C   UNL A   1      38.983  22.135  26.087  1.00  0.00     0.261 C 
BRANCH   4   5
ATOM      5  O   UNL A   1      38.471  21.192  25.118  1.00  0.00    -0.463 OA
BRANCH   5   6
ATOM      6  C   UNL A   1      37.143  20.920  25.185  1.00  0.00     0.306 C 
ATOM      7  O   UNL A   1      36.648  19.820  24.960  1.00  0.00    -0.252 OA
BRANCH   6   8
ATOM      8  C   UNL A   1      36.283  22.075  25.675  1.00  0.00     0.126 C 
BRANCH   8   9
ATOM      9  C   UNL A   1      35.597  23.038  24.690  1.00  0.00     0.003 C 
ATOM     10  C   UNL A   1      31.989  24.806  24.161  1.00  0.00     0.255 C 
ATOM     11  O   UNL A   1      31.321  23.884  24.620  1.00  0.00    -0.269 OA
ATOM     12  N   UNL A   1      33.329  24.657  23.829  1.00  0.00    -0.339 N 
ATOM     13  C   UNL A   1      33.712  23.465  23.097  1.00  0.00     0.120 C 
ATOM     14  C   UNL A   1      34.386  25.320  24.580  1.00  0.00     0.120 C 
ATOM     15  C   UNL A   1      34.362  22.435  24.009  1.00  0.00     0.026 C 
ATOM     16  C   UNL A   1      35.170  24.325  25.450  1.00  0.00     0.026 C 
BRANCH  10  17
ATOM     17  C   UNL A   1      31.320  26.066  23.737  1.00  0.00     0.058 A 
ATOM     18  C   UNL A   1      29.964  29.778  22.141  1.00  0.00     0.066 C 
ATOM     19  C   UNL A   1      30.391  28.468  22.731  1.00  0.00     0.037 A 
ATOM     20  C   UNL A   1      30.478  28.297  24.109  1.00  0.00     0.024 A 
ATOM     21  N   UNL A   1      30.729  27.490  21.859  1.00  0.00    -0.261 NA
ATOM     22  C   UNL A   1      30.950  27.085  24.616  1.00  0.00     0.017 A 
ATOM     23  C   UNL A   1      31.187  26.320  22.377  1.00  0.00     0.125 A 
ENDBRANCH  10  17
ENDBRANCH   8   9
ENDBRANCH   6   8
ENDBRANCH   5   6
ENDBRANCH   4   5
ENDBRANCH   3   4
ENDBRANCH   2   3
ENDBRANCH   1   2
BRANCH   1  24
ATOM     24  C   UNL A   1      43.090  19.423  25.749  1.00  0.00     0.188 C 
BRANCH  24  25
ATOM     25  O   UNL A   1      43.837  19.885  24.636  1.00  0.00    -0.376 OA
BRANCH  25  26
ATOM     26  C   UNL A   1      44.609  21.075  24.808  1.00  0.00     0.202 C 
BRANCH  26  27
ATOM     27  C   UNL A   1      44.243  22.323  23.968  1.00  0.00     0.261 C 
BRANCH  27  28
ATOM     28  O   UNL A   1      43.593  23.407  24.669  1.00  0.00    -0.460 OA
BRANCH  28  29
ATOM     29  C   UNL A   1      44.360  24.437  25.088  1.00  0.00     0.338 C 
ATOM     30  O   UNL A   1      45.417  24.797  24.595  1.00  0.00    -0.246 OA
BRANCH  29  31
ATOM     31  C   UNL A   1      43.588  25.250  26.072  1.00  0.00     0.060 A 
ATOM     32  C   UNL A   1      43.963  26.593  26.238  1.00  0.00     0.016 A 
ATOM     33  C   UNL A   1      42.487  24.752  26.776  1.00  0.00     0.016 A 
ATOM     34  C   UNL A   1      43.291  27.411  27.150  1.00  0.00     0.010 A 
ATOM     35  C   UNL A   1      41.820  25.571  27.702  1.00  0.00     0.010 A 
ATOM     36  C   UNL A   1      42.253  26.891  27.931  1.00  0.00    -0.014 A 
BRANCH  36  37
ATOM     37  C   UNL A   1      41.807  27.648  29.133  1.00  0.00     0.031 A 
ATOM     38  C   UNL A   1      40.487  28.376  29.061  1.00  0.00     0.074 A 
ATOM     39  C   UNL A   1      42.491  27.634  30.292  1.00  0.00     0.049 A 
ATOM     40  N   UNL A   1      39.862  29.065  29.984  1.00  0.00    -0.248 NA
ATOM     41  C   UNL A   1      39.774  28.312  27.774  1.00  0.00     0.031 C 
ATOM     42  C   UNL A   1      43.748  26.930  30.532  1.00  0.00     0.029 A 
ATOM     43  N   UNL A   1      42.206  28.232  31.498  1.00  0.00    -0.354 N 
ATOM     44  C   UNL A   1      38.690  29.513  29.388  1.00  0.00     0.074 A 
ATOM     45  C   UNL A   1      38.707  29.055  28.016  1.00  0.00     0.031 C 
ATOM     46  C   UNL A   1      44.125  27.133  31.808  1.00  0.00     0.029 A 
ATOM     47  C   UNL A   1      43.152  28.004  32.468  1.00  0.00     0.049 A 
ATOM     48  H   UNL A   1      41.398  28.773  31.652  1.00  0.00     0.167 HD
ATOM     49  C   UNL A   1      37.677  30.233  29.928  1.00  0.00     0.031 A 
ATOM     50  C   UNL A   1      43.232  28.455  33.737  1.00  0.00     0.031 A 
ATOM     51  C   UNL A   1      37.652  30.709  31.284  1.00  0.00     0.049 A 
ATOM     52  C   UNL A   1      42.140  29.339  34.288  1.00  0.00     0.074 A 
ATOM     53  C   UNL A   1      36.663  31.440  31.921  1.00  0.00     0.029 A 
ATOM     54  N   UNL A   1      38.663  30.513  32.210  1.00  0.00    -0.354 N 
ATOM     55  N   UNL A   1      41.024  29.731  33.722  1.00  0.00    -0.248 NA
ATOM     56  C   UNL A   1      42.318  29.837  35.661  1.00  0.00     0.031 C 
ATOM     57  C   UNL A   1      37.106  31.742  33.213  1.00  0.00     0.029 A 
ATOM     58  C   UNL A   1      38.338  31.137  33.403  1.00  0.00     0.049 A 
ATOM     59  H   UNL A   1      39.490  30.004  32.044  1.00  0.00     0.167 HD
ATOM     60  C   UNL A   1      40.356  30.491  34.678  1.00  0.00     0.074 A 
ATOM     61  C   UNL A   1      41.184  30.489  35.866  1.00  0.00     0.031 C 
ATOM     62  C   UNL A   1      39.166  31.133  34.580  1.00  0.00     0.031 A 
BRANCH  49  63
ATOM     63  C   UNL A   1      36.523  30.580  29.030  1.00  0.00    -0.014 A 
ATOM     64  C   UNL A   1      36.265  31.906  28.648  1.00  0.00     0.009 A 
ATOM     65  C   UNL A   1      35.696  29.558  28.536  1.00  0.00     0.009 A 
ATOM     66  C   UNL A   1      35.181  32.205  27.819  1.00  0.00     0.001 A 
ATOM     67  C   UNL A   1      34.633  29.857  27.681  1.00  0.00     0.001 A 
ATOM     68  C   UNL A   1      34.371  31.180  27.332  1.00  0.00     0.000 A 
ENDBRANCH  49  63
BRANCH  50  69
ATOM     69  C   UNL A   1      44.402  28.106  34.589  1.00  0.00    -0.014 A 
ATOM     70  C   UNL A   1      44.342  27.032  35.492  1.00  0.00     0.009 A 
ATOM     71  C   UNL A   1      45.571  28.882  34.543  1.00  0.00     0.009 A 
ATOM     72  C   UNL A   1      45.414  26.764  36.349  1.00  0.00     0.001 A 
ATOM     73  C   UNL A   1      46.654  28.592  35.376  1.00  0.00     0.001 A 
ATOM     74  C   UNL A   1      46.569  27.540  36.286  1.00  0.00     0.000 A 
ENDBRANCH  50  69
BRANCH  62  75
ATOM     75  C   UNL A   1      38.663  31.857  35.801  1.00  0.00    -0.014 A 
ATOM     76  C   UNL A   1      38.011  31.176  36.841  1.00  0.00     0.009 A 
ATOM     77  C   UNL A   1      38.882  33.237  35.931  1.00  0.00     0.009 A 
ATOM     78  C   UNL A   1      37.554  31.870  37.965  1.00  0.00     0.001 A 
ATOM     79  C   UNL A   1      38.456  33.923  37.070  1.00  0.00     0.001 A 
ATOM     80  C   UNL A   1      37.781  33.241  38.080  1.00  0.00     0.000 A 
ENDBRANCH  62  75
ENDBRANCH  36  37
ENDBRANCH  29  31
ENDBRANCH  28  29
ENDBRANCH  27  28
ENDBRANCH  26  27
ENDBRANCH  25  26
ENDBRANCH  24  25
ENDBRANCH   1  24
TORSDOF 19
ENDMDL
MODEL 3
REMARK VINA RESULT:     -10.2      3.813      8.447
REMARK SMILES Cc1ccc(C(=O)N2CCC(CC(=O)OCCOCCOCCOC(=O)c3ccc(-c4c5nc(c(-c6ccccc6)c6ccc([nH]6)c(-c6ccccc6)c6nc(c(-c7ccccc7)c7ccc4[nH]7)C=C6)C=C5)cc3)CC2)cn1
REMARK SMILES IDX 19 1 18 2 17 3 16 4 15 5 13 6 14 7 12 8 11 9 6 10 7 11 8 12
REMARK SMILES IDX 9 13 76 14 10 15 75 16 5 17 1 18 2 19 3 20 78 21 4 22 77 23
REMARK SMILES IDX 20 24 21 25 22 26 23 27 24 28 25 29 26 30 27 31 28 32 74 33
REMARK SMILES IDX 29 34 73 35 30 36 31 37 32 38 67 39 33 40 72 41 66 42 68 43
REMARK SMILES IDX 34 44 71 45 65 46 64 47 35 49 57 50 42 51 56 52 43 53 46 54
REMARK SMILES IDX 55 55 69 56 44 57 45 58 54 60 70 61 47 62 36 63 37 64 41 65
REMARK SMILES IDX 38 66 40 67 39 68 58 69 59 70 63 71 60 72 62 73 61 74 48 75
REMARK SMILES IDX 49 76 53 77 50 78 52 79 51 80
REMARK H PARENT 68 48 46 59
REMARK Flexibility Score: inf
ROOT
ATOM      1  C   UNL A   1      32.930  22.219  24.536  1.00  0.00     0.188 C 
ENDROOT
BRANCH   1   2
ATOM      2  O   UNL A   1      32.686  23.388  23.758  1.00  0.00    -0.376 OA
BRANCH   2   3
ATOM      3  C   UNL A   1      33.782  23.875  22.981  1.00  0.00     0.202 C 
BRANCH   3   4
ATOM      4  C   UNL A   1      33.754  25.372  22.639  1.00  0.00     0.261 C 
BRANCH   4   5
ATOM      5  O   UNL A   1      33.014  26.174  23.587  1.00  0.00    -0.463 OA
BRANCH   5   6
ATOM      6  C   UNL A   1      33.703  26.620  24.668  1.00  0.00     0.306 C 
ATOM      7  O   UNL A   1      34.322  25.897  25.443  1.00  0.00    -0.252 OA
BRANCH   6   8
ATOM      8  C   UNL A   1      33.751  28.134  24.808  1.00  0.00     0.126 C 
BRANCH   8   9
ATOM      9  C   UNL A   1      33.598  28.818  26.178  1.00  0.00     0.003 C 
ATOM     10  C   UNL A   1      34.583  32.315  27.973  1.00  0.00     0.255 C 
ATOM     11  O   UNL A   1      35.634  32.486  27.361  1.00  0.00    -0.269 OA
ATOM     12  N   UNL A   1      33.912  31.100  27.967  1.00  0.00    -0.339 N 
ATOM     13  C   UNL A   1      34.699  29.896  28.153  1.00  0.00     0.120 C 
ATOM     14  C   UNL A   1      32.626  30.933  27.303  1.00  0.00     0.120 C 
ATOM     15  C   UNL A   1      34.937  29.176  26.834  1.00  0.00     0.026 C 
ATOM     16  C   UNL A   1      32.761  30.116  26.009  1.00  0.00     0.026 C 
BRANCH  10  17
ATOM     17  C   UNL A   1      34.104  33.352  28.928  1.00  0.00     0.058 A 
ATOM     18  C   UNL A   1      32.971  36.772  31.204  1.00  0.00     0.066 C 
ATOM     19  C   UNL A   1      33.346  35.535  30.444  1.00  0.00     0.037 A 
ATOM     20  C   UNL A   1      34.179  34.574  31.008  1.00  0.00     0.024 A 
ATOM     21  N   UNL A   1      32.875  35.432  29.180  1.00  0.00    -0.261 NA
ATOM     22  C   UNL A   1      34.564  33.473  30.240  1.00  0.00     0.017 A 
ATOM     23  C   UNL A   1      33.265  34.353  28.453  1.00  0.00     0.125 A 
ENDBRANCH  10  17
ENDBRANCH   8   9
ENDBRANCH   6   8
ENDBRANCH   5   6
ENDBRANCH   4   5
ENDBRANCH   3   4
ENDBRANCH   2   3
ENDBRANCH   1   2
BRANCH   1  24
ATOM     24  C   UNL A   1      33.672  22.449  25.852  1.00  0.00     0.188 C 
BRANCH  24  25
ATOM     25  O   UNL A   1      34.898  21.751  25.998  1.00  0.00    -0.376 OA
BRANCH  25  26
ATOM     26  C   UNL A   1      35.184  20.716  25.055  1.00  0.00     0.202 C 
BRANCH  26  27
ATOM     27  C   UNL A   1      36.619  20.138  25.003  1.00  0.00     0.261 C 
BRANCH  27  28
ATOM     28  O   UNL A   1      37.704  21.092  25.043  1.00  0.00    -0.460 OA
BRANCH  28  29
ATOM     29  C   UNL A   1      38.796  20.775  25.773  1.00  0.00     0.338 C 
ATOM     30  O   UNL A   1      39.347  19.687  25.813  1.00  0.00    -0.246 OA
BRANCH  29  31
ATOM     31  C   UNL A   1      39.401  22.027  26.312  1.00  0.00     0.060 A 
ATOM     32  C   UNL A   1      38.786  23.242  25.973  1.00  0.00     0.016 A 
ATOM     33  C   UNL A   1      40.501  22.032  27.176  1.00  0.00     0.016 A 
ATOM     34  C   UNL A   1      39.304  24.455  26.433  1.00  0.00     0.010 A 
ATOM     35  C   UNL A   1      41.030  23.252  27.628  1.00  0.00     0.010 A 
ATOM     36  C   UNL A   1      40.464  24.473  27.216  1.00  0.00    -0.014 A 
BRANCH  36  37
ATOM     37  C   UNL A   1      41.200  25.757  27.383  1.00  0.00     0.031 A 
ATOM     38  C   UNL A   1      40.592  26.811  28.276  1.00  0.00     0.074 A 
ATOM     39  C   UNL A   1      42.413  25.971  26.840  1.00  0.00     0.049 A 
ATOM     40  N   UNL A   1      41.058  27.987  28.616  1.00  0.00    -0.248 NA
ATOM     41  C   UNL A   1      39.283  26.489  28.869  1.00  0.00     0.031 C 
ATOM     42  C   UNL A   1      43.152  25.028  26.005  1.00  0.00     0.029 A 
ATOM     43  N   UNL A   1      43.243  27.065  26.926  1.00  0.00    -0.354 N 
ATOM     44  C   UNL A   1      40.101  28.541  29.457  1.00  0.00     0.074 A 
ATOM     45  C   UNL A   1      39.012  27.593  29.545  1.00  0.00     0.031 C 
ATOM     46  C   UNL A   1      44.330  25.582  25.658  1.00  0.00     0.029 A 
ATOM     47  C   UNL A   1      44.416  26.929  26.222  1.00  0.00     0.049 A 
ATOM     48  H   UNL A   1      43.019  27.871  27.445  1.00  0.00     0.167 HD
ATOM     49  C   UNL A   1      40.122  29.726  30.113  1.00  0.00     0.031 A 
ATOM     50  C   UNL A   1      45.434  27.795  26.042  1.00  0.00     0.031 A 
ATOM     51  C   UNL A   1      41.188  30.686  30.023  1.00  0.00     0.049 A 
ATOM     52  C   UNL A   1      45.390  29.152  26.702  1.00  0.00     0.074 A 
ATOM     53  C   UNL A   1      41.298  31.911  30.657  1.00  0.00     0.029 A 
ATOM     54  N   UNL A   1      42.323  30.535  29.244  1.00  0.00    -0.354 N 
ATOM     55  N   UNL A   1      44.493  29.649  27.519  1.00  0.00    -0.248 NA
ATOM     56  C   UNL A   1      46.510  30.064  26.420  1.00  0.00     0.031 C 
ATOM     57  C   UNL A   1      42.469  32.531  30.211  1.00  0.00     0.029 A 
ATOM     58  C   UNL A   1      43.124  31.660  29.354  1.00  0.00     0.049 A 
ATOM     59  H   UNL A   1      42.530  29.745  28.693  1.00  0.00     0.167 HD
ATOM     60  C   UNL A   1      44.955  30.915  27.869  1.00  0.00     0.074 A 
ATOM     61  C   UNL A   1      46.221  31.099  27.193  1.00  0.00     0.031 C 
ATOM     62  C   UNL A   1      44.381  31.839  28.678  1.00  0.00     0.031 A 
BRANCH  49  63
ATOM     63  C   UNL A   1      38.927  30.065  30.961  1.00  0.00    -0.014 A 
ATOM     64  C   UNL A   1      37.760  30.607  30.399  1.00  0.00     0.009 A 
ATOM     65  C   UNL A   1      38.963  29.813  32.341  1.00  0.00     0.009 A 
ATOM     66  C   UNL A   1      36.667  30.922  31.209  1.00  0.00     0.001 A 
ATOM     67  C   UNL A   1      37.856  30.099  33.143  1.00  0.00     0.001 A 
ATOM     68  C   UNL A   1      36.714  30.662  32.578  1.00  0.00     0.000 A 
ENDBRANCH  49  63
BRANCH  50  69
ATOM     69  C   UNL A   1      46.591  27.429  25.178  1.00  0.00    -0.014 A 
ATOM     70  C   UNL A   1      47.604  26.579  25.650  1.00  0.00     0.009 A 
ATOM     71  C   UNL A   1      46.714  27.975  23.890  1.00  0.00     0.009 A 
ATOM     72  C   UNL A   1      48.728  26.310  24.863  1.00  0.00     0.001 A 
ATOM     73  C   UNL A   1      47.822  27.678  23.093  1.00  0.00     0.001 A 
ATOM     74  C   UNL A   1      48.833  26.855  23.584  1.00  0.00     0.000 A 
ENDBRANCH  50  69
BRANCH  62  75
ATOM     75  C   UNL A   1      45.134  33.122  28.912  1.00  0.00    -0.014 A 
ATOM     76  C   UNL A   1      46.080  33.241  29.942  1.00  0.00     0.009 A 
ATOM     77  C   UNL A   1      44.921  34.218  28.060  1.00  0.00     0.009 A 
ATOM     78  C   UNL A   1      46.767  34.443  30.137  1.00  0.00     0.001 A 
ATOM     79  C   UNL A   1      45.633  35.406  28.235  1.00  0.00     0.001 A 
ATOM     80  C   UNL A   1      46.546  35.522  29.282  1.00  0.00     0.000 A 
ENDBRANCH  62  75
ENDBRANCH  36  37
ENDBRANCH  29  31
ENDBRANCH  28  29
ENDBRANCH  27  28
ENDBRANCH  26  27
ENDBRANCH  25  26
ENDBRANCH  24  25
ENDBRANCH   1  24
TORSDOF 19
ENDMDL
