MODEL 1
REMARK VINA RESULT:     -11.5      0.000      0.000
REMARK SMILES O=C(OCCOCCOCCOC(=O)c1cc(Cl)c2c(c1)[C@H]1C=CC[C@H]1[C@H](c1ccc(S(=O)(=O)N3CCOCC3)cc1)N2)c1ccc(-c2c3nc(c(-c4ccccc4)c4ccc([nH]4)c(-c4ccccc4)c4nc(c(-c5ccccc5)c5ccc2[nH]5)C=C4)C=C3)cc1
REMARK SMILES IDX 8 1 7 2 6 3 5 4 4 5 3 6 2 7 1 8 44 9 45 10 91 11 46 12 90 13
REMARK SMILES IDX 47 14 48 15 49 16 84 17 50 18 89 19 83 20 85 21 51 22 88 23
REMARK SMILES IDX 82 24 81 25 52 27 74 28 59 29 73 30 60 31 63 32 72 33 86 34
REMARK SMILES IDX 61 35 62 36 71 38 87 39 64 40 53 41 54 42 58 43 55 44 57 45
REMARK SMILES IDX 56 46 75 47 76 48 80 49 77 50 79 51 78 52 65 53 66 54 70 55
REMARK SMILES IDX 67 56 69 57 68 58 9 59 10 60 11 61 12 62 13 63 14 64 15 65
REMARK SMILES IDX 16 66 21 67 17 68 20 69 18 70 19 71 22 72 43 73 23 74 26 75
REMARK SMILES IDX 27 76 24 78 25 79 28 80 29 81 42 82 30 83 41 84 31 85 32 86
REMARK SMILES IDX 33 87 34 88 35 89 36 90 40 91 37 92 39 93 38 94
REMARK H PARENT 85 26 63 37 43 77
REMARK Flexibility Score: inf
ROOT
ATOM      1  C   UNL A   1      34.980  21.163  25.478  1.00  0.00     0.188 C 
ENDROOT
BRANCH   1   2
ATOM      2  C   UNL A   1      36.504  21.325  25.545  1.00  0.00     0.188 C 
BRANCH   2   3
ATOM      3  O   UNL A   1      37.232  20.816  24.436  1.00  0.00    -0.376 OA
BRANCH   3   4
ATOM      4  C   UNL A   1      37.977  19.629  24.690  1.00  0.00     0.202 C 
BRANCH   4   5
ATOM      5  C   UNL A   1      38.992  19.828  25.819  1.00  0.00     0.261 C 
BRANCH   5   6
ATOM      6  O   UNL A   1      40.181  19.051  25.585  1.00  0.00    -0.460 OA
BRANCH   6   7
ATOM      7  C   UNL A   1      41.474  19.297  25.891  1.00  0.00     0.338 C 
ATOM      8  O   UNL A   1      42.280  18.383  25.714  1.00  0.00    -0.246 OA
BRANCH   7   9
ATOM      9  C   UNL A   1      42.009  20.572  26.483  1.00  0.00     0.060 A 
ATOM     10  C   UNL A   1      41.726  21.092  27.747  1.00  0.00     0.016 A 
ATOM     11  C   UNL A   1      42.922  21.292  25.684  1.00  0.00     0.016 A 
ATOM     12  C   UNL A   1      42.305  22.279  28.201  1.00  0.00     0.010 A 
ATOM     13  C   UNL A   1      43.488  22.497  26.117  1.00  0.00     0.010 A 
ATOM     14  C   UNL A   1      43.154  23.005  27.372  1.00  0.00    -0.014 A 
BRANCH  14  15
ATOM     15  C   UNL A   1      43.461  24.400  27.733  1.00  0.00     0.031 A 
ATOM     16  C   UNL A   1      44.890  24.835  27.643  1.00  0.00     0.074 A 
ATOM     17  C   UNL A   1      42.493  25.288  28.010  1.00  0.00     0.049 A 
ATOM     18  N   UNL A   1      45.402  26.021  27.830  1.00  0.00    -0.248 NA
ATOM     19  C   UNL A   1      45.869  23.806  27.244  1.00  0.00     0.031 C 
ATOM     20  C   UNL A   1      41.064  25.004  27.982  1.00  0.00     0.029 A 
ATOM     21  N   UNL A   1      42.569  26.618  28.337  1.00  0.00    -0.354 N 
ATOM     22  C   UNL A   1      46.749  25.889  27.537  1.00  0.00     0.074 A 
ATOM     23  C   UNL A   1      46.989  24.508  27.187  1.00  0.00     0.031 C 
ATOM     24  C   UNL A   1      40.397  26.134  28.275  1.00  0.00     0.029 A 
ATOM     25  C   UNL A   1      41.346  27.203  28.542  1.00  0.00     0.049 A 
ATOM     26  H   UNL A   1      43.421  27.106  28.415  1.00  0.00     0.167 HD
ATOM     27  C   UNL A   1      47.705  26.842  27.553  1.00  0.00     0.031 A 
ATOM     28  C   UNL A   1      41.020  28.457  28.908  1.00  0.00     0.031 A 
ATOM     29  C   UNL A   1      47.475  28.196  27.962  1.00  0.00     0.049 A 
ATOM     30  C   UNL A   1      42.122  29.453  29.109  1.00  0.00     0.074 A 
ATOM     31  C   UNL A   1      48.394  29.217  28.103  1.00  0.00     0.029 A 
ATOM     32  N   UNL A   1      46.235  28.708  28.311  1.00  0.00    -0.354 N 
ATOM     33  N   UNL A   1      43.406  29.303  28.886  1.00  0.00    -0.248 NA
ATOM     34  C   UNL A   1      41.743  30.782  29.609  1.00  0.00     0.031 C 
ATOM     35  C   UNL A   1      47.716  30.339  28.587  1.00  0.00     0.029 A 
ATOM     36  C   UNL A   1      46.369  30.028  28.697  1.00  0.00     0.049 A 
ATOM     37  H   UNL A   1      45.387  28.208  28.288  1.00  0.00     0.167 HD
ATOM     38  C   UNL A   1      43.987  30.521  29.201  1.00  0.00     0.074 A 
ATOM     39  C   UNL A   1      42.918  31.401  29.629  1.00  0.00     0.031 C 
ATOM     40  C   UNL A   1      45.292  30.878  29.132  1.00  0.00     0.031 A 
BRANCH  27  41
ATOM     41  C   UNL A   1      49.086  26.425  27.164  1.00  0.00    -0.014 A 
ATOM     42  C   UNL A   1      49.548  26.606  25.851  1.00  0.00     0.009 A 
ATOM     43  C   UNL A   1      49.937  25.854  28.121  1.00  0.00     0.009 A 
ATOM     44  C   UNL A   1      50.841  26.213  25.503  1.00  0.00     0.001 A 
ATOM     45  C   UNL A   1      51.233  25.477  27.772  1.00  0.00     0.001 A 
ATOM     46  C   UNL A   1      51.683  25.654  26.465  1.00  0.00     0.000 A 
ENDBRANCH  27  41
BRANCH  28  47
ATOM     47  C   UNL A   1      39.597  28.829  29.118  1.00  0.00    -0.014 A 
ATOM     48  C   UNL A   1      38.822  29.313  28.055  1.00  0.00     0.009 A 
ATOM     49  C   UNL A   1      39.001  28.681  30.382  1.00  0.00     0.009 A 
ATOM     50  C   UNL A   1      37.479  29.648  28.255  1.00  0.00     0.001 A 
ATOM     51  C   UNL A   1      37.656  29.004  30.575  1.00  0.00     0.001 A 
ATOM     52  C   UNL A   1      36.896  29.490  29.512  1.00  0.00     0.000 A 
ENDBRANCH  28  47
BRANCH  40  53
ATOM     53  C   UNL A   1      45.653  32.276  29.527  1.00  0.00    -0.014 A 
ATOM     54  C   UNL A   1      46.133  32.553  30.813  1.00  0.00     0.009 A 
ATOM     55  C   UNL A   1      45.639  33.293  28.560  1.00  0.00     0.009 A 
ATOM     56  C   UNL A   1      46.596  33.831  31.126  1.00  0.00     0.001 A 
ATOM     57  C   UNL A   1      46.122  34.563  28.871  1.00  0.00     0.001 A 
ATOM     58  C   UNL A   1      46.600  34.830  30.152  1.00  0.00     0.000 A 
ENDBRANCH  40  53
ENDBRANCH  14  15
ENDBRANCH   7   9
ENDBRANCH   6   7
ENDBRANCH   5   6
ENDBRANCH   4   5
ENDBRANCH   3   4
ENDBRANCH   2   3
ENDBRANCH   1   2
BRANCH   1  59
ATOM     59  O   UNL A   1      34.398  20.673  24.281  1.00  0.00    -0.376 OA
BRANCH  59  60
ATOM     60  C   UNL A   1      32.990  20.467  24.225  1.00  0.00     0.202 C 
BRANCH  60  61
ATOM     61  C   UNL A   1      32.098  21.687  24.001  1.00  0.00     0.261 C 
BRANCH  61  62
ATOM     62  O   UNL A   1      31.930  22.040  22.615  1.00  0.00    -0.460 OA
BRANCH  62  63
ATOM     63  C   UNL A   1      32.743  23.032  22.186  1.00  0.00     0.338 C 
ATOM     64  O   UNL A   1      33.510  23.014  21.239  1.00  0.00    -0.246 OA
BRANCH  63  65
ATOM     65  C   UNL A   1      32.657  24.188  23.083  1.00  0.00     0.062 A 
ATOM     66  C   UNL A   1      33.542  24.227  24.156  1.00  0.00     0.038 A 
ATOM     67  C   UNL A   1      31.885  25.303  22.744  1.00  0.00     0.022 A 
ATOM     68  C   UNL A   1      33.654  25.402  24.889  1.00  0.00     0.065 A 
ATOM     69  C   UNL A   1      31.983  26.486  23.501  1.00  0.00    -0.015 A 
ATOM     70  Cl  UNL A   1      34.828  25.448  26.163  1.00  0.00    -0.082 Cl
ATOM     71  C   UNL A   1      32.858  26.532  24.599  1.00  0.00     0.057 A 
ATOM     72  C   UNL A   1      31.224  27.721  23.073  1.00  0.00     0.049 C 
ATOM     73  N   UNL A   1      32.985  27.695  25.346  1.00  0.00    -0.376 N 
ATOM     74  C   UNL A   1      29.735  27.646  23.265  1.00  0.00    -0.023 C 
ATOM     75  C   UNL A   1      31.581  29.024  23.834  1.00  0.00     0.031 C 
ATOM     76  C   UNL A   1      31.949  28.715  25.301  1.00  0.00     0.114 C 
ATOM     77  H   UNL A   1      33.779  27.829  25.912  1.00  0.00     0.161 HD
ATOM     78  C   UNL A   1      29.224  28.835  23.609  1.00  0.00    -0.030 C 
ATOM     79  C   UNL A   1      30.297  29.872  23.710  1.00  0.00     0.034 C 
BRANCH  76  80
ATOM     80  C   UNL A   1      32.452  29.933  26.070  1.00  0.00    -0.025 A 
ATOM     81  C   UNL A   1      33.717  29.949  26.688  1.00  0.00     0.007 A 
ATOM     82  C   UNL A   1      31.627  31.059  26.205  1.00  0.00     0.007 A 
ATOM     83  C   UNL A   1      34.147  31.064  27.412  1.00  0.00     0.022 A 
ATOM     84  C   UNL A   1      32.051  32.170  26.936  1.00  0.00     0.022 A 
ATOM     85  C   UNL A   1      33.317  32.181  27.518  1.00  0.00     0.082 A 
BRANCH  85  86
ATOM     86  S   UNL A   1      33.894  33.625  28.384  1.00  0.00     0.243 S 
ATOM     87  O   UNL A   1      34.547  34.461  27.409  1.00  0.00    -0.207 OA
ATOM     88  O   UNL A   1      32.774  34.108  29.176  1.00  0.00    -0.207 OA
BRANCH  86  89
ATOM     89  N   UNL A   1      35.032  33.036  29.459  1.00  0.00    -0.193 NA
ATOM     90  C   UNL A   1      34.680  32.553  30.809  1.00  0.00     0.131 C 
ATOM     91  C   UNL A   1      36.478  33.145  29.194  1.00  0.00     0.131 C 
ATOM     92  C   UNL A   1      35.518  33.240  31.899  1.00  0.00     0.177 C 
ATOM     93  C   UNL A   1      37.151  33.919  30.328  1.00  0.00     0.177 C 
ATOM     94  O   UNL A   1      36.917  33.276  31.589  1.00  0.00    -0.379 OA
ENDBRANCH  86  89
ENDBRANCH  85  86
ENDBRANCH  76  80
ENDBRANCH  63  65
ENDBRANCH  62  63
ENDBRANCH  61  62
ENDBRANCH  60  61
ENDBRANCH  59  60
ENDBRANCH   1  59
TORSDOF 20
ENDMDL
MODEL 2
REMARK VINA RESULT:     -11.2      0.685      5.421
REMARK SMILES O=C(OCCOCCOCCOC(=O)c1cc(Cl)c2c(c1)[C@H]1C=CC[C@H]1[C@H](c1ccc(S(=O)(=O)N3CCOCC3)cc1)N2)c1ccc(-c2c3nc(c(-c4ccccc4)c4ccc([nH]4)c(-c4ccccc4)c4nc(c(-c5ccccc5)c5ccc2[nH]5)C=C4)C=C3)cc1
REMARK SMILES IDX 8 1 7 2 6 3 5 4 4 5 3 6 2 7 1 8 44 9 45 10 91 11 46 12 90 13
REMARK SMILES IDX 47 14 48 15 49 16 84 17 50 18 89 19 83 20 85 21 51 22 88 23
REMARK SMILES IDX 82 24 81 25 52 27 74 28 59 29 73 30 60 31 63 32 72 33 86 34
REMARK SMILES IDX 61 35 62 36 71 38 87 39 64 40 53 41 54 42 58 43 55 44 57 45
REMARK SMILES IDX 56 46 75 47 76 48 80 49 77 50 79 51 78 52 65 53 66 54 70 55
REMARK SMILES IDX 67 56 69 57 68 58 9 59 10 60 11 61 12 62 13 63 14 64 15 65
REMARK SMILES IDX 16 66 21 67 17 68 20 69 18 70 19 71 22 72 43 73 23 74 26 75
REMARK SMILES IDX 27 76 24 78 25 79 28 80 29 81 42 82 30 83 41 84 31 85 32 86
REMARK SMILES IDX 33 87 34 88 35 89 36 90 40 91 37 92 39 93 38 94
REMARK H PARENT 85 26 63 37 43 77
REMARK Flexibility Score: inf
ROOT
ATOM      1  C   UNL A   1      34.360  21.211  25.503  1.00  0.00     0.188 C 
ENDROOT
BRANCH   1   2
ATOM      2  C   UNL A   1      35.682  21.987  25.437  1.00  0.00     0.188 C 
BRANCH   2   3
ATOM      3  O   UNL A   1      36.631  21.517  24.489  1.00  0.00    -0.376 OA
BRANCH   3   4
ATOM      4  C   UNL A   1      37.461  20.449  24.936  1.00  0.00     0.202 C 
BRANCH   4   5
ATOM      5  C   UNL A   1      38.736  20.966  25.606  1.00  0.00     0.261 C 
BRANCH   5   6
ATOM      6  O   UNL A   1      39.743  19.939  25.655  1.00  0.00    -0.460 OA
BRANCH   6   7
ATOM      7  C   UNL A   1      41.032  19.981  26.060  1.00  0.00     0.338 C 
ATOM      8  O   UNL A   1      41.657  18.920  26.066  1.00  0.00    -0.246 OA
BRANCH   7   9
ATOM      9  C   UNL A   1      41.757  21.201  26.559  1.00  0.00     0.060 A 
ATOM     10  C   UNL A   1      41.955  21.572  27.890  1.00  0.00     0.016 A 
ATOM     11  C   UNL A   1      42.326  22.032  25.571  1.00  0.00     0.016 A 
ATOM     12  C   UNL A   1      42.669  22.721  28.235  1.00  0.00     0.010 A 
ATOM     13  C   UNL A   1      43.022  23.201  25.903  1.00  0.00     0.010 A 
ATOM     14  C   UNL A   1      43.168  23.559  27.243  1.00  0.00    -0.014 A 
BRANCH  14  15
ATOM     15  C   UNL A   1      43.597  24.916  27.624  1.00  0.00     0.031 A 
ATOM     16  C   UNL A   1      42.525  25.922  27.906  1.00  0.00     0.074 A 
ATOM     17  C   UNL A   1      44.889  25.216  27.839  1.00  0.00     0.049 A 
ATOM     18  N   UNL A   1      42.642  27.150  28.331  1.00  0.00    -0.248 NA
ATOM     19  C   UNL A   1      41.133  25.470  27.726  1.00  0.00     0.031 C 
ATOM     20  C   UNL A   1      45.995  24.272  27.736  1.00  0.00     0.029 A 
ATOM     21  N   UNL A   1      45.480  26.393  28.221  1.00  0.00    -0.354 N 
ATOM     22  C   UNL A   1      41.344  27.602  28.504  1.00  0.00     0.074 A 
ATOM     23  C   UNL A   1      40.452  26.535  28.115  1.00  0.00     0.031 C 
ATOM     24  C   UNL A   1      47.133  24.911  28.054  1.00  0.00     0.029 A 
ATOM     25  C   UNL A   1      46.842  26.306  28.348  1.00  0.00     0.049 A 
ATOM     26  H   UNL A   1      44.973  27.221  28.388  1.00  0.00     0.167 HD
ATOM     27  C   UNL A   1      40.933  28.805  28.958  1.00  0.00     0.031 A 
ATOM     28  C   UNL A   1      47.758  27.241  28.661  1.00  0.00     0.031 A 
ATOM     29  C   UNL A   1      41.820  29.882  29.283  1.00  0.00     0.049 A 
ATOM     30  C   UNL A   1      47.286  28.629  28.975  1.00  0.00     0.074 A 
ATOM     31  C   UNL A   1      41.501  31.171  29.662  1.00  0.00     0.029 A 
ATOM     32  N   UNL A   1      43.203  29.794  29.250  1.00  0.00    -0.354 N 
ATOM     33  N   UNL A   1      46.054  29.066  29.079  1.00  0.00    -0.248 NA
ATOM     34  C   UNL A   1      48.316  29.651  29.210  1.00  0.00     0.031 C 
ATOM     35  C   UNL A   1      42.696  31.881  29.811  1.00  0.00     0.029 A 
ATOM     36  C   UNL A   1      43.755  31.018  29.574  1.00  0.00     0.049 A 
ATOM     37  H   UNL A   1      43.715  28.983  29.029  1.00  0.00     0.167 HD
ATOM     38  C   UNL A   1      46.157  30.408  29.410  1.00  0.00     0.074 A 
ATOM     39  C   UNL A   1      47.572  30.715  29.490  1.00  0.00     0.031 C 
ATOM     40  C   UNL A   1      45.165  31.302  29.634  1.00  0.00     0.031 A 
BRANCH  27  41
ATOM     41  C   UNL A   1      39.458  29.019  29.072  1.00  0.00    -0.014 A 
ATOM     42  C   UNL A   1      38.765  28.642  30.232  1.00  0.00     0.009 A 
ATOM     43  C   UNL A   1      38.756  29.612  28.012  1.00  0.00     0.009 A 
ATOM     44  C   UNL A   1      37.388  28.849  30.325  1.00  0.00     0.001 A 
ATOM     45  C   UNL A   1      37.383  29.831  28.115  1.00  0.00     0.001 A 
ATOM     46  C   UNL A   1      36.700  29.448  29.269  1.00  0.00     0.000 A 
ENDBRANCH  27  41
BRANCH  28  47
ATOM     47  C   UNL A   1      49.203  26.896  28.681  1.00  0.00    -0.014 A 
ATOM     48  C   UNL A   1      49.827  26.498  29.872  1.00  0.00     0.009 A 
ATOM     49  C   UNL A   1      49.963  26.942  27.499  1.00  0.00     0.009 A 
ATOM     50  C   UNL A   1      51.183  26.161  29.882  1.00  0.00     0.001 A 
ATOM     51  C   UNL A   1      51.315  26.591  27.509  1.00  0.00     0.001 A 
ATOM     52  C   UNL A   1      51.925  26.203  28.702  1.00  0.00     0.000 A 
ENDBRANCH  28  47
BRANCH  40  53
ATOM     53  C   UNL A   1      45.557  32.703  29.988  1.00  0.00    -0.014 A 
ATOM     54  C   UNL A   1      45.991  33.017  31.283  1.00  0.00     0.009 A 
ATOM     55  C   UNL A   1      45.618  33.679  28.981  1.00  0.00     0.009 A 
ATOM     56  C   UNL A   1      46.483  34.291  31.564  1.00  0.00     0.001 A 
ATOM     57  C   UNL A   1      46.131  34.944  29.263  1.00  0.00     0.001 A 
ATOM     58  C   UNL A   1      46.563  35.249  30.552  1.00  0.00     0.000 A 
ENDBRANCH  40  53
ENDBRANCH  14  15
ENDBRANCH   7   9
ENDBRANCH   6   7
ENDBRANCH   5   6
ENDBRANCH   4   5
ENDBRANCH   3   4
ENDBRANCH   2   3
ENDBRANCH   1   2
BRANCH   1  59
ATOM     59  O   UNL A   1      33.943  20.475  24.365  1.00  0.00    -0.376 OA
BRANCH  59  60
ATOM     60  C   UNL A   1      32.563  20.456  24.015  1.00  0.00     0.202 C 
BRANCH  60  61
ATOM     61  C   UNL A   1      31.850  21.797  23.849  1.00  0.00     0.261 C 
BRANCH  61  62
ATOM     62  O   UNL A   1      31.757  22.243  22.483  1.00  0.00    -0.460 OA
BRANCH  62  63
ATOM     63  C   UNL A   1      32.660  23.190  22.139  1.00  0.00     0.338 C 
ATOM     64  O   UNL A   1      33.502  23.137  21.260  1.00  0.00    -0.246 OA
BRANCH  63  65
ATOM     65  C   UNL A   1      32.564  24.339  23.044  1.00  0.00     0.062 A 
ATOM     66  C   UNL A   1      33.455  24.384  24.112  1.00  0.00     0.038 A 
ATOM     67  C   UNL A   1      31.775  25.446  22.716  1.00  0.00     0.022 A 
ATOM     68  C   UNL A   1      33.556  25.556  24.850  1.00  0.00     0.065 A 
ATOM     69  C   UNL A   1      31.863  26.627  23.479  1.00  0.00    -0.015 A 
ATOM     70  Cl  UNL A   1      34.737  25.610  26.117  1.00  0.00    -0.082 Cl
ATOM     71  C   UNL A   1      32.744  26.678  24.572  1.00  0.00     0.057 A 
ATOM     72  C   UNL A   1      31.085  27.854  23.064  1.00  0.00     0.049 C 
ATOM     73  N   UNL A   1      32.860  27.837  25.325  1.00  0.00    -0.376 N 
ATOM     74  C   UNL A   1      29.598  27.758  23.264  1.00  0.00    -0.023 C 
ATOM     75  C   UNL A   1      31.429  29.157  23.829  1.00  0.00     0.031 C 
ATOM     76  C   UNL A   1      31.810  28.844  25.292  1.00  0.00     0.114 C 
ATOM     77  H   UNL A   1      33.656  27.979  25.887  1.00  0.00     0.161 HD
ATOM     78  C   UNL A   1      29.074  28.938  23.618  1.00  0.00    -0.030 C 
ATOM     79  C   UNL A   1      30.134  29.988  23.718  1.00  0.00     0.034 C 
BRANCH  76  80
ATOM     80  C   UNL A   1      32.303  30.064  26.066  1.00  0.00    -0.025 A 
ATOM     81  C   UNL A   1      31.504  31.211  26.229  1.00  0.00     0.007 A 
ATOM     82  C   UNL A   1      33.600  30.069  26.602  1.00  0.00     0.007 A 
ATOM     83  C   UNL A   1      31.985  32.328  26.917  1.00  0.00     0.022 A 
ATOM     84  C   UNL A   1      34.086  31.188  27.280  1.00  0.00     0.022 A 
ATOM     85  C   UNL A   1      33.272  32.305  27.457  1.00  0.00     0.082 A 
BRANCH  85  86
ATOM     86  S   UNL A   1      33.858  33.704  28.390  1.00  0.00     0.243 S 
ATOM     87  O   UNL A   1      34.529  34.573  27.457  1.00  0.00    -0.207 OA
ATOM     88  O   UNL A   1      32.738  34.165  29.193  1.00  0.00    -0.207 OA
BRANCH  86  89
ATOM     89  N   UNL A   1      34.980  33.054  29.447  1.00  0.00    -0.193 NA
ATOM     90  C   UNL A   1      34.595  32.292  30.651  1.00  0.00     0.131 C 
ATOM     91  C   UNL A   1      36.416  33.369  29.343  1.00  0.00     0.131 C 
ATOM     92  C   UNL A   1      35.257  32.854  31.919  1.00  0.00     0.177 C 
ATOM     93  C   UNL A   1      36.902  33.989  30.654  1.00  0.00     0.177 C 
ATOM     94  O   UNL A   1      36.660  33.101  31.754  1.00  0.00    -0.379 OA
ENDBRANCH  86  89
ENDBRANCH  85  86
ENDBRANCH  76  80
ENDBRANCH  63  65
ENDBRANCH  62  63
ENDBRANCH  61  62
ENDBRANCH  60  61
ENDBRANCH  59  60
ENDBRANCH   1  59
TORSDOF 20
ENDMDL
MODEL 3
REMARK VINA RESULT:     -10.6      3.606      9.778
REMARK SMILES O=C(OCCOCCOCCOC(=O)c1cc(Cl)c2c(c1)[C@H]1C=CC[C@H]1[C@H](c1ccc(S(=O)(=O)N3CCOCC3)cc1)N2)c1ccc(-c2c3nc(c(-c4ccccc4)c4ccc([nH]4)c(-c4ccccc4)c4nc(c(-c5ccccc5)c5ccc2[nH]5)C=C4)C=C3)cc1
REMARK SMILES IDX 8 1 7 2 6 3 5 4 4 5 3 6 2 7 1 8 44 9 45 10 91 11 46 12 90 13
REMARK SMILES IDX 47 14 48 15 49 16 84 17 50 18 89 19 83 20 85 21 51 22 88 23
REMARK SMILES IDX 82 24 81 25 52 27 74 28 59 29 73 30 60 31 63 32 72 33 86 34
REMARK SMILES IDX 61 35 62 36 71 38 87 39 64 40 53 41 54 42 58 43 55 44 57 45
REMARK SMILES IDX 56 46 75 47 76 48 80 49 77 50 79 51 78 52 65 53 66 54 70 55
REMARK SMILES IDX 67 56 69 57 68 58 9 59 10 60 11 61 12 62 13 63 14 64 15 65
REMARK SMILES IDX 16 66 21 67 17 68 20 69 18 70 19 71 22 72 43 73 23 74 26 75
REMARK SMILES IDX 27 76 24 78 25 79 28 80 29 81 42 82 30 83 41 84 31 85 32 86
REMARK SMILES IDX 33 87 34 88 35 89 36 90 40 91 37 92 39 93 38 94
REMARK H PARENT 85 26 63 37 43 77
REMARK Flexibility Score: inf
ROOT
ATOM      1  C   UNL A   1      31.020  23.188  23.560  1.00  0.00     0.188 C 
ENDROOT
BRANCH   1   2
ATOM      2  C   UNL A   1      30.266  24.474  23.201  1.00  0.00     0.188 C 
BRANCH   2   3
ATOM      3  O   UNL A   1      31.026  25.476  22.539  1.00  0.00    -0.376 OA
BRANCH   3   4
ATOM      4  C   UNL A   1      31.540  26.505  23.379  1.00  0.00     0.202 C 
BRANCH   4   5
ATOM      5  C   UNL A   1      30.598  26.806  24.547  1.00  0.00     0.261 C 
BRANCH   5   6
ATOM      6  O   UNL A   1      31.274  27.557  25.572  1.00  0.00    -0.460 OA
BRANCH   6   7
ATOM      7  C   UNL A   1      31.768  28.815  25.570  1.00  0.00     0.338 C 
ATOM      8  O   UNL A   1      31.208  29.640  24.847  1.00  0.00    -0.246 OA
BRANCH   7   9
ATOM      9  C   UNL A   1      32.978  29.285  26.330  1.00  0.00     0.060 A 
ATOM     10  C   UNL A   1      34.030  28.496  26.800  1.00  0.00     0.016 A 
ATOM     11  C   UNL A   1      33.070  30.674  26.552  1.00  0.00     0.016 A 
ATOM     12  C   UNL A   1      35.119  29.050  27.475  1.00  0.00     0.010 A 
ATOM     13  C   UNL A   1      34.144  31.238  27.252  1.00  0.00     0.010 A 
ATOM     14  C   UNL A   1      35.159  30.415  27.739  1.00  0.00    -0.014 A 
BRANCH  14  15
ATOM     15  C   UNL A   1      36.122  30.907  28.740  1.00  0.00     0.031 A 
ATOM     16  C   UNL A   1      37.513  30.356  28.683  1.00  0.00     0.074 A 
ATOM     17  C   UNL A   1      35.815  31.900  29.590  1.00  0.00     0.049 A 
ATOM     18  N   UNL A   1      38.555  30.683  29.397  1.00  0.00    -0.248 NA
ATOM     19  C   UNL A   1      37.776  29.331  27.656  1.00  0.00     0.031 C 
ATOM     20  C   UNL A   1      34.539  32.603  29.628  1.00  0.00     0.029 A 
ATOM     21  N   UNL A   1      36.568  32.508  30.561  1.00  0.00    -0.354 N 
ATOM     22  C   UNL A   1      39.601  29.934  28.881  1.00  0.00     0.074 A 
ATOM     23  C   UNL A   1      39.071  29.115  27.816  1.00  0.00     0.031 C 
ATOM     24  C   UNL A   1      34.602  33.554  30.575  1.00  0.00     0.029 A 
ATOM     25  C   UNL A   1      35.901  33.505  31.227  1.00  0.00     0.049 A 
ATOM     26  H   UNL A   1      37.498  32.254  30.760  1.00  0.00     0.167 HD
ATOM     27  C   UNL A   1      40.896  29.936  29.262  1.00  0.00     0.031 A 
ATOM     28  C   UNL A   1      36.287  34.289  32.250  1.00  0.00     0.031 A 
ATOM     29  C   UNL A   1      41.404  30.702  30.360  1.00  0.00     0.049 A 
ATOM     30  C   UNL A   1      37.679  34.135  32.785  1.00  0.00     0.074 A 
ATOM     31  C   UNL A   1      42.681  30.705  30.885  1.00  0.00     0.029 A 
ATOM     32  N   UNL A   1      40.650  31.591  31.109  1.00  0.00    -0.354 N 
ATOM     33  N   UNL A   1      38.648  33.379  32.328  1.00  0.00    -0.248 NA
ATOM     34  C   UNL A   1      38.035  34.931  33.968  1.00  0.00     0.031 C 
ATOM     35  C   UNL A   1      42.688  31.562  31.989  1.00  0.00     0.029 A 
ATOM     36  C   UNL A   1      41.429  32.128  32.116  1.00  0.00     0.049 A 
ATOM     37  H   UNL A   1      39.704  31.808  30.950  1.00  0.00     0.167 HD
ATOM     38  C   UNL A   1      39.735  33.619  33.155  1.00  0.00     0.074 A 
ATOM     39  C   UNL A   1      39.308  34.592  34.141  1.00  0.00     0.031 C 
ATOM     40  C   UNL A   1      40.977  33.085  33.094  1.00  0.00     0.031 A 
BRANCH  27  41
ATOM     41  C   UNL A   1      41.825  29.040  28.508  1.00  0.00    -0.014 A 
ATOM     42  C   UNL A   1      42.293  27.847  29.079  1.00  0.00     0.009 A 
ATOM     43  C   UNL A   1      42.229  29.387  27.211  1.00  0.00     0.009 A 
ATOM     44  C   UNL A   1      43.159  27.019  28.363  1.00  0.00     0.001 A 
ATOM     45  C   UNL A   1      43.082  28.550  26.494  1.00  0.00     0.001 A 
ATOM     46  C   UNL A   1      43.548  27.369  27.070  1.00  0.00     0.000 A 
ENDBRANCH  27  41
BRANCH  28  47
ATOM     47  C   UNL A   1      35.341  35.273  32.837  1.00  0.00    -0.014 A 
ATOM     48  C   UNL A   1      34.892  36.368  32.084  1.00  0.00     0.009 A 
ATOM     49  C   UNL A   1      34.864  35.109  34.148  1.00  0.00     0.009 A 
ATOM     50  C   UNL A   1      33.990  37.283  32.636  1.00  0.00     0.001 A 
ATOM     51  C   UNL A   1      33.952  36.017  34.692  1.00  0.00     0.001 A 
ATOM     52  C   UNL A   1      33.518  37.105  33.936  1.00  0.00     0.000 A 
ENDBRANCH  28  47
BRANCH  40  53
ATOM     53  C   UNL A   1      41.977  33.528  34.115  1.00  0.00    -0.014 A 
ATOM     54  C   UNL A   1      42.125  32.828  35.320  1.00  0.00     0.009 A 
ATOM     55  C   UNL A   1      42.866  34.570  33.807  1.00  0.00     0.009 A 
ATOM     56  C   UNL A   1      43.151  33.166  36.202  1.00  0.00     0.001 A 
ATOM     57  C   UNL A   1      43.903  34.890  34.682  1.00  0.00     0.001 A 
ATOM     58  C   UNL A   1      44.045  34.188  35.877  1.00  0.00     0.000 A 
ENDBRANCH  40  53
ENDBRANCH  14  15
ENDBRANCH   7   9
ENDBRANCH   6   7
ENDBRANCH   5   6
ENDBRANCH   4   5
ENDBRANCH   3   4
ENDBRANCH   2   3
ENDBRANCH   1   2
BRANCH   1  59
ATOM     59  O   UNL A   1      31.773  22.534  22.550  1.00  0.00    -0.376 OA
BRANCH  59  60
ATOM     60  C   UNL A   1      33.128  22.915  22.336  1.00  0.00     0.202 C 
BRANCH  60  61
ATOM     61  C   UNL A   1      34.127  22.667  23.465  1.00  0.00     0.261 C 
BRANCH  61  62
ATOM     62  O   UNL A   1      33.726  21.630  24.380  1.00  0.00    -0.460 OA
BRANCH  62  63
ATOM     63  C   UNL A   1      34.021  21.880  25.676  1.00  0.00     0.338 C 
ATOM     64  O   UNL A   1      33.247  22.103  26.590  1.00  0.00    -0.246 OA
BRANCH  63  65
ATOM     65  C   UNL A   1      35.473  21.934  25.869  1.00  0.00     0.062 A 
ATOM     66  C   UNL A   1      36.214  20.838  25.439  1.00  0.00     0.038 A 
ATOM     67  C   UNL A   1      36.101  23.123  26.252  1.00  0.00     0.022 A 
ATOM     68  C   UNL A   1      37.598  20.943  25.388  1.00  0.00     0.065 A 
ATOM     69  C   UNL A   1      37.506  23.222  26.220  1.00  0.00    -0.015 A 
ATOM     70  Cl  UNL A   1      38.486  19.592  24.765  1.00  0.00    -0.082 Cl
ATOM     71  C   UNL A   1      38.266  22.115  25.807  1.00  0.00     0.057 A 
ATOM     72  C   UNL A   1      38.178  24.538  26.537  1.00  0.00     0.049 C 
ATOM     73  N   UNL A   1      39.650  22.197  25.750  1.00  0.00    -0.376 N 
ATOM     74  C   UNL A   1      38.117  24.947  27.982  1.00  0.00    -0.023 C 
ATOM     75  C   UNL A   1      39.700  24.600  26.248  1.00  0.00     0.031 C 
ATOM     76  C   UNL A   1      40.357  23.225  26.497  1.00  0.00     0.114 C 
ATOM     77  H   UNL A   1      40.157  21.554  25.203  1.00  0.00     0.161 HD
ATOM     78  C   UNL A   1      39.233  25.585  28.358  1.00  0.00    -0.030 C 
ATOM     79  C   UNL A   1      40.204  25.684  27.225  1.00  0.00     0.034 C 
BRANCH  76  80
ATOM     80  C   UNL A   1      41.828  23.173  26.093  1.00  0.00    -0.025 A 
ATOM     81  C   UNL A   1      42.490  24.293  25.555  1.00  0.00     0.007 A 
ATOM     82  C   UNL A   1      42.542  21.972  26.221  1.00  0.00     0.007 A 
ATOM     83  C   UNL A   1      43.829  24.216  25.165  1.00  0.00     0.022 A 
ATOM     84  C   UNL A   1      43.877  21.890  25.822  1.00  0.00     0.022 A 
ATOM     85  C   UNL A   1      44.525  23.016  25.318  1.00  0.00     0.082 A 
BRANCH  85  86
ATOM     86  S   UNL A   1      46.249  22.939  24.882  1.00  0.00     0.243 S 
ATOM     87  O   UNL A   1      46.698  21.607  25.198  1.00  0.00    -0.207 OA
ATOM     88  O   UNL A   1      46.363  23.484  23.540  1.00  0.00    -0.207 OA
BRANCH  86  89
ATOM     89  N   UNL A   1      46.985  24.030  25.915  1.00  0.00    -0.193 NA
ATOM     90  C   UNL A   1      46.865  23.947  27.383  1.00  0.00     0.131 C 
ATOM     91  C   UNL A   1      47.638  25.253  25.412  1.00  0.00     0.131 C 
ATOM     92  C   UNL A   1      46.380  25.271  27.994  1.00  0.00     0.177 C 
ATOM     93  C   UNL A   1      46.992  26.481  26.055  1.00  0.00     0.177 C 
ATOM     94  O   UNL A   1      47.084  26.412  27.485  1.00  0.00    -0.379 OA
ENDBRANCH  86  89
ENDBRANCH  85  86
ENDBRANCH  76  80
ENDBRANCH  63  65
ENDBRANCH  62  63
ENDBRANCH  61  62
ENDBRANCH  60  61
ENDBRANCH  59  60
ENDBRANCH   1  59
TORSDOF 20
ENDMDL
