MODEL 1
REMARK VINA RESULT:     -10.4      0.000      0.000
REMARK SMILES O=C(OCCOCCOCCOC(=O)[C@@H]1CN(c2ncccn2)CCN1C(=O)C1CCOCC1)c1ccc(-c2c3nc(c(-c4ccccc4)c4ccc([nH]4)c(-c4ccccc4)c4nc(c(-c5ccccc5)c5ccc2[nH]5)C=C4)C=C3)cc1
REMARK SMILES IDX 7 1 6 2 5 3 4 4 3 5 2 6 1 7 35 8 36 9 82 10 37 11 81 12
REMARK SMILES IDX 38 13 39 14 40 15 75 16 41 17 80 18 74 19 76 20 42 21 79 22
REMARK SMILES IDX 73 23 72 24 43 26 65 27 50 28 64 29 51 30 54 31 63 32 77 33
REMARK SMILES IDX 52 34 53 35 62 37 78 38 55 39 44 40 45 41 49 42 46 43 48 44
REMARK SMILES IDX 47 45 66 46 67 47 71 48 68 49 70 50 69 51 56 52 57 53 61 54
REMARK SMILES IDX 58 55 60 56 59 57 8 58 9 59 10 60 11 61 12 62 13 63 14 64
REMARK SMILES IDX 15 65 16 66 26 67 17 68 25 69 24 70 27 71 28 72 29 73 30 74
REMARK SMILES IDX 34 75 31 76 33 77 32 78 18 79 19 80 23 81 20 82 22 83 21 84
REMARK H PARENT 76 25 54 36
REMARK Flexibility Score: inf
ROOT
ATOM      1  C   UNL A   1      35.141  33.054  28.322  1.00  0.00     0.188 C 
ENDROOT
BRANCH   1   2
ATOM      2  O   UNL A   1      34.564  34.306  27.968  1.00  0.00    -0.376 OA
BRANCH   2   3
ATOM      3  C   UNL A   1      33.231  34.457  28.460  1.00  0.00     0.202 C 
BRANCH   3   4
ATOM      4  C   UNL A   1      33.001  35.712  29.323  1.00  0.00     0.261 C 
BRANCH   4   5
ATOM      5  O   UNL A   1      32.364  35.482  30.597  1.00  0.00    -0.460 OA
BRANCH   5   6
ATOM      6  C   UNL A   1      32.843  35.604  31.859  1.00  0.00     0.338 C 
ATOM      7  O   UNL A   1      32.253  36.357  32.632  1.00  0.00    -0.246 OA
BRANCH   6   8
ATOM      8  C   UNL A   1      34.085  34.932  32.359  1.00  0.00     0.060 A 
ATOM      9  C   UNL A   1      35.385  35.390  32.163  1.00  0.00     0.016 A 
ATOM     10  C   UNL A   1      33.927  33.770  33.131  1.00  0.00     0.016 A 
ATOM     11  C   UNL A   1      36.498  34.739  32.678  1.00  0.00     0.010 A 
ATOM     12  C   UNL A   1      35.041  33.088  33.634  1.00  0.00     0.010 A 
ATOM     13  C   UNL A   1      36.337  33.566  33.394  1.00  0.00    -0.014 A 
BRANCH  13  14
ATOM     14  C   UNL A   1      37.535  32.740  33.635  1.00  0.00     0.031 A 
ATOM     15  C   UNL A   1      38.338  33.056  34.862  1.00  0.00     0.074 A 
ATOM     16  C   UNL A   1      37.815  31.664  32.876  1.00  0.00     0.049 A 
ATOM     17  N   UNL A   1      39.470  32.549  35.267  1.00  0.00    -0.248 NA
ATOM     18  C   UNL A   1      37.766  34.067  35.774  1.00  0.00     0.031 C 
ATOM     19  C   UNL A   1      37.010  31.182  31.750  1.00  0.00     0.029 A 
ATOM     20  N   UNL A   1      38.883  30.805  32.905  1.00  0.00    -0.354 N 
ATOM     21  C   UNL A   1      39.716  33.145  36.497  1.00  0.00     0.074 A 
ATOM     22  C   UNL A   1      38.678  34.120  36.729  1.00  0.00     0.031 C 
ATOM     23  C   UNL A   1      37.665  30.186  31.130  1.00  0.00     0.029 A 
ATOM     24  C   UNL A   1      38.936  29.975  31.808  1.00  0.00     0.049 A 
ATOM     25  H   UNL A   1      39.543  30.784  33.635  1.00  0.00     0.167 HD
ATOM     26  C   UNL A   1      40.694  32.860  37.385  1.00  0.00     0.031 A 
ATOM     27  C   UNL A   1      39.945  29.200  31.368  1.00  0.00     0.031 A 
ATOM     28  C   UNL A   1      41.729  31.904  37.124  1.00  0.00     0.049 A 
ATOM     29  C   UNL A   1      41.169  29.092  32.234  1.00  0.00     0.074 A 
ATOM     30  C   UNL A   1      42.808  31.552  37.908  1.00  0.00     0.029 A 
ATOM     31  N   UNL A   1      41.802  31.146  35.963  1.00  0.00    -0.354 N 
ATOM     32  N   UNL A   1      41.422  29.686  33.377  1.00  0.00    -0.248 NA
ATOM     33  C   UNL A   1      42.228  28.188  31.774  1.00  0.00     0.031 C 
ATOM     34  C   UNL A   1      43.561  30.609  37.198  1.00  0.00     0.029 A 
ATOM     35  C   UNL A   1      42.921  30.339  35.997  1.00  0.00     0.049 A 
ATOM     36  H   UNL A   1      41.152  31.180  35.224  1.00  0.00     0.167 HD
ATOM     37  C   UNL A   1      42.636  29.173  33.810  1.00  0.00     0.074 A 
ATOM     38  C   UNL A   1      43.079  28.243  32.787  1.00  0.00     0.031 C 
ATOM     39  C   UNL A   1      43.312  29.420  34.959  1.00  0.00     0.031 A 
BRANCH  26  40
ATOM     40  C   UNL A   1      40.658  33.608  38.686  1.00  0.00    -0.014 A 
ATOM     41  C   UNL A   1      39.790  33.212  39.720  1.00  0.00     0.009 A 
ATOM     42  C   UNL A   1      41.440  34.758  38.860  1.00  0.00     0.009 A 
ATOM     43  C   UNL A   1      39.672  33.979  40.880  1.00  0.00     0.001 A 
ATOM     44  C   UNL A   1      41.337  35.509  40.033  1.00  0.00     0.001 A 
ATOM     45  C   UNL A   1      40.445  35.127  41.036  1.00  0.00     0.000 A 
ENDBRANCH  26  40
BRANCH  27  46
ATOM     46  C   UNL A   1      39.885  28.550  30.030  1.00  0.00    -0.014 A 
ATOM     47  C   UNL A   1      39.458  27.224  29.872  1.00  0.00     0.009 A 
ATOM     48  C   UNL A   1      40.316  29.253  28.891  1.00  0.00     0.009 A 
ATOM     49  C   UNL A   1      39.503  26.610  28.615  1.00  0.00     0.001 A 
ATOM     50  C   UNL A   1      40.336  28.647  27.633  1.00  0.00     0.001 A 
ATOM     51  C   UNL A   1      39.942  27.321  27.498  1.00  0.00     0.000 A 
ENDBRANCH  27  46
BRANCH  39  52
ATOM     52  C   UNL A   1      44.546  28.604  35.198  1.00  0.00    -0.014 A 
ATOM     53  C   UNL A   1      44.489  27.351  35.823  1.00  0.00     0.009 A 
ATOM     54  C   UNL A   1      45.782  29.097  34.751  1.00  0.00     0.009 A 
ATOM     55  C   UNL A   1      45.657  26.617  36.023  1.00  0.00     0.001 A 
ATOM     56  C   UNL A   1      46.943  28.347  34.925  1.00  0.00     0.001 A 
ATOM     57  C   UNL A   1      46.881  27.112  35.568  1.00  0.00     0.000 A 
ENDBRANCH  39  52
ENDBRANCH  13  14
ENDBRANCH   6   8
ENDBRANCH   5   6
ENDBRANCH   4   5
ENDBRANCH   3   4
ENDBRANCH   2   3
ENDBRANCH   1   2
BRANCH   1  58
ATOM     58  C   UNL A   1      34.113  31.955  28.475  1.00  0.00     0.188 C 
BRANCH  58  59
ATOM     59  O   UNL A   1      33.830  31.195  27.315  1.00  0.00    -0.376 OA
BRANCH  59  60
ATOM     60  C   UNL A   1      34.360  29.878  27.259  1.00  0.00     0.202 C 
BRANCH  60  61
ATOM     61  C   UNL A   1      33.877  28.879  26.182  1.00  0.00     0.261 C 
BRANCH  61  62
ATOM     62  O   UNL A   1      33.559  27.529  26.592  1.00  0.00    -0.462 OA
BRANCH  62  63
ATOM     63  C   UNL A   1      32.282  27.148  26.301  1.00  0.00     0.330 C 
ATOM     64  O   UNL A   1      31.486  26.751  27.154  1.00  0.00    -0.250 OA
BRANCH  63  65
ATOM     65  C   UNL A   1      31.906  27.171  24.808  1.00  0.00     0.214 C 
ATOM     66  C   UNL A   1      30.420  26.932  24.405  1.00  0.00     0.157 C 
ATOM     67  N   UNL A   1      32.857  26.678  23.744  1.00  0.00    -0.325 N 
ATOM     68  N   UNL A   1      30.155  27.289  22.988  1.00  0.00    -0.336 N 
ATOM     69  C   UNL A   1      32.576  27.382  22.476  1.00  0.00     0.142 C 
ATOM     70  C   UNL A   1      31.174  26.985  21.976  1.00  0.00     0.141 C 
BRANCH  67  71
ATOM     71  C   UNL A   1      33.503  25.460  23.569  1.00  0.00     0.226 C 
ATOM     72  O   UNL A   1      34.083  25.228  22.494  1.00  0.00    -0.275 OA
BRANCH  71  73
ATOM     73  C   UNL A   1      33.596  24.337  24.600  1.00  0.00     0.083 C 
ATOM     74  C   UNL A   1      34.846  24.449  25.458  1.00  0.00     0.042 C 
ATOM     75  C   UNL A   1      33.192  22.946  24.112  1.00  0.00     0.042 C 
ATOM     76  C   UNL A   1      35.017  23.191  26.284  1.00  0.00     0.161 C 
ATOM     77  C   UNL A   1      33.892  21.767  24.783  1.00  0.00     0.161 C 
ATOM     78  O   UNL A   1      35.132  22.103  25.380  1.00  0.00    -0.381 OA
ENDBRANCH  71  73
ENDBRANCH  67  71
BRANCH  68  79
ATOM     79  C   UNL A   1      29.378  28.373  22.635  1.00  0.00     0.225 A 
ATOM     80  N   UNL A   1      29.912  29.256  21.774  1.00  0.00    -0.221 NA
ATOM     81  N   UNL A   1      28.243  28.613  23.304  1.00  0.00    -0.221 NA
ATOM     82  C   UNL A   1      29.237  30.402  21.542  1.00  0.00     0.117 A 
ATOM     83  C   UNL A   1      27.598  29.771  23.023  1.00  0.00     0.117 A 
ATOM     84  C   UNL A   1      28.044  30.710  22.132  1.00  0.00     0.040 A 
ENDBRANCH  68  79
ENDBRANCH  63  65
ENDBRANCH  62  63
ENDBRANCH  61  62
ENDBRANCH  60  61
ENDBRANCH  59  60
ENDBRANCH  58  59
ENDBRANCH   1  58
TORSDOF 20
ENDMDL
MODEL 2
REMARK VINA RESULT:     -10.2      0.666      5.783
REMARK SMILES O=C(OCCOCCOCCOC(=O)[C@@H]1CN(c2ncccn2)CCN1C(=O)C1CCOCC1)c1ccc(-c2c3nc(c(-c4ccccc4)c4ccc([nH]4)c(-c4ccccc4)c4nc(c(-c5ccccc5)c5ccc2[nH]5)C=C4)C=C3)cc1
REMARK SMILES IDX 7 1 6 2 5 3 4 4 3 5 2 6 1 7 35 8 36 9 82 10 37 11 81 12
REMARK SMILES IDX 38 13 39 14 40 15 75 16 41 17 80 18 74 19 76 20 42 21 79 22
REMARK SMILES IDX 73 23 72 24 43 26 65 27 50 28 64 29 51 30 54 31 63 32 77 33
REMARK SMILES IDX 52 34 53 35 62 37 78 38 55 39 44 40 45 41 49 42 46 43 48 44
REMARK SMILES IDX 47 45 66 46 67 47 71 48 68 49 70 50 69 51 56 52 57 53 61 54
REMARK SMILES IDX 58 55 60 56 59 57 8 58 9 59 10 60 11 61 12 62 13 63 14 64
REMARK SMILES IDX 15 65 16 66 26 67 17 68 25 69 24 70 27 71 28 72 29 73 30 74
REMARK SMILES IDX 34 75 31 76 33 77 32 78 18 79 19 80 23 81 20 82 22 83 21 84
REMARK H PARENT 76 25 54 36
REMARK Flexibility Score: inf
ROOT
ATOM      1  C   UNL A   1      34.405  32.668  28.996  1.00  0.00     0.188 C 
ENDROOT
BRANCH   1   2
ATOM      2  O   UNL A   1      34.365  33.987  28.464  1.00  0.00    -0.376 OA
BRANCH   2   3
ATOM      3  C   UNL A   1      33.056  34.558  28.506  1.00  0.00     0.202 C 
BRANCH   3   4
ATOM      4  C   UNL A   1      32.913  35.778  29.436  1.00  0.00     0.261 C 
BRANCH   4   5
ATOM      5  O   UNL A   1      32.426  35.494  30.764  1.00  0.00    -0.460 OA
BRANCH   5   6
ATOM      6  C   UNL A   1      33.084  35.407  31.946  1.00  0.00     0.338 C 
ATOM      7  O   UNL A   1      32.687  36.100  32.881  1.00  0.00    -0.246 OA
BRANCH   6   8
ATOM      8  C   UNL A   1      34.307  34.572  32.173  1.00  0.00     0.060 A 
ATOM      9  C   UNL A   1      34.351  33.392  32.911  1.00  0.00     0.016 A 
ATOM     10  C   UNL A   1      35.496  34.983  31.553  1.00  0.00     0.016 A 
ATOM     11  C   UNL A   1      35.510  32.643  33.062  1.00  0.00     0.010 A 
ATOM     12  C   UNL A   1      36.679  34.252  31.719  1.00  0.00     0.010 A 
ATOM     13  C   UNL A   1      36.691  33.083  32.490  1.00  0.00    -0.014 A 
BRANCH  13  14
ATOM     14  C   UNL A   1      37.947  32.452  32.940  1.00  0.00     0.031 A 
ATOM     15  C   UNL A   1      38.474  31.325  32.103  1.00  0.00     0.074 A 
ATOM     16  C   UNL A   1      38.661  32.954  33.965  1.00  0.00     0.049 A 
ATOM     17  N   UNL A   1      39.501  30.546  32.310  1.00  0.00    -0.248 NA
ATOM     18  C   UNL A   1      37.758  31.058  30.840  1.00  0.00     0.031 C 
ATOM     19  C   UNL A   1      38.310  34.142  34.748  1.00  0.00     0.029 A 
ATOM     20  N   UNL A   1      39.810  32.500  34.558  1.00  0.00    -0.354 N 
ATOM     21  C   UNL A   1      39.576  29.736  31.184  1.00  0.00     0.074 A 
ATOM     22  C   UNL A   1      38.443  30.042  30.346  1.00  0.00     0.031 C 
ATOM     23  C   UNL A   1      39.159  34.259  35.782  1.00  0.00     0.029 A 
ATOM     24  C   UNL A   1      40.101  33.149  35.737  1.00  0.00     0.049 A 
ATOM     25  H   UNL A   1      40.371  31.785  34.179  1.00  0.00     0.167 HD
ATOM     26  C   UNL A   1      40.544  28.853  30.852  1.00  0.00     0.031 A 
ATOM     27  C   UNL A   1      40.975  32.818  36.704  1.00  0.00     0.031 A 
ATOM     28  C   UNL A   1      41.649  28.548  31.711  1.00  0.00     0.049 A 
ATOM     29  C   UNL A   1      41.884  31.648  36.452  1.00  0.00     0.074 A 
ATOM     30  C   UNL A   1      42.673  27.641  31.526  1.00  0.00     0.029 A 
ATOM     31  N   UNL A   1      41.861  29.160  32.939  1.00  0.00    -0.354 N 
ATOM     32  N   UNL A   1      41.930  30.855  35.407  1.00  0.00    -0.248 NA
ATOM     33  C   UNL A   1      42.879  31.346  37.486  1.00  0.00     0.031 C 
ATOM     34  C   UNL A   1      43.483  27.673  32.668  1.00  0.00     0.029 A 
ATOM     35  C   UNL A   1      42.990  28.636  33.537  1.00  0.00     0.049 A 
ATOM     36  H   UNL A   1      41.291  29.862  33.328  1.00  0.00     0.167 HD
ATOM     37  C   UNL A   1      43.005  30.005  35.624  1.00  0.00     0.074 A 
ATOM     38  C   UNL A   1      43.561  30.364  36.915  1.00  0.00     0.031 C 
ATOM     39  C   UNL A   1      43.511  29.037  34.819  1.00  0.00     0.031 A 
BRANCH  26  40
ATOM     40  C   UNL A   1      40.408  28.181  29.517  1.00  0.00    -0.014 A 
ATOM     41  C   UNL A   1      39.747  26.945  29.399  1.00  0.00     0.009 A 
ATOM     42  C   UNL A   1      41.003  28.744  28.380  1.00  0.00     0.009 A 
ATOM     43  C   UNL A   1      39.726  26.266  28.179  1.00  0.00     0.001 A 
ATOM     44  C   UNL A   1      40.959  28.072  27.155  1.00  0.00     0.001 A 
ATOM     45  C   UNL A   1      40.332  26.829  27.058  1.00  0.00     0.000 A 
ENDBRANCH  26  40
BRANCH  27  46
ATOM     46  C   UNL A   1      40.977  33.529  38.013  1.00  0.00    -0.014 A 
ATOM     47  C   UNL A   1      41.748  34.680  38.227  1.00  0.00     0.009 A 
ATOM     48  C   UNL A   1      40.232  33.014  39.089  1.00  0.00     0.009 A 
ATOM     49  C   UNL A   1      41.803  35.271  39.494  1.00  0.00     0.001 A 
ATOM     50  C   UNL A   1      40.268  33.620  40.347  1.00  0.00     0.001 A 
ATOM     51  C   UNL A   1      41.065  34.741  40.552  1.00  0.00     0.000 A 
ENDBRANCH  27  46
BRANCH  39  52
ATOM     52  C   UNL A   1      44.771  28.372  35.283  1.00  0.00    -0.014 A 
ATOM     53  C   UNL A   1      46.033  28.914  35.005  1.00  0.00     0.009 A 
ATOM     54  C   UNL A   1      44.677  27.197  36.046  1.00  0.00     0.009 A 
ATOM     55  C   UNL A   1      47.184  28.272  35.459  1.00  0.00     0.001 A 
ATOM     56  C   UNL A   1      45.828  26.575  36.523  1.00  0.00     0.001 A 
ATOM     57  C   UNL A   1      47.081  27.107  36.222  1.00  0.00     0.000 A 
ENDBRANCH  39  52
ENDBRANCH  13  14
ENDBRANCH   6   8
ENDBRANCH   5   6
ENDBRANCH   4   5
ENDBRANCH   3   4
ENDBRANCH   2   3
ENDBRANCH   1   2
BRANCH   1  58
ATOM     58  C   UNL A   1      34.485  31.605  27.923  1.00  0.00     0.188 C 
BRANCH  58  59
ATOM     59  O   UNL A   1      33.251  31.157  27.391  1.00  0.00    -0.376 OA
BRANCH  59  60
ATOM     60  C   UNL A   1      33.267  29.937  26.663  1.00  0.00     0.202 C 
BRANCH  60  61
ATOM     61  C   UNL A   1      33.901  28.664  27.271  1.00  0.00     0.261 C 
BRANCH  61  62
ATOM     62  O   UNL A   1      33.764  27.417  26.549  1.00  0.00    -0.462 OA
BRANCH  62  63
ATOM     63  C   UNL A   1      32.471  27.062  26.297  1.00  0.00     0.330 C 
ATOM     64  O   UNL A   1      31.697  26.673  27.174  1.00  0.00    -0.250 OA
BRANCH  63  65
ATOM     65  C   UNL A   1      32.046  27.105  24.818  1.00  0.00     0.214 C 
ATOM     66  C   UNL A   1      30.537  26.939  24.467  1.00  0.00     0.157 C 
ATOM     67  N   UNL A   1      32.934  26.567  23.723  1.00  0.00    -0.325 N 
ATOM     68  N   UNL A   1      30.241  27.309  23.059  1.00  0.00    -0.336 N 
ATOM     69  C   UNL A   1      32.645  27.285  22.464  1.00  0.00     0.142 C 
ATOM     70  C   UNL A   1      31.209  26.957  22.013  1.00  0.00     0.141 C 
BRANCH  67  71
ATOM     71  C   UNL A   1      33.514  25.320  23.527  1.00  0.00     0.226 C 
ATOM     72  O   UNL A   1      34.104  25.084  22.458  1.00  0.00    -0.275 OA
BRANCH  71  73
ATOM     73  C   UNL A   1      33.522  24.166  24.527  1.00  0.00     0.083 C 
ATOM     74  C   UNL A   1      34.749  24.192  25.424  1.00  0.00     0.042 C 
ATOM     75  C   UNL A   1      33.065  22.810  23.988  1.00  0.00     0.042 C 
ATOM     76  C   UNL A   1      34.833  22.906  26.218  1.00  0.00     0.161 C 
ATOM     77  C   UNL A   1      33.686  21.580  24.645  1.00  0.00     0.161 C 
ATOM     78  O   UNL A   1      34.922  21.838  25.287  1.00  0.00    -0.381 OA
ENDBRANCH  71  73
ENDBRANCH  67  71
BRANCH  68  79
ATOM     79  C   UNL A   1      29.506  28.430  22.732  1.00  0.00     0.225 A 
ATOM     80  N   UNL A   1      28.205  28.430  23.067  1.00  0.00    -0.221 NA
ATOM     81  N   UNL A   1      30.046  29.356  21.929  1.00  0.00    -0.221 NA
ATOM     82  C   UNL A   1      27.434  29.442  22.614  1.00  0.00     0.117 A 
ATOM     83  C   UNL A   1      29.233  30.358  21.515  1.00  0.00     0.117 A 
ATOM     84  C   UNL A   1      27.906  30.463  21.839  1.00  0.00     0.040 A 
ENDBRANCH  68  79
ENDBRANCH  63  65
ENDBRANCH  62  63
ENDBRANCH  61  62
ENDBRANCH  60  61
ENDBRANCH  59  60
ENDBRANCH  58  59
ENDBRANCH   1  58
TORSDOF 20
ENDMDL
MODEL 3
REMARK VINA RESULT:     -10.0      1.514      3.920
REMARK SMILES O=C(OCCOCCOCCOC(=O)[C@@H]1CN(c2ncccn2)CCN1C(=O)C1CCOCC1)c1ccc(-c2c3nc(c(-c4ccccc4)c4ccc([nH]4)c(-c4ccccc4)c4nc(c(-c5ccccc5)c5ccc2[nH]5)C=C4)C=C3)cc1
REMARK SMILES IDX 7 1 6 2 5 3 4 4 3 5 2 6 1 7 35 8 36 9 82 10 37 11 81 12
REMARK SMILES IDX 38 13 39 14 40 15 75 16 41 17 80 18 74 19 76 20 42 21 79 22
REMARK SMILES IDX 73 23 72 24 43 26 65 27 50 28 64 29 51 30 54 31 63 32 77 33
REMARK SMILES IDX 52 34 53 35 62 37 78 38 55 39 44 40 45 41 49 42 46 43 48 44
REMARK SMILES IDX 47 45 66 46 67 47 71 48 68 49 70 50 69 51 56 52 57 53 61 54
REMARK SMILES IDX 58 55 60 56 59 57 8 58 9 59 10 60 11 61 12 62 13 63 14 64
REMARK SMILES IDX 15 65 16 66 26 67 17 68 25 69 24 70 27 71 28 72 29 73 30 74
REMARK SMILES IDX 34 75 31 76 33 77 32 78 18 79 19 80 23 81 20 82 22 83 21 84
REMARK H PARENT 76 25 54 36
REMARK Flexibility Score: inf
ROOT
ATOM      1  C   UNL A   1      34.458  33.675  29.244  1.00  0.00     0.188 C 
ENDROOT
BRANCH   1   2
ATOM      2  O   UNL A   1      34.221  35.026  28.866  1.00  0.00    -0.376 OA
BRANCH   2   3
ATOM      3  C   UNL A   1      32.908  35.473  29.209  1.00  0.00     0.202 C 
BRANCH   3   4
ATOM      4  C   UNL A   1      32.867  36.716  30.118  1.00  0.00     0.261 C 
BRANCH   4   5
ATOM      5  O   UNL A   1      32.362  36.494  31.452  1.00  0.00    -0.460 OA
BRANCH   5   6
ATOM      6  C   UNL A   1      33.007  36.156  32.595  1.00  0.00     0.338 C 
ATOM      7  O   UNL A   1      32.683  36.731  33.633  1.00  0.00    -0.246 OA
BRANCH   6   8
ATOM      8  C   UNL A   1      34.136  35.175  32.670  1.00  0.00     0.060 A 
ATOM      9  C   UNL A   1      34.044  33.876  33.161  1.00  0.00     0.016 A 
ATOM     10  C   UNL A   1      35.379  35.578  32.158  1.00  0.00     0.016 A 
ATOM     11  C   UNL A   1      35.121  32.999  33.176  1.00  0.00     0.010 A 
ATOM     12  C   UNL A   1      36.481  34.715  32.193  1.00  0.00     0.010 A 
ATOM     13  C   UNL A   1      36.357  33.422  32.719  1.00  0.00    -0.014 A 
BRANCH  13  14
ATOM     14  C   UNL A   1      37.531  32.593  33.052  1.00  0.00     0.031 A 
ATOM     15  C   UNL A   1      38.273  32.946  34.307  1.00  0.00     0.074 A 
ATOM     16  C   UNL A   1      37.837  31.488  32.348  1.00  0.00     0.049 A 
ATOM     17  N   UNL A   1      39.377  32.443  34.788  1.00  0.00    -0.248 NA
ATOM     18  C   UNL A   1      37.668  33.995  35.151  1.00  0.00     0.031 C 
ATOM     19  C   UNL A   1      37.085  30.973  31.199  1.00  0.00     0.029 A 
ATOM     20  N   UNL A   1      38.891  30.620  32.463  1.00  0.00    -0.354 N 
ATOM     21  C   UNL A   1      39.566  33.082  36.007  1.00  0.00     0.074 A 
ATOM     22  C   UNL A   1      38.529  34.075  36.149  1.00  0.00     0.031 C 
ATOM     23  C   UNL A   1      37.760  29.949  30.650  1.00  0.00     0.029 A 
ATOM     24  C   UNL A   1      38.992  29.749  31.401  1.00  0.00     0.049 A 
ATOM     25  H   UNL A   1      39.513  30.619  33.227  1.00  0.00     0.167 HD
ATOM     26  C   UNL A   1      40.494  32.819  36.954  1.00  0.00     0.031 A 
ATOM     27  C   UNL A   1      40.012  28.949  31.042  1.00  0.00     0.031 A 
ATOM     28  C   UNL A   1      41.529  31.844  36.782  1.00  0.00     0.049 A 
ATOM     29  C   UNL A   1      41.189  28.860  31.974  1.00  0.00     0.074 A 
ATOM     30  C   UNL A   1      42.563  31.509  37.633  1.00  0.00     0.029 A 
ATOM     31  N   UNL A   1      41.653  31.043  35.654  1.00  0.00    -0.354 N 
ATOM     32  N   UNL A   1      41.389  29.494  33.106  1.00  0.00    -0.248 NA
ATOM     33  C   UNL A   1      42.259  27.929  31.602  1.00  0.00     0.031 C 
ATOM     34  C   UNL A   1      43.340  30.534  36.998  1.00  0.00     0.029 A 
ATOM     35  C   UNL A   1      42.759  30.227  35.776  1.00  0.00     0.049 A 
ATOM     36  H   UNL A   1      41.043  31.056  34.881  1.00  0.00     0.167 HD
ATOM     37  C   UNL A   1      42.573  28.984  33.619  1.00  0.00     0.074 A 
ATOM     38  C   UNL A   1      43.057  28.013  32.656  1.00  0.00     0.031 C 
ATOM     39  C   UNL A   1      43.192  29.266  34.793  1.00  0.00     0.031 A 
BRANCH  26  40
ATOM     40  C   UNL A   1      40.400  33.615  38.223  1.00  0.00    -0.014 A 
ATOM     41  C   UNL A   1      41.108  34.822  38.369  1.00  0.00     0.009 A 
ATOM     42  C   UNL A   1      39.660  33.127  39.309  1.00  0.00     0.009 A 
ATOM     43  C   UNL A   1      41.114  35.497  39.591  1.00  0.00     0.001 A 
ATOM     44  C   UNL A   1      39.649  33.819  40.522  1.00  0.00     0.001 A 
ATOM     45  C   UNL A   1      40.385  34.996  40.667  1.00  0.00     0.000 A 
ENDBRANCH  26  40
BRANCH  27  46
ATOM     46  C   UNL A   1      40.013  28.251  29.727  1.00  0.00    -0.014 A 
ATOM     47  C   UNL A   1      39.476  26.966  29.573  1.00  0.00     0.009 A 
ATOM     48  C   UNL A   1      40.614  28.862  28.612  1.00  0.00     0.009 A 
ATOM     49  C   UNL A   1      39.578  26.297  28.348  1.00  0.00     0.001 A 
ATOM     50  C   UNL A   1      40.691  28.203  27.383  1.00  0.00     0.001 A 
ATOM     51  C   UNL A   1      40.185  26.915  27.255  1.00  0.00     0.000 A 
ENDBRANCH  27  46
BRANCH  39  52
ATOM     52  C   UNL A   1      44.402  28.447  35.125  1.00  0.00    -0.014 A 
ATOM     53  C   UNL A   1      45.694  28.877  34.793  1.00  0.00     0.009 A 
ATOM     54  C   UNL A   1      44.233  27.238  35.818  1.00  0.00     0.009 A 
ATOM     55  C   UNL A   1      46.797  28.091  35.125  1.00  0.00     0.001 A 
ATOM     56  C   UNL A   1      45.340  26.470  36.174  1.00  0.00     0.001 A 
ATOM     57  C   UNL A   1      46.620  26.893  35.819  1.00  0.00     0.000 A 
ENDBRANCH  39  52
ENDBRANCH  13  14
ENDBRANCH   6   8
ENDBRANCH   5   6
ENDBRANCH   4   5
ENDBRANCH   3   4
ENDBRANCH   2   3
ENDBRANCH   1   2
BRANCH   1  58
ATOM     58  C   UNL A   1      34.509  32.734  28.061  1.00  0.00     0.188 C 
BRANCH  58  59
ATOM     59  O   UNL A   1      33.970  31.441  28.265  1.00  0.00    -0.376 OA
BRANCH  59  60
ATOM     60  C   UNL A   1      33.083  30.946  27.271  1.00  0.00     0.202 C 
BRANCH  60  61
ATOM     61  C   UNL A   1      33.522  29.810  26.318  1.00  0.00     0.261 C 
BRANCH  61  62
ATOM     62  O   UNL A   1      32.797  29.637  25.077  1.00  0.00    -0.462 OA
BRANCH  62  63
ATOM     63  C   UNL A   1      33.227  28.583  24.327  1.00  0.00     0.330 C 
ATOM     64  O   UNL A   1      34.322  28.561  23.762  1.00  0.00    -0.250 OA
BRANCH  63  65
ATOM     65  C   UNL A   1      32.221  27.430  24.161  1.00  0.00     0.214 C 
ATOM     66  C   UNL A   1      32.702  26.103  23.502  1.00  0.00     0.157 C 
ATOM     67  N   UNL A   1      30.759  27.688  23.888  1.00  0.00    -0.325 N 
ATOM     68  N   UNL A   1      31.732  24.994  23.691  1.00  0.00    -0.336 N 
ATOM     69  C   UNL A   1      29.958  26.563  24.414  1.00  0.00     0.142 C 
ATOM     70  C   UNL A   1      30.296  25.286  23.621  1.00  0.00     0.141 C 
BRANCH  67  71
ATOM     71  C   UNL A   1      30.115  28.403  22.886  1.00  0.00     0.226 C 
ATOM     72  O   UNL A   1      30.321  28.105  21.697  1.00  0.00    -0.275 OA
BRANCH  71  73
ATOM     73  C   UNL A   1      29.129  29.551  23.093  1.00  0.00     0.083 C 
ATOM     74  C   UNL A   1      28.385  29.907  21.816  1.00  0.00     0.042 C 
ATOM     75  C   UNL A   1      29.618  30.701  23.973  1.00  0.00     0.042 C 
ATOM     76  C   UNL A   1      27.614  31.195  22.011  1.00  0.00     0.161 C 
ATOM     77  C   UNL A   1      29.047  32.081  23.658  1.00  0.00     0.161 C 
ATOM     78  O   UNL A   1      28.555  32.207  22.335  1.00  0.00    -0.381 OA
ENDBRANCH  71  73
ENDBRANCH  67  71
BRANCH  68  79
ATOM     79  C   UNL A   1      32.003  23.909  24.499  1.00  0.00     0.225 A 
ATOM     80  N   UNL A   1      33.225  23.358  24.397  1.00  0.00    -0.221 NA
ATOM     81  N   UNL A   1      31.004  23.330  25.177  1.00  0.00    -0.221 NA
ATOM     82  C   UNL A   1      33.455  22.202  25.056  1.00  0.00     0.117 A 
ATOM     83  C   UNL A   1      31.292  22.180  25.832  1.00  0.00     0.117 A 
ATOM     84  C   UNL A   1      32.517  21.567  25.820  1.00  0.00     0.040 A 
ENDBRANCH  68  79
ENDBRANCH  63  65
ENDBRANCH  62  63
ENDBRANCH  61  62
ENDBRANCH  60  61
ENDBRANCH  59  60
ENDBRANCH  58  59
ENDBRANCH   1  58
TORSDOF 20
ENDMDL
