MODEL 1
REMARK VINA RESULT:      -8.3      0.000      0.000
REMARK SMILES CC[C@H]1CN(C(=O)N(CC(=O)OCCOCCOCCOC(=O)c2ccc(-c3c4nc(c(-c5ccccc5)c5ccc([nH]5)c(-c5ccccc5)c5nc(c(-c6ccccc6)c6ccc3[nH]6)C=C5)C=C4)cc2)C(C)(C)C)CC[N@@H+]1C
REMARK SMILES IDX 16 1 15 2 14 3 13 4 12 5 10 6 11 7 9 8 8 9 6 10 7 11 5 12
REMARK SMILES IDX 3 13 4 14 78 15 77 16 79 17 76 19 2 20 1 21 72 22 73 23
REMARK SMILES IDX 74 24 75 25 17 26 18 27 19 28 20 29 21 30 22 31 23 32 24 33
REMARK SMILES IDX 25 34 71 35 26 36 70 37 27 38 28 39 29 40 64 41 30 42 69 43
REMARK SMILES IDX 63 44 65 45 31 46 68 47 62 48 61 49 32 51 54 52 39 53 53 54
REMARK SMILES IDX 40 55 43 56 52 57 66 58 41 59 42 60 51 62 67 63 44 64 33 65
REMARK SMILES IDX 34 66 38 67 35 68 37 69 36 70 55 71 56 72 60 73 57 74 59 75
REMARK SMILES IDX 58 76 45 77 46 78 50 79 47 80 49 81 48 82
REMARK H PARENT 78 18 65 50 43 61
REMARK Flexibility Score: inf
ROOT
ATOM      1  C   UNL A   1      35.380  31.541  28.332  1.00  0.00     0.188 C 
ENDROOT
BRANCH   1   2
ATOM      2  O   UNL A   1      34.694  30.751  27.365  1.00  0.00    -0.376 OA
BRANCH   2   3
ATOM      3  C   UNL A   1      33.289  30.914  27.236  1.00  0.00     0.202 C 
BRANCH   3   4
ATOM      4  C   UNL A   1      32.474  29.618  27.225  1.00  0.00     0.261 C 
BRANCH   4   5
ATOM      5  O   UNL A   1      33.259  28.406  27.233  1.00  0.00    -0.462 OA
BRANCH   5   6
ATOM      6  C   UNL A   1      33.306  27.754  26.042  1.00  0.00     0.325 C 
ATOM      7  O   UNL A   1      33.102  28.286  24.954  1.00  0.00    -0.250 OA
BRANCH   6   8
ATOM      8  C   UNL A   1      33.342  26.235  26.170  1.00  0.00     0.244 C 
BRANCH   8   9
ATOM      9  N   UNL A   1      33.028  25.241  25.126  1.00  0.00    -0.309 N 
BRANCH   9  10
ATOM     10  C   UNL A   1      33.955  24.876  24.164  1.00  0.00     0.321 C 
ATOM     11  O   UNL A   1      33.949  25.402  23.049  1.00  0.00    -0.248 OA
BRANCH  10  12
ATOM     12  N   UNL A   1      34.793  23.808  24.434  1.00  0.00    -0.313 N 
ATOM     13  C   UNL A   1      36.586  22.805  25.843  1.00  0.00     0.203 C 
ATOM     14  C   UNL A   1      35.083  23.192  25.737  1.00  0.00     0.186 C 
ATOM     15  N   UNL A   1      36.989  21.871  24.763  1.00  0.00    -0.332 N 
ATOM     16  C   UNL A   1      36.623  22.413  23.436  1.00  0.00     0.284 C 
ATOM     17  C   UNL A   1      36.424  20.536  24.970  1.00  0.00     0.333 C 
ATOM     18  H   UNL A   1      38.004  21.776  24.795  1.00  0.00     0.348 HD
ATOM     19  C   UNL A   1      35.188  22.959  23.304  1.00  0.00     0.183 C 
BRANCH  13  20
ATOM     20  C   UNL A   1      37.476  24.078  25.862  1.00  0.00     0.063 C 
ATOM     21  C   UNL A   1      38.566  24.074  26.926  1.00  0.00     0.010 C 
ENDBRANCH  13  20
ENDBRANCH  10  12
ENDBRANCH   9  10
BRANCH   9  22
ATOM     22  C   UNL A   1      31.683  24.587  25.064  1.00  0.00     0.037 C 
ATOM     23  C   UNL A   1      31.318  23.875  26.385  1.00  0.00     0.034 C 
ATOM     24  C   UNL A   1      30.598  25.658  24.776  1.00  0.00     0.034 C 
ATOM     25  C   UNL A   1      31.575  23.577  23.911  1.00  0.00     0.034 C 
ENDBRANCH   9  22
ENDBRANCH   8   9
ENDBRANCH   6   8
ENDBRANCH   5   6
ENDBRANCH   4   5
ENDBRANCH   3   4
ENDBRANCH   2   3
ENDBRANCH   1   2
BRANCH   1  26
ATOM     26  C   UNL A   1      34.937  32.990  28.536  1.00  0.00     0.188 C 
BRANCH  26  27
ATOM     27  O   UNL A   1      35.807  33.662  29.445  1.00  0.00    -0.376 OA
BRANCH  27  28
ATOM     28  C   UNL A   1      35.154  33.989  30.672  1.00  0.00     0.202 C 
BRANCH  28  29
ATOM     29  C   UNL A   1      35.980  33.448  31.842  1.00  0.00     0.261 C 
BRANCH  29  30
ATOM     30  O   UNL A   1      37.157  32.722  31.424  1.00  0.00    -0.460 OA
BRANCH  30  31
ATOM     31  C   UNL A   1      37.307  31.502  31.974  1.00  0.00     0.338 C 
ATOM     32  O   UNL A   1      36.640  31.015  32.876  1.00  0.00    -0.246 OA
BRANCH  31  33
ATOM     33  C   UNL A   1      38.317  30.733  31.226  1.00  0.00     0.060 A 
ATOM     34  C   UNL A   1      39.250  30.009  31.967  1.00  0.00     0.016 A 
ATOM     35  C   UNL A   1      38.447  30.827  29.843  1.00  0.00     0.016 A 
ATOM     36  C   UNL A   1      40.365  29.440  31.353  1.00  0.00     0.010 A 
ATOM     37  C   UNL A   1      39.557  30.237  29.218  1.00  0.00     0.010 A 
ATOM     38  C   UNL A   1      40.552  29.582  29.974  1.00  0.00    -0.014 A 
BRANCH  38  39
ATOM     39  C   UNL A   1      41.850  29.199  29.348  1.00  0.00     0.031 A 
ATOM     40  C   UNL A   1      42.009  27.814  28.775  1.00  0.00     0.074 A 
ATOM     41  C   UNL A   1      42.872  30.070  29.237  1.00  0.00     0.049 A 
ATOM     42  N   UNL A   1      43.087  27.211  28.340  1.00  0.00    -0.248 NA
ATOM     43  C   UNL A   1      40.787  26.999  28.686  1.00  0.00     0.031 C 
ATOM     44  C   UNL A   1      42.850  31.468  29.660  1.00  0.00     0.029 A 
ATOM     45  N   UNL A   1      44.136  29.895  28.724  1.00  0.00    -0.354 N 
ATOM     46  C   UNL A   1      42.686  25.925  27.995  1.00  0.00     0.074 A 
ATOM     47  C   UNL A   1      41.266  25.841  28.259  1.00  0.00     0.031 C 
ATOM     48  C   UNL A   1      44.039  32.029  29.376  1.00  0.00     0.029 A 
ATOM     49  C   UNL A   1      44.927  31.013  28.814  1.00  0.00     0.049 A 
ATOM     50  H   UNL A   1      44.445  29.047  28.329  1.00  0.00     0.167 HD
ATOM     51  C   UNL A   1      43.431  24.901  27.513  1.00  0.00     0.031 A 
ATOM     52  C   UNL A   1      46.228  31.196  28.516  1.00  0.00     0.031 A 
ATOM     53  C   UNL A   1      44.832  24.989  27.200  1.00  0.00     0.049 A 
ATOM     54  C   UNL A   1      47.049  30.043  28.006  1.00  0.00     0.074 A 
ATOM     55  C   UNL A   1      45.670  24.005  26.705  1.00  0.00     0.029 A 
ATOM     56  N   UNL A   1      45.597  26.136  27.336  1.00  0.00    -0.354 N 
ATOM     57  N   UNL A   1      46.675  28.812  27.754  1.00  0.00    -0.248 NA
ATOM     58  C   UNL A   1      48.474  30.303  27.756  1.00  0.00     0.031 C 
ATOM     59  C   UNL A   1      46.953  24.549  26.570  1.00  0.00     0.029 A 
ATOM     60  C   UNL A   1      46.901  25.881  26.945  1.00  0.00     0.049 A 
ATOM     61  H   UNL A   1      45.265  27.002  27.663  1.00  0.00     0.167 HD
ATOM     62  C   UNL A   1      47.816  28.153  27.313  1.00  0.00     0.074 A 
ATOM     63  C   UNL A   1      48.889  29.124  27.310  1.00  0.00     0.031 C 
ATOM     64  C   UNL A   1      47.961  26.855  26.951  1.00  0.00     0.031 A 
BRANCH  51  65
ATOM     65  C   UNL A   1      42.746  23.573  27.357  1.00  0.00    -0.014 A 
ATOM     66  C   UNL A   1      42.586  22.692  28.436  1.00  0.00     0.009 A 
ATOM     67  C   UNL A   1      42.255  23.202  26.095  1.00  0.00     0.009 A 
ATOM     68  C   UNL A   1      41.983  21.447  28.245  1.00  0.00     0.001 A 
ATOM     69  C   UNL A   1      41.632  21.968  25.912  1.00  0.00     0.001 A 
ATOM     70  C   UNL A   1      41.506  21.086  26.983  1.00  0.00     0.000 A 
ENDBRANCH  51  65
BRANCH  52  71
ATOM     71  C   UNL A   1      46.854  32.524  28.744  1.00  0.00    -0.014 A 
ATOM     72  C   UNL A   1      47.373  32.865  30.002  1.00  0.00     0.009 A 
ATOM     73  C   UNL A   1      46.947  33.455  27.696  1.00  0.00     0.009 A 
ATOM     74  C   UNL A   1      47.967  34.113  30.207  1.00  0.00     0.001 A 
ATOM     75  C   UNL A   1      47.564  34.690  27.897  1.00  0.00     0.001 A 
ATOM     76  C   UNL A   1      48.070  35.020  29.153  1.00  0.00     0.000 A 
ENDBRANCH  52  71
BRANCH  64  77
ATOM     77  C   UNL A   1      49.324  26.414  26.500  1.00  0.00    -0.014 A 
ATOM     78  C   UNL A   1      49.759  26.638  25.185  1.00  0.00     0.009 A 
ATOM     79  C   UNL A   1      50.199  25.808  27.415  1.00  0.00     0.009 A 
ATOM     80  C   UNL A   1      51.037  26.238  24.788  1.00  0.00     0.001 A 
ATOM     81  C   UNL A   1      51.482  25.427  27.020  1.00  0.00     0.001 A 
ATOM     82  C   UNL A   1      51.898  25.636  25.706  1.00  0.00     0.000 A 
ENDBRANCH  64  77
ENDBRANCH  38  39
ENDBRANCH  31  33
ENDBRANCH  30  31
ENDBRANCH  29  30
ENDBRANCH  28  29
ENDBRANCH  27  28
ENDBRANCH  26  27
ENDBRANCH   1  26
TORSDOF 22
ENDMDL
MODEL 2
REMARK VINA RESULT:      -8.3      4.039      7.790
REMARK SMILES CC[C@H]1CN(C(=O)N(CC(=O)OCCOCCOCCOC(=O)c2ccc(-c3c4nc(c(-c5ccccc5)c5ccc([nH]5)c(-c5ccccc5)c5nc(c(-c6ccccc6)c6ccc3[nH]6)C=C5)C=C4)cc2)C(C)(C)C)CC[N@@H+]1C
REMARK SMILES IDX 16 1 15 2 14 3 13 4 12 5 10 6 11 7 9 8 8 9 6 10 7 11 5 12
REMARK SMILES IDX 3 13 4 14 78 15 77 16 79 17 76 19 2 20 1 21 72 22 73 23
REMARK SMILES IDX 74 24 75 25 17 26 18 27 19 28 20 29 21 30 22 31 23 32 24 33
REMARK SMILES IDX 25 34 71 35 26 36 70 37 27 38 28 39 29 40 64 41 30 42 69 43
REMARK SMILES IDX 63 44 65 45 31 46 68 47 62 48 61 49 32 51 54 52 39 53 53 54
REMARK SMILES IDX 40 55 43 56 52 57 66 58 41 59 42 60 51 62 67 63 44 64 33 65
REMARK SMILES IDX 34 66 38 67 35 68 37 69 36 70 55 71 56 72 60 73 57 74 59 75
REMARK SMILES IDX 58 76 45 77 46 78 50 79 47 80 49 81 48 82
REMARK H PARENT 78 18 65 50 43 61
REMARK Flexibility Score: inf
ROOT
ATOM      1  C   UNL A   1      33.713  29.046  26.522  1.00  0.00     0.188 C 
ENDROOT
BRANCH   1   2
ATOM      2  O   UNL A   1      33.087  27.962  27.203  1.00  0.00    -0.376 OA
BRANCH   2   3
ATOM      3  C   UNL A   1      32.651  26.848  26.436  1.00  0.00     0.202 C 
BRANCH   3   4
ATOM      4  C   UNL A   1      31.438  27.102  25.537  1.00  0.00     0.261 C 
BRANCH   4   5
ATOM      5  O   UNL A   1      30.347  26.171  25.709  1.00  0.00    -0.462 OA
BRANCH   5   6
ATOM      6  C   UNL A   1      30.654  24.880  25.418  1.00  0.00     0.325 C 
ATOM      7  O   UNL A   1      31.084  24.071  26.236  1.00  0.00    -0.250 OA
BRANCH   6   8
ATOM      8  C   UNL A   1      30.707  24.579  23.924  1.00  0.00     0.244 C 
BRANCH   8   9
ATOM      9  N   UNL A   1      31.909  24.446  23.080  1.00  0.00    -0.309 N 
BRANCH   9  10
ATOM     10  C   UNL A   1      32.608  23.254  22.989  1.00  0.00     0.321 C 
ATOM     11  O   UNL A   1      32.596  22.593  21.949  1.00  0.00    -0.248 OA
BRANCH  10  12
ATOM     12  N   UNL A   1      33.199  22.752  24.135  1.00  0.00    -0.313 N 
ATOM     13  C   UNL A   1      35.243  22.449  25.525  1.00  0.00     0.203 C 
ATOM     14  C   UNL A   1      34.138  23.430  25.041  1.00  0.00     0.186 C 
ATOM     15  N   UNL A   1      34.666  21.270  26.217  1.00  0.00    -0.332 N 
ATOM     16  C   UNL A   1      33.641  20.616  25.374  1.00  0.00     0.284 C 
ATOM     17  C   UNL A   1      34.128  21.629  27.531  1.00  0.00     0.333 C 
ATOM     18  H   UNL A   1      35.419  20.600  26.374  1.00  0.00     0.348 HD
ATOM     19  C   UNL A   1      32.599  21.552  24.733  1.00  0.00     0.183 C 
BRANCH  13  20
ATOM     20  C   UNL A   1      36.156  22.028  24.341  1.00  0.00     0.063 C 
ATOM     21  C   UNL A   1      37.390  21.231  24.742  1.00  0.00     0.010 C 
ENDBRANCH  13  20
ENDBRANCH  10  12
ENDBRANCH   9  10
BRANCH   9  22
ATOM     22  C   UNL A   1      32.424  25.605  22.286  1.00  0.00     0.037 C 
ATOM     23  C   UNL A   1      32.772  25.212  20.834  1.00  0.00     0.034 C 
ATOM     24  C   UNL A   1      31.348  26.722  22.239  1.00  0.00     0.034 C 
ATOM     25  C   UNL A   1      33.658  26.255  22.932  1.00  0.00     0.034 C 
ENDBRANCH   9  22
ENDBRANCH   8   9
ENDBRANCH   6   8
ENDBRANCH   5   6
ENDBRANCH   4   5
ENDBRANCH   3   4
ENDBRANCH   2   3
ENDBRANCH   1   2
BRANCH   1  26
ATOM     26  C   UNL A   1      33.167  30.457  26.740  1.00  0.00     0.188 C 
BRANCH  26  27
ATOM     27  O   UNL A   1      31.974  30.660  25.985  1.00  0.00    -0.376 OA
BRANCH  27  28
ATOM     28  C   UNL A   1      31.340  31.899  26.305  1.00  0.00     0.202 C 
BRANCH  28  29
ATOM     29  C   UNL A   1      31.984  32.483  27.565  1.00  0.00     0.261 C 
BRANCH  29  30
ATOM     30  O   UNL A   1      32.333  33.878  27.435  1.00  0.00    -0.460 OA
BRANCH  30  31
ATOM     31  C   UNL A   1      33.099  34.375  28.425  1.00  0.00     0.338 C 
ATOM     32  O   UNL A   1      32.832  35.315  29.161  1.00  0.00    -0.246 OA
BRANCH  31  33
ATOM     33  C   UNL A   1      34.283  33.520  28.622  1.00  0.00     0.060 A 
ATOM     34  C   UNL A   1      34.159  32.445  29.501  1.00  0.00     0.016 A 
ATOM     35  C   UNL A   1      35.526  33.838  28.081  1.00  0.00     0.016 A 
ATOM     36  C   UNL A   1      35.280  31.725  29.914  1.00  0.00     0.010 A 
ATOM     37  C   UNL A   1      36.653  33.102  28.478  1.00  0.00     0.010 A 
ATOM     38  C   UNL A   1      36.548  32.072  29.436  1.00  0.00    -0.014 A 
BRANCH  38  39
ATOM     39  C   UNL A   1      37.771  31.482  30.053  1.00  0.00     0.031 A 
ATOM     40  C   UNL A   1      38.322  32.090  31.317  1.00  0.00     0.074 A 
ATOM     41  C   UNL A   1      38.372  30.391  29.541  1.00  0.00     0.049 A 
ATOM     42  N   UNL A   1      39.456  31.855  31.930  1.00  0.00    -0.248 NA
ATOM     43  C   UNL A   1      37.484  33.106  31.974  1.00  0.00     0.031 C 
ATOM     44  C   UNL A   1      37.915  29.633  28.377  1.00  0.00     0.029 A 
ATOM     45  N   UNL A   1      39.506  29.729  29.947  1.00  0.00    -0.354 N 
ATOM     46  C   UNL A   1      39.497  32.741  33.000  1.00  0.00     0.074 A 
ATOM     47  C   UNL A   1      38.272  33.509  32.959  1.00  0.00     0.031 C 
ATOM     48  C   UNL A   1      38.752  28.601  28.173  1.00  0.00     0.029 A 
ATOM     49  C   UNL A   1      39.840  28.664  29.147  1.00  0.00     0.049 A 
ATOM     50  H   UNL A   1      40.031  29.993  30.738  1.00  0.00     0.167 HD
ATOM     51  C   UNL A   1      40.470  32.912  33.927  1.00  0.00     0.031 A 
ATOM     52  C   UNL A   1      40.915  27.852  29.167  1.00  0.00     0.031 A 
ATOM     53  C   UNL A   1      41.668  32.121  34.006  1.00  0.00     0.049 A 
ATOM     54  C   UNL A   1      41.999  28.071  30.186  1.00  0.00     0.074 A 
ATOM     55  C   UNL A   1      42.710  32.219  34.913  1.00  0.00     0.029 A 
ATOM     56  N   UNL A   1      41.976  31.072  33.155  1.00  0.00    -0.354 N 
ATOM     57  N   UNL A   1      42.062  28.960  31.147  1.00  0.00    -0.248 NA
ATOM     58  C   UNL A   1      43.168  27.182  30.111  1.00  0.00     0.031 C 
ATOM     59  C   UNL A   1      43.665  31.247  34.590  1.00  0.00     0.029 A 
ATOM     60  C   UNL A   1      43.196  30.521  33.507  1.00  0.00     0.049 A 
ATOM     61  H   UNL A   1      41.412  30.765  32.409  1.00  0.00     0.167 HD
ATOM     62  C   UNL A   1      43.272  28.736  31.793  1.00  0.00     0.074 A 
ATOM     63  C   UNL A   1      43.902  27.614  31.129  1.00  0.00     0.031 C 
ATOM     64  C   UNL A   1      43.814  29.407  32.837  1.00  0.00     0.031 A 
BRANCH  51  65
ATOM     65  C   UNL A   1      40.299  34.048  34.895  1.00  0.00    -0.014 A 
ATOM     66  C   UNL A   1      40.807  35.328  34.630  1.00  0.00     0.009 A 
ATOM     67  C   UNL A   1      39.613  33.822  36.099  1.00  0.00     0.009 A 
ATOM     68  C   UNL A   1      40.667  36.350  35.573  1.00  0.00     0.001 A 
ATOM     69  C   UNL A   1      39.454  34.850  37.028  1.00  0.00     0.001 A 
ATOM     70  C   UNL A   1      39.991  36.110  36.770  1.00  0.00     0.000 A 
ENDBRANCH  51  65
BRANCH  52  71
ATOM     71  C   UNL A   1      41.045  26.781  28.146  1.00  0.00    -0.014 A 
ATOM     72  C   UNL A   1      41.648  27.040  26.907  1.00  0.00     0.009 A 
ATOM     73  C   UNL A   1      40.574  25.484  28.414  1.00  0.00     0.009 A 
ATOM     74  C   UNL A   1      41.773  26.025  25.955  1.00  0.00     0.001 A 
ATOM     75  C   UNL A   1      40.723  24.466  27.471  1.00  0.00     0.001 A 
ATOM     76  C   UNL A   1      41.319  24.738  26.241  1.00  0.00     0.000 A 
ENDBRANCH  52  71
BRANCH  64  77
ATOM     77  C   UNL A   1      45.147  28.934  33.342  1.00  0.00    -0.014 A 
ATOM     78  C   UNL A   1      45.235  27.950  34.338  1.00  0.00     0.009 A 
ATOM     79  C   UNL A   1      46.328  29.446  32.781  1.00  0.00     0.009 A 
ATOM     80  C   UNL A   1      46.483  27.508  34.784  1.00  0.00     0.001 A 
ATOM     81  C   UNL A   1      47.573  28.988  33.215  1.00  0.00     0.001 A 
ATOM     82  C   UNL A   1      47.650  28.025  34.220  1.00  0.00     0.000 A 
ENDBRANCH  64  77
ENDBRANCH  38  39
ENDBRANCH  31  33
ENDBRANCH  30  31
ENDBRANCH  29  30
ENDBRANCH  28  29
ENDBRANCH  27  28
ENDBRANCH  26  27
ENDBRANCH   1  26
TORSDOF 22
ENDMDL
MODEL 3
REMARK VINA RESULT:      -8.3      1.614      6.265
REMARK SMILES CC[C@H]1CN(C(=O)N(CC(=O)OCCOCCOCCOC(=O)c2ccc(-c3c4nc(c(-c5ccccc5)c5ccc([nH]5)c(-c5ccccc5)c5nc(c(-c6ccccc6)c6ccc3[nH]6)C=C5)C=C4)cc2)C(C)(C)C)CC[N@@H+]1C
REMARK SMILES IDX 16 1 15 2 14 3 13 4 12 5 10 6 11 7 9 8 8 9 6 10 7 11 5 12
REMARK SMILES IDX 3 13 4 14 78 15 77 16 79 17 76 19 2 20 1 21 72 22 73 23
REMARK SMILES IDX 74 24 75 25 17 26 18 27 19 28 20 29 21 30 22 31 23 32 24 33
REMARK SMILES IDX 25 34 71 35 26 36 70 37 27 38 28 39 29 40 64 41 30 42 69 43
REMARK SMILES IDX 63 44 65 45 31 46 68 47 62 48 61 49 32 51 54 52 39 53 53 54
REMARK SMILES IDX 40 55 43 56 52 57 66 58 41 59 42 60 51 62 67 63 44 64 33 65
REMARK SMILES IDX 34 66 38 67 35 68 37 69 36 70 55 71 56 72 60 73 57 74 59 75
REMARK SMILES IDX 58 76 45 77 46 78 50 79 47 80 49 81 48 82
REMARK H PARENT 78 18 65 50 43 61
REMARK Flexibility Score: inf
ROOT
ATOM      1  C   UNL A   1      35.175  30.971  27.731  1.00  0.00     0.188 C 
ENDROOT
BRANCH   1   2
ATOM      2  O   UNL A   1      35.003  29.667  27.182  1.00  0.00    -0.376 OA
BRANCH   2   3
ATOM      3  C   UNL A   1      33.788  28.980  27.450  1.00  0.00     0.202 C 
BRANCH   3   4
ATOM      4  C   UNL A   1      32.874  28.765  26.241  1.00  0.00     0.261 C 
BRANCH   4   5
ATOM      5  O   UNL A   1      33.372  29.304  24.998  1.00  0.00    -0.462 OA
BRANCH   5   6
ATOM      6  C   UNL A   1      33.730  28.370  24.079  1.00  0.00     0.325 C 
ATOM      7  O   UNL A   1      34.041  28.627  22.918  1.00  0.00    -0.250 OA
BRANCH   6   8
ATOM      8  C   UNL A   1      33.433  26.937  24.505  1.00  0.00     0.244 C 
BRANCH   8   9
ATOM      9  N   UNL A   1      32.716  25.904  23.733  1.00  0.00    -0.309 N 
BRANCH   9  10
ATOM     10  C   UNL A   1      33.386  24.868  23.103  1.00  0.00     0.321 C 
ATOM     11  O   UNL A   1      33.433  24.801  21.874  1.00  0.00    -0.248 OA
BRANCH  10  12
ATOM     12  N   UNL A   1      33.874  23.834  23.883  1.00  0.00    -0.313 N 
ATOM     13  C   UNL A   1      33.439  22.000  25.511  1.00  0.00     0.203 C 
ATOM     14  C   UNL A   1      33.327  22.478  24.036  1.00  0.00     0.186 C 
ATOM     15  N   UNL A   1      34.844  22.013  25.986  1.00  0.00    -0.332 N 
ATOM     16  C   UNL A   1      35.463  23.337  25.759  1.00  0.00     0.284 C 
ATOM     17  C   UNL A   1      35.629  20.942  25.369  1.00  0.00     0.333 C 
ATOM     18  H   UNL A   1      34.836  21.838  26.992  1.00  0.00     0.348 HD
ATOM     19  C   UNL A   1      35.259  23.944  24.358  1.00  0.00     0.183 C 
BRANCH  13  20
ATOM     20  C   UNL A   1      32.515  22.845  26.430  1.00  0.00     0.063 C 
ATOM     21  C   UNL A   1      31.027  22.703  26.138  1.00  0.00     0.010 C 
ENDBRANCH  13  20
ENDBRANCH  10  12
ENDBRANCH   9  10
BRANCH   9  22
ATOM     22  C   UNL A   1      31.226  25.939  23.598  1.00  0.00     0.037 C 
ATOM     23  C   UNL A   1      30.528  26.348  24.913  1.00  0.00     0.034 C 
ATOM     24  C   UNL A   1      30.828  26.962  22.501  1.00  0.00     0.034 C 
ATOM     25  C   UNL A   1      30.648  24.594  23.128  1.00  0.00     0.034 C 
ENDBRANCH   9  22
ENDBRANCH   8   9
ENDBRANCH   6   8
ENDBRANCH   5   6
ENDBRANCH   4   5
ENDBRANCH   3   4
ENDBRANCH   2   3
ENDBRANCH   1   2
BRANCH   1  26
ATOM     26  C   UNL A   1      33.932  31.818  28.003  1.00  0.00     0.188 C 
BRANCH  26  27
ATOM     27  O   UNL A   1      34.259  33.206  28.022  1.00  0.00    -0.376 OA
BRANCH  27  28
ATOM     28  C   UNL A   1      33.764  33.860  29.190  1.00  0.00     0.202 C 
BRANCH  28  29
ATOM     29  C   UNL A   1      34.917  34.585  29.889  1.00  0.00     0.261 C 
BRANCH  29  30
ATOM     30  O   UNL A   1      35.130  34.144  31.248  1.00  0.00    -0.460 OA
BRANCH  30  31
ATOM     31  C   UNL A   1      35.306  32.819  31.403  1.00  0.00     0.338 C 
ATOM     32  O   UNL A   1      34.440  31.982  31.616  1.00  0.00    -0.246 OA
BRANCH  31  33
ATOM     33  C   UNL A   1      36.708  32.461  31.125  1.00  0.00     0.060 A 
ATOM     34  C   UNL A   1      37.258  32.905  29.923  1.00  0.00     0.016 A 
ATOM     35  C   UNL A   1      37.429  31.594  31.942  1.00  0.00     0.016 A 
ATOM     36  C   UNL A   1      38.492  32.430  29.482  1.00  0.00     0.010 A 
ATOM     37  C   UNL A   1      38.681  31.130  31.512  1.00  0.00     0.010 A 
ATOM     38  C   UNL A   1      39.201  31.504  30.255  1.00  0.00    -0.014 A 
BRANCH  38  39
ATOM     39  C   UNL A   1      40.389  30.804  29.687  1.00  0.00     0.031 A 
ATOM     40  C   UNL A   1      41.712  31.526  29.638  1.00  0.00     0.074 A 
ATOM     41  C   UNL A   1      40.328  29.529  29.258  1.00  0.00     0.049 A 
ATOM     42  N   UNL A   1      42.826  31.183  29.041  1.00  0.00    -0.248 NA
ATOM     43  C   UNL A   1      41.785  32.809  30.355  1.00  0.00     0.031 C 
ATOM     44  C   UNL A   1      39.151  28.666  29.317  1.00  0.00     0.029 A 
ATOM     45  N   UNL A   1      41.296  28.737  28.687  1.00  0.00    -0.354 N 
ATOM     46  C   UNL A   1      43.706  32.240  29.249  1.00  0.00     0.074 A 
ATOM     47  C   UNL A   1      43.000  33.227  30.037  1.00  0.00     0.031 C 
ATOM     48  C   UNL A   1      39.469  27.459  28.817  1.00  0.00     0.029 A 
ATOM     49  C   UNL A   1      40.851  27.485  28.341  1.00  0.00     0.049 A 
ATOM     50  H   UNL A   1      42.222  29.039  28.539  1.00  0.00     0.167 HD
ATOM     51  C   UNL A   1      44.981  32.384  28.817  1.00  0.00     0.031 A 
ATOM     52  C   UNL A   1      41.466  26.484  27.682  1.00  0.00     0.031 A 
ATOM     53  C   UNL A   1      45.709  31.389  28.077  1.00  0.00     0.049 A 
ATOM     54  C   UNL A   1      42.874  26.669  27.185  1.00  0.00     0.074 A 
ATOM     55  C   UNL A   1      47.006  31.445  27.598  1.00  0.00     0.029 A 
ATOM     56  N   UNL A   1      45.205  30.147  27.724  1.00  0.00    -0.354 N 
ATOM     57  N   UNL A   1      43.670  27.702  27.324  1.00  0.00    -0.248 NA
ATOM     58  C   UNL A   1      43.461  25.555  26.426  1.00  0.00     0.031 C 
ATOM     59  C   UNL A   1      47.278  30.247  26.926  1.00  0.00     0.029 A 
ATOM     60  C   UNL A   1      46.161  29.432  27.023  1.00  0.00     0.049 A 
ATOM     61  H   UNL A   1      44.301  29.822  27.938  1.00  0.00     0.167 HD
ATOM     62  C   UNL A   1      44.850  27.360  26.675  1.00  0.00     0.074 A 
ATOM     63  C   UNL A   1      44.675  26.018  26.161  1.00  0.00     0.031 C 
ATOM     64  C   UNL A   1      45.974  28.099  26.514  1.00  0.00     0.031 A 
BRANCH  51  65
ATOM     65  C   UNL A   1      45.648  33.704  29.085  1.00  0.00    -0.014 A 
ATOM     66  C   UNL A   1      45.592  34.761  28.164  1.00  0.00     0.009 A 
ATOM     67  C   UNL A   1      46.348  33.884  30.289  1.00  0.00     0.009 A 
ATOM     68  C   UNL A   1      46.261  35.959  28.427  1.00  0.00     0.001 A 
ATOM     69  C   UNL A   1      46.994  35.090  30.559  1.00  0.00     0.001 A 
ATOM     70  C   UNL A   1      46.961  36.122  29.624  1.00  0.00     0.000 A 
ENDBRANCH  51  65
BRANCH  52  71
ATOM     71  C   UNL A   1      40.729  25.224  27.406  1.00  0.00    -0.014 A 
ATOM     72  C   UNL A   1      39.647  25.207  26.513  1.00  0.00     0.009 A 
ATOM     73  C   UNL A   1      41.113  24.025  28.030  1.00  0.00     0.009 A 
ATOM     74  C   UNL A   1      38.964  24.017  26.253  1.00  0.00     0.001 A 
ATOM     75  C   UNL A   1      40.445  22.833  27.748  1.00  0.00     0.001 A 
ATOM     76  C   UNL A   1      39.368  22.830  26.863  1.00  0.00     0.000 A 
ENDBRANCH  52  71
BRANCH  64  77
ATOM     77  C   UNL A   1      47.113  27.465  25.767  1.00  0.00    -0.014 A 
ATOM     78  C   UNL A   1      47.226  27.593  24.375  1.00  0.00     0.009 A 
ATOM     79  C   UNL A   1      48.107  26.768  26.472  1.00  0.00     0.009 A 
ATOM     80  C   UNL A   1      48.300  27.011  23.698  1.00  0.00     0.001 A 
ATOM     81  C   UNL A   1      49.190  26.205  25.796  1.00  0.00     0.001 A 
ATOM     82  C   UNL A   1      49.283  26.321  24.410  1.00  0.00     0.000 A 
ENDBRANCH  64  77
ENDBRANCH  38  39
ENDBRANCH  31  33
ENDBRANCH  30  31
ENDBRANCH  29  30
ENDBRANCH  28  29
ENDBRANCH  27  28
ENDBRANCH  26  27
ENDBRANCH   1  26
TORSDOF 22
ENDMDL
