MODEL 1
REMARK VINA RESULT:      -8.6      0.000      0.000
REMARK SMILES CCC[NH2+][C@]1(C(=O)OCCOCCOCCOC(=O)c2ccc(-c3c4nc(c(-c5ccccc5)c5ccc([nH]5)c(-c5ccccc5)c5nc(c(-c6ccccc6)c6ccc3[nH]6)C=C5)C=C4)cc2)CCC[C@@H]([N@@H+](C)[C@@H](C)C2CC2)C1
REMARK SMILES IDX 12 1 11 2 10 3 9 4 8 5 6 6 7 7 5 8 68 9 79 10 69 11 71 12
REMARK SMILES IDX 70 13 4 14 3 17 2 18 1 19 72 20 73 21 74 23 75 24 76 25
REMARK SMILES IDX 77 26 78 27 13 28 14 29 15 30 16 31 17 32 18 33 19 34 20 35
REMARK SMILES IDX 21 36 67 37 22 38 66 39 23 40 24 41 25 42 60 43 26 44 65 45
REMARK SMILES IDX 59 46 61 47 27 48 64 49 58 50 57 51 28 53 50 54 35 55 49 56
REMARK SMILES IDX 36 57 39 58 48 59 62 60 37 61 38 62 47 64 63 65 40 66 29 67
REMARK SMILES IDX 30 68 34 69 31 70 33 71 32 72 51 73 52 74 56 75 53 76 55 77
REMARK SMILES IDX 54 78 41 79 42 80 46 81 43 82 45 83 44 84
REMARK H PARENT 4 15 4 16 72 22 61 52 39 63
REMARK Flexibility Score: inf
ROOT
ATOM      1  C   UNL A   1      30.093  25.164  26.449  1.00  0.00     0.188 C 
ENDROOT
BRANCH   1   2
ATOM      2  O   UNL A   1      31.086  24.307  26.989  1.00  0.00    -0.376 OA
BRANCH   2   3
ATOM      3  C   UNL A   1      32.387  24.864  27.079  1.00  0.00     0.202 C 
BRANCH   3   4
ATOM      4  C   UNL A   1      33.430  24.304  26.100  1.00  0.00     0.261 C 
BRANCH   4   5
ATOM      5  O   UNL A   1      34.322  23.291  26.599  1.00  0.00    -0.459 OA
BRANCH   5   6
ATOM      6  C   UNL A   1      33.892  22.004  26.578  1.00  0.00     0.368 C 
ATOM      7  O   UNL A   1      33.579  21.387  27.593  1.00  0.00    -0.245 OA
BRANCH   6   8
ATOM      8  C   UNL A   1      33.874  21.388  25.126  1.00  0.00     0.200 C 
ATOM      9  C   UNL A   1      32.962  20.138  24.991  1.00  0.00     0.081 C 
ATOM     10  C   UNL A   1      33.230  22.492  24.309  1.00  0.00     0.146 C 
ATOM     11  C   UNL A   1      32.704  19.740  23.535  1.00  0.00     0.013 C 
ATOM     12  C   UNL A   1      32.726  22.226  22.917  1.00  0.00     0.190 C 
ATOM     13  C   UNL A   1      32.016  20.868  22.765  1.00  0.00     0.065 C 
BRANCH   8  14
ATOM     14  N   UNL A   1      35.233  21.041  24.628  1.00  0.00    -0.332 N 
ATOM     15  H   UNL A   1      35.673  20.437  25.322  1.00  0.00     0.347 HD
ATOM     16  H   UNL A   1      35.085  20.600  23.719  1.00  0.00     0.347 HD
BRANCH  14  17
ATOM     17  C   UNL A   1      36.138  22.164  24.375  1.00  0.00     0.261 C 
BRANCH  17  18
ATOM     18  C   UNL A   1      37.335  22.078  25.319  1.00  0.00     0.058 C 
ATOM     19  C   UNL A   1      37.933  23.425  25.682  1.00  0.00     0.010 C 
ENDBRANCH  17  18
ENDBRANCH  14  17
ENDBRANCH   8  14
BRANCH  12  20
ATOM     20  N   UNL A   1      32.019  23.462  22.488  1.00  0.00    -0.332 N 
ATOM     21  C   UNL A   1      30.825  23.652  23.324  1.00  0.00     0.333 C 
ATOM     22  H   UNL A   1      31.824  23.236  21.513  1.00  0.00     0.348 HD
BRANCH  20  23
ATOM     23  C   UNL A   1      32.731  24.753  22.249  1.00  0.00     0.184 C 
ATOM     24  C   UNL A   1      32.904  25.178  20.785  1.00  0.00     0.075 C 
BRANCH  23  25
ATOM     25  C   UNL A   1      32.552  26.013  23.113  1.00  0.00     0.047 C 
ATOM     26  C   UNL A   1      33.708  26.901  23.558  1.00  0.00     0.010 C 
ATOM     27  C   UNL A   1      32.578  27.483  22.750  1.00  0.00     0.010 C 
ENDBRANCH  23  25
ENDBRANCH  20  23
ENDBRANCH  12  20
ENDBRANCH   6   8
ENDBRANCH   5   6
ENDBRANCH   4   5
ENDBRANCH   3   4
ENDBRANCH   2   3
ENDBRANCH   1   2
BRANCH   1  28
ATOM     28  C   UNL A   1      30.638  26.529  25.993  1.00  0.00     0.188 C 
BRANCH  28  29
ATOM     29  O   UNL A   1      31.127  27.464  26.942  1.00  0.00    -0.376 OA
BRANCH  29  30
ATOM     30  C   UNL A   1      31.796  28.612  26.455  1.00  0.00     0.202 C 
BRANCH  30  31
ATOM     31  C   UNL A   1      33.302  28.751  26.737  1.00  0.00     0.261 C 
BRANCH  31  32
ATOM     32  O   UNL A   1      33.668  29.275  28.033  1.00  0.00    -0.460 OA
BRANCH  32  33
ATOM     33  C   UNL A   1      34.489  30.358  28.037  1.00  0.00     0.338 C 
ATOM     34  O   UNL A   1      34.145  31.533  28.012  1.00  0.00    -0.246 OA
BRANCH  33  35
ATOM     35  C   UNL A   1      35.897  29.951  28.289  1.00  0.00     0.060 A 
ATOM     36  C   UNL A   1      36.820  30.072  27.240  1.00  0.00     0.016 A 
ATOM     37  C   UNL A   1      36.318  29.418  29.510  1.00  0.00     0.016 A 
ATOM     38  C   UNL A   1      38.148  29.668  27.413  1.00  0.00     0.010 A 
ATOM     39  C   UNL A   1      37.655  29.004  29.673  1.00  0.00     0.010 A 
ATOM     40  C   UNL A   1      38.586  29.130  28.628  1.00  0.00    -0.014 A 
BRANCH  40  41
ATOM     41  C   UNL A   1      39.969  28.583  28.735  1.00  0.00     0.031 A 
ATOM     42  C   UNL A   1      41.080  29.497  29.179  1.00  0.00     0.074 A 
ATOM     43  C   UNL A   1      40.252  27.285  28.496  1.00  0.00     0.049 A 
ATOM     44  N   UNL A   1      42.368  29.268  29.240  1.00  0.00    -0.248 NA
ATOM     45  C   UNL A   1      40.686  30.844  29.619  1.00  0.00     0.031 C 
ATOM     46  C   UNL A   1      39.274  26.246  28.182  1.00  0.00     0.029 A 
ATOM     47  N   UNL A   1      41.457  26.616  28.499  1.00  0.00    -0.354 N 
ATOM     48  C   UNL A   1      42.940  30.452  29.686  1.00  0.00     0.074 A 
ATOM     49  C   UNL A   1      41.858  31.385  29.915  1.00  0.00     0.031 C 
ATOM     50  C   UNL A   1      39.914  25.071  28.036  1.00  0.00     0.029 A 
ATOM     51  C   UNL A   1      41.355  25.285  28.159  1.00  0.00     0.049 A 
ATOM     52  H   UNL A   1      42.311  27.049  28.724  1.00  0.00     0.167 HD
ATOM     53  C   UNL A   1      44.249  30.753  29.853  1.00  0.00     0.031 A 
ATOM     54  C   UNL A   1      42.313  24.362  27.921  1.00  0.00     0.031 A 
ATOM     55  C   UNL A   1      45.336  29.847  29.605  1.00  0.00     0.049 A 
ATOM     56  C   UNL A   1      43.769  24.765  27.989  1.00  0.00     0.074 A 
ATOM     57  C   UNL A   1      46.695  30.083  29.725  1.00  0.00     0.029 A 
ATOM     58  N   UNL A   1      45.193  28.540  29.170  1.00  0.00    -0.354 N 
ATOM     59  N   UNL A   1      44.301  25.896  28.386  1.00  0.00    -0.248 NA
ATOM     60  C   UNL A   1      44.760  23.769  27.541  1.00  0.00     0.031 C 
ATOM     61  C   UNL A   1      47.376  28.945  29.288  1.00  0.00     0.029 A 
ATOM     62  C   UNL A   1      46.442  27.974  28.970  1.00  0.00     0.049 A 
ATOM     63  H   UNL A   1      44.334  28.082  29.024  1.00  0.00     0.167 HD
ATOM     64  C   UNL A   1      45.677  25.738  28.252  1.00  0.00     0.074 A 
ATOM     65  C   UNL A   1      45.906  24.396  27.766  1.00  0.00     0.031 C 
ATOM     66  C   UNL A   1      46.664  26.634  28.499  1.00  0.00     0.031 A 
BRANCH  53  67
ATOM     67  C   UNL A   1      44.590  32.167  30.226  1.00  0.00    -0.014 A 
ATOM     68  C   UNL A   1      44.765  32.561  31.560  1.00  0.00     0.009 A 
ATOM     69  C   UNL A   1      44.786  33.108  29.203  1.00  0.00     0.009 A 
ATOM     70  C   UNL A   1      45.107  33.882  31.861  1.00  0.00     0.001 A 
ATOM     71  C   UNL A   1      45.155  34.418  29.505  1.00  0.00     0.001 A 
ATOM     72  C   UNL A   1      45.308  34.806  30.835  1.00  0.00     0.000 A 
ENDBRANCH  53  67
BRANCH  54  73
ATOM     73  C   UNL A   1      41.961  22.981  27.474  1.00  0.00    -0.014 A 
ATOM     74  C   UNL A   1      41.856  22.664  26.109  1.00  0.00     0.009 A 
ATOM     75  C   UNL A   1      41.618  21.997  28.416  1.00  0.00     0.009 A 
ATOM     76  C   UNL A   1      41.377  21.414  25.702  1.00  0.00     0.001 A 
ATOM     77  C   UNL A   1      41.179  20.735  28.007  1.00  0.00     0.001 A 
ATOM     78  C   UNL A   1      41.041  20.450  26.651  1.00  0.00     0.000 A 
ENDBRANCH  54  73
BRANCH  66  79
ATOM     79  C   UNL A   1      48.088  26.194  28.286  1.00  0.00    -0.014 A 
ATOM     80  C   UNL A   1      48.835  25.607  29.320  1.00  0.00     0.009 A 
ATOM     81  C   UNL A   1      48.663  26.294  27.008  1.00  0.00     0.009 A 
ATOM     82  C   UNL A   1      50.135  25.153  29.083  1.00  0.00     0.001 A 
ATOM     83  C   UNL A   1      49.951  25.811  26.766  1.00  0.00     0.001 A 
ATOM     84  C   UNL A   1      50.688  25.247  27.806  1.00  0.00     0.000 A 
ENDBRANCH  66  79
ENDBRANCH  40  41
ENDBRANCH  33  35
ENDBRANCH  32  33
ENDBRANCH  31  32
ENDBRANCH  30  31
ENDBRANCH  29  30
ENDBRANCH  28  29
ENDBRANCH   1  28
TORSDOF 23
ENDMDL
MODEL 2
REMARK VINA RESULT:      -8.1      1.886      6.093
REMARK SMILES CCC[NH2+][C@]1(C(=O)OCCOCCOCCOC(=O)c2ccc(-c3c4nc(c(-c5ccccc5)c5ccc([nH]5)c(-c5ccccc5)c5nc(c(-c6ccccc6)c6ccc3[nH]6)C=C5)C=C4)cc2)CCC[C@@H]([N@@H+](C)[C@@H](C)C2CC2)C1
REMARK SMILES IDX 12 1 11 2 10 3 9 4 8 5 6 6 7 7 5 8 68 9 79 10 69 11 71 12
REMARK SMILES IDX 70 13 4 14 3 17 2 18 1 19 72 20 73 21 74 23 75 24 76 25
REMARK SMILES IDX 77 26 78 27 13 28 14 29 15 30 16 31 17 32 18 33 19 34 20 35
REMARK SMILES IDX 21 36 67 37 22 38 66 39 23 40 24 41 25 42 60 43 26 44 65 45
REMARK SMILES IDX 59 46 61 47 27 48 64 49 58 50 57 51 28 53 50 54 35 55 49 56
REMARK SMILES IDX 36 57 39 58 48 59 62 60 37 61 38 62 47 64 63 65 40 66 29 67
REMARK SMILES IDX 30 68 34 69 31 70 33 71 32 72 51 73 52 74 56 75 53 76 55 77
REMARK SMILES IDX 54 78 41 79 42 80 46 81 43 82 45 83 44 84
REMARK H PARENT 4 15 4 16 72 22 61 52 39 63
REMARK Flexibility Score: inf
ROOT
ATOM      1  C   UNL A   1      30.469  24.723  26.495  1.00  0.00     0.188 C 
ENDROOT
BRANCH   1   2
ATOM      2  O   UNL A   1      31.527  23.985  27.087  1.00  0.00    -0.376 OA
BRANCH   2   3
ATOM      3  C   UNL A   1      32.805  24.596  27.024  1.00  0.00     0.202 C 
BRANCH   3   4
ATOM      4  C   UNL A   1      33.833  23.917  26.106  1.00  0.00     0.261 C 
BRANCH   4   5
ATOM      5  O   UNL A   1      34.634  22.868  26.680  1.00  0.00    -0.459 OA
BRANCH   5   6
ATOM      6  C   UNL A   1      34.067  21.641  26.813  1.00  0.00     0.368 C 
ATOM      7  O   UNL A   1      33.635  21.217  27.882  1.00  0.00    -0.245 OA
BRANCH   6   8
ATOM      8  C   UNL A   1      34.058  20.822  25.465  1.00  0.00     0.200 C 
ATOM      9  C   UNL A   1      33.153  19.561  25.510  1.00  0.00     0.081 C 
ATOM     10  C   UNL A   1      33.412  21.792  24.496  1.00  0.00     0.146 C 
ATOM     11  C   UNL A   1      32.903  18.954  24.127  1.00  0.00     0.013 C 
ATOM     12  C   UNL A   1      32.916  21.325  23.155  1.00  0.00     0.190 C 
ATOM     13  C   UNL A   1      32.213  19.955  23.199  1.00  0.00     0.065 C 
BRANCH   8  14
ATOM     14  N   UNL A   1      35.421  20.414  25.028  1.00  0.00    -0.332 N 
ATOM     15  H   UNL A   1      35.874  19.950  25.815  1.00  0.00     0.347 HD
ATOM     16  H   UNL A   1      35.277  19.816  24.214  1.00  0.00     0.347 HD
BRANCH  14  17
ATOM     17  C   UNL A   1      36.306  21.488  24.572  1.00  0.00     0.261 C 
BRANCH  17  18
ATOM     18  C   UNL A   1      37.610  21.446  25.366  1.00  0.00     0.058 C 
ATOM     19  C   UNL A   1      38.148  22.816  25.740  1.00  0.00     0.010 C 
ENDBRANCH  17  18
ENDBRANCH  14  17
ENDBRANCH   8  14
BRANCH  12  20
ATOM     20  N   UNL A   1      32.204  22.481  22.548  1.00  0.00    -0.332 N 
ATOM     21  C   UNL A   1      31.093  22.880  23.424  1.00  0.00     0.333 C 
ATOM     22  H   UNL A   1      31.920  22.078  21.656  1.00  0.00     0.348 HD
BRANCH  20  23
ATOM     23  C   UNL A   1      32.924  23.671  22.003  1.00  0.00     0.184 C 
ATOM     24  C   UNL A   1      33.334  23.604  20.526  1.00  0.00     0.075 C 
BRANCH  23  25
ATOM     25  C   UNL A   1      32.581  25.128  22.356  1.00  0.00     0.047 C 
ATOM     26  C   UNL A   1      33.598  26.262  22.334  1.00  0.00     0.010 C 
ATOM     27  C   UNL A   1      32.362  26.342  21.478  1.00  0.00     0.010 C 
ENDBRANCH  23  25
ENDBRANCH  20  23
ENDBRANCH  12  20
ENDBRANCH   6   8
ENDBRANCH   5   6
ENDBRANCH   4   5
ENDBRANCH   3   4
ENDBRANCH   2   3
ENDBRANCH   1   2
BRANCH   1  28
ATOM     28  C   UNL A   1      30.907  26.092  25.943  1.00  0.00     0.188 C 
BRANCH  28  29
ATOM     29  O   UNL A   1      30.944  27.232  26.788  1.00  0.00    -0.376 OA
BRANCH  29  30
ATOM     30  C   UNL A   1      31.796  28.300  26.421  1.00  0.00     0.202 C 
BRANCH  30  31
ATOM     31  C   UNL A   1      33.117  28.476  27.190  1.00  0.00     0.261 C 
BRANCH  31  32
ATOM     32  O   UNL A   1      33.230  29.660  28.012  1.00  0.00    -0.460 OA
BRANCH  32  33
ATOM     33  C   UNL A   1      34.190  30.552  27.655  1.00  0.00     0.338 C 
ATOM     34  O   UNL A   1      34.011  31.705  27.282  1.00  0.00    -0.246 OA
BRANCH  33  35
ATOM     35  C   UNL A   1      35.544  30.025  27.971  1.00  0.00     0.060 A 
ATOM     36  C   UNL A   1      35.812  29.636  29.291  1.00  0.00     0.016 A 
ATOM     37  C   UNL A   1      36.561  29.943  27.017  1.00  0.00     0.016 A 
ATOM     38  C   UNL A   1      37.081  29.169  29.651  1.00  0.00     0.010 A 
ATOM     39  C   UNL A   1      37.840  29.482  27.388  1.00  0.00     0.010 A 
ATOM     40  C   UNL A   1      38.111  29.084  28.708  1.00  0.00    -0.014 A 
BRANCH  40  41
ATOM     41  C   UNL A   1      39.486  28.714  29.152  1.00  0.00     0.031 A 
ATOM     42  C   UNL A   1      40.071  27.405  28.692  1.00  0.00     0.074 A 
ATOM     43  C   UNL A   1      40.244  29.533  29.910  1.00  0.00     0.049 A 
ATOM     44  N   UNL A   1      41.197  26.832  29.038  1.00  0.00    -0.248 NA
ATOM     45  C   UNL A   1      39.285  26.644  27.708  1.00  0.00     0.031 C 
ATOM     46  C   UNL A   1      39.877  30.883  30.331  1.00  0.00     0.029 A 
ATOM     47  N   UNL A   1      41.500  29.348  30.448  1.00  0.00    -0.354 N 
ATOM     48  C   UNL A   1      41.235  25.629  28.345  1.00  0.00     0.074 A 
ATOM     49  C   UNL A   1      40.040  25.569  27.533  1.00  0.00     0.031 C 
ATOM     50  C   UNL A   1      40.887  31.409  31.049  1.00  0.00     0.029 A 
ATOM     51  C   UNL A   1      41.938  30.406  31.214  1.00  0.00     0.049 A 
ATOM     52  H   UNL A   1      42.034  28.536  30.298  1.00  0.00     0.167 HD
ATOM     53  C   UNL A   1      42.160  24.643  28.407  1.00  0.00     0.031 A 
ATOM     54  C   UNL A   1      43.030  30.530  32.001  1.00  0.00     0.031 A 
ATOM     55  C   UNL A   1      43.339  24.675  29.229  1.00  0.00     0.049 A 
ATOM     56  C   UNL A   1      43.977  29.359  32.151  1.00  0.00     0.074 A 
ATOM     57  C   UNL A   1      44.315  23.703  29.368  1.00  0.00     0.029 A 
ATOM     58  N   UNL A   1      43.694  25.722  30.061  1.00  0.00    -0.354 N 
ATOM     59  N   UNL A   1      43.991  28.214  31.512  1.00  0.00    -0.248 NA
ATOM     60  C   UNL A   1      45.043  29.488  33.160  1.00  0.00     0.031 C 
ATOM     61  C   UNL A   1      45.218  24.128  30.344  1.00  0.00     0.029 A 
ATOM     62  C   UNL A   1      44.849  25.398  30.755  1.00  0.00     0.049 A 
ATOM     63  H   UNL A   1      43.201  26.570  30.148  1.00  0.00     0.167 HD
ATOM     64  C   UNL A   1      45.069  27.503  32.028  1.00  0.00     0.074 A 
ATOM     65  C   UNL A   1      45.706  28.350  33.011  1.00  0.00     0.031 C 
ATOM     66  C   UNL A   1      45.487  26.250  31.722  1.00  0.00     0.031 A 
BRANCH  53  67
ATOM     67  C   UNL A   1      41.878  23.384  27.640  1.00  0.00    -0.014 A 
ATOM     68  C   UNL A   1      42.360  23.184  26.339  1.00  0.00     0.009 A 
ATOM     69  C   UNL A   1      41.150  22.358  28.265  1.00  0.00     0.009 A 
ATOM     70  C   UNL A   1      42.096  21.986  25.670  1.00  0.00     0.001 A 
ATOM     71  C   UNL A   1      40.913  21.154  27.606  1.00  0.00     0.001 A 
ATOM     72  C   UNL A   1      41.380  20.971  26.306  1.00  0.00     0.000 A 
ENDBRANCH  53  67
BRANCH  54  73
ATOM     73  C   UNL A   1      43.256  31.758  32.820  1.00  0.00    -0.014 A 
ATOM     74  C   UNL A   1      42.520  31.993  33.995  1.00  0.00     0.009 A 
ATOM     75  C   UNL A   1      44.135  32.758  32.371  1.00  0.00     0.009 A 
ATOM     76  C   UNL A   1      42.628  33.214  34.670  1.00  0.00     0.001 A 
ATOM     77  C   UNL A   1      44.272  33.959  33.070  1.00  0.00     0.001 A 
ATOM     78  C   UNL A   1      43.505  34.194  34.209  1.00  0.00     0.000 A 
ENDBRANCH  54  73
BRANCH  66  79
ATOM     79  C   UNL A   1      46.708  25.720  32.424  1.00  0.00    -0.014 A 
ATOM     80  C   UNL A   1      47.999  25.953  31.923  1.00  0.00     0.009 A 
ATOM     81  C   UNL A   1      46.569  25.047  33.650  1.00  0.00     0.009 A 
ATOM     82  C   UNL A   1      49.121  25.502  32.623  1.00  0.00     0.001 A 
ATOM     83  C   UNL A   1      47.693  24.625  34.362  1.00  0.00     0.001 A 
ATOM     84  C   UNL A   1      48.968  24.848  33.844  1.00  0.00     0.000 A 
ENDBRANCH  66  79
ENDBRANCH  40  41
ENDBRANCH  33  35
ENDBRANCH  32  33
ENDBRANCH  31  32
ENDBRANCH  30  31
ENDBRANCH  29  30
ENDBRANCH  28  29
ENDBRANCH   1  28
TORSDOF 23
ENDMDL
MODEL 3
REMARK VINA RESULT:      -8.0      8.012     12.728
REMARK SMILES CCC[NH2+][C@]1(C(=O)OCCOCCOCCOC(=O)c2ccc(-c3c4nc(c(-c5ccccc5)c5ccc([nH]5)c(-c5ccccc5)c5nc(c(-c6ccccc6)c6ccc3[nH]6)C=C5)C=C4)cc2)CCC[C@@H]([N@@H+](C)[C@@H](C)C2CC2)C1
REMARK SMILES IDX 12 1 11 2 10 3 9 4 8 5 6 6 7 7 5 8 68 9 79 10 69 11 71 12
REMARK SMILES IDX 70 13 4 14 3 17 2 18 1 19 72 20 73 21 74 23 75 24 76 25
REMARK SMILES IDX 77 26 78 27 13 28 14 29 15 30 16 31 17 32 18 33 19 34 20 35
REMARK SMILES IDX 21 36 67 37 22 38 66 39 23 40 24 41 25 42 60 43 26 44 65 45
REMARK SMILES IDX 59 46 61 47 27 48 64 49 58 50 57 51 28 53 50 54 35 55 49 56
REMARK SMILES IDX 36 57 39 58 48 59 62 60 37 61 38 62 47 64 63 65 40 66 29 67
REMARK SMILES IDX 30 68 34 69 31 70 33 71 32 72 51 73 52 74 56 75 53 76 55 77
REMARK SMILES IDX 54 78 41 79 42 80 46 81 43 82 45 83 44 84
REMARK H PARENT 4 15 4 16 72 22 61 52 39 63
REMARK Flexibility Score: inf
ROOT
ATOM      1  C   UNL A   1      34.228  31.821  28.306  1.00  0.00     0.188 C 
ENDROOT
BRANCH   1   2
ATOM      2  O   UNL A   1      33.169  31.459  27.435  1.00  0.00    -0.376 OA
BRANCH   2   3
ATOM      3  C   UNL A   1      33.142  30.096  27.042  1.00  0.00     0.202 C 
BRANCH   3   4
ATOM      4  C   UNL A   1      32.489  29.799  25.684  1.00  0.00     0.261 C 
BRANCH   4   5
ATOM      5  O   UNL A   1      32.705  28.491  25.123  1.00  0.00    -0.459 OA
BRANCH   5   6
ATOM      6  C   UNL A   1      32.964  28.410  23.793  1.00  0.00     0.368 C 
ATOM      7  O   UNL A   1      33.603  29.263  23.183  1.00  0.00    -0.245 OA
BRANCH   6   8
ATOM      8  C   UNL A   1      32.330  27.130  23.124  1.00  0.00     0.200 C 
ATOM      9  C   UNL A   1      33.054  26.684  21.824  1.00  0.00     0.081 C 
ATOM     10  C   UNL A   1      32.588  26.055  24.161  1.00  0.00     0.146 C 
ATOM     11  C   UNL A   1      32.641  25.285  21.359  1.00  0.00     0.013 C 
ATOM     12  C   UNL A   1      32.426  24.599  23.817  1.00  0.00     0.190 C 
ATOM     13  C   UNL A   1      32.958  24.231  22.420  1.00  0.00     0.065 C 
BRANCH   8  14
ATOM     14  N   UNL A   1      30.880  27.290  22.829  1.00  0.00    -0.332 N 
ATOM     15  H   UNL A   1      30.609  26.546  22.187  1.00  0.00     0.347 HD
ATOM     16  H   UNL A   1      30.412  27.255  23.735  1.00  0.00     0.347 HD
BRANCH  14  17
ATOM     17  C   UNL A   1      30.475  28.564  22.231  1.00  0.00     0.261 C 
BRANCH  17  18
ATOM     18  C   UNL A   1      29.228  29.088  22.940  1.00  0.00     0.058 C 
ATOM     19  C   UNL A   1      29.415  30.445  23.595  1.00  0.00     0.010 C 
ENDBRANCH  17  18
ENDBRANCH  14  17
ENDBRANCH   8  14
BRANCH  12  20
ATOM     20  N   UNL A   1      32.913  23.837  24.998  1.00  0.00    -0.332 N 
ATOM     21  C   UNL A   1      31.849  22.936  25.465  1.00  0.00     0.333 C 
ATOM     22  H   UNL A   1      33.133  24.601  25.636  1.00  0.00     0.348 HD
BRANCH  20  23
ATOM     23  C   UNL A   1      34.248  23.169  25.028  1.00  0.00     0.184 C 
ATOM     24  C   UNL A   1      34.255  21.645  24.852  1.00  0.00     0.075 C 
BRANCH  23  25
ATOM     25  C   UNL A   1      35.521  23.747  24.386  1.00  0.00     0.047 C 
ATOM     26  C   UNL A   1      36.900  23.669  25.029  1.00  0.00     0.010 C 
ATOM     27  C   UNL A   1      36.670  23.072  23.666  1.00  0.00     0.010 C 
ENDBRANCH  23  25
ENDBRANCH  20  23
ENDBRANCH  12  20
ENDBRANCH   6   8
ENDBRANCH   5   6
ENDBRANCH   4   5
ENDBRANCH   3   4
ENDBRANCH   2   3
ENDBRANCH   1   2
BRANCH   1  28
ATOM     28  C   UNL A   1      35.623  31.686  27.669  1.00  0.00     0.188 C 
BRANCH  28  29
ATOM     29  O   UNL A   1      36.297  30.437  27.666  1.00  0.00    -0.376 OA
BRANCH  29  30
ATOM     30  C   UNL A   1      36.450  29.764  28.902  1.00  0.00     0.202 C 
BRANCH  30  31
ATOM     31  C   UNL A   1      37.134  30.513  30.059  1.00  0.00     0.261 C 
BRANCH  31  32
ATOM     32  O   UNL A   1      36.419  30.545  31.315  1.00  0.00    -0.460 OA
BRANCH  32  33
ATOM     33  C   UNL A   1      36.980  29.859  32.345  1.00  0.00     0.338 C 
ATOM     34  O   UNL A   1      37.130  28.645  32.416  1.00  0.00    -0.246 OA
BRANCH  33  35
ATOM     35  C   UNL A   1      37.601  30.791  33.324  1.00  0.00     0.060 A 
ATOM     36  C   UNL A   1      38.724  30.351  34.038  1.00  0.00     0.016 A 
ATOM     37  C   UNL A   1      37.082  32.062  33.584  1.00  0.00     0.016 A 
ATOM     38  C   UNL A   1      39.323  31.173  34.997  1.00  0.00     0.010 A 
ATOM     39  C   UNL A   1      37.685  32.881  34.559  1.00  0.00     0.010 A 
ATOM     40  C   UNL A   1      38.815  32.447  35.273  1.00  0.00    -0.014 A 
BRANCH  40  41
ATOM     41  C   UNL A   1      39.391  33.243  36.395  1.00  0.00     0.031 A 
ATOM     42  C   UNL A   1      38.789  33.104  37.768  1.00  0.00     0.074 A 
ATOM     43  C   UNL A   1      40.463  34.046  36.234  1.00  0.00     0.049 A 
ATOM     44  N   UNL A   1      39.056  33.773  38.863  1.00  0.00    -0.248 NA
ATOM     45  C   UNL A   1      37.756  32.069  37.931  1.00  0.00     0.031 C 
ATOM     46  C   UNL A   1      41.237  34.194  35.004  1.00  0.00     0.029 A 
ATOM     47  N   UNL A   1      41.099  34.881  37.127  1.00  0.00    -0.354 N 
ATOM     48  C   UNL A   1      38.197  33.268  39.831  1.00  0.00     0.074 A 
ATOM     49  C   UNL A   1      37.428  32.214  39.207  1.00  0.00     0.031 C 
ATOM     50  C   UNL A   1      42.249  35.054  35.223  1.00  0.00     0.029 A 
ATOM     51  C   UNL A   1      42.147  35.587  36.581  1.00  0.00     0.049 A 
ATOM     52  H   UNL A   1      40.828  34.965  38.070  1.00  0.00     0.167 HD
ATOM     53  C   UNL A   1      38.033  33.670  41.113  1.00  0.00     0.031 A 
ATOM     54  C   UNL A   1      42.901  36.584  37.095  1.00  0.00     0.031 A 
ATOM     55  C   UNL A   1      38.771  34.732  41.739  1.00  0.00     0.049 A 
ATOM     56  C   UNL A   1      42.605  37.098  38.486  1.00  0.00     0.074 A 
ATOM     57  C   UNL A   1      38.646  35.219  43.029  1.00  0.00     0.029 A 
ATOM     58  N   UNL A   1      39.755  35.484  41.121  1.00  0.00    -0.354 N 
ATOM     59  N   UNL A   1      41.773  36.633  39.386  1.00  0.00    -0.248 NA
ATOM     60  C   UNL A   1      43.334  38.304  38.920  1.00  0.00     0.031 C 
ATOM     61  C   UNL A   1      39.499  36.316  43.166  1.00  0.00     0.029 A 
ATOM     62  C   UNL A   1      40.211  36.463  41.988  1.00  0.00     0.049 A 
ATOM     63  H   UNL A   1      40.082  35.344  40.202  1.00  0.00     0.167 HD
ATOM     64  C   UNL A   1      41.893  37.473  40.488  1.00  0.00     0.074 A 
ATOM     65  C   UNL A   1      42.897  38.460  40.162  1.00  0.00     0.031 C 
ATOM     66  C   UNL A   1      41.220  37.436  41.664  1.00  0.00     0.031 A 
BRANCH  53  67
ATOM     67  C   UNL A   1      36.931  33.026  41.902  1.00  0.00    -0.014 A 
ATOM     68  C   UNL A   1      37.143  31.869  42.666  1.00  0.00     0.009 A 
ATOM     69  C   UNL A   1      35.663  33.629  41.911  1.00  0.00     0.009 A 
ATOM     70  C   UNL A   1      36.095  31.317  43.406  1.00  0.00     0.001 A 
ATOM     71  C   UNL A   1      34.627  33.091  42.673  1.00  0.00     0.001 A 
ATOM     72  C   UNL A   1      34.842  31.931  43.414  1.00  0.00     0.000 A 
ENDBRANCH  53  67
BRANCH  54  73
ATOM     73  C   UNL A   1      43.941  37.269  36.271  1.00  0.00    -0.014 A 
ATOM     74  C   UNL A   1      43.589  38.234  35.311  1.00  0.00     0.009 A 
ATOM     75  C   UNL A   1      45.288  36.881  36.363  1.00  0.00     0.009 A 
ATOM     76  C   UNL A   1      44.550  38.757  34.440  1.00  0.00     0.001 A 
ATOM     77  C   UNL A   1      46.254  37.435  35.520  1.00  0.00     0.001 A 
ATOM     78  C   UNL A   1      45.882  38.359  34.547  1.00  0.00     0.000 A 
ENDBRANCH  54  73
BRANCH  66  79
ATOM     79  C   UNL A   1      41.561  38.465  42.708  1.00  0.00    -0.014 A 
ATOM     80  C   UNL A   1      40.853  39.674  42.802  1.00  0.00     0.009 A 
ATOM     81  C   UNL A   1      42.553  38.186  43.662  1.00  0.00     0.009 A 
ATOM     82  C   UNL A   1      41.149  40.589  43.816  1.00  0.00     0.001 A 
ATOM     83  C   UNL A   1      42.825  39.087  44.692  1.00  0.00     0.001 A 
ATOM     84  C   UNL A   1      42.127  40.292  44.764  1.00  0.00     0.000 A 
ENDBRANCH  66  79
ENDBRANCH  40  41
ENDBRANCH  33  35
ENDBRANCH  32  33
ENDBRANCH  31  32
ENDBRANCH  30  31
ENDBRANCH  29  30
ENDBRANCH  28  29
ENDBRANCH   1  28
TORSDOF 23
ENDMDL
