MODEL 1
REMARK VINA RESULT:     -10.2      0.000      0.000
REMARK SMILES O=C(CCCN1C(=O)/C(=C\c2ccc(O)c(O)c2)SC1=S)OCCOCCOCCOC(=O)c1ccc(-c2c3nc(c(-c4ccccc4)c4ccc([nH]4)c(-c4ccccc4)c4nc(c(-c5ccccc5)c5ccc2[nH]5)C=C4)C=C3)cc1
REMARK SMILES IDX 25 1 24 2 23 3 22 4 2 5 1 6 3 7 4 8 5 9 6 10 7 11 20 12 8 13
REMARK SMILES IDX 9 14 19 15 21 16 10 17 11 18 12 19 18 20 13 21 16 22 14 23
REMARK SMILES IDX 17 24 15 26 26 28 27 29 28 30 29 31 30 32 31 33 32 34 33 35
REMARK SMILES IDX 34 36 35 37 81 38 36 39 80 40 37 41 38 42 39 43 74 44 40 45
REMARK SMILES IDX 79 46 73 47 75 48 41 49 78 50 72 51 71 52 42 54 64 55 49 56
REMARK SMILES IDX 63 57 50 58 53 59 62 60 76 61 51 62 52 63 61 65 77 66 54 67
REMARK SMILES IDX 43 68 44 69 48 70 45 71 47 72 46 73 65 74 66 75 70 76 67 77
REMARK SMILES IDX 69 78 68 79 55 80 56 81 60 82 57 83 59 84 58 85
REMARK H PARENT 17 25 15 27 75 53 53 64
REMARK Flexibility Score: inf
ROOT
ATOM      1  O   UNL A   1      32.728  33.138  27.721  1.00  0.00    -0.376 OA
ENDROOT
BRANCH   1   2
ATOM      2  C   UNL A   1      33.479  31.951  27.522  1.00  0.00     0.202 C 
BRANCH   2   3
ATOM      3  C   UNL A   1      32.661  30.832  26.897  1.00  0.00     0.261 C 
BRANCH   3   4
ATOM      4  O   UNL A   1      33.001  29.495  27.287  1.00  0.00    -0.463 OA
BRANCH   4   5
ATOM      5  C   UNL A   1      33.940  28.722  26.722  1.00  0.00     0.305 C 
ATOM      6  O   UNL A   1      35.107  28.853  27.107  1.00  0.00    -0.252 OA
BRANCH   5   7
ATOM      7  C   UNL A   1      33.626  27.700  25.636  1.00  0.00     0.124 C 
BRANCH   7   8
ATOM      8  C   UNL A   1      34.018  27.864  24.172  1.00  0.00     0.034 C 
BRANCH   8   9
ATOM      9  C   UNL A   1      33.240  27.240  22.989  1.00  0.00     0.128 C 
BRANCH   9  10
ATOM     10  N   UNL A   1      31.775  27.033  23.024  1.00  0.00    -0.293 N 
ATOM     11  C   UNL A   1      30.935  28.149  23.140  1.00  0.00     0.266 C 
ATOM     12  C   UNL A   1      31.166  25.823  23.294  1.00  0.00     0.148 C 
ATOM     13  O   UNL A   1      31.301  29.315  23.211  1.00  0.00    -0.268 OA
ATOM     14  C   UNL A   1      29.503  27.751  23.292  1.00  0.00     0.081 C 
ATOM     15  S   UNL A   1      29.446  26.052  23.609  1.00  0.00    -0.054 SA
ATOM     16  S   UNL A   1      31.849  24.304  23.387  1.00  0.00    -0.052 S 
ATOM     17  C   UNL A   1      28.375  28.472  23.141  1.00  0.00     0.029 C 
BRANCH  17  18
ATOM     18  C   UNL A   1      28.213  29.840  22.614  1.00  0.00    -0.020 A 
ATOM     19  C   UNL A   1      28.359  30.921  23.502  1.00  0.00     0.012 A 
ATOM     20  C   UNL A   1      28.022  30.124  21.263  1.00  0.00     0.058 A 
ATOM     21  C   UNL A   1      28.187  32.248  23.108  1.00  0.00     0.051 A 
ATOM     22  C   UNL A   1      27.915  31.457  20.858  1.00  0.00     0.157 A 
ATOM     23  C   UNL A   1      27.945  32.507  21.775  1.00  0.00     0.157 A 
BRANCH  22  24
ATOM     24  O   UNL A   1      27.793  31.747  19.527  1.00  0.00    -0.504 OA
ATOM     25  H   UNL A   1      27.890  32.630  19.230  1.00  0.00     0.293 HD
ENDBRANCH  22  24
BRANCH  23  26
ATOM     26  O   UNL A   1      27.747  33.780  21.321  1.00  0.00    -0.504 OA
ATOM     27  H   UNL A   1      28.422  34.215  20.838  1.00  0.00     0.293 HD
ENDBRANCH  23  26
ENDBRANCH  17  18
ENDBRANCH   9  10
ENDBRANCH   8   9
ENDBRANCH   7   8
ENDBRANCH   5   7
ENDBRANCH   4   5
ENDBRANCH   3   4
ENDBRANCH   2   3
ENDBRANCH   1   2
BRANCH   1  28
ATOM     28  C   UNL A   1      33.525  34.297  28.004  1.00  0.00     0.188 C 
BRANCH  28  29
ATOM     29  C   UNL A   1      34.433  34.110  29.220  1.00  0.00     0.188 C 
BRANCH  29  30
ATOM     30  O   UNL A   1      33.764  33.916  30.462  1.00  0.00    -0.376 OA
BRANCH  30  31
ATOM     31  C   UNL A   1      34.119  34.792  31.532  1.00  0.00     0.202 C 
BRANCH  31  32
ATOM     32  C   UNL A   1      34.273  33.982  32.822  1.00  0.00     0.261 C 
BRANCH  32  33
ATOM     33  O   UNL A   1      34.746  32.679  32.468  1.00  0.00    -0.460 OA
BRANCH  33  34
ATOM     34  C   UNL A   1      35.894  32.355  33.105  1.00  0.00     0.338 C 
ATOM     35  O   UNL A   1      36.191  32.619  34.260  1.00  0.00    -0.246 OA
BRANCH  34  36
ATOM     36  C   UNL A   1      36.631  31.393  32.264  1.00  0.00     0.060 A 
ATOM     37  C   UNL A   1      37.534  30.530  32.898  1.00  0.00     0.016 A 
ATOM     38  C   UNL A   1      36.451  31.346  30.876  1.00  0.00     0.016 A 
ATOM     39  C   UNL A   1      38.353  29.712  32.141  1.00  0.00     0.010 A 
ATOM     40  C   UNL A   1      37.288  30.545  30.110  1.00  0.00     0.010 A 
ATOM     41  C   UNL A   1      38.295  29.806  30.748  1.00  0.00    -0.014 A 
BRANCH  41  42
ATOM     42  C   UNL A   1      39.509  29.454  29.996  1.00  0.00     0.031 A 
ATOM     43  C   UNL A   1      40.563  30.520  29.861  1.00  0.00     0.074 A 
ATOM     44  C   UNL A   1      39.687  28.210  29.532  1.00  0.00     0.049 A 
ATOM     45  N   UNL A   1      41.734  30.462  29.285  1.00  0.00    -0.248 NA
ATOM     46  C   UNL A   1      40.256  31.833  30.460  1.00  0.00     0.031 C 
ATOM     47  C   UNL A   1      38.741  27.106  29.686  1.00  0.00     0.029 A 
ATOM     48  N   UNL A   1      40.738  27.673  28.847  1.00  0.00    -0.354 N 
ATOM     49  C   UNL A   1      42.289  31.728  29.442  1.00  0.00     0.074 A 
ATOM     50  C   UNL A   1      41.323  32.542  30.137  1.00  0.00     0.031 C 
ATOM     51  C   UNL A   1      39.262  26.010  29.107  1.00  0.00     0.029 A 
ATOM     52  C   UNL A   1      40.557  26.354  28.523  1.00  0.00     0.049 A 
ATOM     53  H   UNL A   1      41.546  28.183  28.609  1.00  0.00     0.167 HD
ATOM     54  C   UNL A   1      43.503  32.167  29.044  1.00  0.00     0.031 A 
ATOM     55  C   UNL A   1      41.355  25.531  27.822  1.00  0.00     0.031 A 
ATOM     56  C   UNL A   1      44.441  31.340  28.336  1.00  0.00     0.049 A 
ATOM     57  C   UNL A   1      42.672  26.066  27.326  1.00  0.00     0.074 A 
ATOM     58  C   UNL A   1      45.704  31.662  27.876  1.00  0.00     0.029 A 
ATOM     59  N   UNL A   1      44.202  30.020  27.980  1.00  0.00    -0.354 N 
ATOM     60  N   UNL A   1      43.200  27.257  27.489  1.00  0.00    -0.248 NA
ATOM     61  C   UNL A   1      43.512  25.133  26.567  1.00  0.00     0.031 C 
ATOM     62  C   UNL A   1      46.203  30.555  27.184  1.00  0.00     0.029 A 
ATOM     63  C   UNL A   1      45.286  29.519  27.282  1.00  0.00     0.049 A 
ATOM     64  H   UNL A   1      43.383  29.516  28.193  1.00  0.00     0.167 HD
ATOM     65  C   UNL A   1      44.452  27.205  26.891  1.00  0.00     0.074 A 
ATOM     66  C   UNL A   1      44.604  25.858  26.373  1.00  0.00     0.031 C 
ATOM     67  C   UNL A   1      45.397  28.172  26.782  1.00  0.00     0.031 A 
BRANCH  54  68
ATOM     68  C   UNL A   1      43.844  33.607  29.313  1.00  0.00    -0.014 A 
ATOM     69  C   UNL A   1      43.489  34.632  28.421  1.00  0.00     0.009 A 
ATOM     70  C   UNL A   1      44.538  33.944  30.486  1.00  0.00     0.009 A 
ATOM     71  C   UNL A   1      43.855  35.956  28.680  1.00  0.00     0.001 A 
ATOM     72  C   UNL A   1      44.874  35.271  30.758  1.00  0.00     0.001 A 
ATOM     73  C   UNL A   1      44.542  36.274  29.850  1.00  0.00     0.000 A 
ENDBRANCH  54  68
BRANCH  55  74
ATOM     74  C   UNL A   1      40.936  24.131  27.559  1.00  0.00    -0.014 A 
ATOM     75  C   UNL A   1      39.918  23.849  26.637  1.00  0.00     0.009 A 
ATOM     76  C   UNL A   1      41.555  23.066  28.233  1.00  0.00     0.009 A 
ATOM     77  C   UNL A   1      39.506  22.532  26.419  1.00  0.00     0.001 A 
ATOM     78  C   UNL A   1      41.165  21.749  27.989  1.00  0.00     0.001 A 
ATOM     79  C   UNL A   1      40.132  21.483  27.091  1.00  0.00     0.000 A 
ENDBRANCH  55  74
BRANCH  67  80
ATOM     80  C   UNL A   1      46.696  27.782  26.134  1.00  0.00    -0.014 A 
ATOM     81  C   UNL A   1      46.874  27.841  24.743  1.00  0.00     0.009 A 
ATOM     82  C   UNL A   1      47.768  27.371  26.941  1.00  0.00     0.009 A 
ATOM     83  C   UNL A   1      48.083  27.441  24.171  1.00  0.00     0.001 A 
ATOM     84  C   UNL A   1      48.988  27.011  26.370  1.00  0.00     0.001 A 
ATOM     85  C   UNL A   1      49.139  27.032  24.986  1.00  0.00     0.000 A 
ENDBRANCH  67  80
ENDBRANCH  41  42
ENDBRANCH  34  36
ENDBRANCH  33  34
ENDBRANCH  32  33
ENDBRANCH  31  32
ENDBRANCH  30  31
ENDBRANCH  29  30
ENDBRANCH  28  29
ENDBRANCH   1  28
TORSDOF 23
ENDMDL
MODEL 2
REMARK VINA RESULT:      -9.7      4.184      9.455
REMARK SMILES O=C(CCCN1C(=O)/C(=C\c2ccc(O)c(O)c2)SC1=S)OCCOCCOCCOC(=O)c1ccc(-c2c3nc(c(-c4ccccc4)c4ccc([nH]4)c(-c4ccccc4)c4nc(c(-c5ccccc5)c5ccc2[nH]5)C=C4)C=C3)cc1
REMARK SMILES IDX 25 1 24 2 23 3 22 4 2 5 1 6 3 7 4 8 5 9 6 10 7 11 20 12 8 13
REMARK SMILES IDX 9 14 19 15 21 16 10 17 11 18 12 19 18 20 13 21 16 22 14 23
REMARK SMILES IDX 17 24 15 26 26 28 27 29 28 30 29 31 30 32 31 33 32 34 33 35
REMARK SMILES IDX 34 36 35 37 81 38 36 39 80 40 37 41 38 42 39 43 74 44 40 45
REMARK SMILES IDX 79 46 73 47 75 48 41 49 78 50 72 51 71 52 42 54 64 55 49 56
REMARK SMILES IDX 63 57 50 58 53 59 62 60 76 61 51 62 52 63 61 65 77 66 54 67
REMARK SMILES IDX 43 68 44 69 48 70 45 71 47 72 46 73 65 74 66 75 70 76 67 77
REMARK SMILES IDX 69 78 68 79 55 80 56 81 60 82 57 83 59 84 58 85
REMARK H PARENT 17 25 15 27 75 53 53 64
REMARK Flexibility Score: inf
ROOT
ATOM      1  O   UNL A   1      37.521  21.792  24.161  1.00  0.00    -0.376 OA
ENDROOT
BRANCH   1   2
ATOM      2  C   UNL A   1      36.245  22.412  24.122  1.00  0.00     0.202 C 
BRANCH   2   3
ATOM      3  C   UNL A   1      35.738  22.809  25.499  1.00  0.00     0.261 C 
BRANCH   3   4
ATOM      4  O   UNL A   1      35.230  21.752  26.325  1.00  0.00    -0.463 OA
BRANCH   4   5
ATOM      5  C   UNL A   1      33.944  21.551  26.647  1.00  0.00     0.305 C 
ATOM      6  O   UNL A   1      33.420  20.486  26.305  1.00  0.00    -0.252 OA
BRANCH   5   7
ATOM      7  C   UNL A   1      33.114  22.576  27.410  1.00  0.00     0.124 C 
BRANCH   7   8
ATOM      8  C   UNL A   1      31.613  22.768  27.224  1.00  0.00     0.034 C 
BRANCH   8   9
ATOM      9  C   UNL A   1      30.975  23.539  26.045  1.00  0.00     0.128 C 
BRANCH   9  10
ATOM     10  N   UNL A   1      31.771  24.386  25.128  1.00  0.00    -0.293 N 
ATOM     11  C   UNL A   1      31.794  25.772  25.333  1.00  0.00     0.266 C 
ATOM     12  C   UNL A   1      32.221  23.980  23.886  1.00  0.00     0.148 C 
ATOM     13  O   UNL A   1      31.211  26.372  26.226  1.00  0.00    -0.268 OA
ATOM     14  C   UNL A   1      32.535  26.481  24.245  1.00  0.00     0.081 C 
ATOM     15  S   UNL A   1      32.800  25.361  22.955  1.00  0.00    -0.054 SA
ATOM     16  S   UNL A   1      32.227  22.449  23.224  1.00  0.00    -0.052 S 
ATOM     17  C   UNL A   1      33.037  27.730  24.200  1.00  0.00     0.029 C 
BRANCH  17  18
ATOM     18  C   UNL A   1      33.150  28.723  25.285  1.00  0.00    -0.020 A 
ATOM     19  C   UNL A   1      34.237  28.622  26.174  1.00  0.00     0.012 A 
ATOM     20  C   UNL A   1      32.295  29.815  25.420  1.00  0.00     0.058 A 
ATOM     21  C   UNL A   1      34.410  29.488  27.253  1.00  0.00     0.051 A 
ATOM     22  C   UNL A   1      32.507  30.720  26.463  1.00  0.00     0.157 A 
ATOM     23  C   UNL A   1      33.522  30.532  27.401  1.00  0.00     0.157 A 
BRANCH  22  24
ATOM     24  O   UNL A   1      31.713  31.829  26.562  1.00  0.00    -0.504 OA
ATOM     25  H   UNL A   1      31.153  31.939  27.303  1.00  0.00     0.293 HD
ENDBRANCH  22  24
BRANCH  23  26
ATOM     26  O   UNL A   1      33.619  31.408  28.445  1.00  0.00    -0.504 OA
ATOM     27  H   UNL A   1      33.024  31.345  29.166  1.00  0.00     0.293 HD
ENDBRANCH  23  26
ENDBRANCH  17  18
ENDBRANCH   9  10
ENDBRANCH   8   9
ENDBRANCH   7   8
ENDBRANCH   5   7
ENDBRANCH   4   5
ENDBRANCH   3   4
ENDBRANCH   2   3
ENDBRANCH   1   2
BRANCH   1  28
ATOM     28  C   UNL A   1      37.696  20.878  25.252  1.00  0.00     0.188 C 
BRANCH  28  29
ATOM     29  C   UNL A   1      39.158  20.737  25.678  1.00  0.00     0.188 C 
BRANCH  29  30
ATOM     30  O   UNL A   1      39.817  21.951  26.024  1.00  0.00    -0.376 OA
BRANCH  30  31
ATOM     31  C   UNL A   1      41.213  21.871  26.312  1.00  0.00     0.202 C 
BRANCH  31  32
ATOM     32  C   UNL A   1      41.740  23.265  26.662  1.00  0.00     0.261 C 
BRANCH  32  33
ATOM     33  O   UNL A   1      40.716  24.214  26.346  1.00  0.00    -0.460 OA
BRANCH  33  34
ATOM     34  C   UNL A   1      41.220  25.411  25.970  1.00  0.00     0.338 C 
ATOM     35  O   UNL A   1      41.907  25.642  24.987  1.00  0.00    -0.246 OA
BRANCH  34  36
ATOM     36  C   UNL A   1      40.585  26.457  26.795  1.00  0.00     0.060 A 
ATOM     37  C   UNL A   1      40.959  27.786  26.564  1.00  0.00     0.016 A 
ATOM     38  C   UNL A   1      39.649  26.138  27.787  1.00  0.00     0.016 A 
ATOM     39  C   UNL A   1      40.503  28.786  27.404  1.00  0.00     0.010 A 
ATOM     40  C   UNL A   1      39.207  27.134  28.648  1.00  0.00     0.010 A 
ATOM     41  C   UNL A   1      39.715  28.434  28.504  1.00  0.00    -0.014 A 
BRANCH  41  42
ATOM     42  C   UNL A   1      39.759  29.319  29.677  1.00  0.00     0.031 A 
ATOM     43  C   UNL A   1      38.720  30.406  29.754  1.00  0.00     0.074 A 
ATOM     44  C   UNL A   1      40.639  29.102  30.663  1.00  0.00     0.049 A 
ATOM     45  N   UNL A   1      38.513  31.293  30.689  1.00  0.00    -0.248 NA
ATOM     46  C   UNL A   1      37.781  30.503  28.618  1.00  0.00     0.031 C 
ATOM     47  C   UNL A   1      41.630  28.028  30.692  1.00  0.00     0.029 A 
ATOM     48  N   UNL A   1      40.825  29.776  31.836  1.00  0.00    -0.354 N 
ATOM     49  C   UNL A   1      37.436  32.055  30.247  1.00  0.00     0.074 A 
ATOM     50  C   UNL A   1      37.051  31.552  28.952  1.00  0.00     0.031 C 
ATOM     51  C   UNL A   1      42.325  28.115  31.839  1.00  0.00     0.029 A 
ATOM     52  C   UNL A   1      41.842  29.266  32.598  1.00  0.00     0.049 A 
ATOM     53  H   UNL A   1      40.282  30.551  32.106  1.00  0.00     0.167 HD
ATOM     54  C   UNL A   1      36.822  33.083  30.874  1.00  0.00     0.031 A 
ATOM     55  C   UNL A   1      42.325  29.700  33.775  1.00  0.00     0.031 A 
ATOM     56  C   UNL A   1      37.238  33.578  32.157  1.00  0.00     0.049 A 
ATOM     57  C   UNL A   1      41.670  30.892  34.419  1.00  0.00     0.074 A 
ATOM     58  C   UNL A   1      36.702  34.611  32.902  1.00  0.00     0.029 A 
ATOM     59  N   UNL A   1      38.308  33.067  32.881  1.00  0.00    -0.354 N 
ATOM     60  N   UNL A   1      40.645  31.601  34.007  1.00  0.00    -0.248 NA
ATOM     61  C   UNL A   1      42.228  31.331  35.703  1.00  0.00     0.031 C 
ATOM     62  C   UNL A   1      37.490  34.768  34.046  1.00  0.00     0.029 A 
ATOM     63  C   UNL A   1      38.465  33.782  34.053  1.00  0.00     0.049 A 
ATOM     64  H   UNL A   1      38.870  32.309  32.599  1.00  0.00     0.167 HD
ATOM     65  C   UNL A   1      40.406  32.542  35.000  1.00  0.00     0.074 A 
ATOM     66  C   UNL A   1      41.391  32.301  36.038  1.00  0.00     0.031 C 
ATOM     67  C   UNL A   1      39.460  33.511  35.060  1.00  0.00     0.031 A 
BRANCH  54  68
ATOM     68  C   UNL A   1      35.691  33.762  30.151  1.00  0.00    -0.014 A 
ATOM     69  C   UNL A   1      35.827  34.227  28.833  1.00  0.00     0.009 A 
ATOM     70  C   UNL A   1      34.463  33.942  30.807  1.00  0.00     0.009 A 
ATOM     71  C   UNL A   1      34.771  34.890  28.202  1.00  0.00     0.001 A 
ATOM     72  C   UNL A   1      33.399  34.576  30.164  1.00  0.00     0.001 A 
ATOM     73  C   UNL A   1      33.557  35.059  28.866  1.00  0.00     0.000 A 
ENDBRANCH  54  68
BRANCH  55  74
ATOM     74  C   UNL A   1      43.472  29.005  34.412  1.00  0.00    -0.014 A 
ATOM     75  C   UNL A   1      44.761  29.101  33.869  1.00  0.00     0.009 A 
ATOM     76  C   UNL A   1      43.281  28.235  35.572  1.00  0.00     0.009 A 
ATOM     77  C   UNL A   1      45.829  28.417  34.456  1.00  0.00     0.001 A 
ATOM     78  C   UNL A   1      44.355  27.580  36.175  1.00  0.00     0.001 A 
ATOM     79  C   UNL A   1      45.626  27.662  35.609  1.00  0.00     0.000 A 
ENDBRANCH  55  74
BRANCH  67  80
ATOM     80  C   UNL A   1      39.411  34.336  36.317  1.00  0.00    -0.014 A 
ATOM     81  C   UNL A   1      39.971  35.621  36.379  1.00  0.00     0.009 A 
ATOM     82  C   UNL A   1      38.768  33.816  37.452  1.00  0.00     0.009 A 
ATOM     83  C   UNL A   1      39.936  36.347  37.571  1.00  0.00     0.001 A 
ATOM     84  C   UNL A   1      38.699  34.560  38.629  1.00  0.00     0.001 A 
ATOM     85  C   UNL A   1      39.296  35.817  38.692  1.00  0.00     0.000 A 
ENDBRANCH  67  80
ENDBRANCH  41  42
ENDBRANCH  34  36
ENDBRANCH  33  34
ENDBRANCH  32  33
ENDBRANCH  31  32
ENDBRANCH  30  31
ENDBRANCH  29  30
ENDBRANCH  28  29
ENDBRANCH   1  28
TORSDOF 23
ENDMDL
MODEL 3
REMARK VINA RESULT:      -9.6      3.291      4.108
REMARK SMILES O=C(CCCN1C(=O)/C(=C\c2ccc(O)c(O)c2)SC1=S)OCCOCCOCCOC(=O)c1ccc(-c2c3nc(c(-c4ccccc4)c4ccc([nH]4)c(-c4ccccc4)c4nc(c(-c5ccccc5)c5ccc2[nH]5)C=C4)C=C3)cc1
REMARK SMILES IDX 25 1 24 2 23 3 22 4 2 5 1 6 3 7 4 8 5 9 6 10 7 11 20 12 8 13
REMARK SMILES IDX 9 14 19 15 21 16 10 17 11 18 12 19 18 20 13 21 16 22 14 23
REMARK SMILES IDX 17 24 15 26 26 28 27 29 28 30 29 31 30 32 31 33 32 34 33 35
REMARK SMILES IDX 34 36 35 37 81 38 36 39 80 40 37 41 38 42 39 43 74 44 40 45
REMARK SMILES IDX 79 46 73 47 75 48 41 49 78 50 72 51 71 52 42 54 64 55 49 56
REMARK SMILES IDX 63 57 50 58 53 59 62 60 76 61 51 62 52 63 61 65 77 66 54 67
REMARK SMILES IDX 43 68 44 69 48 70 45 71 47 72 46 73 65 74 66 75 70 76 67 77
REMARK SMILES IDX 69 78 68 79 55 80 56 81 60 82 57 83 59 84 58 85
REMARK H PARENT 17 25 15 27 75 53 53 64
REMARK Flexibility Score: inf
ROOT
ATOM      1  O   UNL A   1      32.148  33.260  27.528  1.00  0.00    -0.376 OA
ENDROOT
BRANCH   1   2
ATOM      2  C   UNL A   1      32.898  32.086  27.261  1.00  0.00     0.202 C 
BRANCH   2   3
ATOM      3  C   UNL A   1      32.043  30.945  26.734  1.00  0.00     0.261 C 
BRANCH   3   4
ATOM      4  O   UNL A   1      32.336  29.636  27.240  1.00  0.00    -0.463 OA
BRANCH   4   5
ATOM      5  C   UNL A   1      33.365  28.859  26.871  1.00  0.00     0.305 C 
ATOM      6  O   UNL A   1      34.496  29.357  26.870  1.00  0.00    -0.252 OA
BRANCH   5   7
ATOM      7  C   UNL A   1      33.193  27.402  26.457  1.00  0.00     0.124 C 
BRANCH   7   8
ATOM      8  C   UNL A   1      33.752  26.810  25.169  1.00  0.00     0.034 C 
BRANCH   8   9
ATOM      9  C   UNL A   1      33.131  27.032  23.769  1.00  0.00     0.128 C 
BRANCH   9  10
ATOM     10  N   UNL A   1      31.689  26.831  23.501  1.00  0.00    -0.293 N 
ATOM     11  C   UNL A   1      30.827  27.933  23.569  1.00  0.00     0.266 C 
ATOM     12  C   UNL A   1      31.057  25.602  23.521  1.00  0.00     0.148 C 
ATOM     13  O   UNL A   1      31.156  29.082  23.829  1.00  0.00    -0.268 OA
ATOM     14  C   UNL A   1      29.397  27.529  23.401  1.00  0.00     0.081 C 
ATOM     15  S   UNL A   1      29.305  25.807  23.522  1.00  0.00    -0.054 SA
ATOM     16  S   UNL A   1      31.732  24.078  23.586  1.00  0.00    -0.052 S 
ATOM     17  C   UNL A   1      28.309  28.268  23.112  1.00  0.00     0.029 C 
BRANCH  17  18
ATOM     18  C   UNL A   1      28.231  29.685  22.708  1.00  0.00    -0.020 A 
ATOM     19  C   UNL A   1      28.084  30.660  23.712  1.00  0.00     0.012 A 
ATOM     20  C   UNL A   1      28.395  30.119  21.395  1.00  0.00     0.058 A 
ATOM     21  C   UNL A   1      27.963  32.020  23.429  1.00  0.00     0.051 A 
ATOM     22  C   UNL A   1      28.339  31.488  21.119  1.00  0.00     0.157 A 
ATOM     23  C   UNL A   1      28.075  32.426  22.116  1.00  0.00     0.157 A 
BRANCH  22  24
ATOM     24  O   UNL A   1      28.565  31.926  19.843  1.00  0.00    -0.504 OA
ATOM     25  H   UNL A   1      28.486  31.332  19.123  1.00  0.00     0.293 HD
ENDBRANCH  22  24
BRANCH  23  26
ATOM     26  O   UNL A   1      27.947  33.739  21.763  1.00  0.00    -0.504 OA
ATOM     27  H   UNL A   1      27.270  34.002  21.171  1.00  0.00     0.293 HD
ENDBRANCH  23  26
ENDBRANCH  17  18
ENDBRANCH   9  10
ENDBRANCH   8   9
ENDBRANCH   7   8
ENDBRANCH   5   7
ENDBRANCH   4   5
ENDBRANCH   3   4
ENDBRANCH   2   3
ENDBRANCH   1   2
BRANCH   1  28
ATOM     28  C   UNL A   1      32.948  34.429  27.753  1.00  0.00     0.188 C 
BRANCH  28  29
ATOM     29  C   UNL A   1      33.538  34.483  29.162  1.00  0.00     0.188 C 
BRANCH  29  30
ATOM     30  O   UNL A   1      32.637  34.883  30.190  1.00  0.00    -0.376 OA
BRANCH  30  31
ATOM     31  C   UNL A   1      32.800  36.199  30.718  1.00  0.00     0.202 C 
BRANCH  31  32
ATOM     32  C   UNL A   1      32.889  36.127  32.244  1.00  0.00     0.261 C 
BRANCH  32  33
ATOM     33  O   UNL A   1      33.391  34.834  32.593  1.00  0.00    -0.460 OA
BRANCH  33  34
ATOM     34  C   UNL A   1      34.572  34.897  33.249  1.00  0.00     0.338 C 
ATOM     35  O   UNL A   1      34.808  35.514  34.277  1.00  0.00    -0.246 OA
BRANCH  34  36
ATOM     36  C   UNL A   1      35.474  33.882  32.672  1.00  0.00     0.060 A 
ATOM     37  C   UNL A   1      35.487  32.612  33.262  1.00  0.00     0.016 A 
ATOM     38  C   UNL A   1      36.301  34.174  31.581  1.00  0.00     0.016 A 
ATOM     39  C   UNL A   1      36.416  31.672  32.852  1.00  0.00     0.010 A 
ATOM     40  C   UNL A   1      37.252  33.243  31.182  1.00  0.00     0.010 A 
ATOM     41  C   UNL A   1      37.360  32.035  31.887  1.00  0.00    -0.014 A 
BRANCH  41  42
ATOM     42  C   UNL A   1      38.652  31.332  31.909  1.00  0.00     0.031 A 
ATOM     43  C   UNL A   1      39.647  31.760  32.953  1.00  0.00     0.074 A 
ATOM     44  C   UNL A   1      38.882  30.304  31.082  1.00  0.00     0.049 A 
ATOM     45  N   UNL A   1      40.836  31.286  33.212  1.00  0.00    -0.248 NA
ATOM     46  C   UNL A   1      39.245  32.878  33.830  1.00  0.00     0.031 C 
ATOM     47  C   UNL A   1      37.939  29.787  30.091  1.00  0.00     0.029 A 
ATOM     48  N   UNL A   1      39.984  29.507  30.961  1.00  0.00    -0.354 N 
ATOM     49  C   UNL A   1      41.321  32.054  34.266  1.00  0.00     0.074 A 
ATOM     50  C   UNL A   1      40.320  33.043  34.580  1.00  0.00     0.031 C 
ATOM     51  C   UNL A   1      38.509  28.746  29.459  1.00  0.00     0.029 A 
ATOM     52  C   UNL A   1      39.858  28.554  29.984  1.00  0.00     0.049 A 
ATOM     53  H   UNL A   1      40.788  29.607  31.520  1.00  0.00     0.167 HD
ATOM     54  C   UNL A   1      42.501  31.938  34.915  1.00  0.00     0.031 A 
ATOM     55  C   UNL A   1      40.750  27.640  29.566  1.00  0.00     0.031 A 
ATOM     56  C   UNL A   1      43.491  30.955  34.569  1.00  0.00     0.049 A 
ATOM     57  C   UNL A   1      42.086  27.578  30.258  1.00  0.00     0.074 A 
ATOM     58  C   UNL A   1      44.726  30.731  35.147  1.00  0.00     0.029 A 
ATOM     59  N   UNL A   1      43.350  30.036  33.539  1.00  0.00    -0.354 N 
ATOM     60  N   UNL A   1      42.536  28.295  31.262  1.00  0.00    -0.248 NA
ATOM     61  C   UNL A   1      43.029  26.565  29.770  1.00  0.00     0.031 C 
ATOM     62  C   UNL A   1      45.360  29.717  34.422  1.00  0.00     0.029 A 
ATOM     63  C   UNL A   1      44.489  29.257  33.446  1.00  0.00     0.049 A 
ATOM     64  H   UNL A   1      42.558  29.952  32.960  1.00  0.00     0.167 HD
ATOM     65  C   UNL A   1      43.797  27.791  31.555  1.00  0.00     0.074 A 
ATOM     66  C   UNL A   1      44.030  26.701  30.627  1.00  0.00     0.031 C 
ATOM     67  C   UNL A   1      44.682  28.182  32.506  1.00  0.00     0.031 A 
BRANCH  54  68
ATOM     68  C   UNL A   1      42.794  32.930  36.007  1.00  0.00    -0.014 A 
ATOM     69  C   UNL A   1      43.419  34.160  35.744  1.00  0.00     0.009 A 
ATOM     70  C   UNL A   1      42.437  32.623  37.330  1.00  0.00     0.009 A 
ATOM     71  C   UNL A   1      43.714  35.043  36.786  1.00  0.00     0.001 A 
ATOM     72  C   UNL A   1      42.704  33.521  38.365  1.00  0.00     0.001 A 
ATOM     73  C   UNL A   1      43.352  34.725  38.094  1.00  0.00     0.000 A 
ENDBRANCH  54  68
BRANCH  55  74
ATOM     74  C   UNL A   1      40.408  26.719  28.454  1.00  0.00    -0.014 A 
ATOM     75  C   UNL A   1      39.600  25.594  28.676  1.00  0.00     0.009 A 
ATOM     76  C   UNL A   1      40.892  26.959  27.158  1.00  0.00     0.009 A 
ATOM     77  C   UNL A   1      39.309  24.714  27.631  1.00  0.00     0.001 A 
ATOM     78  C   UNL A   1      40.573  26.097  26.108  1.00  0.00     0.001 A 
ATOM     79  C   UNL A   1      39.791  24.968  26.349  1.00  0.00     0.000 A 
ENDBRANCH  55  74
BRANCH  67  80
ATOM     80  C   UNL A   1      45.949  27.382  32.624  1.00  0.00    -0.014 A 
ATOM     81  C   UNL A   1      47.115  27.740  31.929  1.00  0.00     0.009 A 
ATOM     82  C   UNL A   1      45.976  26.262  33.469  1.00  0.00     0.009 A 
ATOM     83  C   UNL A   1      48.266  26.957  32.037  1.00  0.00     0.001 A 
ATOM     84  C   UNL A   1      47.138  25.505  33.606  1.00  0.00     0.001 A 
ATOM     85  C   UNL A   1      48.277  25.844  32.878  1.00  0.00     0.000 A 
ENDBRANCH  67  80
ENDBRANCH  41  42
ENDBRANCH  34  36
ENDBRANCH  33  34
ENDBRANCH  32  33
ENDBRANCH  31  32
ENDBRANCH  30  31
ENDBRANCH  29  30
ENDBRANCH  28  29
ENDBRANCH   1  28
TORSDOF 23
ENDMDL
