MODEL 1
REMARK VINA RESULT:      -8.4      0.000      0.000
REMARK SMILES COc1cccc([C@@H]2CC(c3cccc(C)c3)=NN2C(=O)CCC(=O)OCCOCCOCCOC(=O)c2ccc(-c3c4nc(c(-c5ccccc5)c5ccc([nH]5)c(-c5ccccc5)c5nc(c(-c6ccccc6)c6ccc3[nH]6)C=C5)C=C4)cc2)c1
REMARK SMILES IDX 29 1 28 2 27 3 26 4 24 5 25 6 23 7 22 8 20 9 21 10 19 11
REMARK SMILES IDX 8 12 9 13 10 14 18 15 7 16 3 17 4 18 86 19 5 20 6 21 2 22
REMARK SMILES IDX 1 23 11 24 12 25 17 26 13 27 15 28 14 29 16 30 30 31 31 32
REMARK SMILES IDX 32 33 33 34 34 35 35 36 36 37 37 38 38 39 39 40 85 41 40 42
REMARK SMILES IDX 84 43 41 44 42 45 43 46 78 47 44 48 83 49 77 50 79 51 45 52
REMARK SMILES IDX 82 53 76 54 75 55 46 57 68 58 53 59 67 60 54 61 57 62 66 63
REMARK SMILES IDX 80 64 55 65 56 66 65 68 81 69 58 70 47 71 48 72 52 73 49 74
REMARK SMILES IDX 51 75 50 76 69 77 70 78 74 79 71 80 73 81 72 82 59 83 60 84
REMARK SMILES IDX 64 85 61 86 63 87 62 88
REMARK H PARENT 79 56 57 67
REMARK Flexibility Score: inf
ROOT
ATOM      1  O   UNL A   1      45.168  24.812  30.936  1.00  0.00    -0.376 OA
ENDROOT
BRANCH   1   2
ATOM      2  C   UNL A   1      45.525  26.153  31.367  1.00  0.00     0.202 C 
BRANCH   2   3
ATOM      3  C   UNL A   1      44.595  27.056  32.231  1.00  0.00     0.261 C 
BRANCH   3   4
ATOM      4  O   UNL A   1      44.211  26.429  33.438  1.00  0.00    -0.463 OA
BRANCH   4   5
ATOM      5  C   UNL A   1      43.242  27.077  34.114  1.00  0.00     0.306 C 
ATOM      6  O   UNL A   1      43.143  27.120  35.331  1.00  0.00    -0.252 OA
BRANCH   5   7
ATOM      7  C   UNL A   1      42.333  27.777  33.156  1.00  0.00     0.132 C 
BRANCH   7   8
ATOM      8  C   UNL A   1      41.803  29.132  33.631  1.00  0.00     0.114 C 
BRANCH   8   9
ATOM      9  C   UNL A   1      42.303  30.422  32.948  1.00  0.00     0.243 C 
ATOM     10  O   UNL A   1      43.522  30.308  32.674  1.00  0.00    -0.273 OA
BRANCH   9  11
ATOM     11  N   UNL A   1      41.615  31.601  32.565  1.00  0.00    -0.225 N 
ATOM     12  C   UNL A   1      41.746  33.178  32.037  1.00  0.00     0.147 C 
ATOM     13  C   UNL A   1      40.507  33.285  31.119  1.00  0.00     0.091 C 
ATOM     14  C   UNL A   1      39.698  32.134  31.619  1.00  0.00     0.071 C 
ATOM     15  N   UNL A   1      40.279  31.259  32.355  1.00  0.00    -0.174 NA
BRANCH  12  16
ATOM     16  C   UNL A   1      42.189  34.742  32.865  1.00  0.00    -0.019 A 
ATOM     17  C   UNL A   1      42.457  35.520  35.808  1.00  0.00     0.119 A 
ATOM     18  C   UNL A   1      43.753  36.660  35.475  1.00  0.00     0.046 A 
ATOM     19  C   UNL A   1      41.694  34.553  34.568  1.00  0.00     0.052 A 
ATOM     20  C   UNL A   1      44.305  36.968  33.822  1.00  0.00     0.004 A 
ATOM     21  C   UNL A   1      43.475  36.087  32.467  1.00  0.00     0.006 A 
BRANCH  17  22
ATOM     22  O   UNL A   1      41.765  35.717  36.996  1.00  0.00    -0.497 OA
ATOM     23  C   UNL A   1      40.504  36.371  36.765  1.00  0.00     0.278 C 
ENDBRANCH  17  22
ENDBRANCH  12  16
BRANCH  14  24
ATOM     24  C   UNL A   1      38.317  31.913  31.207  1.00  0.00    -0.002 A 
ATOM     25  C   UNL A   1      37.489  31.108  31.988  1.00  0.00     0.010 A 
ATOM     26  C   UNL A   1      37.930  32.347  29.941  1.00  0.00     0.013 A 
ATOM     27  C   UNL A   1      36.220  30.786  31.517  1.00  0.00     0.001 A 
ATOM     28  C   UNL A   1      36.668  32.003  29.454  1.00  0.00    -0.050 A 
ATOM     29  C   UNL A   1      35.810  31.238  30.258  1.00  0.00     0.003 A 
ATOM     30  C   UNL A   1      36.253  32.406  28.072  1.00  0.00     0.044 C 
ENDBRANCH  14  24
ENDBRANCH   9  11
ENDBRANCH   8   9
ENDBRANCH   7   8
ENDBRANCH   5   7
ENDBRANCH   4   5
ENDBRANCH   3   4
ENDBRANCH   2   3
ENDBRANCH   1   2
BRANCH   1  31
ATOM     31  C   UNL A   1      44.527  24.374  29.707  1.00  0.00     0.188 C 
BRANCH  31  32
ATOM     32  C   UNL A   1      43.453  22.903  29.419  1.00  0.00     0.188 C 
BRANCH  32  33
ATOM     33  O   UNL A   1      41.981  22.699  28.636  1.00  0.00    -0.376 OA
BRANCH  33  34
ATOM     34  C   UNL A   1      41.577  22.358  27.030  1.00  0.00     0.202 C 
BRANCH  34  35
ATOM     35  C   UNL A   1      41.418  20.579  26.344  1.00  0.00     0.261 C 
BRANCH  35  36
ATOM     36  O   UNL A   1      42.995  19.893  25.278  1.00  0.00    -0.460 OA
BRANCH  36  37
ATOM     37  C   UNL A   1      44.357  20.154  24.782  1.00  0.00     0.338 C 
ATOM     38  O   UNL A   1      45.152  19.343  24.278  1.00  0.00    -0.246 OA
BRANCH  37  39
ATOM     39  C   UNL A   1      44.955  21.468  24.843  1.00  0.00     0.060 A 
ATOM     40  C   UNL A   1      45.551  21.781  26.080  1.00  0.00     0.016 A 
ATOM     41  C   UNL A   1      44.484  22.471  24.004  1.00  0.00     0.016 A 
ATOM     42  C   UNL A   1      45.747  23.085  26.457  1.00  0.00     0.010 A 
ATOM     43  C   UNL A   1      44.698  23.792  24.367  1.00  0.00     0.010 A 
ATOM     44  C   UNL A   1      45.315  24.087  25.594  1.00  0.00    -0.014 A 
BRANCH  44  45
ATOM     45  C   UNL A   1      45.435  25.473  26.038  1.00  0.00     0.031 A 
ATOM     46  C   UNL A   1      46.762  26.147  25.945  1.00  0.00     0.074 A 
ATOM     47  C   UNL A   1      44.327  26.062  26.513  1.00  0.00     0.049 A 
ATOM     48  N   UNL A   1      47.127  27.299  26.431  1.00  0.00    -0.248 NA
ATOM     49  C   UNL A   1      47.826  25.419  25.230  1.00  0.00     0.031 C 
ATOM     50  C   UNL A   1      42.995  25.448  26.558  1.00  0.00     0.029 A 
ATOM     51  N   UNL A   1      44.150  27.297  27.055  1.00  0.00    -0.354 N 
ATOM     52  C   UNL A   1      48.474  27.419  26.118  1.00  0.00     0.074 A 
ATOM     53  C   UNL A   1      48.868  26.216  25.421  1.00  0.00     0.031 C 
ATOM     54  C   UNL A   1      42.135  26.315  27.115  1.00  0.00     0.029 A 
ATOM     55  C   UNL A   1      42.871  27.508  27.504  1.00  0.00     0.049 A 
ATOM     56  H   UNL A   1      44.865  27.971  27.119  1.00  0.00     0.167 HD
ATOM     57  C   UNL A   1      49.292  28.460  26.394  1.00  0.00     0.031 A 
ATOM     58  C   UNL A   1      42.377  28.552  28.186  1.00  0.00     0.031 A 
ATOM     59  C   UNL A   1      48.841  29.638  27.083  1.00  0.00     0.049 A 
ATOM     60  C   UNL A   1      43.320  29.673  28.508  1.00  0.00     0.074 A 
ATOM     61  C   UNL A   1      49.554  30.769  27.431  1.00  0.00     0.029 A 
ATOM     62  N   UNL A   1      47.534  29.831  27.519  1.00  0.00    -0.354 N 
ATOM     63  N   UNL A   1      44.598  29.783  28.228  1.00  0.00    -0.248 NA
ATOM     64  C   UNL A   1      42.755  30.817  29.228  1.00  0.00     0.031 C 
ATOM     65  C   UNL A   1      48.684  31.634  28.104  1.00  0.00     0.029 A 
ATOM     66  C   UNL A   1      47.418  31.065  28.130  1.00  0.00     0.049 A 
ATOM     67  H   UNL A   1      46.801  29.185  27.406  1.00  0.00     0.167 HD
ATOM     68  C   UNL A   1      44.984  31.026  28.703  1.00  0.00     0.074 A 
ATOM     69  C   UNL A   1      43.798  31.634  29.278  1.00  0.00     0.031 C 
ATOM     70  C   UNL A   1      46.203  31.619  28.672  1.00  0.00     0.031 A 
BRANCH  57  71
ATOM     71  C   UNL A   1      50.730  28.345  25.972  1.00  0.00    -0.014 A 
ATOM     72  C   UNL A   1      51.109  28.475  24.626  1.00  0.00     0.009 A 
ATOM     73  C   UNL A   1      51.724  28.107  26.933  1.00  0.00     0.009 A 
ATOM     74  C   UNL A   1      52.446  28.333  24.247  1.00  0.00     0.001 A 
ATOM     75  C   UNL A   1      53.066  27.994  26.556  1.00  0.00     0.001 A 
ATOM     76  C   UNL A   1      53.423  28.098  25.213  1.00  0.00     0.000 A 
ENDBRANCH  57  71
BRANCH  58  77
ATOM     77  C   UNL A   1      40.950  28.574  28.591  1.00  0.00    -0.014 A 
ATOM     78  C   UNL A   1      39.975  29.068  27.714  1.00  0.00     0.009 A 
ATOM     79  C   UNL A   1      40.551  28.089  29.846  1.00  0.00     0.009 A 
ATOM     80  C   UNL A   1      38.634  29.112  28.099  1.00  0.00     0.001 A 
ATOM     81  C   UNL A   1      39.205  28.105  30.218  1.00  0.00     0.001 A 
ATOM     82  C   UNL A   1      38.249  28.629  29.349  1.00  0.00     0.000 A 
ENDBRANCH  58  77
BRANCH  70  83
ATOM     83  C   UNL A   1      46.279  33.011  29.225  1.00  0.00    -0.014 A 
ATOM     84  C   UNL A   1      46.045  34.130  28.414  1.00  0.00     0.009 A 
ATOM     85  C   UNL A   1      46.549  33.192  30.590  1.00  0.00     0.009 A 
ATOM     86  C   UNL A   1      46.116  35.413  28.957  1.00  0.00     0.001 A 
ATOM     87  C   UNL A   1      46.586  34.473  31.135  1.00  0.00     0.001 A 
ATOM     88  C   UNL A   1      46.379  35.583  30.316  1.00  0.00     0.000 A 
ENDBRANCH  70  83
ENDBRANCH  44  45
ENDBRANCH  37  39
ENDBRANCH  36  37
ENDBRANCH  35  36
ENDBRANCH  34  35
ENDBRANCH  33  34
ENDBRANCH  32  33
ENDBRANCH  31  32
ENDBRANCH   1  31
TORSDOF 23
ENDMDL
MODEL 2
REMARK VINA RESULT:      -8.1      3.855     10.068
REMARK SMILES COc1cccc([C@@H]2CC(c3cccc(C)c3)=NN2C(=O)CCC(=O)OCCOCCOCCOC(=O)c2ccc(-c3c4nc(c(-c5ccccc5)c5ccc([nH]5)c(-c5ccccc5)c5nc(c(-c6ccccc6)c6ccc3[nH]6)C=C5)C=C4)cc2)c1
REMARK SMILES IDX 29 1 28 2 27 3 26 4 24 5 25 6 23 7 22 8 20 9 21 10 19 11
REMARK SMILES IDX 8 12 9 13 10 14 18 15 7 16 3 17 4 18 86 19 5 20 6 21 2 22
REMARK SMILES IDX 1 23 11 24 12 25 17 26 13 27 15 28 14 29 16 30 30 31 31 32
REMARK SMILES IDX 32 33 33 34 34 35 35 36 36 37 37 38 38 39 39 40 85 41 40 42
REMARK SMILES IDX 84 43 41 44 42 45 43 46 78 47 44 48 83 49 77 50 79 51 45 52
REMARK SMILES IDX 82 53 76 54 75 55 46 57 68 58 53 59 67 60 54 61 57 62 66 63
REMARK SMILES IDX 80 64 55 65 56 66 65 68 81 69 58 70 47 71 48 72 52 73 49 74
REMARK SMILES IDX 51 75 50 76 69 77 70 78 74 79 71 80 73 81 72 82 59 83 60 84
REMARK SMILES IDX 64 85 61 86 63 87 62 88
REMARK H PARENT 79 56 57 67
REMARK Flexibility Score: inf
ROOT
ATOM      1  O   UNL A   1      45.145  25.039  29.625  1.00  0.00    -0.376 OA
ENDROOT
BRANCH   1   2
ATOM      2  C   UNL A   1      45.908  24.627  28.459  1.00  0.00     0.202 C 
BRANCH   2   3
ATOM      3  C   UNL A   1      45.595  23.342  27.635  1.00  0.00     0.261 C 
BRANCH   3   4
ATOM      4  O   UNL A   1      46.295  23.309  26.408  1.00  0.00    -0.463 OA
BRANCH   4   5
ATOM      5  C   UNL A   1      45.858  22.368  25.548  1.00  0.00     0.306 C 
ATOM      6  O   UNL A   1      45.940  21.162  25.725  1.00  0.00    -0.252 OA
BRANCH   5   7
ATOM      7  C   UNL A   1      45.214  23.017  24.365  1.00  0.00     0.132 C 
BRANCH   7   8
ATOM      8  C   UNL A   1      43.833  23.624  24.625  1.00  0.00     0.114 C 
BRANCH   8   9
ATOM      9  C   UNL A   1      43.721  25.117  24.997  1.00  0.00     0.243 C 
ATOM     10  O   UNL A   1      42.518  25.472  24.955  1.00  0.00    -0.273 OA
BRANCH   9  11
ATOM     11  N   UNL A   1      44.705  26.053  25.405  1.00  0.00    -0.225 N 
ATOM     12  C   UNL A   1      46.175  26.763  25.060  1.00  0.00     0.147 C 
ATOM     13  C   UNL A   1      45.943  28.194  25.598  1.00  0.00     0.091 C 
ATOM     14  C   UNL A   1      44.784  27.958  26.508  1.00  0.00     0.071 C 
ATOM     15  N   UNL A   1      44.138  26.855  26.395  1.00  0.00    -0.174 NA
BRANCH  12  16
ATOM     16  C   UNL A   1      47.903  26.192  25.197  1.00  0.00    -0.019 A 
ATOM     17  C   UNL A   1      50.503  27.145  23.906  1.00  0.00     0.119 A 
ATOM     18  C   UNL A   1      51.457  26.724  25.322  1.00  0.00     0.046 A 
ATOM     19  C   UNL A   1      48.771  26.924  23.822  1.00  0.00     0.052 A 
ATOM     20  C   UNL A   1      50.719  25.954  26.733  1.00  0.00     0.004 A 
ATOM     21  C   UNL A   1      48.941  25.583  26.671  1.00  0.00     0.006 A 
BRANCH  17  22
ATOM     22  O   UNL A   1      51.203  27.249  22.711  1.00  0.00    -0.497 OA
ATOM     23  C   UNL A   1      51.192  28.600  22.214  1.00  0.00     0.278 C 
ENDBRANCH  17  22
ENDBRANCH  12  16
BRANCH  14  24
ATOM     24  C   UNL A   1      44.296  28.976  27.430  1.00  0.00    -0.002 A 
ATOM     25  C   UNL A   1      43.348  28.631  28.393  1.00  0.00     0.010 A 
ATOM     26  C   UNL A   1      44.640  30.304  27.187  1.00  0.00     0.013 A 
ATOM     27  C   UNL A   1      42.783  29.635  29.174  1.00  0.00     0.001 A 
ATOM     28  C   UNL A   1      44.054  31.315  27.950  1.00  0.00    -0.050 A 
ATOM     29  C   UNL A   1      43.140  30.970  28.957  1.00  0.00     0.003 A 
ATOM     30  C   UNL A   1      44.362  32.754  27.667  1.00  0.00     0.044 C 
ENDBRANCH  14  24
ENDBRANCH   9  11
ENDBRANCH   8   9
ENDBRANCH   7   8
ENDBRANCH   5   7
ENDBRANCH   4   5
ENDBRANCH   3   4
ENDBRANCH   2   3
ENDBRANCH   1   2
BRANCH   1  31
ATOM     31  C   UNL A   1      45.133  24.484  30.968  1.00  0.00     0.188 C 
BRANCH  31  32
ATOM     32  C   UNL A   1      43.871  23.402  31.765  1.00  0.00     0.188 C 
BRANCH  32  33
ATOM     33  O   UNL A   1      43.609  22.935  33.357  1.00  0.00    -0.376 OA
BRANCH  33  34
ATOM     34  C   UNL A   1      43.380  23.814  34.784  1.00  0.00     0.202 C 
BRANCH  34  35
ATOM     35  C   UNL A   1      41.659  24.130  35.557  1.00  0.00     0.261 C 
BRANCH  35  36
ATOM     36  O   UNL A   1      41.182  26.065  35.904  1.00  0.00    -0.460 OA
BRANCH  36  37
ATOM     37  C   UNL A   1      41.576  27.477  35.766  1.00  0.00     0.338 C 
ATOM     38  O   UNL A   1      41.030  28.473  36.271  1.00  0.00    -0.246 OA
BRANCH  37  39
ATOM     39  C   UNL A   1      42.710  27.881  34.967  1.00  0.00     0.060 A 
ATOM     40  C   UNL A   1      42.755  27.302  33.684  1.00  0.00     0.016 A 
ATOM     41  C   UNL A   1      43.872  28.306  35.600  1.00  0.00     0.016 A 
ATOM     42  C   UNL A   1      43.939  27.208  32.996  1.00  0.00     0.010 A 
ATOM     43  C   UNL A   1      45.069  28.236  34.902  1.00  0.00     0.010 A 
ATOM     44  C   UNL A   1      45.093  27.676  33.613  1.00  0.00    -0.014 A 
BRANCH  44  45
ATOM     45  C   UNL A   1      46.365  27.487  32.922  1.00  0.00     0.031 A 
ATOM     46  C   UNL A   1      47.239  26.347  33.321  1.00  0.00     0.074 A 
ATOM     47  C   UNL A   1      46.676  28.367  31.958  1.00  0.00     0.049 A 
ATOM     48  N   UNL A   1      48.466  26.095  32.964  1.00  0.00    -0.248 NA
ATOM     49  C   UNL A   1      46.666  25.372  34.267  1.00  0.00     0.031 C 
ATOM     50  C   UNL A   1      45.811  29.460  31.499  1.00  0.00     0.029 A 
ATOM     51  N   UNL A   1      47.802  28.486  31.204  1.00  0.00    -0.354 N 
ATOM     52  C   UNL A   1      48.829  24.956  33.669  1.00  0.00     0.074 A 
ATOM     53  C   UNL A   1      47.703  24.578  34.492  1.00  0.00     0.031 C 
ATOM     54  C   UNL A   1      46.451  30.149  30.543  1.00  0.00     0.029 A 
ATOM     55  C   UNL A   1      47.777  29.575  30.370  1.00  0.00     0.049 A 
ATOM     56  H   UNL A   1      48.558  27.857  31.252  1.00  0.00     0.167 HD
ATOM     57  C   UNL A   1      50.006  24.295  33.613  1.00  0.00     0.031 A 
ATOM     58  C   UNL A   1      48.749  30.057  29.581  1.00  0.00     0.031 A 
ATOM     59  C   UNL A   1      51.090  24.713  32.766  1.00  0.00     0.049 A 
ATOM     60  C   UNL A   1      50.056  29.321  29.570  1.00  0.00     0.074 A 
ATOM     61  C   UNL A   1      52.338  24.144  32.605  1.00  0.00     0.029 A 
ATOM     62  N   UNL A   1      51.034  25.816  31.920  1.00  0.00    -0.354 N 
ATOM     63  N   UNL A   1      50.407  28.253  30.249  1.00  0.00    -0.248 NA
ATOM     64  C   UNL A   1      51.095  29.846  28.681  1.00  0.00     0.031 C 
ATOM     65  C   UNL A   1      53.048  24.921  31.683  1.00  0.00     0.029 A 
ATOM     66  C   UNL A   1      52.225  25.944  31.232  1.00  0.00     0.049 A 
ATOM     67  H   UNL A   1      50.260  26.416  31.825  1.00  0.00     0.167 HD
ATOM     68  C   UNL A   1      51.697  27.953  29.840  1.00  0.00     0.074 A 
ATOM     69  C   UNL A   1      52.056  28.948  28.847  1.00  0.00     0.031 C 
ATOM     70  C   UNL A   1      52.517  26.950  30.243  1.00  0.00     0.031 A 
BRANCH  57  71
ATOM     71  C   UNL A   1      50.172  23.092  34.498  1.00  0.00    -0.014 A 
ATOM     72  C   UNL A   1      50.693  23.206  35.797  1.00  0.00     0.009 A 
ATOM     73  C   UNL A   1      49.799  21.822  34.030  1.00  0.00     0.009 A 
ATOM     74  C   UNL A   1      50.871  22.073  36.594  1.00  0.00     0.001 A 
ATOM     75  C   UNL A   1      49.950  20.693  34.840  1.00  0.00     0.001 A 
ATOM     76  C   UNL A   1      50.495  20.819  36.117  1.00  0.00     0.000 A 
ENDBRANCH  57  71
BRANCH  58  77
ATOM     77  C   UNL A   1      48.514  31.269  28.759  1.00  0.00    -0.014 A 
ATOM     78  C   UNL A   1      48.002  31.152  27.460  1.00  0.00     0.009 A 
ATOM     79  C   UNL A   1      48.782  32.549  29.271  1.00  0.00     0.009 A 
ATOM     80  C   UNL A   1      47.801  32.289  26.674  1.00  0.00     0.001 A 
ATOM     81  C   UNL A   1      48.552  33.686  28.494  1.00  0.00     0.001 A 
ATOM     82  C   UNL A   1      48.073  33.554  27.192  1.00  0.00     0.000 A 
ENDBRANCH  58  77
BRANCH  70  83
ATOM     83  C   UNL A   1      53.847  26.864  29.556  1.00  0.00    -0.014 A 
ATOM     84  C   UNL A   1      53.972  26.293  28.282  1.00  0.00     0.009 A 
ATOM     85  C   UNL A   1      54.980  27.402  30.186  1.00  0.00     0.009 A 
ATOM     86  C   UNL A   1      55.221  26.232  27.664  1.00  0.00     0.001 A 
ATOM     87  C   UNL A   1      56.219  27.368  29.551  1.00  0.00     0.001 A 
ATOM     88  C   UNL A   1      56.340  26.774  28.295  1.00  0.00     0.000 A 
ENDBRANCH  70  83
ENDBRANCH  44  45
ENDBRANCH  37  39
ENDBRANCH  36  37
ENDBRANCH  35  36
ENDBRANCH  34  35
ENDBRANCH  33  34
ENDBRANCH  32  33
ENDBRANCH  31  32
ENDBRANCH   1  31
TORSDOF 23
ENDMDL
MODEL 3
REMARK VINA RESULT:      -7.8      5.432     12.876
REMARK SMILES COc1cccc([C@@H]2CC(c3cccc(C)c3)=NN2C(=O)CCC(=O)OCCOCCOCCOC(=O)c2ccc(-c3c4nc(c(-c5ccccc5)c5ccc([nH]5)c(-c5ccccc5)c5nc(c(-c6ccccc6)c6ccc3[nH]6)C=C5)C=C4)cc2)c1
REMARK SMILES IDX 29 1 28 2 27 3 26 4 24 5 25 6 23 7 22 8 20 9 21 10 19 11
REMARK SMILES IDX 8 12 9 13 10 14 18 15 7 16 3 17 4 18 86 19 5 20 6 21 2 22
REMARK SMILES IDX 1 23 11 24 12 25 17 26 13 27 15 28 14 29 16 30 30 31 31 32
REMARK SMILES IDX 32 33 33 34 34 35 35 36 36 37 37 38 38 39 39 40 85 41 40 42
REMARK SMILES IDX 84 43 41 44 42 45 43 46 78 47 44 48 83 49 77 50 79 51 45 52
REMARK SMILES IDX 82 53 76 54 75 55 46 57 68 58 53 59 67 60 54 61 57 62 66 63
REMARK SMILES IDX 80 64 55 65 56 66 65 68 81 69 58 70 47 71 48 72 52 73 49 74
REMARK SMILES IDX 51 75 50 76 69 77 70 78 74 79 71 80 73 81 72 82 59 83 60 84
REMARK SMILES IDX 64 85 61 86 63 87 62 88
REMARK H PARENT 79 56 57 67
REMARK Flexibility Score: inf
ROOT
ATOM      1  O   UNL A   1      43.559  22.442  25.744  1.00  0.00    -0.376 OA
ENDROOT
BRANCH   1   2
ATOM      2  C   UNL A   1      42.288  21.821  26.071  1.00  0.00     0.202 C 
BRANCH   2   3
ATOM      3  C   UNL A   1      41.044  22.616  26.571  1.00  0.00     0.261 C 
BRANCH   3   4
ATOM      4  O   UNL A   1      40.008  21.764  27.018  1.00  0.00    -0.463 OA
BRANCH   4   5
ATOM      5  C   UNL A   1      39.002  21.607  26.136  1.00  0.00     0.306 C 
ATOM      6  O   UNL A   1      38.853  20.639  25.406  1.00  0.00    -0.252 OA
BRANCH   5   7
ATOM      7  C   UNL A   1      38.066  22.770  26.217  1.00  0.00     0.132 C 
BRANCH   7   8
ATOM      8  C   UNL A   1      37.655  23.372  24.871  1.00  0.00     0.114 C 
BRANCH   8   9
ATOM      9  C   UNL A   1      36.558  22.680  24.036  1.00  0.00     0.243 C 
ATOM     10  O   UNL A   1      37.031  22.331  22.927  1.00  0.00    -0.273 OA
BRANCH   9  11
ATOM     11  N   UNL A   1      35.213  22.359  24.347  1.00  0.00    -0.225 N 
ATOM     12  C   UNL A   1      33.621  22.854  24.308  1.00  0.00     0.147 C 
ATOM     13  C   UNL A   1      32.899  21.507  24.071  1.00  0.00     0.091 C 
ATOM     14  C   UNL A   1      33.963  20.550  24.497  1.00  0.00     0.071 C 
ATOM     15  N   UNL A   1      35.161  20.993  24.625  1.00  0.00    -0.174 NA
BRANCH  12  16
ATOM     16  C   UNL A   1      32.656  24.045  25.299  1.00  0.00    -0.019 A 
ATOM     17  C   UNL A   1      32.714  27.094  25.499  1.00  0.00     0.119 A 
ATOM     18  C   UNL A   1      30.985  27.189  25.802  1.00  0.00     0.046 A 
ATOM     19  C   UNL A   1      33.553  25.585  25.223  1.00  0.00     0.052 A 
ATOM     20  C   UNL A   1      29.993  25.731  25.941  1.00  0.00     0.004 A 
ATOM     21  C   UNL A   1      30.818  24.119  25.786  1.00  0.00     0.006 A 
BRANCH  17  22
ATOM     22  O   UNL A   1      33.464  28.188  25.908  1.00  0.00    -0.497 OA
ATOM     23  C   UNL A   1      33.160  28.553  27.267  1.00  0.00     0.278 C 
ENDBRANCH  17  22
ENDBRANCH  12  16
BRANCH  14  24
ATOM     24  C   UNL A   1      33.711  19.124  24.657  1.00  0.00    -0.002 A 
ATOM     25  C   UNL A   1      32.422  18.684  24.952  1.00  0.00     0.010 A 
ATOM     26  C   UNL A   1      34.807  18.265  24.712  1.00  0.00     0.013 A 
ATOM     27  C   UNL A   1      32.218  17.339  25.244  1.00  0.00     0.001 A 
ATOM     28  C   UNL A   1      34.609  16.920  25.031  1.00  0.00    -0.050 A 
ATOM     29  C   UNL A   1      33.306  16.460  25.276  1.00  0.00     0.003 A 
ATOM     30  C   UNL A   1      35.777  15.990  25.155  1.00  0.00     0.044 C 
ENDBRANCH  14  24
ENDBRANCH   9  11
ENDBRANCH   8   9
ENDBRANCH   7   8
ENDBRANCH   5   7
ENDBRANCH   4   5
ENDBRANCH   3   4
ENDBRANCH   2   3
ENDBRANCH   1   2
BRANCH   1  31
ATOM     31  C   UNL A   1      44.131  23.690  26.221  1.00  0.00     0.188 C 
BRANCH  31  32
ATOM     32  C   UNL A   1      43.294  25.302  26.544  1.00  0.00     0.188 C 
BRANCH  32  33
ATOM     33  O   UNL A   1      41.996  26.080  25.817  1.00  0.00    -0.376 OA
BRANCH  33  34
ATOM     34  C   UNL A   1      40.869  27.203  26.389  1.00  0.00     0.202 C 
BRANCH  34  35
ATOM     35  C   UNL A   1      41.274  28.504  27.732  1.00  0.00     0.261 C 
BRANCH  35  36
ATOM     36  O   UNL A   1      40.057  28.524  29.348  1.00  0.00    -0.460 OA
BRANCH  36  37
ATOM     37  C   UNL A   1      38.828  29.057  29.961  1.00  0.00     0.338 C 
ATOM     38  O   UNL A   1      37.680  29.058  29.487  1.00  0.00    -0.246 OA
BRANCH  37  39
ATOM     39  C   UNL A   1      38.833  29.683  31.263  1.00  0.00     0.060 A 
ATOM     40  C   UNL A   1      38.170  30.924  31.315  1.00  0.00     0.016 A 
ATOM     41  C   UNL A   1      39.846  29.376  32.164  1.00  0.00     0.016 A 
ATOM     42  C   UNL A   1      38.458  31.835  32.300  1.00  0.00     0.010 A 
ATOM     43  C   UNL A   1      40.127  30.281  33.176  1.00  0.00     0.010 A 
ATOM     44  C   UNL A   1      39.441  31.507  33.228  1.00  0.00    -0.014 A 
BRANCH  44  45
ATOM     45  C   UNL A   1      39.815  32.514  34.216  1.00  0.00     0.031 A 
ATOM     46  C   UNL A   1      40.844  33.530  33.853  1.00  0.00     0.074 A 
ATOM     47  C   UNL A   1      39.204  32.460  35.409  1.00  0.00     0.049 A 
ATOM     48  N   UNL A   1      41.440  34.398  34.621  1.00  0.00    -0.248 NA
ATOM     49  C   UNL A   1      41.278  33.561  32.444  1.00  0.00     0.031 C 
ATOM     50  C   UNL A   1      38.144  31.513  35.775  1.00  0.00     0.029 A 
ATOM     51  N   UNL A   1      39.395  33.206  36.531  1.00  0.00    -0.354 N 
ATOM     52  C   UNL A   1      42.349  35.052  33.800  1.00  0.00     0.074 A 
ATOM     53  C   UNL A   1      42.244  34.468  32.482  1.00  0.00     0.031 C 
ATOM     54  C   UNL A   1      37.785  31.733  37.048  1.00  0.00     0.029 A 
ATOM     55  C   UNL A   1      38.625  32.792  37.587  1.00  0.00     0.049 A 
ATOM     56  H   UNL A   1      40.020  33.964  36.579  1.00  0.00     0.167 HD
ATOM     57  C   UNL A   1      43.187  36.057  34.139  1.00  0.00     0.031 A 
ATOM     58  C   UNL A   1      38.638  33.217  38.860  1.00  0.00     0.031 A 
ATOM     59  C   UNL A   1      43.241  36.606  35.467  1.00  0.00     0.049 A 
ATOM     60  C   UNL A   1      39.605  34.309  39.211  1.00  0.00     0.074 A 
ATOM     61  C   UNL A   1      44.036  37.623  35.956  1.00  0.00     0.029 A 
ATOM     62  N   UNL A   1      42.440  36.175  36.519  1.00  0.00    -0.354 N 
ATOM     63  N   UNL A   1      40.477  34.918  38.441  1.00  0.00    -0.248 NA
ATOM     64  C   UNL A   1      39.584  34.780  40.598  1.00  0.00     0.031 C 
ATOM     65  C   UNL A   1      43.738  37.787  37.313  1.00  0.00     0.029 A 
ATOM     66  C   UNL A   1      42.721  36.907  37.657  1.00  0.00     0.049 A 
ATOM     67  H   UNL A   1      41.772  35.454  36.462  1.00  0.00     0.167 HD
ATOM     68  C   UNL A   1      41.085  35.873  39.240  1.00  0.00     0.074 A 
ATOM     69  C   UNL A   1      40.470  35.766  40.551  1.00  0.00     0.031 C 
ATOM     70  C   UNL A   1      42.061  36.761  38.930  1.00  0.00     0.031 A 
BRANCH  57  71
ATOM     71  C   UNL A   1      44.102  36.589  33.073  1.00  0.00    -0.014 A 
ATOM     72  C   UNL A   1      45.351  35.998  32.821  1.00  0.00     0.009 A 
ATOM     73  C   UNL A   1      43.713  37.697  32.304  1.00  0.00     0.009 A 
ATOM     74  C   UNL A   1      46.205  36.526  31.849  1.00  0.00     0.001 A 
ATOM     75  C   UNL A   1      44.556  38.206  31.312  1.00  0.00     0.001 A 
ATOM     76  C   UNL A   1      45.804  37.625  31.092  1.00  0.00     0.000 A 
ENDBRANCH  57  71
BRANCH  58  77
ATOM     77  C   UNL A   1      37.720  32.619  39.859  1.00  0.00    -0.014 A 
ATOM     78  C   UNL A   1      38.232  31.887  40.939  1.00  0.00     0.009 A 
ATOM     79  C   UNL A   1      36.330  32.787  39.751  1.00  0.00     0.009 A 
ATOM     80  C   UNL A   1      37.370  31.303  41.870  1.00  0.00     0.001 A 
ATOM     81  C   UNL A   1      35.472  32.228  40.699  1.00  0.00     0.001 A 
ATOM     82  C   UNL A   1      35.992  31.475  41.751  1.00  0.00     0.000 A 
ENDBRANCH  58  77
BRANCH  70  83
ATOM     83  C   UNL A   1      42.465  37.711  40.017  1.00  0.00    -0.014 A 
ATOM     84  C   UNL A   1      43.480  37.386  40.928  1.00  0.00     0.009 A 
ATOM     85  C   UNL A   1      41.840  38.965  40.100  1.00  0.00     0.009 A 
ATOM     86  C   UNL A   1      43.840  38.291  41.926  1.00  0.00     0.001 A 
ATOM     87  C   UNL A   1      42.225  39.879  41.078  1.00  0.00     0.001 A 
ATOM     88  C   UNL A   1      43.217  39.537  41.996  1.00  0.00     0.000 A 
ENDBRANCH  70  83
ENDBRANCH  44  45
ENDBRANCH  37  39
ENDBRANCH  36  37
ENDBRANCH  35  36
ENDBRANCH  34  35
ENDBRANCH  33  34
ENDBRANCH  32  33
ENDBRANCH  31  32
ENDBRANCH   1  31
TORSDOF 23
ENDMDL
