MODEL 1
REMARK VINA RESULT:      -9.6      0.000      0.000
REMARK SMILES O=C(OCCOCCOCCOC(=O)[C@@]1([NH2+]C2CC2)CC[C@H](SC2CCCC2)C1)c1ccc(-c2c3nc(c(-c4ccccc4)c4ccc([nH]4)c(-c4ccccc4)c4nc(c(-c5ccccc5)c5ccc2[nH]5)C=C4)C=C3)cc1
REMARK SMILES IDX 7 1 6 2 5 3 4 4 3 5 2 6 1 7 30 8 31 9 77 10 32 11 76 12
REMARK SMILES IDX 33 13 34 14 35 15 70 16 36 17 75 18 69 19 71 20 37 21 74 22
REMARK SMILES IDX 68 23 67 24 38 26 60 27 45 28 59 29 46 30 49 31 58 32 72 33
REMARK SMILES IDX 47 34 48 35 57 37 73 38 50 39 39 40 40 41 44 42 41 43 43 44
REMARK SMILES IDX 42 45 61 46 62 47 66 48 63 49 65 50 64 51 51 52 52 53 56 54
REMARK SMILES IDX 53 55 55 56 54 57 8 58 9 59 10 60 11 61 12 62 13 63 14 64
REMARK SMILES IDX 15 65 20 66 29 67 21 68 22 69 16 70 17 73 18 74 19 75 23 76
REMARK SMILES IDX 24 77 25 78 28 79 26 80 27 81
REMARK H PARENT 71 25 49 36 16 71 16 72
REMARK Flexibility Score: inf
ROOT
ATOM      1  C   UNL A   1      38.549  21.390  25.680  1.00  0.00     0.188 C 
ENDROOT
BRANCH   1   2
ATOM      2  O   UNL A   1      39.515  20.351  25.774  1.00  0.00    -0.376 OA
BRANCH   2   3
ATOM      3  C   UNL A   1      40.633  20.554  26.625  1.00  0.00     0.202 C 
BRANCH   3   4
ATOM      4  C   UNL A   1      42.031  20.782  26.037  1.00  0.00     0.261 C 
BRANCH   4   5
ATOM      5  O   UNL A   1      42.357  22.049  25.436  1.00  0.00    -0.460 OA
BRANCH   5   6
ATOM      6  C   UNL A   1      43.142  23.077  25.806  1.00  0.00     0.338 C 
ATOM      7  O   UNL A   1      44.343  23.023  25.548  1.00  0.00    -0.246 OA
BRANCH   6   8
ATOM      8  C   UNL A   1      42.640  24.265  26.545  1.00  0.00     0.060 A 
ATOM      9  C   UNL A   1      43.251  25.515  26.520  1.00  0.00     0.016 A 
ATOM     10  C   UNL A   1      41.529  24.071  27.393  1.00  0.00     0.016 A 
ATOM     11  C   UNL A   1      42.744  26.561  27.281  1.00  0.00     0.010 A 
ATOM     12  C   UNL A   1      41.054  25.098  28.213  1.00  0.00     0.010 A 
ATOM     13  C   UNL A   1      41.681  26.343  28.169  1.00  0.00    -0.014 A 
BRANCH  13  14
ATOM     14  C   UNL A   1      41.497  27.367  29.218  1.00  0.00     0.031 A 
ATOM     15  C   UNL A   1      40.245  28.186  29.128  1.00  0.00     0.074 A 
ATOM     16  C   UNL A   1      42.302  27.425  30.289  1.00  0.00     0.049 A 
ATOM     17  N   UNL A   1      39.649  28.895  30.046  1.00  0.00    -0.248 NA
ATOM     18  C   UNL A   1      39.557  28.171  27.825  1.00  0.00     0.031 C 
ATOM     19  C   UNL A   1      43.534  26.664  30.451  1.00  0.00     0.029 A 
ATOM     20  N   UNL A   1      42.153  28.085  31.481  1.00  0.00    -0.354 N 
ATOM     21  C   UNL A   1      38.521  29.417  29.429  1.00  0.00     0.074 A 
ATOM     22  C   UNL A   1      38.496  28.921  28.072  1.00  0.00     0.031 C 
ATOM     23  C   UNL A   1      43.965  26.796  31.718  1.00  0.00     0.029 A 
ATOM     24  C   UNL A   1      43.062  27.688  32.438  1.00  0.00     0.049 A 
ATOM     25  H   UNL A   1      41.467  28.773  31.638  1.00  0.00     0.167 HD
ATOM     26  C   UNL A   1      37.610  30.275  29.940  1.00  0.00     0.031 A 
ATOM     27  C   UNL A   1      43.122  27.995  33.748  1.00  0.00     0.031 A 
ATOM     28  C   UNL A   1      37.714  30.838  31.255  1.00  0.00     0.049 A 
ATOM     29  C   UNL A   1      42.104  28.966  34.289  1.00  0.00     0.074 A 
ATOM     30  C   UNL A   1      36.927  31.804  31.851  1.00  0.00     0.029 A 
ATOM     31  N   UNL A   1      38.701  30.497  32.171  1.00  0.00    -0.354 N 
ATOM     32  N   UNL A   1      41.041  29.467  33.703  1.00  0.00    -0.248 NA
ATOM     33  C   UNL A   1      42.313  29.442  35.664  1.00  0.00     0.031 C 
ATOM     34  C   UNL A   1      37.474  32.092  33.106  1.00  0.00     0.029 A 
ATOM     35  C   UNL A   1      38.556  31.249  33.321  1.00  0.00     0.049 A 
ATOM     36  H   UNL A   1      39.400  29.819  32.023  1.00  0.00     0.167 HD
ATOM     37  C   UNL A   1      40.463  30.324  34.629  1.00  0.00     0.074 A 
ATOM     38  C   UNL A   1      41.263  30.233  35.835  1.00  0.00     0.031 C 
ATOM     39  C   UNL A   1      39.383  31.134  34.495  1.00  0.00     0.031 A 
BRANCH  26  40
ATOM     40  C   UNL A   1      36.536  30.745  29.002  1.00  0.00    -0.014 A 
ATOM     41  C   UNL A   1      36.410  32.095  28.637  1.00  0.00     0.009 A 
ATOM     42  C   UNL A   1      35.580  29.825  28.546  1.00  0.00     0.009 A 
ATOM     43  C   UNL A   1      35.322  32.519  27.870  1.00  0.00     0.001 A 
ATOM     44  C   UNL A   1      34.510  30.247  27.757  1.00  0.00     0.001 A 
ATOM     45  C   UNL A   1      34.374  31.596  27.431  1.00  0.00     0.000 A 
ENDBRANCH  26  40
BRANCH  27  46
ATOM     46  C   UNL A   1      44.167  27.407  34.637  1.00  0.00    -0.014 A 
ATOM     47  C   UNL A   1      45.426  28.017  34.770  1.00  0.00     0.009 A 
ATOM     48  C   UNL A   1      43.934  26.208  35.330  1.00  0.00     0.009 A 
ATOM     49  C   UNL A   1      46.431  27.426  35.543  1.00  0.00     0.001 A 
ATOM     50  C   UNL A   1      44.925  25.639  36.135  1.00  0.00     0.001 A 
ATOM     51  C   UNL A   1      46.178  26.241  36.230  1.00  0.00     0.000 A 
ENDBRANCH  27  46
BRANCH  39  52
ATOM     52  C   UNL A   1      39.006  31.970  35.686  1.00  0.00    -0.014 A 
ATOM     53  C   UNL A   1      38.126  31.488  36.667  1.00  0.00     0.009 A 
ATOM     54  C   UNL A   1      39.585  33.238  35.850  1.00  0.00     0.009 A 
ATOM     55  C   UNL A   1      37.802  32.280  37.771  1.00  0.00     0.001 A 
ATOM     56  C   UNL A   1      39.285  34.012  36.970  1.00  0.00     0.001 A 
ATOM     57  C   UNL A   1      38.385  33.537  37.923  1.00  0.00     0.000 A 
ENDBRANCH  39  52
ENDBRANCH  13  14
ENDBRANCH   6   8
ENDBRANCH   5   6
ENDBRANCH   4   5
ENDBRANCH   3   4
ENDBRANCH   2   3
ENDBRANCH   1   2
BRANCH   1  58
ATOM     58  C   UNL A   1      37.430  21.162  24.657  1.00  0.00     0.188 C 
BRANCH  58  59
ATOM     59  O   UNL A   1      36.218  20.580  25.135  1.00  0.00    -0.376 OA
BRANCH  59  60
ATOM     60  C   UNL A   1      35.094  21.434  25.307  1.00  0.00     0.202 C 
BRANCH  60  61
ATOM     61  C   UNL A   1      34.362  21.911  24.053  1.00  0.00     0.261 C 
BRANCH  61  62
ATOM     62  O   UNL A   1      34.788  23.209  23.624  1.00  0.00    -0.459 OA
BRANCH  62  63
ATOM     63  C   UNL A   1      33.824  24.065  23.204  1.00  0.00     0.368 C 
ATOM     64  O   UNL A   1      33.380  24.078  22.054  1.00  0.00    -0.245 OA
BRANCH  63  65
ATOM     65  C   UNL A   1      33.332  25.051  24.282  1.00  0.00     0.195 C 
ATOM     66  C   UNL A   1      34.453  25.279  25.303  1.00  0.00     0.082 C 
ATOM     67  C   UNL A   1      33.214  26.475  23.666  1.00  0.00     0.095 C 
ATOM     68  C   UNL A   1      34.127  26.620  25.932  1.00  0.00     0.022 C 
ATOM     69  C   UNL A   1      33.562  27.474  24.796  1.00  0.00     0.054 C 
BRANCH  65  70
ATOM     70  N   UNL A   1      32.012  24.775  24.874  1.00  0.00    -0.330 N 
ATOM     71  H   UNL A   1      31.344  24.876  24.110  1.00  0.00     0.347 HD
ATOM     72  H   UNL A   1      32.026  25.419  25.664  1.00  0.00     0.347 HD
BRANCH  70  73
ATOM     73  C   UNL A   1      31.644  23.541  25.548  1.00  0.00     0.183 C 
ATOM     74  C   UNL A   1      31.926  23.168  26.971  1.00  0.00     0.071 C 
ATOM     75  C   UNL A   1      30.530  23.505  26.558  1.00  0.00     0.071 C 
ENDBRANCH  70  73
ENDBRANCH  65  70
BRANCH  69  76
ATOM     76  S   UNL A   1      32.096  28.451  25.318  1.00  0.00    -0.155 SA
BRANCH  76  77
ATOM     77  C   UNL A   1      30.805  28.021  24.085  1.00  0.00     0.047 C 
ATOM     78  C   UNL A   1      29.746  27.032  24.562  1.00  0.00     0.014 C 
ATOM     79  C   UNL A   1      29.999  29.168  23.483  1.00  0.00     0.014 C 
ATOM     80  C   UNL A   1      28.675  27.098  23.482  1.00  0.00     0.001 C 
ATOM     81  C   UNL A   1      28.736  28.515  22.917  1.00  0.00     0.001 C 
ENDBRANCH  76  77
ENDBRANCH  69  76
ENDBRANCH  63  65
ENDBRANCH  62  63
ENDBRANCH  61  62
ENDBRANCH  60  61
ENDBRANCH  59  60
ENDBRANCH  58  59
ENDBRANCH   1  58
TORSDOF 21
ENDMDL
MODEL 2
REMARK VINA RESULT:      -9.6      1.758      3.039
REMARK SMILES O=C(OCCOCCOCCOC(=O)[C@@]1([NH2+]C2CC2)CC[C@H](SC2CCCC2)C1)c1ccc(-c2c3nc(c(-c4ccccc4)c4ccc([nH]4)c(-c4ccccc4)c4nc(c(-c5ccccc5)c5ccc2[nH]5)C=C4)C=C3)cc1
REMARK SMILES IDX 7 1 6 2 5 3 4 4 3 5 2 6 1 7 30 8 31 9 77 10 32 11 76 12
REMARK SMILES IDX 33 13 34 14 35 15 70 16 36 17 75 18 69 19 71 20 37 21 74 22
REMARK SMILES IDX 68 23 67 24 38 26 60 27 45 28 59 29 46 30 49 31 58 32 72 33
REMARK SMILES IDX 47 34 48 35 57 37 73 38 50 39 39 40 40 41 44 42 41 43 43 44
REMARK SMILES IDX 42 45 61 46 62 47 66 48 63 49 65 50 64 51 51 52 52 53 56 54
REMARK SMILES IDX 53 55 55 56 54 57 8 58 9 59 10 60 11 61 12 62 13 63 14 64
REMARK SMILES IDX 15 65 20 66 29 67 21 68 22 69 16 70 17 73 18 74 19 75 23 76
REMARK SMILES IDX 24 77 25 78 28 79 26 80 27 81
REMARK H PARENT 71 25 49 36 16 71 16 72
REMARK Flexibility Score: inf
ROOT
ATOM      1  C   UNL A   1      36.673  22.535  25.241  1.00  0.00     0.188 C 
ENDROOT
BRANCH   1   2
ATOM      2  O   UNL A   1      37.755  21.778  24.714  1.00  0.00    -0.376 OA
BRANCH   2   3
ATOM      3  C   UNL A   1      38.572  21.057  25.624  1.00  0.00     0.202 C 
BRANCH   3   4
ATOM      4  C   UNL A   1      39.805  21.714  26.257  1.00  0.00     0.261 C 
BRANCH   4   5
ATOM      5  O   UNL A   1      39.771  23.109  26.609  1.00  0.00    -0.460 OA
BRANCH   5   6
ATOM      6  C   UNL A   1      40.683  24.098  26.575  1.00  0.00     0.338 C 
ATOM      7  O   UNL A   1      41.730  23.911  25.958  1.00  0.00    -0.246 OA
BRANCH   6   8
ATOM      8  C   UNL A   1      40.507  25.398  27.274  1.00  0.00     0.060 A 
ATOM      9  C   UNL A   1      41.299  26.519  27.046  1.00  0.00     0.016 A 
ATOM     10  C   UNL A   1      39.535  25.451  28.295  1.00  0.00     0.016 A 
ATOM     11  C   UNL A   1      41.099  27.682  27.781  1.00  0.00     0.010 A 
ATOM     12  C   UNL A   1      39.373  26.594  29.084  1.00  0.00     0.010 A 
ATOM     13  C   UNL A   1      40.176  27.706  28.836  1.00  0.00    -0.014 A 
BRANCH  13  14
ATOM     14  C   UNL A   1      40.334  28.808  29.805  1.00  0.00     0.031 A 
ATOM     15  C   UNL A   1      39.254  29.848  29.806  1.00  0.00     0.074 A 
ATOM     16  C   UNL A   1      41.281  28.775  30.755  1.00  0.00     0.049 A 
ATOM     17  N   UNL A   1      38.936  30.714  30.728  1.00  0.00    -0.248 NA
ATOM     18  C   UNL A   1      38.397  29.887  28.608  1.00  0.00     0.031 C 
ATOM     19  C   UNL A   1      42.363  27.802  30.824  1.00  0.00     0.029 A 
ATOM     20  N   UNL A   1      41.427  29.524  31.895  1.00  0.00    -0.354 N 
ATOM     21  C   UNL A   1      37.846  31.405  30.217  1.00  0.00     0.074 A 
ATOM     22  C   UNL A   1      37.538  30.841  28.923  1.00  0.00     0.031 C 
ATOM     23  C   UNL A   1      42.987  27.925  32.009  1.00  0.00     0.029 A 
ATOM     24  C   UNL A   1      42.374  29.018  32.758  1.00  0.00     0.049 A 
ATOM     25  H   UNL A   1      40.908  30.340  32.077  1.00  0.00     0.167 HD
ATOM     26  C   UNL A   1      37.191  32.454  30.764  1.00  0.00     0.031 A 
ATOM     27  C   UNL A   1      42.676  29.386  34.018  1.00  0.00     0.031 A 
ATOM     28  C   UNL A   1      37.583  33.066  32.000  1.00  0.00     0.049 A 
ATOM     29  C   UNL A   1      41.942  30.568  34.598  1.00  0.00     0.074 A 
ATOM     30  C   UNL A   1      37.079  34.200  32.606  1.00  0.00     0.029 A 
ATOM     31  N   UNL A   1      38.611  32.596  32.809  1.00  0.00    -0.354 N 
ATOM     32  N   UNL A   1      40.916  31.228  34.112  1.00  0.00    -0.248 NA
ATOM     33  C   UNL A   1      42.428  31.078  35.888  1.00  0.00     0.031 C 
ATOM     34  C   UNL A   1      37.844  34.453  33.750  1.00  0.00     0.029 A 
ATOM     35  C   UNL A   1      38.772  33.431  33.898  1.00  0.00     0.049 A 
ATOM     36  H   UNL A   1      39.145  31.788  32.632  1.00  0.00     0.167 HD
ATOM     37  C   UNL A   1      40.643  32.236  35.026  1.00  0.00     0.074 A 
ATOM     38  C   UNL A   1      41.577  32.066  36.123  1.00  0.00     0.031 C 
ATOM     39  C   UNL A   1      39.723  33.231  34.962  1.00  0.00     0.031 A 
BRANCH  26  40
ATOM     40  C   UNL A   1      36.099  33.064  29.935  1.00  0.00    -0.014 A 
ATOM     41  C   UNL A   1      34.741  32.852  30.225  1.00  0.00     0.009 A 
ATOM     42  C   UNL A   1      36.443  33.797  28.789  1.00  0.00     0.009 A 
ATOM     43  C   UNL A   1      33.753  33.325  29.357  1.00  0.00     0.001 A 
ATOM     44  C   UNL A   1      35.453  34.292  27.940  1.00  0.00     0.001 A 
ATOM     45  C   UNL A   1      34.110  34.044  28.217  1.00  0.00     0.000 A 
ENDBRANCH  26  40
BRANCH  27  46
ATOM     46  C   UNL A   1      43.711  28.663  34.813  1.00  0.00    -0.014 A 
ATOM     47  C   UNL A   1      45.034  29.134  34.872  1.00  0.00     0.009 A 
ATOM     48  C   UNL A   1      43.401  27.471  35.488  1.00  0.00     0.009 A 
ATOM     49  C   UNL A   1      46.021  28.416  35.555  1.00  0.00     0.001 A 
ATOM     50  C   UNL A   1      44.379  26.775  36.204  1.00  0.00     0.001 A 
ATOM     51  C   UNL A   1      45.691  27.240  36.226  1.00  0.00     0.000 A 
ENDBRANCH  27  46
BRANCH  39  52
ATOM     52  C   UNL A   1      39.679  34.195  36.113  1.00  0.00    -0.014 A 
ATOM     53  C   UNL A   1      40.313  35.445  36.043  1.00  0.00     0.009 A 
ATOM     54  C   UNL A   1      38.947  33.863  37.263  1.00  0.00     0.009 A 
ATOM     55  C   UNL A   1      40.245  36.329  37.122  1.00  0.00     0.001 A 
ATOM     56  C   UNL A   1      38.854  34.762  38.326  1.00  0.00     0.001 A 
ATOM     57  C   UNL A   1      39.512  35.989  38.259  1.00  0.00     0.000 A 
ENDBRANCH  39  52
ENDBRANCH  13  14
ENDBRANCH   6   8
ENDBRANCH   5   6
ENDBRANCH   4   5
ENDBRANCH   3   4
ENDBRANCH   2   3
ENDBRANCH   1   2
BRANCH   1  58
ATOM     58  C   UNL A   1      35.395  21.743  25.537  1.00  0.00     0.188 C 
BRANCH  58  59
ATOM     59  O   UNL A   1      34.189  22.489  25.704  1.00  0.00    -0.376 OA
BRANCH  59  60
ATOM     60  C   UNL A   1      33.080  21.833  26.305  1.00  0.00     0.202 C 
BRANCH  60  61
ATOM     61  C   UNL A   1      31.957  22.703  26.869  1.00  0.00     0.261 C 
BRANCH  61  62
ATOM     62  O   UNL A   1      31.059  23.172  25.858  1.00  0.00    -0.459 OA
BRANCH  62  63
ATOM     63  C   UNL A   1      30.509  24.398  26.043  1.00  0.00     0.368 C 
ATOM     64  O   UNL A   1      29.671  24.642  26.913  1.00  0.00    -0.245 OA
BRANCH  63  65
ATOM     65  C   UNL A   1      31.002  25.475  25.058  1.00  0.00     0.195 C 
ATOM     66  C   UNL A   1      30.025  25.561  23.879  1.00  0.00     0.082 C 
ATOM     67  C   UNL A   1      30.809  26.884  25.691  1.00  0.00     0.095 C 
ATOM     68  C   UNL A   1      30.234  26.953  23.313  1.00  0.00     0.022 C 
ATOM     69  C   UNL A   1      30.486  27.850  24.526  1.00  0.00     0.054 C 
BRANCH  65  70
ATOM     70  N   UNL A   1      32.422  25.416  24.672  1.00  0.00    -0.330 N 
ATOM     71  H   UNL A   1      32.878  24.864  25.398  1.00  0.00     0.347 HD
ATOM     72  H   UNL A   1      32.621  26.408  24.547  1.00  0.00     0.347 HD
BRANCH  70  73
ATOM     73  C   UNL A   1      32.921  24.887  23.413  1.00  0.00     0.183 C 
ATOM     74  C   UNL A   1      33.576  25.654  22.306  1.00  0.00     0.071 C 
ATOM     75  C   UNL A   1      34.396  24.741  23.157  1.00  0.00     0.071 C 
ENDBRANCH  70  73
ENDBRANCH  65  70
BRANCH  69  76
ATOM     76  S   UNL A   1      31.848  29.049  24.238  1.00  0.00    -0.155 SA
BRANCH  76  77
ATOM     77  C   UNL A   1      32.744  29.108  25.840  1.00  0.00     0.047 C 
ATOM     78  C   UNL A   1      34.149  28.514  25.827  1.00  0.00     0.014 C 
ATOM     79  C   UNL A   1      32.923  30.475  26.494  1.00  0.00     0.014 C 
ATOM     80  C   UNL A   1      34.744  28.963  27.155  1.00  0.00     0.001 C 
ATOM     81  C   UNL A   1      34.075  30.295  27.486  1.00  0.00     0.001 C 
ENDBRANCH  76  77
ENDBRANCH  69  76
ENDBRANCH  63  65
ENDBRANCH  62  63
ENDBRANCH  61  62
ENDBRANCH  60  61
ENDBRANCH  59  60
ENDBRANCH  58  59
ENDBRANCH   1  58
TORSDOF 21
ENDMDL
MODEL 3
REMARK VINA RESULT:      -9.6      3.660      6.910
REMARK SMILES O=C(OCCOCCOCCOC(=O)[C@@]1([NH2+]C2CC2)CC[C@H](SC2CCCC2)C1)c1ccc(-c2c3nc(c(-c4ccccc4)c4ccc([nH]4)c(-c4ccccc4)c4nc(c(-c5ccccc5)c5ccc2[nH]5)C=C4)C=C3)cc1
REMARK SMILES IDX 7 1 6 2 5 3 4 4 3 5 2 6 1 7 30 8 31 9 77 10 32 11 76 12
REMARK SMILES IDX 33 13 34 14 35 15 70 16 36 17 75 18 69 19 71 20 37 21 74 22
REMARK SMILES IDX 68 23 67 24 38 26 60 27 45 28 59 29 46 30 49 31 58 32 72 33
REMARK SMILES IDX 47 34 48 35 57 37 73 38 50 39 39 40 40 41 44 42 41 43 43 44
REMARK SMILES IDX 42 45 61 46 62 47 66 48 63 49 65 50 64 51 51 52 52 53 56 54
REMARK SMILES IDX 53 55 55 56 54 57 8 58 9 59 10 60 11 61 12 62 13 63 14 64
REMARK SMILES IDX 15 65 20 66 29 67 21 68 22 69 16 70 17 73 18 74 19 75 23 76
REMARK SMILES IDX 24 77 25 78 28 79 26 80 27 81
REMARK H PARENT 71 25 49 36 16 71 16 72
REMARK Flexibility Score: inf
ROOT
ATOM      1  C   UNL A   1      34.178  21.451  24.305  1.00  0.00     0.188 C 
ENDROOT
BRANCH   1   2
ATOM      2  O   UNL A   1      34.771  22.623  24.850  1.00  0.00    -0.376 OA
BRANCH   2   3
ATOM      3  C   UNL A   1      35.976  22.481  25.585  1.00  0.00     0.202 C 
BRANCH   3   4
ATOM      4  C   UNL A   1      37.272  22.053  24.886  1.00  0.00     0.261 C 
BRANCH   4   5
ATOM      5  O   UNL A   1      38.295  21.366  25.630  1.00  0.00    -0.460 OA
BRANCH   5   6
ATOM      6  C   UNL A   1      39.523  21.713  26.058  1.00  0.00     0.338 C 
ATOM      7  O   UNL A   1      40.463  20.954  25.826  1.00  0.00    -0.246 OA
BRANCH   6   8
ATOM      8  C   UNL A   1      39.801  22.951  26.832  1.00  0.00     0.060 A 
ATOM      9  C   UNL A   1      39.219  24.186  26.563  1.00  0.00     0.016 A 
ATOM     10  C   UNL A   1      40.788  22.872  27.836  1.00  0.00     0.016 A 
ATOM     11  C   UNL A   1      39.572  25.307  27.305  1.00  0.00     0.010 A 
ATOM     12  C   UNL A   1      41.199  24.007  28.541  1.00  0.00     0.010 A 
ATOM     13  C   UNL A   1      40.600  25.234  28.256  1.00  0.00    -0.014 A 
BRANCH  13  14
ATOM     14  C   UNL A   1      41.184  26.524  28.673  1.00  0.00     0.031 A 
ATOM     15  C   UNL A   1      42.461  26.921  27.996  1.00  0.00     0.074 A 
ATOM     16  C   UNL A   1      40.513  27.374  29.465  1.00  0.00     0.049 A 
ATOM     17  N   UNL A   1      43.016  28.096  27.892  1.00  0.00    -0.248 NA
ATOM     18  C   UNL A   1      43.192  25.837  27.313  1.00  0.00     0.031 C 
ATOM     19  C   UNL A   1      39.270  27.065  30.159  1.00  0.00     0.029 A 
ATOM     20  N   UNL A   1      40.734  28.699  29.740  1.00  0.00    -0.354 N 
ATOM     21  C   UNL A   1      44.164  27.892  27.140  1.00  0.00     0.074 A 
ATOM     22  C   UNL A   1      44.212  26.492  26.787  1.00  0.00     0.031 C 
ATOM     23  C   UNL A   1      38.765  28.199  30.676  1.00  0.00     0.029 A 
ATOM     24  C   UNL A   1      39.677  29.302  30.386  1.00  0.00     0.049 A 
ATOM     25  H   UNL A   1      41.563  29.171  29.500  1.00  0.00     0.167 HD
ATOM     26  C   UNL A   1      45.120  28.791  26.813  1.00  0.00     0.031 A 
ATOM     27  C   UNL A   1      39.471  30.602  30.673  1.00  0.00     0.031 A 
ATOM     28  C   UNL A   1      45.105  30.152  27.267  1.00  0.00     0.049 A 
ATOM     29  C   UNL A   1      40.559  31.581  30.312  1.00  0.00     0.074 A 
ATOM     30  C   UNL A   1      46.065  31.131  27.106  1.00  0.00     0.029 A 
ATOM     31  N   UNL A   1      44.071  30.714  28.005  1.00  0.00    -0.354 N 
ATOM     32  N   UNL A   1      41.650  31.387  29.608  1.00  0.00    -0.248 NA
ATOM     33  C   UNL A   1      40.405  32.953  30.816  1.00  0.00     0.031 C 
ATOM     34  C   UNL A   1      45.640  32.269  27.801  1.00  0.00     0.029 A 
ATOM     35  C   UNL A   1      44.380  32.022  28.328  1.00  0.00     0.049 A 
ATOM     36  H   UNL A   1      43.242  30.249  28.261  1.00  0.00     0.167 HD
ATOM     37  C   UNL A   1      42.316  32.604  29.594  1.00  0.00     0.074 A 
ATOM     38  C   UNL A   1      41.479  33.544  30.315  1.00  0.00     0.031 C 
ATOM     39  C   UNL A   1      43.522  32.920  29.058  1.00  0.00     0.031 A 
BRANCH  26  40
ATOM     40  C   UNL A   1      46.306  28.260  26.062  1.00  0.00    -0.014 A 
ATOM     41  C   UNL A   1      46.333  28.211  24.659  1.00  0.00     0.009 A 
ATOM     42  C   UNL A   1      47.383  27.722  26.783  1.00  0.00     0.009 A 
ATOM     43  C   UNL A   1      47.395  27.590  23.996  1.00  0.00     0.001 A 
ATOM     44  C   UNL A   1      48.455  27.128  26.117  1.00  0.00     0.001 A 
ATOM     45  C   UNL A   1      48.454  27.050  24.725  1.00  0.00     0.000 A 
ENDBRANCH  26  40
BRANCH  27  46
ATOM     46  C   UNL A   1      38.216  31.063  31.337  1.00  0.00    -0.014 A 
ATOM     47  C   UNL A   1      37.127  31.526  30.578  1.00  0.00     0.009 A 
ATOM     48  C   UNL A   1      38.108  31.087  32.737  1.00  0.00     0.009 A 
ATOM     49  C   UNL A   1      35.981  32.028  31.202  1.00  0.00     0.001 A 
ATOM     50  C   UNL A   1      36.946  31.552  33.359  1.00  0.00     0.001 A 
ATOM     51  C   UNL A   1      35.888  32.035  32.592  1.00  0.00     0.000 A 
ENDBRANCH  27  46
BRANCH  39  52
ATOM     52  C   UNL A   1      43.992  34.337  29.223  1.00  0.00    -0.014 A 
ATOM     53  C   UNL A   1      43.627  35.339  28.312  1.00  0.00     0.009 A 
ATOM     54  C   UNL A   1      44.770  34.679  30.340  1.00  0.00     0.009 A 
ATOM     55  C   UNL A   1      44.066  36.652  28.496  1.00  0.00     0.001 A 
ATOM     56  C   UNL A   1      45.180  35.998  30.538  1.00  0.00     0.001 A 
ATOM     57  C   UNL A   1      44.837  36.980  29.611  1.00  0.00     0.000 A 
ENDBRANCH  39  52
ENDBRANCH  13  14
ENDBRANCH   6   8
ENDBRANCH   5   6
ENDBRANCH   4   5
ENDBRANCH   3   4
ENDBRANCH   2   3
ENDBRANCH   1   2
BRANCH   1  58
ATOM     58  C   UNL A   1      32.684  21.555  23.982  1.00  0.00     0.188 C 
BRANCH  58  59
ATOM     59  O   UNL A   1      31.766  21.245  25.030  1.00  0.00    -0.376 OA
BRANCH  59  60
ATOM     60  C   UNL A   1      31.029  22.317  25.605  1.00  0.00     0.202 C 
BRANCH  60  61
ATOM     61  C   UNL A   1      31.677  23.094  26.751  1.00  0.00     0.261 C 
BRANCH  61  62
ATOM     62  O   UNL A   1      32.184  24.368  26.340  1.00  0.00    -0.459 OA
BRANCH  62  63
ATOM     63  C   UNL A   1      31.272  25.322  26.028  1.00  0.00     0.368 C 
ATOM     64  O   UNL A   1      30.173  25.417  26.578  1.00  0.00    -0.245 OA
BRANCH  63  65
ATOM     65  C   UNL A   1      31.710  26.282  24.905  1.00  0.00     0.195 C 
ATOM     66  C   UNL A   1      32.051  25.465  23.652  1.00  0.00     0.082 C 
ATOM     67  C   UNL A   1      30.475  27.081  24.396  1.00  0.00     0.095 C 
ATOM     68  C   UNL A   1      31.893  26.445  22.505  1.00  0.00     0.022 C 
ATOM     69  C   UNL A   1      30.700  27.324  22.885  1.00  0.00     0.054 C 
BRANCH  65  70
ATOM     70  N   UNL A   1      32.711  27.301  25.261  1.00  0.00    -0.330 N 
ATOM     71  H   UNL A   1      33.075  27.647  24.374  1.00  0.00     0.347 HD
ATOM     72  H   UNL A   1      33.292  26.770  25.909  1.00  0.00     0.347 HD
BRANCH  70  73
ATOM     73  C   UNL A   1      32.445  28.486  26.059  1.00  0.00     0.183 C 
ATOM     74  C   UNL A   1      31.834  28.539  27.426  1.00  0.00     0.071 C 
ATOM     75  C   UNL A   1      33.290  28.829  27.255  1.00  0.00     0.071 C 
ENDBRANCH  70  73
ENDBRANCH  65  70
BRANCH  69  76
ATOM     76  S   UNL A   1      30.995  29.100  22.516  1.00  0.00    -0.155 SA
BRANCH  76  77
ATOM     77  C   UNL A   1      29.329  29.866  22.624  1.00  0.00     0.047 C 
ATOM     78  C   UNL A   1      29.155  30.901  23.730  1.00  0.00     0.014 C 
ATOM     79  C   UNL A   1      28.793  30.559  21.375  1.00  0.00     0.014 C 
ATOM     80  C   UNL A   1      27.826  31.566  23.398  1.00  0.00     0.001 C 
ATOM     81  C   UNL A   1      27.685  31.488  21.879  1.00  0.00     0.001 C 
ENDBRANCH  76  77
ENDBRANCH  69  76
ENDBRANCH  63  65
ENDBRANCH  62  63
ENDBRANCH  61  62
ENDBRANCH  60  61
ENDBRANCH  59  60
ENDBRANCH  58  59
ENDBRANCH   1  58
TORSDOF 21
ENDMDL
