MODEL 1
REMARK VINA RESULT:      -9.7      0.000      0.000
REMARK SMILES O=C(OCCOCCOCCOC(=O)c1cccnc1SCC(=O)c1ccccc1Cl)c1ccc(-c2c3nc(c(-c4ccccc4)c4ccc([nH]4)c(-c4ccccc4)c4nc(c(-c5ccccc5)c5ccc2[nH]5)C=C4)C=C3)cc1
REMARK SMILES IDX 8 1 7 2 6 3 5 4 4 5 3 6 2 7 1 8 32 9 33 10 79 11 34 12 78 13
REMARK SMILES IDX 35 14 36 15 37 16 72 17 38 18 77 19 71 20 73 21 39 22 76 23
REMARK SMILES IDX 70 24 69 25 40 27 62 28 47 29 61 30 48 31 51 32 60 33 74 34
REMARK SMILES IDX 49 35 50 36 59 38 75 39 52 40 41 41 42 42 46 43 43 44 45 45
REMARK SMILES IDX 44 46 63 47 64 48 68 49 65 50 67 51 66 52 53 53 54 54 58 55
REMARK SMILES IDX 55 56 57 57 56 58 9 59 10 60 11 61 12 62 13 63 14 64 15 65
REMARK SMILES IDX 16 66 20 67 17 68 19 69 18 70 21 71 22 72 23 73 24 74 25 75
REMARK SMILES IDX 26 76 30 77 27 78 29 79 31 80 28 81
REMARK H PARENT 73 26 51 37
REMARK Flexibility Score: inf
ROOT
ATOM      1  C   UNL A   1      40.649  21.195  26.381  1.00  0.00     0.188 C 
ENDROOT
BRANCH   1   2
ATOM      2  C   UNL A   1      40.530  19.675  26.316  1.00  0.00     0.188 C 
BRANCH   2   3
ATOM      3  O   UNL A   1      41.661  19.119  25.629  1.00  0.00    -0.376 OA
BRANCH   3   4
ATOM      4  C   UNL A   1      42.674  18.636  26.512  1.00  0.00     0.202 C 
BRANCH   4   5
ATOM      5  C   UNL A   1      43.914  18.036  25.827  1.00  0.00     0.261 C 
BRANCH   5   6
ATOM      6  O   UNL A   1      44.172  18.610  24.536  1.00  0.00    -0.460 OA
BRANCH   6   7
ATOM      7  C   UNL A   1      45.154  19.499  24.246  1.00  0.00     0.338 C 
ATOM      8  O   UNL A   1      46.156  19.100  23.655  1.00  0.00    -0.246 OA
BRANCH   7   9
ATOM      9  C   UNL A   1      45.100  20.936  24.675  1.00  0.00     0.060 A 
ATOM     10  C   UNL A   1      44.862  22.021  23.826  1.00  0.00     0.016 A 
ATOM     11  C   UNL A   1      45.237  21.204  26.049  1.00  0.00     0.016 A 
ATOM     12  C   UNL A   1      44.848  23.331  24.305  1.00  0.00     0.010 A 
ATOM     13  C   UNL A   1      45.184  22.512  26.545  1.00  0.00     0.010 A 
ATOM     14  C   UNL A   1      45.022  23.586  25.664  1.00  0.00    -0.014 A 
BRANCH  14  15
ATOM     15  C   UNL A   1      45.138  24.984  26.128  1.00  0.00     0.031 A 
ATOM     16  C   UNL A   1      46.483  25.643  26.107  1.00  0.00     0.074 A 
ATOM     17  C   UNL A   1      44.046  25.681  26.486  1.00  0.00     0.049 A 
ATOM     18  N   UNL A   1      46.811  26.860  26.453  1.00  0.00    -0.248 NA
ATOM     19  C   UNL A   1      47.604  24.834  25.598  1.00  0.00     0.031 C 
ATOM     20  C   UNL A   1      42.673  25.180  26.448  1.00  0.00     0.029 A 
ATOM     21  N   UNL A   1      43.923  26.966  26.955  1.00  0.00    -0.354 N 
ATOM     22  C   UNL A   1      48.166  26.972  26.181  1.00  0.00     0.074 A 
ATOM     23  C   UNL A   1      48.611  25.692  25.673  1.00  0.00     0.031 C 
ATOM     24  C   UNL A   1      41.849  26.139  26.903  1.00  0.00     0.029 A 
ATOM     25  C   UNL A   1      42.639  27.294  27.312  1.00  0.00     0.049 A 
ATOM     26  H   UNL A   1      44.681  27.590  27.027  1.00  0.00     0.167 HD
ATOM     27  C   UNL A   1      48.969  28.049  26.335  1.00  0.00     0.031 A 
ATOM     28  C   UNL A   1      42.163  28.382  27.945  1.00  0.00     0.031 A 
ATOM     29  C   UNL A   1      48.537  29.305  26.880  1.00  0.00     0.049 A 
ATOM     30  C   UNL A   1      43.113  29.492  28.291  1.00  0.00     0.074 A 
ATOM     31  C   UNL A   1      49.270  30.459  27.084  1.00  0.00     0.029 A 
ATOM     32  N   UNL A   1      47.252  29.558  27.337  1.00  0.00    -0.354 N 
ATOM     33  N   UNL A   1      44.388  29.602  28.004  1.00  0.00    -0.248 NA
ATOM     34  C   UNL A   1      42.564  30.628  29.046  1.00  0.00     0.031 C 
ATOM     35  C   UNL A   1      48.444  31.391  27.721  1.00  0.00     0.029 A 
ATOM     36  C   UNL A   1      47.185  30.830  27.874  1.00  0.00     0.049 A 
ATOM     37  H   UNL A   1      46.500  28.924  27.287  1.00  0.00     0.167 HD
ATOM     38  C   UNL A   1      44.790  30.825  28.521  1.00  0.00     0.074 A 
ATOM     39  C   UNL A   1      43.622  31.425  29.135  1.00  0.00     0.031 C 
ATOM     40  C   UNL A   1      46.014  31.403  28.485  1.00  0.00     0.031 A 
BRANCH  27  41
ATOM     41  C   UNL A   1      50.407  27.884  25.948  1.00  0.00    -0.014 A 
ATOM     42  C   UNL A   1      50.833  28.101  24.627  1.00  0.00     0.009 A 
ATOM     43  C   UNL A   1      51.345  27.496  26.915  1.00  0.00     0.009 A 
ATOM     44  C   UNL A   1      52.171  27.905  24.279  1.00  0.00     0.001 A 
ATOM     45  C   UNL A   1      52.684  27.317  26.566  1.00  0.00     0.001 A 
ATOM     46  C   UNL A   1      53.095  27.515  25.248  1.00  0.00     0.000 A 
ENDBRANCH  27  41
BRANCH  28  47
ATOM     47  C   UNL A   1      40.743  28.428  28.381  1.00  0.00    -0.014 A 
ATOM     48  C   UNL A   1      39.754  29.034  27.594  1.00  0.00     0.009 A 
ATOM     49  C   UNL A   1      40.380  27.884  29.626  1.00  0.00     0.009 A 
ATOM     50  C   UNL A   1      38.436  29.115  28.055  1.00  0.00     0.001 A 
ATOM     51  C   UNL A   1      39.059  27.947  30.074  1.00  0.00     0.001 A 
ATOM     52  C   UNL A   1      38.090  28.570  29.291  1.00  0.00     0.000 A 
ENDBRANCH  28  47
BRANCH  40  53
ATOM     53  C   UNL A   1      46.148  32.758  29.112  1.00  0.00    -0.014 A 
ATOM     54  C   UNL A   1      46.546  32.896  30.450  1.00  0.00     0.009 A 
ATOM     55  C   UNL A   1      45.922  33.908  28.341  1.00  0.00     0.009 A 
ATOM     56  C   UNL A   1      46.698  34.166  31.009  1.00  0.00     0.001 A 
ATOM     57  C   UNL A   1      46.097  35.175  28.897  1.00  0.00     0.001 A 
ATOM     58  C   UNL A   1      46.480  35.302  30.231  1.00  0.00     0.000 A 
ENDBRANCH  40  53
ENDBRANCH  14  15
ENDBRANCH   7   9
ENDBRANCH   6   7
ENDBRANCH   5   6
ENDBRANCH   4   5
ENDBRANCH   3   4
ENDBRANCH   2   3
ENDBRANCH   1   2
BRANCH   1  59
ATOM     59  O   UNL A   1      39.449  21.849  25.971  1.00  0.00    -0.376 OA
BRANCH  59  60
ATOM     60  C   UNL A   1      38.492  20.960  25.388  1.00  0.00     0.202 C 
BRANCH  60  61
ATOM     61  C   UNL A   1      37.354  21.693  24.665  1.00  0.00     0.261 C 
BRANCH  61  62
ATOM     62  O   UNL A   1      36.236  21.969  25.541  1.00  0.00    -0.460 OA
BRANCH  62  63
ATOM     63  C   UNL A   1      35.206  21.095  25.443  1.00  0.00     0.340 C 
ATOM     64  O   UNL A   1      35.205  20.042  24.808  1.00  0.00    -0.246 OA
BRANCH  63  65
ATOM     65  C   UNL A   1      33.945  21.667  25.935  1.00  0.00     0.092 A 
ATOM     66  C   UNL A   1      33.920  21.935  27.314  1.00  0.00     0.020 A 
ATOM     67  C   UNL A   1      32.845  22.049  25.166  1.00  0.00     0.111 A 
ATOM     68  C   UNL A   1      32.824  22.564  27.882  1.00  0.00     0.021 A 
ATOM     69  N   UNL A   1      31.772  22.680  25.719  1.00  0.00    -0.249 NA
ATOM     70  C   UNL A   1      31.784  22.924  27.048  1.00  0.00     0.112 A 
BRANCH  67  71
ATOM     71  S   UNL A   1      32.588  21.670  23.453  1.00  0.00    -0.097 SA
BRANCH  71  72
ATOM     72  C   UNL A   1      32.496  23.334  22.713  1.00  0.00     0.157 C 
BRANCH  72  73
ATOM     73  C   UNL A   1      33.768  24.124  22.952  1.00  0.00     0.174 C 
ATOM     74  O   UNL A   1      34.885  23.639  22.772  1.00  0.00    -0.293 OA
BRANCH  73  75
ATOM     75  C   UNL A   1      33.702  25.582  23.229  1.00  0.00     0.037 A 
ATOM     76  C   UNL A   1      33.515  26.408  22.103  1.00  0.00     0.013 A 
ATOM     77  C   UNL A   1      33.862  26.175  24.485  1.00  0.00     0.051 A 
ATOM     78  C   UNL A   1      33.446  27.795  22.235  1.00  0.00     0.001 A 
ATOM     79  C   UNL A   1      33.766  27.568  24.614  1.00  0.00     0.021 A 
ATOM     80  Cl  UNL A   1      34.295  25.308  25.912  1.00  0.00    -0.084 Cl
ATOM     81  C   UNL A   1      33.557  28.375  23.494  1.00  0.00     0.002 A 
ENDBRANCH  73  75
ENDBRANCH  72  73
ENDBRANCH  71  72
ENDBRANCH  67  71
ENDBRANCH  63  65
ENDBRANCH  62  63
ENDBRANCH  61  62
ENDBRANCH  60  61
ENDBRANCH  59  60
ENDBRANCH   1  59
TORSDOF 21
ENDMDL
MODEL 2
REMARK VINA RESULT:      -9.7      4.274      6.335
REMARK SMILES O=C(OCCOCCOCCOC(=O)c1cccnc1SCC(=O)c1ccccc1Cl)c1ccc(-c2c3nc(c(-c4ccccc4)c4ccc([nH]4)c(-c4ccccc4)c4nc(c(-c5ccccc5)c5ccc2[nH]5)C=C4)C=C3)cc1
REMARK SMILES IDX 8 1 7 2 6 3 5 4 4 5 3 6 2 7 1 8 32 9 33 10 79 11 34 12 78 13
REMARK SMILES IDX 35 14 36 15 37 16 72 17 38 18 77 19 71 20 73 21 39 22 76 23
REMARK SMILES IDX 70 24 69 25 40 27 62 28 47 29 61 30 48 31 51 32 60 33 74 34
REMARK SMILES IDX 49 35 50 36 59 38 75 39 52 40 41 41 42 42 46 43 43 44 45 45
REMARK SMILES IDX 44 46 63 47 64 48 68 49 65 50 67 51 66 52 53 53 54 54 58 55
REMARK SMILES IDX 55 56 57 57 56 58 9 59 10 60 11 61 12 62 13 63 14 64 15 65
REMARK SMILES IDX 16 66 20 67 17 68 19 69 18 70 21 71 22 72 23 73 24 74 25 75
REMARK SMILES IDX 26 76 30 77 27 78 29 79 31 80 28 81
REMARK H PARENT 73 26 51 37
REMARK Flexibility Score: inf
ROOT
ATOM      1  C   UNL A   1      41.775  20.451  27.014  1.00  0.00     0.188 C 
ENDROOT
BRANCH   1   2
ATOM      2  C   UNL A   1      42.302  19.282  26.187  1.00  0.00     0.188 C 
BRANCH   2   3
ATOM      3  O   UNL A   1      42.981  19.768  25.019  1.00  0.00    -0.376 OA
BRANCH   3   4
ATOM      4  C   UNL A   1      44.362  20.045  25.246  1.00  0.00     0.202 C 
BRANCH   4   5
ATOM      5  C   UNL A   1      44.858  21.403  24.717  1.00  0.00     0.261 C 
BRANCH   5   6
ATOM      6  O   UNL A   1      43.974  22.486  25.044  1.00  0.00    -0.460 OA
BRANCH   6   7
ATOM      7  C   UNL A   1      44.305  23.801  25.063  1.00  0.00     0.338 C 
ATOM      8  O   UNL A   1      45.172  24.203  24.289  1.00  0.00    -0.246 OA
BRANCH   7   9
ATOM      9  C   UNL A   1      43.705  24.774  26.035  1.00  0.00     0.060 A 
ATOM     10  C   UNL A   1      43.963  26.147  26.061  1.00  0.00     0.016 A 
ATOM     11  C   UNL A   1      42.762  24.272  26.951  1.00  0.00     0.016 A 
ATOM     12  C   UNL A   1      43.376  26.981  27.013  1.00  0.00     0.010 A 
ATOM     13  C   UNL A   1      42.137  25.108  27.884  1.00  0.00     0.010 A 
ATOM     14  C   UNL A   1      42.471  26.465  27.939  1.00  0.00    -0.014 A 
BRANCH  14  15
ATOM     15  C   UNL A   1      41.967  27.337  29.021  1.00  0.00     0.031 A 
ATOM     16  C   UNL A   1      42.715  27.382  30.318  1.00  0.00     0.074 A 
ATOM     17  C   UNL A   1      40.906  28.136  28.819  1.00  0.00     0.049 A 
ATOM     18  N   UNL A   1      42.461  28.084  31.392  1.00  0.00    -0.248 NA
ATOM     19  C   UNL A   1      43.927  26.552  30.409  1.00  0.00     0.031 C 
ATOM     20  C   UNL A   1      40.163  28.255  27.566  1.00  0.00     0.029 A 
ATOM     21  N   UNL A   1      40.268  29.002  29.673  1.00  0.00    -0.354 N 
ATOM     22  C   UNL A   1      43.493  27.800  32.274  1.00  0.00     0.074 A 
ATOM     23  C   UNL A   1      44.359  26.838  31.628  1.00  0.00     0.031 C 
ATOM     24  C   UNL A   1      39.152  29.123  27.743  1.00  0.00     0.029 A 
ATOM     25  C   UNL A   1      39.147  29.575  29.129  1.00  0.00     0.049 A 
ATOM     26  H   UNL A   1      40.585  29.193  30.585  1.00  0.00     0.167 HD
ATOM     27  C   UNL A   1      43.704  28.303  33.511  1.00  0.00     0.031 A 
ATOM     28  C   UNL A   1      38.194  30.337  29.698  1.00  0.00     0.031 A 
ATOM     29  C   UNL A   1      42.820  29.225  34.168  1.00  0.00     0.049 A 
ATOM     30  C   UNL A   1      38.343  30.723  31.142  1.00  0.00     0.074 A 
ATOM     31  C   UNL A   1      42.937  29.792  35.424  1.00  0.00     0.029 A 
ATOM     32  N   UNL A   1      41.632  29.691  33.624  1.00  0.00    -0.354 N 
ATOM     33  N   UNL A   1      39.338  30.475  31.961  1.00  0.00    -0.248 NA
ATOM     34  C   UNL A   1      37.245  31.494  31.742  1.00  0.00     0.031 C 
ATOM     35  C   UNL A   1      41.789  30.555  35.664  1.00  0.00     0.029 A 
ATOM     36  C   UNL A   1      40.979  30.495  34.539  1.00  0.00     0.049 A 
ATOM     37  H   UNL A   1      41.304  29.480  32.720  1.00  0.00     0.167 HD
ATOM     38  C   UNL A   1      38.998  31.075  33.164  1.00  0.00     0.074 A 
ATOM     39  C   UNL A   1      37.708  31.706  32.968  1.00  0.00     0.031 C 
ATOM     40  C   UNL A   1      39.694  31.106  34.325  1.00  0.00     0.031 A 
BRANCH  27  41
ATOM     41  C   UNL A   1      44.918  27.818  34.242  1.00  0.00    -0.014 A 
ATOM     42  C   UNL A   1      46.140  28.505  34.155  1.00  0.00     0.009 A 
ATOM     43  C   UNL A   1      44.842  26.654  35.020  1.00  0.00     0.009 A 
ATOM     44  C   UNL A   1      47.270  28.017  34.814  1.00  0.00     0.001 A 
ATOM     45  C   UNL A   1      45.969  26.178  35.689  1.00  0.00     0.001 A 
ATOM     46  C   UNL A   1      47.184  26.855  35.581  1.00  0.00     0.000 A 
ENDBRANCH  27  41
BRANCH  28  47
ATOM     47  C   UNL A   1      36.971  30.696  28.934  1.00  0.00    -0.014 A 
ATOM     48  C   UNL A   1      36.725  32.013  28.524  1.00  0.00     0.009 A 
ATOM     49  C   UNL A   1      36.018  29.705  28.641  1.00  0.00     0.009 A 
ATOM     50  C   UNL A   1      35.538  32.334  27.856  1.00  0.00     0.001 A 
ATOM     51  C   UNL A   1      34.845  30.024  27.955  1.00  0.00     0.001 A 
ATOM     52  C   UNL A   1      34.602  31.340  27.571  1.00  0.00     0.000 A 
ENDBRANCH  28  47
BRANCH  40  53
ATOM     53  C   UNL A   1      39.083  31.862  35.467  1.00  0.00    -0.014 A 
ATOM     54  C   UNL A   1      38.255  31.215  36.398  1.00  0.00     0.009 A 
ATOM     55  C   UNL A   1      39.379  33.222  35.641  1.00  0.00     0.009 A 
ATOM     56  C   UNL A   1      37.721  31.925  37.473  1.00  0.00     0.001 A 
ATOM     57  C   UNL A   1      38.861  33.923  36.730  1.00  0.00     0.001 A 
ATOM     58  C   UNL A   1      38.029  33.275  37.642  1.00  0.00     0.000 A 
ENDBRANCH  40  53
ENDBRANCH  14  15
ENDBRANCH   7   9
ENDBRANCH   6   7
ENDBRANCH   5   6
ENDBRANCH   4   5
ENDBRANCH   3   4
ENDBRANCH   2   3
ENDBRANCH   1   2
BRANCH   1  59
ATOM     59  O   UNL A   1      40.952  21.329  26.247  1.00  0.00    -0.376 OA
BRANCH  59  60
ATOM     60  C   UNL A   1      39.594  20.891  26.152  1.00  0.00     0.202 C 
BRANCH  60  61
ATOM     61  C   UNL A   1      38.605  22.044  25.931  1.00  0.00     0.261 C 
BRANCH  61  62
ATOM     62  O   UNL A   1      37.309  21.576  25.489  1.00  0.00    -0.460 OA
BRANCH  62  63
ATOM     63  C   UNL A   1      36.337  22.519  25.475  1.00  0.00     0.340 C 
ATOM     64  O   UNL A   1      36.457  23.690  25.829  1.00  0.00    -0.246 OA
BRANCH  63  65
ATOM     65  C   UNL A   1      35.003  21.938  25.269  1.00  0.00     0.092 A 
ATOM     66  C   UNL A   1      34.997  20.556  25.018  1.00  0.00     0.020 A 
ATOM     67  C   UNL A   1      33.778  22.594  25.397  1.00  0.00     0.111 A 
ATOM     68  C   UNL A   1      33.795  19.874  24.903  1.00  0.00     0.021 A 
ATOM     69  N   UNL A   1      32.596  21.925  25.298  1.00  0.00    -0.249 NA
ATOM     70  C   UNL A   1      32.629  20.595  25.059  1.00  0.00     0.112 A 
BRANCH  67  71
ATOM     71  S   UNL A   1      33.544  24.346  25.550  1.00  0.00    -0.097 SA
BRANCH  71  72
ATOM     72  C   UNL A   1      32.075  24.618  24.504  1.00  0.00     0.157 C 
BRANCH  72  73
ATOM     73  C   UNL A   1      31.041  25.478  25.204  1.00  0.00     0.174 C 
ATOM     74  O   UNL A   1      30.578  25.180  26.306  1.00  0.00    -0.293 OA
BRANCH  73  75
ATOM     75  C   UNL A   1      30.691  26.817  24.664  1.00  0.00     0.037 A 
ATOM     76  C   UNL A   1      29.591  26.851  23.785  1.00  0.00     0.013 A 
ATOM     77  C   UNL A   1      31.392  27.999  24.919  1.00  0.00     0.051 A 
ATOM     78  C   UNL A   1      29.173  28.050  23.207  1.00  0.00     0.001 A 
ATOM     79  C   UNL A   1      30.950  29.204  24.355  1.00  0.00     0.021 A 
ATOM     80  Cl  UNL A   1      32.868  28.073  25.809  1.00  0.00    -0.084 Cl
ATOM     81  C   UNL A   1      29.844  29.230  23.504  1.00  0.00     0.002 A 
ENDBRANCH  73  75
ENDBRANCH  72  73
ENDBRANCH  71  72
ENDBRANCH  67  71
ENDBRANCH  63  65
ENDBRANCH  62  63
ENDBRANCH  61  62
ENDBRANCH  60  61
ENDBRANCH  59  60
ENDBRANCH   1  59
TORSDOF 21
ENDMDL
MODEL 3
REMARK VINA RESULT:      -9.5      4.658      8.206
REMARK SMILES O=C(OCCOCCOCCOC(=O)c1cccnc1SCC(=O)c1ccccc1Cl)c1ccc(-c2c3nc(c(-c4ccccc4)c4ccc([nH]4)c(-c4ccccc4)c4nc(c(-c5ccccc5)c5ccc2[nH]5)C=C4)C=C3)cc1
REMARK SMILES IDX 8 1 7 2 6 3 5 4 4 5 3 6 2 7 1 8 32 9 33 10 79 11 34 12 78 13
REMARK SMILES IDX 35 14 36 15 37 16 72 17 38 18 77 19 71 20 73 21 39 22 76 23
REMARK SMILES IDX 70 24 69 25 40 27 62 28 47 29 61 30 48 31 51 32 60 33 74 34
REMARK SMILES IDX 49 35 50 36 59 38 75 39 52 40 41 41 42 42 46 43 43 44 45 45
REMARK SMILES IDX 44 46 63 47 64 48 68 49 65 50 67 51 66 52 53 53 54 54 58 55
REMARK SMILES IDX 55 56 57 57 56 58 9 59 10 60 11 61 12 62 13 63 14 64 15 65
REMARK SMILES IDX 16 66 20 67 17 68 19 69 18 70 21 71 22 72 23 73 24 74 25 75
REMARK SMILES IDX 26 76 30 77 27 78 29 79 31 80 28 81
REMARK H PARENT 73 26 51 37
REMARK Flexibility Score: inf
ROOT
ATOM      1  C   UNL A   1      40.195  21.622  26.275  1.00  0.00     0.188 C 
ENDROOT
BRANCH   1   2
ATOM      2  C   UNL A   1      41.165  20.478  26.554  1.00  0.00     0.188 C 
BRANCH   2   3
ATOM      3  O   UNL A   1      42.332  20.605  25.728  1.00  0.00    -0.376 OA
BRANCH   3   4
ATOM      4  C   UNL A   1      43.080  21.792  25.990  1.00  0.00     0.202 C 
BRANCH   4   5
ATOM      5  C   UNL A   1      43.760  22.427  24.764  1.00  0.00     0.261 C 
BRANCH   5   6
ATOM      6  O   UNL A   1      43.410  23.808  24.585  1.00  0.00    -0.460 OA
BRANCH   6   7
ATOM      7  C   UNL A   1      44.071  24.868  25.112  1.00  0.00     0.338 C 
ATOM      8  O   UNL A   1      45.203  25.121  24.704  1.00  0.00    -0.246 OA
BRANCH   7   9
ATOM      9  C   UNL A   1      43.506  25.706  26.222  1.00  0.00     0.060 A 
ATOM     10  C   UNL A   1      43.893  27.015  26.519  1.00  0.00     0.016 A 
ATOM     11  C   UNL A   1      42.460  25.149  26.981  1.00  0.00     0.016 A 
ATOM     12  C   UNL A   1      43.329  27.718  27.584  1.00  0.00     0.010 A 
ATOM     13  C   UNL A   1      41.860  25.862  28.026  1.00  0.00     0.010 A 
ATOM     14  C   UNL A   1      42.319  27.141  28.352  1.00  0.00    -0.014 A 
BRANCH  14  15
ATOM     15  C   UNL A   1      41.832  27.849  29.554  1.00  0.00     0.031 A 
ATOM     16  C   UNL A   1      40.631  28.736  29.432  1.00  0.00     0.074 A 
ATOM     17  C   UNL A   1      42.404  27.640  30.752  1.00  0.00     0.049 A 
ATOM     18  N   UNL A   1      40.027  29.437  30.356  1.00  0.00    -0.248 NA
ATOM     19  C   UNL A   1      40.007  28.820  28.101  1.00  0.00     0.031 C 
ATOM     20  C   UNL A   1      43.510  26.721  31.012  1.00  0.00     0.029 A 
ATOM     21  N   UNL A   1      42.128  28.192  31.979  1.00  0.00    -0.354 N 
ATOM     22  C   UNL A   1      38.940  30.024  29.725  1.00  0.00     0.074 A 
ATOM     23  C   UNL A   1      38.983  29.627  28.334  1.00  0.00     0.031 C 
ATOM     24  C   UNL A   1      43.838  26.795  32.314  1.00  0.00     0.029 A 
ATOM     25  C   UNL A   1      43.004  27.800  32.960  1.00  0.00     0.049 A 
ATOM     26  H   UNL A   1      41.378  28.808  32.139  1.00  0.00     0.167 HD
ATOM     27  C   UNL A   1      37.985  30.819  30.260  1.00  0.00     0.031 A 
ATOM     28  C   UNL A   1      43.149  28.240  34.224  1.00  0.00     0.031 A 
ATOM     29  C   UNL A   1      37.969  31.248  31.630  1.00  0.00     0.049 A 
ATOM     30  C   UNL A   1      42.197  29.279  34.743  1.00  0.00     0.074 A 
ATOM     31  C   UNL A   1      37.050  32.058  32.273  1.00  0.00     0.029 A 
ATOM     32  N   UNL A   1      38.940  30.920  32.563  1.00  0.00    -0.354 N 
ATOM     33  N   UNL A   1      41.153  29.807  34.149  1.00  0.00    -0.248 NA
ATOM     34  C   UNL A   1      42.437  29.783  36.102  1.00  0.00     0.031 C 
ATOM     35  C   UNL A   1      37.500  32.269  33.581  1.00  0.00     0.029 A 
ATOM     36  C   UNL A   1      38.675  31.555  33.762  1.00  0.00     0.049 A 
ATOM     37  H   UNL A   1      39.705  30.323  32.396  1.00  0.00     0.167 HD
ATOM     38  C   UNL A   1      40.599  30.688  35.066  1.00  0.00     0.074 A 
ATOM     39  C   UNL A   1      41.418  30.619  36.260  1.00  0.00     0.031 C 
ATOM     40  C   UNL A   1      39.507  31.478  34.934  1.00  0.00     0.031 A 
BRANCH  27  41
ATOM     41  C   UNL A   1      36.914  31.309  29.334  1.00  0.00    -0.014 A 
ATOM     42  C   UNL A   1      36.942  32.615  28.818  1.00  0.00     0.009 A 
ATOM     43  C   UNL A   1      35.857  30.457  28.983  1.00  0.00     0.009 A 
ATOM     44  C   UNL A   1      35.914  33.064  27.987  1.00  0.00     0.001 A 
ATOM     45  C   UNL A   1      34.840  30.905  28.140  1.00  0.00     0.001 A 
ATOM     46  C   UNL A   1      34.866  32.209  27.648  1.00  0.00     0.000 A 
ENDBRANCH  27  41
BRANCH  28  47
ATOM     47  C   UNL A   1      44.297  27.777  35.047  1.00  0.00    -0.014 A 
ATOM     48  C   UNL A   1      44.170  26.707  35.943  1.00  0.00     0.009 A 
ATOM     49  C   UNL A   1      45.531  28.444  34.957  1.00  0.00     0.009 A 
ATOM     50  C   UNL A   1      45.251  26.329  36.747  1.00  0.00     0.001 A 
ATOM     51  C   UNL A   1      46.614  28.051  35.745  1.00  0.00     0.001 A 
ATOM     52  C   UNL A   1      46.469  26.998  36.646  1.00  0.00     0.000 A 
ENDBRANCH  28  47
BRANCH  40  53
ATOM     53  C   UNL A   1      39.125  32.317  36.116  1.00  0.00    -0.014 A 
ATOM     54  C   UNL A   1      39.722  33.568  36.334  1.00  0.00     0.009 A 
ATOM     55  C   UNL A   1      38.122  31.873  36.992  1.00  0.00     0.009 A 
ATOM     56  C   UNL A   1      39.331  34.352  37.421  1.00  0.00     0.001 A 
ATOM     57  C   UNL A   1      37.719  32.669  38.063  1.00  0.00     0.001 A 
ATOM     58  C   UNL A   1      38.327  33.905  38.279  1.00  0.00     0.000 A 
ENDBRANCH  40  53
ENDBRANCH  14  15
ENDBRANCH   7   9
ENDBRANCH   6   7
ENDBRANCH   5   6
ENDBRANCH   4   5
ENDBRANCH   3   4
ENDBRANCH   2   3
ENDBRANCH   1   2
BRANCH   1  59
ATOM     59  O   UNL A   1      38.976  21.168  25.689  1.00  0.00    -0.376 OA
BRANCH  59  60
ATOM     60  C   UNL A   1      37.949  22.163  25.683  1.00  0.00     0.202 C 
BRANCH  60  61
ATOM     61  C   UNL A   1      36.536  21.567  25.619  1.00  0.00     0.261 C 
BRANCH  61  62
ATOM     62  O   UNL A   1      35.549  22.432  26.230  1.00  0.00    -0.460 OA
BRANCH  62  63
ATOM     63  C   UNL A   1      34.355  21.844  26.483  1.00  0.00     0.340 C 
ATOM     64  O   UNL A   1      33.971  21.418  27.570  1.00  0.00    -0.246 OA
BRANCH  63  65
ATOM     65  C   UNL A   1      33.645  21.478  25.249  1.00  0.00     0.092 A 
ATOM     66  C   UNL A   1      33.580  20.099  24.996  1.00  0.00     0.020 A 
ATOM     67  C   UNL A   1      32.963  22.342  24.391  1.00  0.00     0.111 A 
ATOM     68  C   UNL A   1      32.854  19.621  23.915  1.00  0.00     0.021 A 
ATOM     69  N   UNL A   1      32.237  21.877  23.337  1.00  0.00    -0.249 NA
ATOM     70  C   UNL A   1      32.196  20.543  23.125  1.00  0.00     0.112 A 
BRANCH  67  71
ATOM     71  S   UNL A   1      33.037  24.115  24.421  1.00  0.00    -0.097 SA
BRANCH  71  72
ATOM     72  C   UNL A   1      31.269  24.561  24.374  1.00  0.00     0.157 C 
BRANCH  72  73
ATOM     73  C   UNL A   1      30.900  25.505  25.502  1.00  0.00     0.174 C 
ATOM     74  O   UNL A   1      30.487  25.098  26.588  1.00  0.00    -0.293 OA
BRANCH  73  75
ATOM     75  C   UNL A   1      31.210  26.954  25.397  1.00  0.00     0.037 A 
ATOM     76  C   UNL A   1      32.130  27.449  26.343  1.00  0.00     0.013 A 
ATOM     77  C   UNL A   1      30.629  27.842  24.488  1.00  0.00     0.051 A 
ATOM     78  C   UNL A   1      32.493  28.796  26.351  1.00  0.00     0.001 A 
ATOM     79  C   UNL A   1      31.019  29.188  24.485  1.00  0.00     0.021 A 
ATOM     80  Cl  UNL A   1      29.348  27.419  23.412  1.00  0.00    -0.084 Cl
ATOM     81  C   UNL A   1      31.948  29.663  25.411  1.00  0.00     0.002 A 
ENDBRANCH  73  75
ENDBRANCH  72  73
ENDBRANCH  71  72
ENDBRANCH  67  71
ENDBRANCH  63  65
ENDBRANCH  62  63
ENDBRANCH  61  62
ENDBRANCH  60  61
ENDBRANCH  59  60
ENDBRANCH   1  59
TORSDOF 21
ENDMDL
