MODEL 1
REMARK VINA RESULT:      -9.7      0.000      0.000
REMARK SMILES C[C@@H](C(=O)OCCOCCOCCOC(=O)c1ccc(-c2c3nc(c(-c4ccccc4)c4ccc([nH]4)c(-c4ccccc4)c4nc(c(-c5ccccc5)c5ccc2[nH]5)C=C4)C=C3)cc1)c1ccc(C[C@@H]2CCC[C@@H]2O)cc1Br
REMARK SMILES IDX 9 1 8 2 7 3 6 4 5 5 3 6 4 7 2 8 1 9 65 10 66 11 77 12 67 13
REMARK SMILES IDX 76 14 78 15 68 16 69 17 70 18 71 19 74 20 72 21 73 22 75 23
REMARK SMILES IDX 10 25 11 26 12 27 13 28 14 29 15 30 16 31 17 32 18 33 64 34
REMARK SMILES IDX 19 35 63 36 20 37 21 38 22 39 57 40 23 41 62 42 56 43 58 44
REMARK SMILES IDX 24 45 61 46 55 47 54 48 25 50 47 51 32 52 46 53 33 54 36 55
REMARK SMILES IDX 45 56 59 57 34 58 35 59 44 61 60 62 37 63 26 64 27 65 31 66
REMARK SMILES IDX 28 67 30 68 29 69 48 70 49 71 53 72 50 73 52 74 51 75 38 76
REMARK SMILES IDX 39 77 43 78 40 79 42 80 41 81
REMARK H PARENT 75 24 58 49 36 60
REMARK Flexibility Score: inf
ROOT
ATOM      1  C   UNL A   1      35.687  22.686  24.372  1.00  0.00     0.188 C 
ENDROOT
BRANCH   1   2
ATOM      2  O   UNL A   1      35.446  24.085  24.492  1.00  0.00    -0.376 OA
BRANCH   2   3
ATOM      3  C   UNL A   1      34.632  24.539  25.575  1.00  0.00     0.202 C 
BRANCH   3   4
ATOM      4  C   UNL A   1      34.095  25.984  25.554  1.00  0.00     0.261 C 
BRANCH   4   5
ATOM      5  O   UNL A   1      32.694  26.081  25.224  1.00  0.00    -0.463 OA
BRANCH   5   6
ATOM      6  C   UNL A   1      32.362  26.061  23.905  1.00  0.00     0.313 C 
ATOM      7  O   UNL A   1      32.889  26.777  23.059  1.00  0.00    -0.252 OA
BRANCH   6   8
ATOM      8  C   UNL A   1      31.314  24.980  23.557  1.00  0.00     0.127 C 
ATOM      9  C   UNL A   1      29.926  25.438  24.028  1.00  0.00     0.025 C 
BRANCH   8  10
ATOM     10  C   UNL A   1      31.790  23.523  23.797  1.00  0.00    -0.020 A 
ATOM     11  C   UNL A   1      32.336  22.826  22.689  1.00  0.00     0.006 A 
ATOM     12  C   UNL A   1      31.584  22.743  24.955  1.00  0.00     0.022 A 
ATOM     13  C   UNL A   1      32.605  21.451  22.703  1.00  0.00     0.004 A 
ATOM     14  C   UNL A   1      31.825  21.350  24.950  1.00  0.00     0.019 A 
ATOM     15  Br  UNL A   1      30.928  23.380  26.621  1.00  0.00    -0.050 Br
ATOM     16  C   UNL A   1      32.280  20.683  23.810  1.00  0.00    -0.047 A 
BRANCH  16  17
ATOM     17  C   UNL A   1      32.334  19.175  23.766  1.00  0.00     0.041 C 
BRANCH  17  18
ATOM     18  C   UNL A   1      33.586  18.470  24.346  1.00  0.00     0.022 C 
ATOM     19  C   UNL A   1      34.164  17.352  23.471  1.00  0.00     0.007 C 
ATOM     20  C   UNL A   1      33.436  17.783  25.706  1.00  0.00     0.117 C 
ATOM     21  C   UNL A   1      33.652  16.030  24.053  1.00  0.00     0.003 C 
ATOM     22  C   UNL A   1      32.978  16.368  25.379  1.00  0.00     0.032 C 
BRANCH  20  23
ATOM     23  O   UNL A   1      32.546  18.443  26.582  1.00  0.00    -0.393 OA
ATOM     24  H   UNL A   1      32.987  18.599  27.432  1.00  0.00     0.210 HD
ENDBRANCH  20  23
ENDBRANCH  17  18
ENDBRANCH  16  17
ENDBRANCH   8  10
ENDBRANCH   6   8
ENDBRANCH   5   6
ENDBRANCH   4   5
ENDBRANCH   3   4
ENDBRANCH   2   3
ENDBRANCH   1   2
BRANCH   1  25
ATOM     25  C   UNL A   1      36.045  21.889  25.638  1.00  0.00     0.188 C 
BRANCH  25  26
ATOM     26  O   UNL A   1      37.425  21.811  25.906  1.00  0.00    -0.376 OA
BRANCH  26  27
ATOM     27  C   UNL A   1      38.270  21.133  24.993  1.00  0.00     0.202 C 
BRANCH  27  28
ATOM     28  C   UNL A   1      38.869  19.746  25.306  1.00  0.00     0.261 C 
BRANCH  28  29
ATOM     29  O   UNL A   1      39.817  19.653  26.381  1.00  0.00    -0.460 OA
BRANCH  29  30
ATOM     30  C   UNL A   1      41.127  19.764  26.065  1.00  0.00     0.338 C 
ATOM     31  O   UNL A   1      41.768  19.043  25.313  1.00  0.00    -0.246 OA
BRANCH  30  32
ATOM     32  C   UNL A   1      41.605  21.060  26.598  1.00  0.00     0.060 A 
ATOM     33  C   UNL A   1      41.492  21.317  27.973  1.00  0.00     0.016 A 
ATOM     34  C   UNL A   1      42.189  22.004  25.751  1.00  0.00     0.016 A 
ATOM     35  C   UNL A   1      41.948  22.525  28.502  1.00  0.00     0.010 A 
ATOM     36  C   UNL A   1      42.616  23.226  26.277  1.00  0.00     0.010 A 
ATOM     37  C   UNL A   1      42.474  23.504  27.649  1.00  0.00    -0.014 A 
BRANCH  37  38
ATOM     38  C   UNL A   1      42.695  24.882  28.151  1.00  0.00     0.031 A 
ATOM     39  C   UNL A   1      44.094  25.290  28.519  1.00  0.00     0.074 A 
ATOM     40  C   UNL A   1      41.683  25.757  28.283  1.00  0.00     0.049 A 
ATOM     41  N   UNL A   1      44.524  26.411  29.040  1.00  0.00    -0.248 NA
ATOM     42  C   UNL A   1      45.150  24.293  28.276  1.00  0.00     0.031 C 
ATOM     43  C   UNL A   1      40.290  25.499  27.931  1.00  0.00     0.029 A 
ATOM     44  N   UNL A   1      41.680  27.048  28.754  1.00  0.00    -0.354 N 
ATOM     45  C   UNL A   1      45.891  26.241  29.216  1.00  0.00     0.074 A 
ATOM     46  C   UNL A   1      46.219  24.909  28.757  1.00  0.00     0.031 C 
ATOM     47  C   UNL A   1      39.566  26.603  28.193  1.00  0.00     0.029 A 
ATOM     48  C   UNL A   1      40.437  27.631  28.758  1.00  0.00     0.049 A 
ATOM     49  H   UNL A   1      42.493  27.511  29.060  1.00  0.00     0.167 HD
ATOM     50  C   UNL A   1      46.795  27.114  29.723  1.00  0.00     0.031 A 
ATOM     51  C   UNL A   1      40.047  28.849  29.183  1.00  0.00     0.031 A 
ATOM     52  C   UNL A   1      46.471  28.432  30.193  1.00  0.00     0.049 A 
ATOM     53  C   UNL A   1      41.063  29.781  29.797  1.00  0.00     0.074 A 
ATOM     54  C   UNL A   1      47.320  29.393  30.715  1.00  0.00     0.029 A 
ATOM     55  N   UNL A   1      45.195  28.974  30.210  1.00  0.00    -0.354 N 
ATOM     56  N   UNL A   1      42.358  29.619  29.937  1.00  0.00    -0.248 NA
ATOM     57  C   UNL A   1      40.559  31.060  30.319  1.00  0.00     0.031 C 
ATOM     58  C   UNL A   1      46.548  30.490  31.109  1.00  0.00     0.029 A 
ATOM     59  C   UNL A   1      45.230  30.244  30.761  1.00  0.00     0.049 A 
ATOM     60  H   UNL A   1      44.385  28.523  29.879  1.00  0.00     0.167 HD
ATOM     61  C   UNL A   1      42.822  30.782  30.543  1.00  0.00     0.074 A 
ATOM     62  C   UNL A   1      41.678  31.650  30.717  1.00  0.00     0.031 C 
ATOM     63  C   UNL A   1      44.084  31.100  30.926  1.00  0.00     0.031 A 
BRANCH  50  64
ATOM     64  C   UNL A   1      48.217  26.640  29.846  1.00  0.00    -0.014 A 
ATOM     65  C   UNL A   1      48.651  25.895  30.953  1.00  0.00     0.009 A 
ATOM     66  C   UNL A   1      49.130  26.924  28.818  1.00  0.00     0.009 A 
ATOM     67  C   UNL A   1      49.980  25.476  31.044  1.00  0.00     0.001 A 
ATOM     68  C   UNL A   1      50.448  26.475  28.895  1.00  0.00     0.001 A 
ATOM     69  C   UNL A   1      50.875  25.760  30.013  1.00  0.00     0.000 A 
ENDBRANCH  50  64
BRANCH  51  70
ATOM     70  C   UNL A   1      38.622  29.267  29.072  1.00  0.00    -0.014 A 
ATOM     71  C   UNL A   1      38.126  29.807  27.875  1.00  0.00     0.009 A 
ATOM     72  C   UNL A   1      37.759  29.169  30.176  1.00  0.00     0.009 A 
ATOM     73  C   UNL A   1      36.808  30.264  27.794  1.00  0.00     0.001 A 
ATOM     74  C   UNL A   1      36.432  29.592  30.081  1.00  0.00     0.001 A 
ATOM     75  C   UNL A   1      35.960  30.151  28.895  1.00  0.00     0.000 A 
ENDBRANCH  51  70
BRANCH  63  76
ATOM     76  C   UNL A   1      44.306  32.461  31.532  1.00  0.00    -0.014 A 
ATOM     77  C   UNL A   1      44.389  33.614  30.738  1.00  0.00     0.009 A 
ATOM     78  C   UNL A   1      44.383  32.592  32.929  1.00  0.00     0.009 A 
ATOM     79  C   UNL A   1      44.581  34.867  31.328  1.00  0.00     0.001 A 
ATOM     80  C   UNL A   1      44.540  33.848  33.517  1.00  0.00     0.001 A 
ATOM     81  C   UNL A   1      44.650  34.983  32.715  1.00  0.00     0.000 A 
ENDBRANCH  63  76
ENDBRANCH  37  38
ENDBRANCH  30  32
ENDBRANCH  29  30
ENDBRANCH  28  29
ENDBRANCH  27  28
ENDBRANCH  26  27
ENDBRANCH  25  26
ENDBRANCH   1  25
TORSDOF 21
ENDMDL
MODEL 2
REMARK VINA RESULT:      -9.5      3.632      9.106
REMARK SMILES C[C@@H](C(=O)OCCOCCOCCOC(=O)c1ccc(-c2c3nc(c(-c4ccccc4)c4ccc([nH]4)c(-c4ccccc4)c4nc(c(-c5ccccc5)c5ccc2[nH]5)C=C4)C=C3)cc1)c1ccc(C[C@@H]2CCC[C@@H]2O)cc1Br
REMARK SMILES IDX 9 1 8 2 7 3 6 4 5 5 3 6 4 7 2 8 1 9 65 10 66 11 77 12 67 13
REMARK SMILES IDX 76 14 78 15 68 16 69 17 70 18 71 19 74 20 72 21 73 22 75 23
REMARK SMILES IDX 10 25 11 26 12 27 13 28 14 29 15 30 16 31 17 32 18 33 64 34
REMARK SMILES IDX 19 35 63 36 20 37 21 38 22 39 57 40 23 41 62 42 56 43 58 44
REMARK SMILES IDX 24 45 61 46 55 47 54 48 25 50 47 51 32 52 46 53 33 54 36 55
REMARK SMILES IDX 45 56 59 57 34 58 35 59 44 61 60 62 37 63 26 64 27 65 31 66
REMARK SMILES IDX 28 67 30 68 29 69 48 70 49 71 53 72 50 73 52 74 51 75 38 76
REMARK SMILES IDX 39 77 43 78 40 79 42 80 41 81
REMARK H PARENT 75 24 58 49 36 60
REMARK Flexibility Score: inf
ROOT
ATOM      1  C   UNL A   1      33.890  27.388  26.107  1.00  0.00     0.188 C 
ENDROOT
BRANCH   1   2
ATOM      2  O   UNL A   1      34.019  26.500  25.000  1.00  0.00    -0.376 OA
BRANCH   2   3
ATOM      3  C   UNL A   1      34.218  25.111  25.270  1.00  0.00     0.202 C 
BRANCH   3   4
ATOM      4  C   UNL A   1      33.310  24.409  26.298  1.00  0.00     0.261 C 
BRANCH   4   5
ATOM      5  O   UNL A   1      32.336  23.523  25.708  1.00  0.00    -0.463 OA
BRANCH   5   6
ATOM      6  C   UNL A   1      31.056  23.972  25.623  1.00  0.00     0.313 C 
ATOM      7  O   UNL A   1      30.355  24.222  26.599  1.00  0.00    -0.252 OA
BRANCH   6   8
ATOM      8  C   UNL A   1      30.596  24.227  24.170  1.00  0.00     0.127 C 
ATOM      9  C   UNL A   1      31.088  23.086  23.267  1.00  0.00     0.025 C 
BRANCH   8  10
ATOM     10  C   UNL A   1      30.707  25.704  23.710  1.00  0.00    -0.020 A 
ATOM     11  C   UNL A   1      29.791  26.631  24.269  1.00  0.00     0.006 A 
ATOM     12  C   UNL A   1      31.506  26.208  22.661  1.00  0.00     0.022 A 
ATOM     13  C   UNL A   1      29.635  27.940  23.794  1.00  0.00     0.004 A 
ATOM     14  C   UNL A   1      31.318  27.518  22.164  1.00  0.00     0.019 A 
ATOM     15  Br  UNL A   1      32.867  25.251  21.743  1.00  0.00    -0.050 Br
ATOM     16  C   UNL A   1      30.344  28.374  22.684  1.00  0.00    -0.047 A 
BRANCH  16  17
ATOM     17  C   UNL A   1      30.024  29.684  22.008  1.00  0.00     0.041 C 
BRANCH  17  18
ATOM     18  C   UNL A   1      28.617  30.296  22.226  1.00  0.00     0.022 C 
ATOM     19  C   UNL A   1      27.904  30.753  20.947  1.00  0.00     0.007 C 
ATOM     20  C   UNL A   1      28.523  31.535  23.119  1.00  0.00     0.117 C 
ATOM     21  C   UNL A   1      28.102  32.269  20.853  1.00  0.00     0.003 C 
ATOM     22  C   UNL A   1      28.722  32.713  22.175  1.00  0.00     0.032 C 
BRANCH  20  23
ATOM     23  O   UNL A   1      29.451  31.542  24.183  1.00  0.00    -0.393 OA
ATOM     24  H   UNL A   1      30.338  31.728  23.837  1.00  0.00     0.210 HD
ENDBRANCH  20  23
ENDBRANCH  17  18
ENDBRANCH  16  17
ENDBRANCH   8  10
ENDBRANCH   6   8
ENDBRANCH   5   6
ENDBRANCH   4   5
ENDBRANCH   3   4
ENDBRANCH   2   3
ENDBRANCH   1   2
BRANCH   1  25
ATOM     25  C   UNL A   1      32.544  28.096  26.330  1.00  0.00     0.188 C 
BRANCH  25  26
ATOM     26  O   UNL A   1      32.331  29.217  25.506  1.00  0.00    -0.376 OA
BRANCH  26  27
ATOM     27  C   UNL A   1      32.022  30.465  26.101  1.00  0.00     0.202 C 
BRANCH  27  28
ATOM     28  C   UNL A   1      33.014  31.200  27.027  1.00  0.00     0.261 C 
BRANCH  28  29
ATOM     29  O   UNL A   1      32.484  32.188  27.925  1.00  0.00    -0.460 OA
BRANCH  29  30
ATOM     30  C   UNL A   1      33.136  33.369  28.003  1.00  0.00     0.338 C 
ATOM     31  O   UNL A   1      32.675  34.483  27.793  1.00  0.00    -0.246 OA
BRANCH  30  32
ATOM     32  C   UNL A   1      34.455  33.109  28.624  1.00  0.00     0.060 A 
ATOM     33  C   UNL A   1      35.619  33.500  27.946  1.00  0.00     0.016 A 
ATOM     34  C   UNL A   1      34.540  32.509  29.882  1.00  0.00     0.016 A 
ATOM     35  C   UNL A   1      36.873  33.277  28.518  1.00  0.00     0.010 A 
ATOM     36  C   UNL A   1      35.797  32.257  30.439  1.00  0.00     0.010 A 
ATOM     37  C   UNL A   1      36.970  32.616  29.749  1.00  0.00    -0.014 A 
BRANCH  37  38
ATOM     38  C   UNL A   1      38.287  32.126  30.224  1.00  0.00     0.031 A 
ATOM     39  C   UNL A   1      38.812  30.836  29.659  1.00  0.00     0.074 A 
ATOM     40  C   UNL A   1      39.006  32.803  31.136  1.00  0.00     0.049 A 
ATOM     41  N   UNL A   1      39.899  30.175  29.966  1.00  0.00    -0.248 NA
ATOM     42  C   UNL A   1      37.992  30.199  28.615  1.00  0.00     0.031 C 
ATOM     43  C   UNL A   1      38.627  34.080  31.735  1.00  0.00     0.029 A 
ATOM     44  N   UNL A   1      40.213  32.501  31.717  1.00  0.00    -0.354 N 
ATOM     45  C   UNL A   1      39.876  29.032  29.178  1.00  0.00     0.074 A 
ATOM     46  C   UNL A   1      38.667  29.082  28.387  1.00  0.00     0.031 C 
ATOM     47  C   UNL A   1      39.590  34.456  32.597  1.00  0.00     0.029 A 
ATOM     48  C   UNL A   1      40.634  33.434  32.633  1.00  0.00     0.049 A 
ATOM     49  H   UNL A   1      40.729  31.691  31.498  1.00  0.00     0.167 HD
ATOM     50  C   UNL A   1      40.779  28.024  29.122  1.00  0.00     0.031 A 
ATOM     51  C   UNL A   1      41.728  33.452  33.419  1.00  0.00     0.031 A 
ATOM     52  C   UNL A   1      41.975  27.963  29.917  1.00  0.00     0.049 A 
ATOM     53  C   UNL A   1      42.690  32.289  33.379  1.00  0.00     0.074 A 
ATOM     54  C   UNL A   1      42.955  26.986  29.924  1.00  0.00     0.029 A 
ATOM     55  N   UNL A   1      42.349  28.912  30.856  1.00  0.00    -0.354 N 
ATOM     56  N   UNL A   1      42.671  31.224  32.613  1.00  0.00    -0.248 NA
ATOM     57  C   UNL A   1      43.817  32.329  34.323  1.00  0.00     0.031 C 
ATOM     58  C   UNL A   1      43.888  27.311  30.913  1.00  0.00     0.029 A 
ATOM     59  C   UNL A   1      43.530  28.528  31.468  1.00  0.00     0.049 A 
ATOM     60  H   UNL A   1      41.849  29.736  31.056  1.00  0.00     0.167 HD
ATOM     61  C   UNL A   1      43.792  30.482  32.968  1.00  0.00     0.074 A 
ATOM     62  C   UNL A   1      44.483  31.230  33.996  1.00  0.00     0.031 C 
ATOM     63  C   UNL A   1      44.210  29.283  32.489  1.00  0.00     0.031 A 
BRANCH  50  64
ATOM     64  C   UNL A   1      40.472  26.872  28.204  1.00  0.00    -0.014 A 
ATOM     65  C   UNL A   1      40.994  26.807  26.903  1.00  0.00     0.009 A 
ATOM     66  C   UNL A   1      39.665  25.820  28.666  1.00  0.00     0.009 A 
ATOM     67  C   UNL A   1      40.683  25.729  26.072  1.00  0.00     0.001 A 
ATOM     68  C   UNL A   1      39.385  24.727  27.845  1.00  0.00     0.001 A 
ATOM     69  C   UNL A   1      39.886  24.688  26.545  1.00  0.00     0.000 A 
ENDBRANCH  50  64
BRANCH  51  70
ATOM     70  C   UNL A   1      41.979  34.597  34.338  1.00  0.00    -0.014 A 
ATOM     71  C   UNL A   1      42.723  35.708  33.910  1.00  0.00     0.009 A 
ATOM     72  C   UNL A   1      41.513  34.568  35.662  1.00  0.00     0.009 A 
ATOM     73  C   UNL A   1      43.018  36.750  34.795  1.00  0.00     0.001 A 
ATOM     74  C   UNL A   1      41.777  35.626  36.533  1.00  0.00     0.001 A 
ATOM     75  C   UNL A   1      42.540  36.711  36.104  1.00  0.00     0.000 A 
ENDBRANCH  51  70
BRANCH  63  76
ATOM     76  C   UNL A   1      45.496  28.724  33.036  1.00  0.00    -0.014 A 
ATOM     77  C   UNL A   1      45.510  27.857  34.139  1.00  0.00     0.009 A 
ATOM     78  C   UNL A   1      46.711  29.035  32.403  1.00  0.00     0.009 A 
ATOM     79  C   UNL A   1      46.718  27.342  34.619  1.00  0.00     0.001 A 
ATOM     80  C   UNL A   1      47.912  28.492  32.862  1.00  0.00     0.001 A 
ATOM     81  C   UNL A   1      47.915  27.654  33.976  1.00  0.00     0.000 A 
ENDBRANCH  63  76
ENDBRANCH  37  38
ENDBRANCH  30  32
ENDBRANCH  29  30
ENDBRANCH  28  29
ENDBRANCH  27  28
ENDBRANCH  26  27
ENDBRANCH  25  26
ENDBRANCH   1  25
TORSDOF 21
ENDMDL
MODEL 3
REMARK VINA RESULT:      -9.3      4.920      9.814
REMARK SMILES C[C@@H](C(=O)OCCOCCOCCOC(=O)c1ccc(-c2c3nc(c(-c4ccccc4)c4ccc([nH]4)c(-c4ccccc4)c4nc(c(-c5ccccc5)c5ccc2[nH]5)C=C4)C=C3)cc1)c1ccc(C[C@@H]2CCC[C@@H]2O)cc1Br
REMARK SMILES IDX 9 1 8 2 7 3 6 4 5 5 3 6 4 7 2 8 1 9 65 10 66 11 77 12 67 13
REMARK SMILES IDX 76 14 78 15 68 16 69 17 70 18 71 19 74 20 72 21 73 22 75 23
REMARK SMILES IDX 10 25 11 26 12 27 13 28 14 29 15 30 16 31 17 32 18 33 64 34
REMARK SMILES IDX 19 35 63 36 20 37 21 38 22 39 57 40 23 41 62 42 56 43 58 44
REMARK SMILES IDX 24 45 61 46 55 47 54 48 25 50 47 51 32 52 46 53 33 54 36 55
REMARK SMILES IDX 45 56 59 57 34 58 35 59 44 61 60 62 37 63 26 64 27 65 31 66
REMARK SMILES IDX 28 67 30 68 29 69 48 70 49 71 53 72 50 73 52 74 51 75 38 76
REMARK SMILES IDX 39 77 43 78 40 79 42 80 41 81
REMARK H PARENT 75 24 58 49 36 60
REMARK Flexibility Score: inf
ROOT
ATOM      1  C   UNL A   1      35.098  32.370  28.672  1.00  0.00     0.188 C 
ENDROOT
BRANCH   1   2
ATOM      2  O   UNL A   1      34.894  31.179  27.917  1.00  0.00    -0.376 OA
BRANCH   2   3
ATOM      3  C   UNL A   1      33.636  31.004  27.262  1.00  0.00     0.202 C 
BRANCH   3   4
ATOM      4  C   UNL A   1      33.112  29.574  27.018  1.00  0.00     0.261 C 
BRANCH   4   5
ATOM      5  O   UNL A   1      32.205  29.469  25.902  1.00  0.00    -0.463 OA
BRANCH   5   6
ATOM      6  C   UNL A   1      32.711  29.001  24.729  1.00  0.00     0.313 C 
ATOM      7  O   UNL A   1      33.739  29.428  24.213  1.00  0.00    -0.252 OA
BRANCH   6   8
ATOM      8  C   UNL A   1      31.911  27.811  24.152  1.00  0.00     0.127 C 
ATOM      9  C   UNL A   1      30.472  27.851  24.689  1.00  0.00     0.025 C 
BRANCH   8  10
ATOM     10  C   UNL A   1      32.697  26.476  24.094  1.00  0.00    -0.020 A 
ATOM     11  C   UNL A   1      33.355  26.056  25.277  1.00  0.00     0.006 A 
ATOM     12  C   UNL A   1      32.983  25.709  22.944  1.00  0.00     0.022 A 
ATOM     13  C   UNL A   1      34.269  24.995  25.314  1.00  0.00     0.004 A 
ATOM     14  C   UNL A   1      33.932  24.663  22.981  1.00  0.00     0.019 A 
ATOM     15  Br  UNL A   1      32.224  25.968  21.221  1.00  0.00    -0.050 Br
ATOM     16  C   UNL A   1      34.626  24.335  24.148  1.00  0.00    -0.047 A 
BRANCH  16  17
ATOM     17  C   UNL A   1      35.776  23.358  24.116  1.00  0.00     0.041 C 
BRANCH  17  18
ATOM     18  C   UNL A   1      36.232  22.720  25.452  1.00  0.00     0.022 C 
ATOM     19  C   UNL A   1      37.730  22.846  25.753  1.00  0.00     0.007 C 
ATOM     20  C   UNL A   1      35.983  21.220  25.633  1.00  0.00     0.117 C 
ATOM     21  C   UNL A   1      38.369  21.509  25.367  1.00  0.00     0.003 C 
ATOM     22  C   UNL A   1      37.224  20.547  25.064  1.00  0.00     0.032 C 
BRANCH  20  23
ATOM     23  O   UNL A   1      34.797  20.761  25.018  1.00  0.00    -0.393 OA
ATOM     24  H   UNL A   1      34.587  21.328  24.259  1.00  0.00     0.210 HD
ENDBRANCH  20  23
ENDBRANCH  17  18
ENDBRANCH  16  17
ENDBRANCH   8  10
ENDBRANCH   6   8
ENDBRANCH   5   6
ENDBRANCH   4   5
ENDBRANCH   3   4
ENDBRANCH   2   3
ENDBRANCH   1   2
BRANCH   1  25
ATOM     25  C   UNL A   1      33.968  33.411  28.726  1.00  0.00     0.188 C 
BRANCH  25  26
ATOM     26  O   UNL A   1      34.371  34.687  29.160  1.00  0.00    -0.376 OA
BRANCH  26  27
ATOM     27  C   UNL A   1      33.545  35.805  28.887  1.00  0.00     0.202 C 
BRANCH  27  28
ATOM     28  C   UNL A   1      32.629  36.430  29.960  1.00  0.00     0.261 C 
BRANCH  28  29
ATOM     29  O   UNL A   1      33.151  36.556  31.293  1.00  0.00    -0.460 OA
BRANCH  29  30
ATOM     30  C   UNL A   1      32.757  35.638  32.203  1.00  0.00     0.338 C 
ATOM     31  O   UNL A   1      31.610  35.306  32.468  1.00  0.00    -0.246 OA
BRANCH  30  32
ATOM     32  C   UNL A   1      33.968  34.921  32.663  1.00  0.00     0.060 A 
ATOM     33  C   UNL A   1      35.220  35.539  32.533  1.00  0.00     0.016 A 
ATOM     34  C   UNL A   1      33.864  33.657  33.247  1.00  0.00     0.016 A 
ATOM     35  C   UNL A   1      36.374  34.889  32.972  1.00  0.00     0.010 A 
ATOM     36  C   UNL A   1      35.024  32.993  33.657  1.00  0.00     0.010 A 
ATOM     37  C   UNL A   1      36.286  33.594  33.498  1.00  0.00    -0.014 A 
BRANCH  37  38
ATOM     38  C   UNL A   1      37.518  32.792  33.701  1.00  0.00     0.031 A 
ATOM     39  C   UNL A   1      38.284  32.975  34.981  1.00  0.00     0.074 A 
ATOM     40  C   UNL A   1      37.954  31.920  32.775  1.00  0.00     0.049 A 
ATOM     41  N   UNL A   1      39.418  32.440  35.355  1.00  0.00    -0.248 NA
ATOM     42  C   UNL A   1      37.696  33.896  35.967  1.00  0.00     0.031 C 
ATOM     43  C   UNL A   1      37.287  31.625  31.510  1.00  0.00     0.029 A 
ATOM     44  N   UNL A   1      39.072  31.122  32.763  1.00  0.00    -0.354 N 
ATOM     45  C   UNL A   1      39.694  32.984  36.603  1.00  0.00     0.074 A 
ATOM     46  C   UNL A   1      38.617  33.896  36.919  1.00  0.00     0.031 C 
ATOM     47  C   UNL A   1      38.008  30.702  30.846  1.00  0.00     0.029 A 
ATOM     48  C   UNL A   1      39.199  30.367  31.623  1.00  0.00     0.049 A 
ATOM     49  H   UNL A   1      39.721  31.094  33.503  1.00  0.00     0.167 HD
ATOM     50  C   UNL A   1      40.754  32.751  37.413  1.00  0.00     0.031 A 
ATOM     51  C   UNL A   1      40.173  29.515  31.246  1.00  0.00     0.031 A 
ATOM     52  C   UNL A   1      41.833  31.856  37.096  1.00  0.00     0.049 A 
ATOM     53  C   UNL A   1      41.372  29.316  32.141  1.00  0.00     0.074 A 
ATOM     54  C   UNL A   1      42.947  31.547  37.857  1.00  0.00     0.029 A 
ATOM     55  N   UNL A   1      41.942  31.134  35.917  1.00  0.00    -0.354 N 
ATOM     56  N   UNL A   1      41.612  29.818  33.329  1.00  0.00    -0.248 NA
ATOM     57  C   UNL A   1      42.440  28.441  31.634  1.00  0.00     0.031 C 
ATOM     58  C   UNL A   1      43.762  30.690  37.112  1.00  0.00     0.029 A 
ATOM     59  C   UNL A   1      43.118  30.404  35.919  1.00  0.00     0.049 A 
ATOM     60  H   UNL A   1      41.280  31.140  35.189  1.00  0.00     0.167 HD
ATOM     61  C   UNL A   1      42.844  29.302  33.718  1.00  0.00     0.074 A 
ATOM     62  C   UNL A   1      43.288  28.428  32.653  1.00  0.00     0.031 C 
ATOM     63  C   UNL A   1      43.548  29.535  34.854  1.00  0.00     0.031 A 
BRANCH  50  64
ATOM     64  C   UNL A   1      40.823  33.526  38.700  1.00  0.00    -0.014 A 
ATOM     65  C   UNL A   1      40.267  33.030  39.889  1.00  0.00     0.009 A 
ATOM     66  C   UNL A   1      41.482  34.765  38.724  1.00  0.00     0.009 A 
ATOM     67  C   UNL A   1      40.340  33.777  41.067  1.00  0.00     0.001 A 
ATOM     68  C   UNL A   1      41.583  35.493  39.909  1.00  0.00     0.001 A 
ATOM     69  C   UNL A   1      41.002  35.003  41.078  1.00  0.00     0.000 A 
ENDBRANCH  50  64
BRANCH  51  70
ATOM     70  C   UNL A   1      40.082  28.791  29.947  1.00  0.00    -0.014 A 
ATOM     71  C   UNL A   1      40.505  29.403  28.757  1.00  0.00     0.009 A 
ATOM     72  C   UNL A   1      39.534  27.500  29.884  1.00  0.00     0.009 A 
ATOM     73  C   UNL A   1      40.354  28.751  27.530  1.00  0.00     0.001 A 
ATOM     74  C   UNL A   1      39.418  26.836  28.662  1.00  0.00     0.001 A 
ATOM     75  C   UNL A   1      39.817  27.466  27.484  1.00  0.00     0.000 A 
ENDBRANCH  51  70
BRANCH  63  76
ATOM     76  C   UNL A   1      44.852  28.803  35.028  1.00  0.00    -0.014 A 
ATOM     77  C   UNL A   1      46.061  29.331  34.550  1.00  0.00     0.009 A 
ATOM     78  C   UNL A   1      44.873  27.584  35.727  1.00  0.00     0.009 A 
ATOM     79  C   UNL A   1      47.259  28.637  34.738  1.00  0.00     0.001 A 
ATOM     80  C   UNL A   1      46.076  26.910  35.943  1.00  0.00     0.001 A 
ATOM     81  C   UNL A   1      47.266  27.431  35.439  1.00  0.00     0.000 A 
ENDBRANCH  63  76
ENDBRANCH  37  38
ENDBRANCH  30  32
ENDBRANCH  29  30
ENDBRANCH  28  29
ENDBRANCH  27  28
ENDBRANCH  26  27
ENDBRANCH  25  26
ENDBRANCH   1  25
TORSDOF 21
ENDMDL
