MODEL 1
REMARK VINA RESULT:      -9.2      0.000      0.000
REMARK SMILES C[C@@H](C(=O)OCCOCCOCCOC(=O)c1ccc(-c2c3nc(c(-c4ccccc4)c4ccc([nH]4)c(-c4ccccc4)c4nc(c(-c5ccccc5)c5ccc2[nH]5)C=C4)C=C3)cc1)c1cccn(C(F)F)c1=O
REMARK SMILES IDX 9 1 8 2 7 3 6 4 5 5 3 6 4 7 2 8 1 9 65 10 66 11 73 12 67 13
REMARK SMILES IDX 69 14 74 15 68 16 70 17 71 18 72 19 10 20 11 21 12 22 13 23
REMARK SMILES IDX 14 24 15 25 16 26 17 27 18 28 64 29 19 30 63 31 20 32 21 33
REMARK SMILES IDX 22 34 57 35 23 36 62 37 56 38 58 39 24 40 61 41 55 42 54 43
REMARK SMILES IDX 25 45 47 46 32 47 46 48 33 49 36 50 45 51 59 52 34 53 35 54
REMARK SMILES IDX 44 56 60 57 37 58 26 59 27 60 31 61 28 62 30 63 29 64 48 65
REMARK SMILES IDX 49 66 53 67 50 68 52 69 51 70 38 71 39 72 43 73 40 74 42 75
REMARK SMILES IDX 41 76
REMARK H PARENT 58 44 36 55
REMARK Flexibility Score: inf
ROOT
ATOM      1  C   UNL A   1      34.097  32.375  28.194  1.00  0.00     0.188 C 
ENDROOT
BRANCH   1   2
ATOM      2  O   UNL A   1      34.431  31.339  27.299  1.00  0.00    -0.376 OA
BRANCH   2   3
ATOM      3  C   UNL A   1      33.539  30.243  27.150  1.00  0.00     0.202 C 
BRANCH   3   4
ATOM      4  C   UNL A   1      33.894  28.798  27.549  1.00  0.00     0.261 C 
BRANCH   4   5
ATOM      5  O   UNL A   1      33.729  27.801  26.527  1.00  0.00    -0.463 OA
BRANCH   5   6
ATOM      6  C   UNL A   1      32.487  27.241  26.448  1.00  0.00     0.313 C 
ATOM      7  O   UNL A   1      31.722  27.127  27.400  1.00  0.00    -0.252 OA
BRANCH   6   8
ATOM      8  C   UNL A   1      32.120  26.730  25.039  1.00  0.00     0.132 C 
ATOM      9  C   UNL A   1      33.251  26.796  23.997  1.00  0.00     0.025 C 
BRANCH   8  10
ATOM     10  C   UNL A   1      30.798  27.212  24.459  1.00  0.00     0.032 A 
ATOM     11  C   UNL A   1      29.781  26.349  24.253  1.00  0.00     0.012 A 
ATOM     12  C   UNL A   1      30.579  28.644  24.050  1.00  0.00     0.259 A 
ATOM     13  C   UNL A   1      28.534  26.748  23.656  1.00  0.00     0.019 A 
ATOM     14  N   UNL A   1      29.400  28.918  23.381  1.00  0.00    -0.258 N 
ATOM     15  O   UNL A   1      31.425  29.504  24.261  1.00  0.00    -0.269 OA
ATOM     16  C   UNL A   1      28.383  28.002  23.228  1.00  0.00     0.095 A 
BRANCH  14  17
ATOM     17  C   UNL A   1      29.230  30.236  22.835  1.00  0.00     0.451 C 
ATOM     18  F   UNL A   1      28.133  30.220  22.035  1.00  0.00    -0.185 F 
ATOM     19  F   UNL A   1      28.974  31.128  23.824  1.00  0.00    -0.185 F 
ENDBRANCH  14  17
ENDBRANCH   8  10
ENDBRANCH   6   8
ENDBRANCH   5   6
ENDBRANCH   4   5
ENDBRANCH   3   4
ENDBRANCH   2   3
ENDBRANCH   1   2
BRANCH   1  20
ATOM     20  C   UNL A   1      34.947  33.654  28.206  1.00  0.00     0.188 C 
BRANCH  20  21
ATOM     21  O   UNL A   1      34.439  34.881  27.734  1.00  0.00    -0.376 OA
BRANCH  21  22
ATOM     22  C   UNL A   1      34.206  35.933  28.657  1.00  0.00     0.202 C 
BRANCH  22  23
ATOM     23  C   UNL A   1      32.875  36.094  29.411  1.00  0.00     0.261 C 
BRANCH  23  24
ATOM     24  O   UNL A   1      32.577  35.123  30.424  1.00  0.00    -0.460 OA
BRANCH  24  25
ATOM     25  C   UNL A   1      32.740  35.546  31.700  1.00  0.00     0.338 C 
ATOM     26  O   UNL A   1      31.974  36.248  32.354  1.00  0.00    -0.246 OA
BRANCH  25  27
ATOM     27  C   UNL A   1      33.919  34.889  32.292  1.00  0.00     0.060 A 
ATOM     28  C   UNL A   1      35.141  35.577  32.323  1.00  0.00     0.016 A 
ATOM     29  C   UNL A   1      33.836  33.576  32.756  1.00  0.00     0.016 A 
ATOM     30  C   UNL A   1      36.289  34.943  32.802  1.00  0.00     0.010 A 
ATOM     31  C   UNL A   1      34.993  32.930  33.203  1.00  0.00     0.010 A 
ATOM     32  C   UNL A   1      36.228  33.601  33.203  1.00  0.00    -0.014 A 
BRANCH  32  33
ATOM     33  C   UNL A   1      37.486  32.854  33.450  1.00  0.00     0.031 A 
ATOM     34  C   UNL A   1      38.140  32.969  34.796  1.00  0.00     0.074 A 
ATOM     35  C   UNL A   1      38.033  32.072  32.504  1.00  0.00     0.049 A 
ATOM     36  N   UNL A   1      39.246  32.419  35.226  1.00  0.00    -0.248 NA
ATOM     37  C   UNL A   1      37.485  33.857  35.770  1.00  0.00     0.031 C 
ATOM     38  C   UNL A   1      37.508  31.905  31.154  1.00  0.00     0.029 A 
ATOM     39  N   UNL A   1      39.119  31.233  32.547  1.00  0.00    -0.354 N 
ATOM     40  C   UNL A   1      39.459  32.951  36.491  1.00  0.00     0.074 A 
ATOM     41  C   UNL A   1      38.353  33.842  36.771  1.00  0.00     0.031 C 
ATOM     42  C   UNL A   1      38.189  30.921  30.541  1.00  0.00     0.029 A 
ATOM     43  C   UNL A   1      39.259  30.457  31.419  1.00  0.00     0.049 A 
ATOM     44  H   UNL A   1      39.738  31.190  33.311  1.00  0.00     0.167 HD
ATOM     45  C   UNL A   1      40.507  32.744  37.323  1.00  0.00     0.031 A 
ATOM     46  C   UNL A   1      40.150  29.486  31.135  1.00  0.00     0.031 A 
ATOM     47  C   UNL A   1      41.610  31.866  37.033  1.00  0.00     0.049 A 
ATOM     48  C   UNL A   1      41.274  29.231  32.107  1.00  0.00     0.074 A 
ATOM     49  C   UNL A   1      42.725  31.600  37.807  1.00  0.00     0.029 A 
ATOM     50  N   UNL A   1      41.737  31.114  35.875  1.00  0.00    -0.354 N 
ATOM     51  N   UNL A   1      41.476  29.746  33.296  1.00  0.00    -0.248 NA
ATOM     52  C   UNL A   1      42.326  28.299  31.672  1.00  0.00     0.031 C 
ATOM     53  C   UNL A   1      43.555  30.731  37.093  1.00  0.00     0.029 A 
ATOM     54  C   UNL A   1      42.922  30.398  35.906  1.00  0.00     0.049 A 
ATOM     55  H   UNL A   1      41.083  31.093  35.139  1.00  0.00     0.167 HD
ATOM     56  C   UNL A   1      42.680  29.216  33.741  1.00  0.00     0.074 A 
ATOM     57  C   UNL A   1      43.136  28.295  32.722  1.00  0.00     0.031 C 
ATOM     58  C   UNL A   1      43.365  29.491  34.879  1.00  0.00     0.031 A 
BRANCH  45  59
ATOM     59  C   UNL A   1      40.549  33.552  38.590  1.00  0.00    -0.014 A 
ATOM     60  C   UNL A   1      41.156  34.816  38.645  1.00  0.00     0.009 A 
ATOM     61  C   UNL A   1      39.946  33.037  39.750  1.00  0.00     0.009 A 
ATOM     62  C   UNL A   1      41.187  35.532  39.844  1.00  0.00     0.001 A 
ATOM     63  C   UNL A   1      39.950  33.769  40.938  1.00  0.00     0.001 A 
ATOM     64  C   UNL A   1      40.579  35.011  40.986  1.00  0.00     0.000 A 
ENDBRANCH  45  59
BRANCH  46  65
ATOM     65  C   UNL A   1      40.062  28.702  29.868  1.00  0.00    -0.014 A 
ATOM     66  C   UNL A   1      39.426  27.448  29.850  1.00  0.00     0.009 A 
ATOM     67  C   UNL A   1      40.641  29.173  28.681  1.00  0.00     0.009 A 
ATOM     68  C   UNL A   1      39.396  26.679  28.682  1.00  0.00     0.001 A 
ATOM     69  C   UNL A   1      40.570  28.424  27.503  1.00  0.00     0.001 A 
ATOM     70  C   UNL A   1      39.960  27.172  27.507  1.00  0.00     0.000 A 
ENDBRANCH  46  65
BRANCH  58  71
ATOM     71  C   UNL A   1      44.673  28.776  35.085  1.00  0.00    -0.014 A 
ATOM     72  C   UNL A   1      44.726  27.509  35.689  1.00  0.00     0.009 A 
ATOM     73  C   UNL A   1      45.864  29.361  34.629  1.00  0.00     0.009 A 
ATOM     74  C   UNL A   1      45.950  26.861  35.864  1.00  0.00     0.001 A 
ATOM     75  C   UNL A   1      47.083  28.696  34.778  1.00  0.00     0.001 A 
ATOM     76  C   UNL A   1      47.126  27.452  35.405  1.00  0.00     0.000 A 
ENDBRANCH  58  71
ENDBRANCH  32  33
ENDBRANCH  25  27
ENDBRANCH  24  25
ENDBRANCH  23  24
ENDBRANCH  22  23
ENDBRANCH  21  22
ENDBRANCH  20  21
ENDBRANCH   1  20
TORSDOF 19
ENDMDL
MODEL 2
REMARK VINA RESULT:      -8.9      2.228      2.852
REMARK SMILES C[C@@H](C(=O)OCCOCCOCCOC(=O)c1ccc(-c2c3nc(c(-c4ccccc4)c4ccc([nH]4)c(-c4ccccc4)c4nc(c(-c5ccccc5)c5ccc2[nH]5)C=C4)C=C3)cc1)c1cccn(C(F)F)c1=O
REMARK SMILES IDX 9 1 8 2 7 3 6 4 5 5 3 6 4 7 2 8 1 9 65 10 66 11 73 12 67 13
REMARK SMILES IDX 69 14 74 15 68 16 70 17 71 18 72 19 10 20 11 21 12 22 13 23
REMARK SMILES IDX 14 24 15 25 16 26 17 27 18 28 64 29 19 30 63 31 20 32 21 33
REMARK SMILES IDX 22 34 57 35 23 36 62 37 56 38 58 39 24 40 61 41 55 42 54 43
REMARK SMILES IDX 25 45 47 46 32 47 46 48 33 49 36 50 45 51 59 52 34 53 35 54
REMARK SMILES IDX 44 56 60 57 37 58 26 59 27 60 31 61 28 62 30 63 29 64 48 65
REMARK SMILES IDX 49 66 53 67 50 68 52 69 51 70 38 71 39 72 43 73 40 74 42 75
REMARK SMILES IDX 41 76
REMARK H PARENT 58 44 36 55
REMARK Flexibility Score: inf
ROOT
ATOM      1  C   UNL A   1      34.050  32.083  28.044  1.00  0.00     0.188 C 
ENDROOT
BRANCH   1   2
ATOM      2  O   UNL A   1      34.555  30.954  27.367  1.00  0.00    -0.376 OA
BRANCH   2   3
ATOM      3  C   UNL A   1      33.640  30.001  26.842  1.00  0.00     0.202 C 
BRANCH   3   4
ATOM      4  C   UNL A   1      33.786  28.481  27.048  1.00  0.00     0.261 C 
BRANCH   4   5
ATOM      5  O   UNL A   1      33.354  27.651  25.958  1.00  0.00    -0.463 OA
BRANCH   5   6
ATOM      6  C   UNL A   1      32.074  27.186  26.045  1.00  0.00     0.313 C 
ATOM      7  O   UNL A   1      31.379  27.266  27.054  1.00  0.00    -0.252 OA
BRANCH   6   8
ATOM      8  C   UNL A   1      31.562  26.519  24.752  1.00  0.00     0.132 C 
ATOM      9  C   UNL A   1      30.032  26.472  24.593  1.00  0.00     0.025 C 
BRANCH   8  10
ATOM     10  C   UNL A   1      32.204  25.195  24.364  1.00  0.00     0.032 A 
ATOM     11  C   UNL A   1      32.744  25.023  23.139  1.00  0.00     0.012 A 
ATOM     12  C   UNL A   1      32.227  24.014  25.298  1.00  0.00     0.259 A 
ATOM     13  C   UNL A   1      33.311  23.772  22.710  1.00  0.00     0.019 A 
ATOM     14  N   UNL A   1      32.684  22.821  24.768  1.00  0.00    -0.258 N 
ATOM     15  O   UNL A   1      31.818  24.103  26.448  1.00  0.00    -0.269 OA
ATOM     16  C   UNL A   1      33.254  22.714  23.519  1.00  0.00     0.095 A 
BRANCH  14  17
ATOM     17  C   UNL A   1      32.569  21.640  25.578  1.00  0.00     0.451 C 
ATOM     18  F   UNL A   1      31.409  21.017  25.249  1.00  0.00    -0.185 F 
ATOM     19  F   UNL A   1      33.570  20.770  25.291  1.00  0.00    -0.185 F 
ENDBRANCH  14  17
ENDBRANCH   8  10
ENDBRANCH   6   8
ENDBRANCH   5   6
ENDBRANCH   4   5
ENDBRANCH   3   4
ENDBRANCH   2   3
ENDBRANCH   1   2
BRANCH   1  20
ATOM     20  C   UNL A   1      34.889  33.368  28.079  1.00  0.00     0.188 C 
BRANCH  20  21
ATOM     21  O   UNL A   1      34.362  34.605  27.655  1.00  0.00    -0.376 OA
BRANCH  21  22
ATOM     22  C   UNL A   1      34.236  35.660  28.594  1.00  0.00     0.202 C 
BRANCH  22  23
ATOM     23  C   UNL A   1      32.907  35.990  29.296  1.00  0.00     0.261 C 
BRANCH  23  24
ATOM     24  O   UNL A   1      32.502  35.125  30.365  1.00  0.00    -0.460 OA
BRANCH  24  25
ATOM     25  C   UNL A   1      32.711  35.607  31.613  1.00  0.00     0.338 C 
ATOM     26  O   UNL A   1      31.992  36.376  32.243  1.00  0.00    -0.246 OA
BRANCH  25  27
ATOM     27  C   UNL A   1      33.870  34.926  32.218  1.00  0.00     0.060 A 
ATOM     28  C   UNL A   1      35.094  35.608  32.304  1.00  0.00     0.016 A 
ATOM     29  C   UNL A   1      33.770  33.600  32.638  1.00  0.00     0.016 A 
ATOM     30  C   UNL A   1      36.225  34.955  32.796  1.00  0.00     0.010 A 
ATOM     31  C   UNL A   1      34.913  32.936  33.097  1.00  0.00     0.010 A 
ATOM     32  C   UNL A   1      36.149  33.601  33.153  1.00  0.00    -0.014 A 
BRANCH  32  33
ATOM     33  C   UNL A   1      37.398  32.842  33.411  1.00  0.00     0.031 A 
ATOM     34  C   UNL A   1      38.044  32.959  34.760  1.00  0.00     0.074 A 
ATOM     35  C   UNL A   1      37.942  32.049  32.473  1.00  0.00     0.049 A 
ATOM     36  N   UNL A   1      39.142  32.399  35.201  1.00  0.00    -0.248 NA
ATOM     37  C   UNL A   1      37.394  33.859  35.725  1.00  0.00     0.031 C 
ATOM     38  C   UNL A   1      37.422  31.881  31.121  1.00  0.00     0.029 A 
ATOM     39  N   UNL A   1      39.018  31.198  32.528  1.00  0.00    -0.354 N 
ATOM     40  C   UNL A   1      39.353  32.935  36.464  1.00  0.00     0.074 A 
ATOM     41  C   UNL A   1      38.255  33.840  36.732  1.00  0.00     0.031 C 
ATOM     42  C   UNL A   1      38.096  30.886  30.517  1.00  0.00     0.029 A 
ATOM     43  C   UNL A   1      39.156  30.414  31.405  1.00  0.00     0.049 A 
ATOM     44  H   UNL A   1      39.632  31.153  33.296  1.00  0.00     0.167 HD
ATOM     45  C   UNL A   1      40.394  32.722  37.304  1.00  0.00     0.031 A 
ATOM     46  C   UNL A   1      40.038  29.432  31.131  1.00  0.00     0.031 A 
ATOM     47  C   UNL A   1      41.488  31.831  37.025  1.00  0.00     0.049 A 
ATOM     48  C   UNL A   1      41.154  29.171  32.112  1.00  0.00     0.074 A 
ATOM     49  C   UNL A   1      42.596  31.556  37.808  1.00  0.00     0.029 A 
ATOM     50  N   UNL A   1      41.615  31.071  35.872  1.00  0.00    -0.354 N 
ATOM     51  N   UNL A   1      41.354  29.690  33.299  1.00  0.00    -0.248 NA
ATOM     52  C   UNL A   1      42.198  28.224  31.689  1.00  0.00     0.031 C 
ATOM     53  C   UNL A   1      43.421  30.674  37.104  1.00  0.00     0.029 A 
ATOM     54  C   UNL A   1      42.791  30.341  35.915  1.00  0.00     0.049 A 
ATOM     55  H   UNL A   1      40.965  31.052  35.133  1.00  0.00     0.167 HD
ATOM     56  C   UNL A   1      42.550  29.150  33.755  1.00  0.00     0.074 A 
ATOM     57  C   UNL A   1      43.001  28.218  32.744  1.00  0.00     0.031 C 
ATOM     58  C   UNL A   1      43.231  29.424  34.896  1.00  0.00     0.031 A 
BRANCH  45  59
ATOM     59  C   UNL A   1      40.437  33.537  38.566  1.00  0.00    -0.014 A 
ATOM     60  C   UNL A   1      39.873  33.078  39.766  1.00  0.00     0.009 A 
ATOM     61  C   UNL A   1      41.078  34.787  38.551  1.00  0.00     0.009 A 
ATOM     62  C   UNL A   1      39.921  33.870  40.916  1.00  0.00     0.001 A 
ATOM     63  C   UNL A   1      41.153  35.561  39.709  1.00  0.00     0.001 A 
ATOM     64  C   UNL A   1      40.566  35.106  40.888  1.00  0.00     0.000 A 
ENDBRANCH  45  59
BRANCH  46  65
ATOM     65  C   UNL A   1      39.949  28.642  29.869  1.00  0.00    -0.014 A 
ATOM     66  C   UNL A   1      39.319  27.385  29.859  1.00  0.00     0.009 A 
ATOM     67  C   UNL A   1      40.522  29.111  28.677  1.00  0.00     0.009 A 
ATOM     68  C   UNL A   1      39.288  26.610  28.694  1.00  0.00     0.001 A 
ATOM     69  C   UNL A   1      40.450  28.355  27.504  1.00  0.00     0.001 A 
ATOM     70  C   UNL A   1      39.845  27.101  27.516  1.00  0.00     0.000 A 
ENDBRANCH  46  65
BRANCH  58  71
ATOM     71  C   UNL A   1      44.529  28.696  35.114  1.00  0.00    -0.014 A 
ATOM     72  C   UNL A   1      45.751  29.239  34.686  1.00  0.00     0.009 A 
ATOM     73  C   UNL A   1      44.533  27.470  35.797  1.00  0.00     0.009 A 
ATOM     74  C   UNL A   1      46.946  28.550  34.904  1.00  0.00     0.001 A 
ATOM     75  C   UNL A   1      45.732  26.798  36.041  1.00  0.00     0.001 A 
ATOM     76  C   UNL A   1      46.936  27.333  35.585  1.00  0.00     0.000 A 
ENDBRANCH  58  71
ENDBRANCH  32  33
ENDBRANCH  25  27
ENDBRANCH  24  25
ENDBRANCH  23  24
ENDBRANCH  22  23
ENDBRANCH  21  22
ENDBRANCH  20  21
ENDBRANCH   1  20
TORSDOF 19
ENDMDL
MODEL 3
REMARK VINA RESULT:      -8.7      4.132      6.015
REMARK SMILES C[C@@H](C(=O)OCCOCCOCCOC(=O)c1ccc(-c2c3nc(c(-c4ccccc4)c4ccc([nH]4)c(-c4ccccc4)c4nc(c(-c5ccccc5)c5ccc2[nH]5)C=C4)C=C3)cc1)c1cccn(C(F)F)c1=O
REMARK SMILES IDX 9 1 8 2 7 3 6 4 5 5 3 6 4 7 2 8 1 9 65 10 66 11 73 12 67 13
REMARK SMILES IDX 69 14 74 15 68 16 70 17 71 18 72 19 10 20 11 21 12 22 13 23
REMARK SMILES IDX 14 24 15 25 16 26 17 27 18 28 64 29 19 30 63 31 20 32 21 33
REMARK SMILES IDX 22 34 57 35 23 36 62 37 56 38 58 39 24 40 61 41 55 42 54 43
REMARK SMILES IDX 25 45 47 46 32 47 46 48 33 49 36 50 45 51 59 52 34 53 35 54
REMARK SMILES IDX 44 56 60 57 37 58 26 59 27 60 31 61 28 62 30 63 29 64 48 65
REMARK SMILES IDX 49 66 53 67 50 68 52 69 51 70 38 71 39 72 43 73 40 74 42 75
REMARK SMILES IDX 41 76
REMARK H PARENT 58 44 36 55
REMARK Flexibility Score: inf
ROOT
ATOM      1  C   UNL A   1      32.608  28.487  25.097  1.00  0.00     0.188 C 
ENDROOT
BRANCH   1   2
ATOM      2  O   UNL A   1      32.025  28.765  23.844  1.00  0.00    -0.376 OA
BRANCH   2   3
ATOM      3  C   UNL A   1      32.437  28.013  22.710  1.00  0.00     0.202 C 
BRANCH   3   4
ATOM      4  C   UNL A   1      33.867  27.470  22.526  1.00  0.00     0.261 C 
BRANCH   4   5
ATOM      5  O   UNL A   1      33.976  26.081  22.176  1.00  0.00    -0.463 OA
BRANCH   5   6
ATOM      6  C   UNL A   1      33.971  25.208  23.225  1.00  0.00     0.313 C 
ATOM      7  O   UNL A   1      34.297  25.507  24.371  1.00  0.00    -0.252 OA
BRANCH   6   8
ATOM      8  C   UNL A   1      33.533  23.779  22.847  1.00  0.00     0.132 C 
ATOM      9  C   UNL A   1      32.014  23.565  22.716  1.00  0.00     0.025 C 
BRANCH   8  10
ATOM     10  C   UNL A   1      34.193  22.636  23.606  1.00  0.00     0.032 A 
ATOM     11  C   UNL A   1      33.450  21.753  24.306  1.00  0.00     0.012 A 
ATOM     12  C   UNL A   1      35.688  22.464  23.650  1.00  0.00     0.259 A 
ATOM     13  C   UNL A   1      34.035  20.692  25.082  1.00  0.00     0.019 A 
ATOM     14  N   UNL A   1      36.170  21.494  24.509  1.00  0.00    -0.258 N 
ATOM     15  O   UNL A   1      36.432  23.181  22.992  1.00  0.00    -0.269 OA
ATOM     16  C   UNL A   1      35.361  20.600  25.175  1.00  0.00     0.095 A 
BRANCH  14  17
ATOM     17  C   UNL A   1      37.593  21.412  24.697  1.00  0.00     0.451 C 
ATOM     18  F   UNL A   1      37.881  21.905  25.929  1.00  0.00    -0.185 F 
ATOM     19  F   UNL A   1      37.995  20.117  24.695  1.00  0.00    -0.185 F 
ENDBRANCH  14  17
ENDBRANCH   8  10
ENDBRANCH   6   8
ENDBRANCH   5   6
ENDBRANCH   4   5
ENDBRANCH   3   4
ENDBRANCH   2   3
ENDBRANCH   1   2
BRANCH   1  20
ATOM     20  C   UNL A   1      31.761  28.651  26.366  1.00  0.00     0.188 C 
BRANCH  20  21
ATOM     21  O   UNL A   1      32.184  29.467  27.435  1.00  0.00    -0.376 OA
BRANCH  21  22
ATOM     22  C   UNL A   1      33.280  30.346  27.241  1.00  0.00     0.202 C 
BRANCH  22  23
ATOM     23  C   UNL A   1      33.243  31.824  27.668  1.00  0.00     0.261 C 
BRANCH  23  24
ATOM     24  O   UNL A   1      34.490  32.427  28.039  1.00  0.00    -0.460 OA
BRANCH  24  25
ATOM     25  C   UNL A   1      34.855  32.260  29.333  1.00  0.00     0.338 C 
ATOM     26  O   UNL A   1      34.228  32.599  30.331  1.00  0.00    -0.246 OA
BRANCH  25  27
ATOM     27  C   UNL A   1      36.069  31.427  29.400  1.00  0.00     0.060 A 
ATOM     28  C   UNL A   1      36.079  30.300  30.236  1.00  0.00     0.016 A 
ATOM     29  C   UNL A   1      37.215  31.792  28.693  1.00  0.00     0.016 A 
ATOM     30  C   UNL A   1      37.245  29.546  30.379  1.00  0.00     0.010 A 
ATOM     31  C   UNL A   1      38.392  31.056  28.865  1.00  0.00     0.010 A 
ATOM     32  C   UNL A   1      38.420  29.948  29.728  1.00  0.00    -0.014 A 
BRANCH  32  33
ATOM     33  C   UNL A   1      39.711  29.314  30.092  1.00  0.00     0.031 A 
ATOM     34  C   UNL A   1      40.449  29.824  31.296  1.00  0.00     0.074 A 
ATOM     35  C   UNL A   1      40.215  28.293  29.380  1.00  0.00     0.049 A 
ATOM     36  N   UNL A   1      41.596  29.432  31.789  1.00  0.00    -0.248 NA
ATOM     37  C   UNL A   1      39.837  30.955  32.012  1.00  0.00     0.031 C 
ATOM     38  C   UNL A   1      39.607  27.734  28.179  1.00  0.00     0.029 A 
ATOM     39  N   UNL A   1      41.324  27.510  29.590  1.00  0.00    -0.354 N 
ATOM     40  C   UNL A   1      41.877  30.312  32.825  1.00  0.00     0.074 A 
ATOM     41  C   UNL A   1      40.769  31.239  32.909  1.00  0.00     0.031 C 
ATOM     42  C   UNL A   1      40.272  26.618  27.833  1.00  0.00     0.029 A 
ATOM     43  C   UNL A   1      41.410  26.438  28.731  1.00  0.00     0.049 A 
ATOM     44  H   UNL A   1      41.993  27.698  30.287  1.00  0.00     0.167 HD
ATOM     45  C   UNL A   1      42.983  30.366  33.604  1.00  0.00     0.031 A 
ATOM     46  C   UNL A   1      42.306  25.432  28.680  1.00  0.00     0.031 A 
ATOM     47  C   UNL A   1      44.087  29.449  33.506  1.00  0.00     0.049 A 
ATOM     48  C   UNL A   1      43.499  25.482  29.602  1.00  0.00     0.074 A 
ATOM     49  C   UNL A   1      45.258  29.428  34.243  1.00  0.00     0.029 A 
ATOM     50  N   UNL A   1      44.158  28.391  32.612  1.00  0.00    -0.354 N 
ATOM     51  N   UNL A   1      43.764  26.324  30.571  1.00  0.00    -0.248 NA
ATOM     52  C   UNL A   1      44.544  24.469  29.386  1.00  0.00     0.031 C 
ATOM     53  C   UNL A   1      46.063  28.393  33.757  1.00  0.00     0.029 A 
ATOM     54  C   UNL A   1      45.362  27.722  32.767  1.00  0.00     0.049 A 
ATOM     55  H   UNL A   1      43.458  28.150  31.963  1.00  0.00     0.167 HD
ATOM     56  C   UNL A   1      45.009  25.956  31.065  1.00  0.00     0.074 A 
ATOM     57  C   UNL A   1      45.421  24.779  30.331  1.00  0.00     0.031 C 
ATOM     58  C   UNL A   1      45.760  26.557  32.022  1.00  0.00     0.031 A 
BRANCH  45  59
ATOM     59  C   UNL A   1      43.087  31.510  34.573  1.00  0.00    -0.014 A 
ATOM     60  C   UNL A   1      43.713  32.719  34.230  1.00  0.00     0.009 A 
ATOM     61  C   UNL A   1      42.524  31.376  35.853  1.00  0.00     0.009 A 
ATOM     62  C   UNL A   1      43.802  33.755  35.163  1.00  0.00     0.001 A 
ATOM     63  C   UNL A   1      42.585  32.425  36.770  1.00  0.00     0.001 A 
ATOM     64  C   UNL A   1      43.233  33.610  36.428  1.00  0.00     0.000 A 
ENDBRANCH  45  59
BRANCH  46  65
ATOM     65  C   UNL A   1      42.156  24.311  27.708  1.00  0.00    -0.014 A 
ATOM     66  C   UNL A   1      41.336  23.210  28.013  1.00  0.00     0.009 A 
ATOM     67  C   UNL A   1      42.854  24.306  26.491  1.00  0.00     0.009 A 
ATOM     68  C   UNL A   1      41.241  22.125  27.134  1.00  0.00     0.001 A 
ATOM     69  C   UNL A   1      42.722  23.242  25.594  1.00  0.00     0.001 A 
ATOM     70  C   UNL A   1      41.927  22.147  25.922  1.00  0.00     0.000 A 
ENDBRANCH  46  65
BRANCH  58  71
ATOM     71  C   UNL A   1      47.097  25.942  32.334  1.00  0.00    -0.014 A 
ATOM     72  C   UNL A   1      47.269  25.088  33.435  1.00  0.00     0.009 A 
ATOM     73  C   UNL A   1      48.190  26.187  31.488  1.00  0.00     0.009 A 
ATOM     74  C   UNL A   1      48.518  24.523  33.704  1.00  0.00     0.001 A 
ATOM     75  C   UNL A   1      49.429  25.597  31.742  1.00  0.00     0.001 A 
ATOM     76  C   UNL A   1      49.595  24.774  32.855  1.00  0.00     0.000 A 
ENDBRANCH  58  71
ENDBRANCH  32  33
ENDBRANCH  25  27
ENDBRANCH  24  25
ENDBRANCH  23  24
ENDBRANCH  22  23
ENDBRANCH  21  22
ENDBRANCH  20  21
ENDBRANCH   1  20
TORSDOF 19
ENDMDL
