MODEL 1
REMARK VINA RESULT:      -9.9      0.000      0.000
REMARK SMILES CCc1cc(C)c2c(c1)C=C(C(=O)OCCOCCOCCOC(=O)c1ccc(-c3c4nc(c(-c5ccccc5)c5ccc([nH]5)c(-c5ccccc5)c5nc(c(-c6ccccc6)c6ccc3[nH]6)C=C5)C=C4)cc1)[C@@H](C(F)(F)F)O2
REMARK SMILES IDX 19 1 18 2 17 3 16 4 15 5 14 6 12 7 13 8 11 9 3 10 4 11 9 12
REMARK SMILES IDX 5 13 8 14 6 15 7 16 10 17 79 18 74 19 2 20 1 21 75 22 76 23
REMARK SMILES IDX 77 24 78 25 20 26 21 27 22 28 23 29 24 30 25 31 26 32 27 33
REMARK SMILES IDX 73 34 28 35 72 36 29 37 30 38 31 39 66 40 32 41 71 42 65 43
REMARK SMILES IDX 67 44 33 45 70 46 64 47 63 48 34 50 56 51 41 52 55 53 42 54
REMARK SMILES IDX 45 55 54 56 68 57 43 58 44 59 53 61 69 62 46 63 35 64 36 65
REMARK SMILES IDX 40 66 37 67 39 68 38 69 57 70 58 71 62 72 59 73 61 74 60 75
REMARK SMILES IDX 47 76 48 77 52 78 49 79 51 80 50 81
REMARK H PARENT 67 49 45 60
REMARK Flexibility Score: inf
ROOT
ATOM      1  C   UNL A   1      37.633  22.444  25.750  1.00  0.00     0.188 C 
ENDROOT
BRANCH   1   2
ATOM      2  C   UNL A   1      36.670  23.647  25.662  1.00  0.00     0.188 C 
BRANCH   2   3
ATOM      3  O   UNL A   1      35.382  23.590  26.238  1.00  0.00    -0.376 OA
BRANCH   3   4
ATOM      4  C   UNL A   1      34.880  22.381  26.778  1.00  0.00     0.202 C 
BRANCH   4   5
ATOM      5  C   UNL A   1      33.438  22.238  27.282  1.00  0.00     0.261 C 
BRANCH   5   6
ATOM      6  O   UNL A   1      32.422  22.427  26.289  1.00  0.00    -0.460 OA
BRANCH   6   7
ATOM      7  C   UNL A   1      31.559  23.443  26.533  1.00  0.00     0.338 C 
ATOM      8  O   UNL A   1      30.575  23.408  27.251  1.00  0.00    -0.246 OA
BRANCH   7   9
ATOM      9  C   UNL A   1      32.061  24.681  25.904  1.00  0.00     0.087 C 
ATOM     10  C   UNL A   1      32.674  29.461  26.159  1.00  0.00    -0.047 A 
ATOM     11  C   UNL A   1      33.050  29.468  24.808  1.00  0.00     0.011 A 
ATOM     12  C   UNL A   1      32.379  28.237  26.771  1.00  0.00     0.015 A 
ATOM     13  C   UNL A   1      33.128  28.276  24.072  1.00  0.00    -0.008 A 
ATOM     14  C   UNL A   1      32.448  27.039  26.045  1.00  0.00     0.018 A 
ATOM     15  C   UNL A   1      33.486  28.319  22.613  1.00  0.00     0.048 C 
ATOM     16  C   UNL A   1      32.848  27.057  24.708  1.00  0.00     0.130 A 
ATOM     17  C   UNL A   1      32.034  25.787  26.658  1.00  0.00     0.027 C 
ATOM     18  O   UNL A   1      32.985  25.926  23.952  1.00  0.00    -0.475 OA
ATOM     19  C   UNL A   1      32.566  24.645  24.488  1.00  0.00     0.316 C 
BRANCH  10  20
ATOM     20  C   UNL A   1      32.578  30.753  26.936  1.00  0.00     0.032 C 
ATOM     21  C   UNL A   1      31.403  31.621  26.503  1.00  0.00     0.009 C 
ENDBRANCH  10  20
BRANCH  19  22
ATOM     22  C   UNL A   1      31.547  24.033  23.517  1.00  0.00     0.430 C 
ATOM     23  F   UNL A   1      31.618  24.617  22.296  1.00  0.00    -0.167 F 
ATOM     24  F   UNL A   1      31.767  22.710  23.324  1.00  0.00    -0.167 F 
ATOM     25  F   UNL A   1      30.278  24.170  23.961  1.00  0.00    -0.167 F 
ENDBRANCH  19  22
ENDBRANCH   7   9
ENDBRANCH   6   7
ENDBRANCH   5   6
ENDBRANCH   4   5
ENDBRANCH   3   4
ENDBRANCH   2   3
ENDBRANCH   1   2
BRANCH   1  26
ATOM     26  O   UNL A   1      37.694  21.497  24.709  1.00  0.00    -0.376 OA
BRANCH  26  27
ATOM     27  C   UNL A   1      37.702  20.112  25.009  1.00  0.00     0.202 C 
BRANCH  27  28
ATOM     28  C   UNL A   1      38.972  19.319  25.367  1.00  0.00     0.261 C 
BRANCH  28  29
ATOM     29  O   UNL A   1      39.760  19.825  26.449  1.00  0.00    -0.460 OA
BRANCH  29  30
ATOM     30  C   UNL A   1      41.104  19.755  26.269  1.00  0.00     0.338 C 
ATOM     31  O   UNL A   1      41.741  18.859  25.752  1.00  0.00    -0.246 OA
BRANCH  30  32
ATOM     32  C   UNL A   1      41.703  21.046  26.653  1.00  0.00     0.060 A 
ATOM     33  C   UNL A   1      41.776  21.384  28.013  1.00  0.00     0.016 A 
ATOM     34  C   UNL A   1      42.134  21.938  25.673  1.00  0.00     0.016 A 
ATOM     35  C   UNL A   1      42.283  22.621  28.400  1.00  0.00     0.010 A 
ATOM     36  C   UNL A   1      42.595  23.198  26.058  1.00  0.00     0.010 A 
ATOM     37  C   UNL A   1      42.644  23.552  27.419  1.00  0.00    -0.014 A 
BRANCH  37  38
ATOM     38  C   UNL A   1      42.837  24.970  27.792  1.00  0.00     0.031 A 
ATOM     39  C   UNL A   1      44.238  25.444  28.054  1.00  0.00     0.074 A 
ATOM     40  C   UNL A   1      41.801  25.818  27.902  1.00  0.00     0.049 A 
ATOM     41  N   UNL A   1      44.649  26.602  28.499  1.00  0.00    -0.248 NA
ATOM     42  C   UNL A   1      45.322  24.486  27.771  1.00  0.00     0.031 C 
ATOM     43  C   UNL A   1      40.407  25.504  27.598  1.00  0.00     0.029 A 
ATOM     44  N   UNL A   1      41.773  27.128  28.313  1.00  0.00    -0.354 N 
ATOM     45  C   UNL A   1      46.033  26.510  28.554  1.00  0.00     0.074 A 
ATOM     46  C   UNL A   1      46.396  25.185  28.106  1.00  0.00     0.031 C 
ATOM     47  C   UNL A   1      39.655  26.589  27.850  1.00  0.00     0.029 A 
ATOM     48  C   UNL A   1      40.509  27.658  28.369  1.00  0.00     0.049 A 
ATOM     49  H   UNL A   1      42.583  27.637  28.546  1.00  0.00     0.167 HD
ATOM     50  C   UNL A   1      46.923  27.448  28.945  1.00  0.00     0.031 A 
ATOM     51  C   UNL A   1      40.088  28.856  28.818  1.00  0.00     0.031 A 
ATOM     52  C   UNL A   1      46.566  28.756  29.415  1.00  0.00     0.049 A 
ATOM     53  C   UNL A   1      41.087  29.843  29.360  1.00  0.00     0.074 A 
ATOM     54  C   UNL A   1      47.403  29.770  29.845  1.00  0.00     0.029 A 
ATOM     55  N   UNL A   1      45.270  29.228  29.523  1.00  0.00    -0.354 N 
ATOM     56  N   UNL A   1      42.393  29.741  29.427  1.00  0.00    -0.248 NA
ATOM     57  C   UNL A   1      40.555  31.104  29.898  1.00  0.00     0.031 C 
ATOM     58  C   UNL A   1      46.608  30.839  30.264  1.00  0.00     0.029 A 
ATOM     59  C   UNL A   1      45.281  30.510  30.042  1.00  0.00     0.049 A 
ATOM     60  H   UNL A   1      44.461  28.726  29.271  1.00  0.00     0.167 HD
ATOM     61  C   UNL A   1      42.838  30.925  30.003  1.00  0.00     0.074 A 
ATOM     62  C   UNL A   1      41.667  31.738  30.251  1.00  0.00     0.031 C 
ATOM     63  C   UNL A   1      44.106  31.302  30.297  1.00  0.00     0.031 A 
BRANCH  50  64
ATOM     64  C   UNL A   1      48.378  27.086  28.910  1.00  0.00    -0.014 A 
ATOM     65  C   UNL A   1      49.162  27.368  27.782  1.00  0.00     0.009 A 
ATOM     66  C   UNL A   1      48.984  26.532  30.047  1.00  0.00     0.009 A 
ATOM     67  C   UNL A   1      50.532  27.100  27.795  1.00  0.00     0.001 A 
ATOM     68  C   UNL A   1      50.356  26.284  30.064  1.00  0.00     0.001 A 
ATOM     69  C   UNL A   1      51.129  26.568  28.938  1.00  0.00     0.000 A 
ENDBRANCH  50  64
BRANCH  51  70
ATOM     70  C   UNL A   1      38.640  29.180  28.792  1.00  0.00    -0.014 A 
ATOM     71  C   UNL A   1      37.851  28.995  29.937  1.00  0.00     0.009 A 
ATOM     72  C   UNL A   1      38.044  29.702  27.632  1.00  0.00     0.009 A 
ATOM     73  C   UNL A   1      36.494  29.328  29.920  1.00  0.00     0.001 A 
ATOM     74  C   UNL A   1      36.693  30.054  27.627  1.00  0.00     0.001 A 
ATOM     75  C   UNL A   1      35.919  29.864  28.769  1.00  0.00     0.000 A 
ENDBRANCH  51  70
BRANCH  63  76
ATOM     76  C   UNL A   1      44.312  32.652  30.925  1.00  0.00    -0.014 A 
ATOM     77  C   UNL A   1      44.453  33.800  30.131  1.00  0.00     0.009 A 
ATOM     78  C   UNL A   1      44.258  32.789  32.321  1.00  0.00     0.009 A 
ATOM     79  C   UNL A   1      44.552  35.060  30.726  1.00  0.00     0.001 A 
ATOM     80  C   UNL A   1      44.331  34.052  32.911  1.00  0.00     0.001 A 
ATOM     81  C   UNL A   1      44.482  35.185  32.112  1.00  0.00     0.000 A 
ENDBRANCH  63  76
ENDBRANCH  37  38
ENDBRANCH  30  32
ENDBRANCH  29  30
ENDBRANCH  28  29
ENDBRANCH  27  28
ENDBRANCH  26  27
ENDBRANCH   1  26
TORSDOF 19
ENDMDL
MODEL 2
REMARK VINA RESULT:      -9.8      1.685      2.118
REMARK SMILES CCc1cc(C)c2c(c1)C=C(C(=O)OCCOCCOCCOC(=O)c1ccc(-c3c4nc(c(-c5ccccc5)c5ccc([nH]5)c(-c5ccccc5)c5nc(c(-c6ccccc6)c6ccc3[nH]6)C=C5)C=C4)cc1)[C@@H](C(F)(F)F)O2
REMARK SMILES IDX 19 1 18 2 17 3 16 4 15 5 14 6 12 7 13 8 11 9 3 10 4 11 9 12
REMARK SMILES IDX 5 13 8 14 6 15 7 16 10 17 79 18 74 19 2 20 1 21 75 22 76 23
REMARK SMILES IDX 77 24 78 25 20 26 21 27 22 28 23 29 24 30 25 31 26 32 27 33
REMARK SMILES IDX 73 34 28 35 72 36 29 37 30 38 31 39 66 40 32 41 71 42 65 43
REMARK SMILES IDX 67 44 33 45 70 46 64 47 63 48 34 50 56 51 41 52 55 53 42 54
REMARK SMILES IDX 45 55 54 56 68 57 43 58 44 59 53 61 69 62 46 63 35 64 36 65
REMARK SMILES IDX 40 66 37 67 39 68 38 69 57 70 58 71 62 72 59 73 61 74 60 75
REMARK SMILES IDX 47 76 48 77 52 78 49 79 51 80 50 81
REMARK H PARENT 67 49 45 60
REMARK Flexibility Score: inf
ROOT
ATOM      1  C   UNL A   1      36.879  22.052  25.448  1.00  0.00     0.188 C 
ENDROOT
BRANCH   1   2
ATOM      2  C   UNL A   1      35.478  21.444  25.227  1.00  0.00     0.188 C 
BRANCH   2   3
ATOM      3  O   UNL A   1      34.541  22.069  24.376  1.00  0.00    -0.376 OA
BRANCH   3   4
ATOM      4  C   UNL A   1      33.336  21.418  24.016  1.00  0.00     0.202 C 
BRANCH   4   5
ATOM      5  C   UNL A   1      32.041  21.574  24.824  1.00  0.00     0.261 C 
BRANCH   5   6
ATOM      6  O   UNL A   1      31.309  22.780  24.579  1.00  0.00    -0.460 OA
BRANCH   6   7
ATOM      7  C   UNL A   1      30.843  23.408  25.685  1.00  0.00     0.338 C 
ATOM      8  O   UNL A   1      30.513  22.885  26.736  1.00  0.00    -0.246 OA
BRANCH   7   9
ATOM      9  C   UNL A   1      30.920  24.870  25.496  1.00  0.00     0.087 C 
ATOM     10  C   UNL A   1      29.339  28.805  23.192  1.00  0.00    -0.047 A 
ATOM     11  C   UNL A   1      30.398  29.535  23.748  1.00  0.00     0.011 A 
ATOM     12  C   UNL A   1      29.192  27.456  23.542  1.00  0.00     0.015 A 
ATOM     13  C   UNL A   1      31.304  28.936  24.637  1.00  0.00    -0.008 A 
ATOM     14  C   UNL A   1      30.094  26.844  24.424  1.00  0.00     0.018 A 
ATOM     15  C   UNL A   1      32.458  29.732  25.179  1.00  0.00     0.048 C 
ATOM     16  C   UNL A   1      31.129  27.590  24.990  1.00  0.00     0.130 A 
ATOM     17  C   UNL A   1      29.999  25.419  24.694  1.00  0.00     0.027 C 
ATOM     18  O   UNL A   1      32.016  27.074  25.894  1.00  0.00    -0.475 OA
ATOM     19  C   UNL A   1      31.998  25.654  26.192  1.00  0.00     0.316 C 
BRANCH  10  20
ATOM     20  C   UNL A   1      28.380  29.457  22.224  1.00  0.00     0.032 C 
ATOM     21  C   UNL A   1      27.612  30.619  22.841  1.00  0.00     0.009 C 
ENDBRANCH  10  20
BRANCH  19  22
ATOM     22  C   UNL A   1      33.401  25.093  25.920  1.00  0.00     0.430 C 
ATOM     23  F   UNL A   1      33.553  24.759  24.616  1.00  0.00    -0.167 F 
ATOM     24  F   UNL A   1      34.368  25.999  26.201  1.00  0.00    -0.167 F 
ATOM     25  F   UNL A   1      33.657  23.989  26.656  1.00  0.00    -0.167 F 
ENDBRANCH  19  22
ENDBRANCH   7   9
ENDBRANCH   6   7
ENDBRANCH   5   6
ENDBRANCH   4   5
ENDBRANCH   3   4
ENDBRANCH   2   3
ENDBRANCH   1   2
BRANCH   1  26
ATOM     26  O   UNL A   1      38.026  21.414  24.936  1.00  0.00    -0.376 OA
BRANCH  26  27
ATOM     27  C   UNL A   1      38.096  19.998  24.905  1.00  0.00     0.202 C 
BRANCH  27  28
ATOM     28  C   UNL A   1      39.204  19.178  25.591  1.00  0.00     0.261 C 
BRANCH  28  29
ATOM     29  O   UNL A   1      40.077  19.892  26.472  1.00  0.00    -0.460 OA
BRANCH  29  30
ATOM     30  C   UNL A   1      41.382  19.919  26.099  1.00  0.00     0.338 C 
ATOM     31  O   UNL A   1      41.972  19.125  25.393  1.00  0.00    -0.246 OA
BRANCH  30  32
ATOM     32  C   UNL A   1      41.979  21.190  26.548  1.00  0.00     0.060 A 
ATOM     33  C   UNL A   1      42.143  21.416  27.923  1.00  0.00     0.016 A 
ATOM     34  C   UNL A   1      42.317  22.172  25.619  1.00  0.00     0.016 A 
ATOM     35  C   UNL A   1      42.650  22.630  28.376  1.00  0.00     0.010 A 
ATOM     36  C   UNL A   1      42.777  23.409  26.076  1.00  0.00     0.010 A 
ATOM     37  C   UNL A   1      42.917  23.650  27.455  1.00  0.00    -0.014 A 
BRANCH  37  38
ATOM     38  C   UNL A   1      43.106  25.036  27.933  1.00  0.00     0.031 A 
ATOM     39  C   UNL A   1      44.496  25.472  28.299  1.00  0.00     0.074 A 
ATOM     40  C   UNL A   1      42.075  25.890  28.045  1.00  0.00     0.049 A 
ATOM     41  N   UNL A   1      44.895  26.591  28.842  1.00  0.00    -0.248 NA
ATOM     42  C   UNL A   1      45.582  24.519  28.009  1.00  0.00     0.031 C 
ATOM     43  C   UNL A   1      40.695  25.617  27.648  1.00  0.00     0.029 A 
ATOM     44  N   UNL A   1      42.039  27.170  28.542  1.00  0.00    -0.354 N 
ATOM     45  C   UNL A   1      46.273  26.476  28.963  1.00  0.00     0.074 A 
ATOM     46  C   UNL A   1      46.645  25.179  28.447  1.00  0.00     0.031 C 
ATOM     47  C   UNL A   1      39.943  26.694  27.933  1.00  0.00     0.029 A 
ATOM     48  C   UNL A   1      40.779  27.713  28.567  1.00  0.00     0.049 A 
ATOM     49  H   UNL A   1      42.841  27.651  28.851  1.00  0.00     0.167 HD
ATOM     50  C   UNL A   1      47.151  27.372  29.463  1.00  0.00     0.031 A 
ATOM     51  C   UNL A   1      40.348  28.885  29.073  1.00  0.00     0.031 A 
ATOM     52  C   UNL A   1      46.784  28.651  30.000  1.00  0.00     0.049 A 
ATOM     53  C   UNL A   1      41.328  29.818  29.732  1.00  0.00     0.074 A 
ATOM     54  C   UNL A   1      47.608  29.622  30.541  1.00  0.00     0.029 A 
ATOM     55  N   UNL A   1      45.489  29.134  30.073  1.00  0.00    -0.354 N 
ATOM     56  N   UNL A   1      42.627  29.694  29.860  1.00  0.00    -0.248 NA
ATOM     57  C   UNL A   1      40.782  31.048  30.325  1.00  0.00     0.031 C 
ATOM     58  C   UNL A   1      46.804  30.672  30.989  1.00  0.00     0.029 A 
ATOM     59  C   UNL A   1      45.486  30.377  30.676  1.00  0.00     0.049 A 
ATOM     60  H   UNL A   1      44.690  28.661  29.745  1.00  0.00     0.167 HD
ATOM     61  C   UNL A   1      43.054  30.829  30.537  1.00  0.00     0.074 A 
ATOM     62  C   UNL A   1      41.880  31.641  30.778  1.00  0.00     0.031 C 
ATOM     63  C   UNL A   1      44.308  31.168  30.922  1.00  0.00     0.031 A 
BRANCH  50  64
ATOM     64  C   UNL A   1      48.602  26.993  29.479  1.00  0.00    -0.014 A 
ATOM     65  C   UNL A   1      49.153  26.303  30.569  1.00  0.00     0.009 A 
ATOM     66  C   UNL A   1      49.402  27.257  28.357  1.00  0.00     0.009 A 
ATOM     67  C   UNL A   1      50.484  25.884  30.534  1.00  0.00     0.001 A 
ATOM     68  C   UNL A   1      50.726  26.819  28.318  1.00  0.00     0.001 A 
ATOM     69  C   UNL A   1      51.265  26.134  29.406  1.00  0.00     0.000 A 
ENDBRANCH  50  64
BRANCH  51  70
ATOM     70  C   UNL A   1      38.907  29.231  28.993  1.00  0.00    -0.014 A 
ATOM     71  C   UNL A   1      38.365  29.743  27.806  1.00  0.00     0.009 A 
ATOM     72  C   UNL A   1      38.061  29.024  30.095  1.00  0.00     0.009 A 
ATOM     73  C   UNL A   1      37.002  30.041  27.724  1.00  0.00     0.001 A 
ATOM     74  C   UNL A   1      36.696  29.302  30.001  1.00  0.00     0.001 A 
ATOM     75  C   UNL A   1      36.168  29.812  28.817  1.00  0.00     0.000 A 
ENDBRANCH  51  70
BRANCH  63  76
ATOM     76  C   UNL A   1      44.495  32.470  31.649  1.00  0.00    -0.014 A 
ATOM     77  C   UNL A   1      44.462  32.521  33.051  1.00  0.00     0.009 A 
ATOM     78  C   UNL A   1      44.811  33.633  30.930  1.00  0.00     0.009 A 
ATOM     79  C   UNL A   1      44.728  33.720  33.718  1.00  0.00     0.001 A 
ATOM     80  C   UNL A   1      45.102  34.823  31.601  1.00  0.00     0.001 A 
ATOM     81  C   UNL A   1      45.056  34.865  32.993  1.00  0.00     0.000 A 
ENDBRANCH  63  76
ENDBRANCH  37  38
ENDBRANCH  30  32
ENDBRANCH  29  30
ENDBRANCH  28  29
ENDBRANCH  27  28
ENDBRANCH  26  27
ENDBRANCH   1  26
TORSDOF 19
ENDMDL
MODEL 3
REMARK VINA RESULT:      -9.8      1.971      6.107
REMARK SMILES CCc1cc(C)c2c(c1)C=C(C(=O)OCCOCCOCCOC(=O)c1ccc(-c3c4nc(c(-c5ccccc5)c5ccc([nH]5)c(-c5ccccc5)c5nc(c(-c6ccccc6)c6ccc3[nH]6)C=C5)C=C4)cc1)[C@@H](C(F)(F)F)O2
REMARK SMILES IDX 19 1 18 2 17 3 16 4 15 5 14 6 12 7 13 8 11 9 3 10 4 11 9 12
REMARK SMILES IDX 5 13 8 14 6 15 7 16 10 17 79 18 74 19 2 20 1 21 75 22 76 23
REMARK SMILES IDX 77 24 78 25 20 26 21 27 22 28 23 29 24 30 25 31 26 32 27 33
REMARK SMILES IDX 73 34 28 35 72 36 29 37 30 38 31 39 66 40 32 41 71 42 65 43
REMARK SMILES IDX 67 44 33 45 70 46 64 47 63 48 34 50 56 51 41 52 55 53 42 54
REMARK SMILES IDX 45 55 54 56 68 57 43 58 44 59 53 61 69 62 46 63 35 64 36 65
REMARK SMILES IDX 40 66 37 67 39 68 38 69 57 70 58 71 62 72 59 73 61 74 60 75
REMARK SMILES IDX 47 76 48 77 52 78 49 79 51 80 50 81
REMARK H PARENT 67 49 45 60
REMARK Flexibility Score: inf
ROOT
ATOM      1  C   UNL A   1      37.030  21.926  24.668  1.00  0.00     0.188 C 
ENDROOT
BRANCH   1   2
ATOM      2  C   UNL A   1      35.604  21.546  25.120  1.00  0.00     0.188 C 
BRANCH   2   3
ATOM      3  O   UNL A   1      34.512  21.635  24.229  1.00  0.00    -0.376 OA
BRANCH   3   4
ATOM      4  C   UNL A   1      33.375  20.806  24.387  1.00  0.00     0.202 C 
BRANCH   4   5
ATOM      5  C   UNL A   1      31.942  21.349  24.317  1.00  0.00     0.261 C 
BRANCH   5   6
ATOM      6  O   UNL A   1      31.828  22.777  24.322  1.00  0.00    -0.460 OA
BRANCH   6   7
ATOM      7  C   UNL A   1      31.166  23.300  25.383  1.00  0.00     0.338 C 
ATOM      8  O   UNL A   1      30.740  22.692  26.349  1.00  0.00    -0.246 OA
BRANCH   7   9
ATOM      9  C   UNL A   1      31.151  24.773  25.280  1.00  0.00     0.087 C 
ATOM     10  C   UNL A   1      29.315  28.729  23.213  1.00  0.00    -0.047 A 
ATOM     11  C   UNL A   1      30.328  29.491  23.811  1.00  0.00     0.011 A 
ATOM     12  C   UNL A   1      29.255  27.356  23.483  1.00  0.00     0.015 A 
ATOM     13  C   UNL A   1      31.274  28.899  24.663  1.00  0.00    -0.008 A 
ATOM     14  C   UNL A   1      30.197  26.751  24.326  1.00  0.00     0.018 A 
ATOM     15  C   UNL A   1      32.378  29.733  25.250  1.00  0.00     0.048 C 
ATOM     16  C   UNL A   1      31.186  27.526  24.936  1.00  0.00     0.130 A 
ATOM     17  C   UNL A   1      30.193  25.309  24.512  1.00  0.00     0.027 C 
ATOM     18  O   UNL A   1      32.107  27.015  25.807  1.00  0.00    -0.475 OA
ATOM     19  C   UNL A   1      32.180  25.581  26.021  1.00  0.00     0.316 C 
BRANCH  10  20
ATOM     20  C   UNL A   1      28.313  29.375  22.286  1.00  0.00     0.032 C 
ATOM     21  C   UNL A   1      27.809  30.718  22.799  1.00  0.00     0.009 C 
ENDBRANCH  10  20
BRANCH  19  22
ATOM     22  C   UNL A   1      33.614  25.127  25.716  1.00  0.00     0.430 C 
ATOM     23  F   UNL A   1      34.516  26.075  26.069  1.00  0.00    -0.167 F 
ATOM     24  F   UNL A   1      33.944  24.007  26.401  1.00  0.00    -0.167 F 
ATOM     25  F   UNL A   1      33.794  24.864  24.402  1.00  0.00    -0.167 F 
ENDBRANCH  19  22
ENDBRANCH   7   9
ENDBRANCH   6   7
ENDBRANCH   5   6
ENDBRANCH   4   5
ENDBRANCH   3   4
ENDBRANCH   2   3
ENDBRANCH   1   2
BRANCH   1  26
ATOM     26  O   UNL A   1      38.154  21.446  25.366  1.00  0.00    -0.376 OA
BRANCH  26  27
ATOM     27  C   UNL A   1      38.596  20.113  25.170  1.00  0.00     0.202 C 
BRANCH  27  28
ATOM     28  C   UNL A   1      39.635  19.413  26.064  1.00  0.00     0.261 C 
BRANCH  28  29
ATOM     29  O   UNL A   1      40.869  19.040  25.442  1.00  0.00    -0.460 OA
BRANCH  29  30
ATOM     30  C   UNL A   1      41.972  19.162  26.224  1.00  0.00     0.338 C 
ATOM     31  O   UNL A   1      42.810  18.317  26.468  1.00  0.00    -0.246 OA
BRANCH  30  32
ATOM     32  C   UNL A   1      42.117  20.574  26.625  1.00  0.00     0.060 A 
ATOM     33  C   UNL A   1      42.311  21.546  25.631  1.00  0.00     0.016 A 
ATOM     34  C   UNL A   1      42.120  20.923  27.974  1.00  0.00     0.016 A 
ATOM     35  C   UNL A   1      42.509  22.877  25.985  1.00  0.00     0.010 A 
ATOM     36  C   UNL A   1      42.369  22.249  28.331  1.00  0.00     0.010 A 
ATOM     37  C   UNL A   1      42.592  23.222  27.339  1.00  0.00    -0.014 A 
BRANCH  37  38
ATOM     38  C   UNL A   1      43.151  24.536  27.726  1.00  0.00     0.031 A 
ATOM     39  C   UNL A   1      42.192  25.608  28.159  1.00  0.00     0.074 A 
ATOM     40  C   UNL A   1      44.471  24.778  27.692  1.00  0.00     0.049 A 
ATOM     41  N   UNL A   1      42.428  26.864  28.438  1.00  0.00    -0.248 NA
ATOM     42  C   UNL A   1      40.781  25.211  28.304  1.00  0.00     0.031 C 
ATOM     43  C   UNL A   1      45.509  23.801  27.368  1.00  0.00     0.029 A 
ATOM     44  N   UNL A   1      45.161  25.942  27.929  1.00  0.00    -0.354 N 
ATOM     45  C   UNL A   1      41.198  27.405  28.784  1.00  0.00     0.074 A 
ATOM     46  C   UNL A   1      40.216  26.350  28.675  1.00  0.00     0.031 C 
ATOM     47  C   UNL A   1      46.706  24.412  27.411  1.00  0.00     0.029 A 
ATOM     48  C   UNL A   1      46.513  25.828  27.726  1.00  0.00     0.049 A 
ATOM     49  H   UNL A   1      44.727  26.777  28.218  1.00  0.00     0.167 HD
ATOM     50  C   UNL A   1      40.911  28.671  29.157  1.00  0.00     0.031 A 
ATOM     51  C   UNL A   1      47.479  26.767  27.759  1.00  0.00     0.031 A 
ATOM     52  C   UNL A   1      41.878  29.728  29.242  1.00  0.00     0.049 A 
ATOM     53  C   UNL A   1      47.119  28.197  28.062  1.00  0.00     0.074 A 
ATOM     54  C   UNL A   1      41.676  31.048  29.601  1.00  0.00     0.029 A 
ATOM     55  N   UNL A   1      43.225  29.588  28.958  1.00  0.00    -0.354 N 
ATOM     56  N   UNL A   1      45.950  28.706  28.369  1.00  0.00    -0.248 NA
ATOM     57  C   UNL A   1      48.209  29.183  28.014  1.00  0.00     0.031 C 
ATOM     58  C   UNL A   1      42.894  31.721  29.484  1.00  0.00     0.029 A 
ATOM     59  C   UNL A   1      43.863  30.806  29.105  1.00  0.00     0.049 A 
ATOM     60  H   UNL A   1      43.664  28.748  28.690  1.00  0.00     0.167 HD
ATOM     61  C   UNL A   1      46.164  30.065  28.560  1.00  0.00     0.074 A 
ATOM     62  C   UNL A   1      47.577  30.301  28.352  1.00  0.00     0.031 C 
ATOM     63  C   UNL A   1      45.268  31.029  28.881  1.00  0.00     0.031 A 
BRANCH  50  64
ATOM     64  C   UNL A   1      39.483  28.997  29.479  1.00  0.00    -0.014 A 
ATOM     65  C   UNL A   1      38.605  29.444  28.482  1.00  0.00     0.009 A 
ATOM     66  C   UNL A   1      38.995  28.775  30.776  1.00  0.00     0.009 A 
ATOM     67  C   UNL A   1      37.258  29.664  28.780  1.00  0.00     0.001 A 
ATOM     68  C   UNL A   1      37.646  28.978  31.065  1.00  0.00     0.001 A 
ATOM     69  C   UNL A   1      36.779  29.422  30.067  1.00  0.00     0.000 A 
ENDBRANCH  50  64
BRANCH  51  70
ATOM     70  C   UNL A   1      48.884  26.383  27.472  1.00  0.00    -0.014 A 
ATOM     71  C   UNL A   1      49.745  26.013  28.515  1.00  0.00     0.009 A 
ATOM     72  C   UNL A   1      49.363  26.358  26.153  1.00  0.00     0.009 A 
ATOM     73  C   UNL A   1      51.059  25.624  28.242  1.00  0.00     0.001 A 
ATOM     74  C   UNL A   1      50.669  25.947  25.881  1.00  0.00     0.001 A 
ATOM     75  C   UNL A   1      51.517  25.583  26.926  1.00  0.00     0.000 A 
ENDBRANCH  51  70
BRANCH  63  76
ATOM     76  C   UNL A   1      45.770  32.438  29.029  1.00  0.00    -0.014 A 
ATOM     77  C   UNL A   1      45.780  33.316  27.935  1.00  0.00     0.009 A 
ATOM     78  C   UNL A   1      46.138  32.919  30.295  1.00  0.00     0.009 A 
ATOM     79  C   UNL A   1      46.163  34.648  28.105  1.00  0.00     0.001 A 
ATOM     80  C   UNL A   1      46.495  34.258  30.466  1.00  0.00     0.001 A 
ATOM     81  C   UNL A   1      46.511  35.119  29.370  1.00  0.00     0.000 A 
ENDBRANCH  63  76
ENDBRANCH  37  38
ENDBRANCH  30  32
ENDBRANCH  29  30
ENDBRANCH  28  29
ENDBRANCH  27  28
ENDBRANCH  26  27
ENDBRANCH   1  26
TORSDOF 19
ENDMDL
