MODEL 1
REMARK VINA RESULT:     -10.6      0.000      0.000
REMARK SMILES CC1(C)[C@@]2(CC[C@@H]2C(=O)NCc2ccco2)[C@]1(C)C(=O)OCCOCCOCCOC(=O)c1ccc(-c2c3nc(c(-c4ccccc4)c4ccc([nH]4)c(-c4ccccc4)c4nc(c(-c5ccccc5)c5ccc2[nH]5)C=C4)C=C3)cc1
REMARK SMILES IDX 25 1 24 2 23 3 22 4 21 5 19 6 20 7 17 8 1 9 2 10 3 11 4 12
REMARK SMILES IDX 18 13 5 14 7 15 6 16 8 17 9 18 10 19 11 21 12 22 13 23 16 24
REMARK SMILES IDX 14 25 15 26 26 27 27 28 28 29 29 30 30 31 31 32 32 33 33 34
REMARK SMILES IDX 34 35 80 36 35 37 79 38 36 39 37 40 38 41 73 42 39 43 78 44
REMARK SMILES IDX 72 45 74 46 40 47 77 48 71 49 70 50 41 52 63 53 48 54 62 55
REMARK SMILES IDX 49 56 52 57 61 58 75 59 50 60 51 61 60 63 76 64 53 65 42 66
REMARK SMILES IDX 43 67 47 68 44 69 46 70 45 71 64 72 65 73 69 74 66 75 68 76
REMARK SMILES IDX 67 77 54 78 55 79 59 80 56 81 58 82 57 83
REMARK H PARENT 10 20 74 51 52 62
REMARK Flexibility Score: inf
ROOT
ATOM      1  C   UNL A   1      34.408  31.512  28.252  1.00  0.00     0.188 C 
ENDROOT
BRANCH   1   2
ATOM      2  O   UNL A   1      34.243  30.752  27.079  1.00  0.00    -0.376 OA
BRANCH   2   3
ATOM      3  C   UNL A   1      33.081  29.962  26.892  1.00  0.00     0.202 C 
BRANCH   3   4
ATOM      4  C   UNL A   1      32.877  28.543  27.455  1.00  0.00     0.261 C 
BRANCH   4   5
ATOM      5  O   UNL A   1      33.060  27.453  26.544  1.00  0.00    -0.463 OA
BRANCH   5   6
ATOM      6  C   UNL A   1      32.023  26.585  26.439  1.00  0.00     0.313 C 
ATOM      7  O   UNL A   1      30.854  26.837  26.716  1.00  0.00    -0.252 OA
BRANCH   6   8
ATOM      8  C   UNL A   1      32.377  25.278  25.762  1.00  0.00     0.078 C 
ATOM      9  C   UNL A   1      33.881  26.762  24.249  1.00  0.00     0.013 C 
ATOM     10  C   UNL A   1      33.420  25.363  24.631  1.00  0.00    -0.011 C 
ATOM     11  C   UNL A   1      34.555  24.369  24.591  1.00  0.00     0.013 C 
ATOM     12  C   UNL A   1      32.006  24.920  24.309  1.00  0.00     0.005 C 
ATOM     13  C   UNL A   1      32.504  24.119  26.752  1.00  0.00     0.025 C 
ATOM     14  C   UNL A   1      31.442  23.564  24.012  1.00  0.00     0.010 C 
ATOM     15  C   UNL A   1      31.096  25.596  23.322  1.00  0.00     0.086 C 
ATOM     16  C   UNL A   1      30.385  24.250  23.153  1.00  0.00     0.015 C 
BRANCH  15  17
ATOM     17  C   UNL A   1      31.675  26.294  22.062  1.00  0.00     0.224 C 
ATOM     18  O   UNL A   1      32.151  25.635  21.121  1.00  0.00    -0.275 OA
ATOM     19  N   UNL A   1      31.736  27.655  21.886  1.00  0.00    -0.349 N 
ATOM     20  H   UNL A   1      32.141  27.924  21.030  1.00  0.00     0.163 HD
BRANCH  19  21
ATOM     21  C   UNL A   1      31.324  28.771  22.707  1.00  0.00     0.191 C 
BRANCH  21  22
ATOM     22  C   UNL A   1      29.891  29.090  22.484  1.00  0.00     0.122 A 
ATOM     23  C   UNL A   1      28.702  28.686  23.060  1.00  0.00     0.047 A 
ATOM     24  O   UNL A   1      29.632  29.996  21.493  1.00  0.00    -0.467 OA
ATOM     25  C   UNL A   1      27.669  29.388  22.394  1.00  0.00     0.042 A 
ATOM     26  C   UNL A   1      28.287  30.172  21.449  1.00  0.00     0.195 A 
ENDBRANCH  21  22
ENDBRANCH  19  21
ENDBRANCH  15  17
ENDBRANCH   6   8
ENDBRANCH   5   6
ENDBRANCH   4   5
ENDBRANCH   3   4
ENDBRANCH   2   3
ENDBRANCH   1   2
BRANCH   1  27
ATOM     27  C   UNL A   1      34.680  33.027  28.130  1.00  0.00     0.188 C 
BRANCH  27  28
ATOM     28  O   UNL A   1      33.632  33.970  28.212  1.00  0.00    -0.376 OA
BRANCH  28  29
ATOM     29  C   UNL A   1      33.900  35.261  28.726  1.00  0.00     0.202 C 
BRANCH  29  30
ATOM     30  C   UNL A   1      32.885  35.987  29.623  1.00  0.00     0.261 C 
BRANCH  30  31
ATOM     31  O   UNL A   1      32.369  35.237  30.734  1.00  0.00    -0.460 OA
BRANCH  31  32
ATOM     32  C   UNL A   1      32.665  35.735  31.960  1.00  0.00     0.338 C 
ATOM     33  O   UNL A   1      32.021  36.549  32.604  1.00  0.00    -0.246 OA
BRANCH  32  34
ATOM     34  C   UNL A   1      33.821  35.014  32.527  1.00  0.00     0.060 A 
ATOM     35  C   UNL A   1      35.091  35.607  32.451  1.00  0.00     0.016 A 
ATOM     36  C   UNL A   1      33.671  33.735  33.064  1.00  0.00     0.016 A 
ATOM     37  C   UNL A   1      36.219  34.912  32.890  1.00  0.00     0.010 A 
ATOM     38  C   UNL A   1      34.806  33.031  33.480  1.00  0.00     0.010 A 
ATOM     39  C   UNL A   1      36.088  33.602  33.369  1.00  0.00    -0.014 A 
BRANCH  39  40
ATOM     40  C   UNL A   1      37.294  32.769  33.595  1.00  0.00     0.031 A 
ATOM     41  C   UNL A   1      38.098  32.985  34.849  1.00  0.00     0.074 A 
ATOM     42  C   UNL A   1      37.678  31.836  32.704  1.00  0.00     0.049 A 
ATOM     43  N   UNL A   1      39.223  32.430  35.221  1.00  0.00    -0.248 NA
ATOM     44  C   UNL A   1      37.560  33.961  35.813  1.00  0.00     0.031 C 
ATOM     45  C   UNL A   1      36.966  31.489  31.477  1.00  0.00     0.029 A 
ATOM     46  N   UNL A   1      38.781  31.015  32.698  1.00  0.00    -0.354 N 
ATOM     47  C   UNL A   1      39.541  33.004  36.447  1.00  0.00     0.074 A 
ATOM     48  C   UNL A   1      38.497  33.958  36.752  1.00  0.00     0.031 C 
ATOM     49  C   UNL A   1      37.660  30.538  30.825  1.00  0.00     0.029 A 
ATOM     50  C   UNL A   1      38.881  30.239  31.569  1.00  0.00     0.049 A 
ATOM     51  H   UNL A   1      39.435  30.985  33.433  1.00  0.00     0.167 HD
ATOM     52  C   UNL A   1      40.607  32.762  37.245  1.00  0.00     0.031 A 
ATOM     53  C   UNL A   1      39.865  29.408  31.167  1.00  0.00     0.031 A 
ATOM     54  C   UNL A   1      41.649  31.818  36.942  1.00  0.00     0.049 A 
ATOM     55  C   UNL A   1      41.081  29.218  32.039  1.00  0.00     0.074 A 
ATOM     56  C   UNL A   1      42.752  31.480  37.709  1.00  0.00     0.029 A 
ATOM     57  N   UNL A   1      41.728  31.073  35.777  1.00  0.00    -0.354 N 
ATOM     58  N   UNL A   1      41.345  29.730  33.218  1.00  0.00    -0.248 NA
ATOM     59  C   UNL A   1      42.134  28.328  31.526  1.00  0.00     0.031 C 
ATOM     60  C   UNL A   1      43.537  30.586  36.976  1.00  0.00     0.029 A 
ATOM     61  C   UNL A   1      42.883  30.308  35.786  1.00  0.00     0.049 A 
ATOM     62  H   UNL A   1      41.065  31.087  35.051  1.00  0.00     0.167 HD
ATOM     63  C   UNL A   1      42.571  29.195  33.599  1.00  0.00     0.074 A 
ATOM     64  C   UNL A   1      42.990  28.306  32.537  1.00  0.00     0.031 C 
ATOM     65  C   UNL A   1      43.286  29.418  34.729  1.00  0.00     0.031 A 
BRANCH  52  66
ATOM     66  C   UNL A   1      40.733  33.567  38.508  1.00  0.00    -0.014 A 
ATOM     67  C   UNL A   1      41.398  34.802  38.531  1.00  0.00     0.009 A 
ATOM     68  C   UNL A   1      40.116  33.105  39.682  1.00  0.00     0.009 A 
ATOM     69  C   UNL A   1      41.464  35.546  39.712  1.00  0.00     0.001 A 
ATOM     70  C   UNL A   1      40.158  33.864  40.851  1.00  0.00     0.001 A 
ATOM     71  C   UNL A   1      40.838  35.081  40.867  1.00  0.00     0.000 A 
ENDBRANCH  52  66
BRANCH  53  72
ATOM     72  C   UNL A   1      39.779  28.715  29.852  1.00  0.00    -0.014 A 
ATOM     73  C   UNL A   1      39.383  27.371  29.771  1.00  0.00     0.009 A 
ATOM     74  C   UNL A   1      40.160  29.379  28.674  1.00  0.00     0.009 A 
ATOM     75  C   UNL A   1      39.412  26.695  28.547  1.00  0.00     0.001 A 
ATOM     76  C   UNL A   1      40.153  28.711  27.447  1.00  0.00     0.001 A 
ATOM     77  C   UNL A   1      39.794  27.366  27.387  1.00  0.00     0.000 A 
ENDBRANCH  53  72
BRANCH  65  78
ATOM     78  C   UNL A   1      44.568  28.651  34.906  1.00  0.00    -0.014 A 
ATOM     79  C   UNL A   1      45.802  29.171  34.487  1.00  0.00     0.009 A 
ATOM     80  C   UNL A   1      44.543  27.402  35.549  1.00  0.00     0.009 A 
ATOM     81  C   UNL A   1      46.978  28.441  34.674  1.00  0.00     0.001 A 
ATOM     82  C   UNL A   1      45.725  26.691  35.766  1.00  0.00     0.001 A 
ATOM     83  C   UNL A   1      46.939  27.205  35.319  1.00  0.00     0.000 A 
ENDBRANCH  65  78
ENDBRANCH  39  40
ENDBRANCH  32  34
ENDBRANCH  31  32
ENDBRANCH  30  31
ENDBRANCH  29  30
ENDBRANCH  28  29
ENDBRANCH  27  28
ENDBRANCH   1  27
TORSDOF 20
ENDMDL
MODEL 2
REMARK VINA RESULT:     -10.5      3.811      8.915
REMARK SMILES CC1(C)[C@@]2(CC[C@@H]2C(=O)NCc2ccco2)[C@]1(C)C(=O)OCCOCCOCCOC(=O)c1ccc(-c2c3nc(c(-c4ccccc4)c4ccc([nH]4)c(-c4ccccc4)c4nc(c(-c5ccccc5)c5ccc2[nH]5)C=C4)C=C3)cc1
REMARK SMILES IDX 25 1 24 2 23 3 22 4 21 5 19 6 20 7 17 8 1 9 2 10 3 11 4 12
REMARK SMILES IDX 18 13 5 14 7 15 6 16 8 17 9 18 10 19 11 21 12 22 13 23 16 24
REMARK SMILES IDX 14 25 15 26 26 27 27 28 28 29 29 30 30 31 31 32 32 33 33 34
REMARK SMILES IDX 34 35 80 36 35 37 79 38 36 39 37 40 38 41 73 42 39 43 78 44
REMARK SMILES IDX 72 45 74 46 40 47 77 48 71 49 70 50 41 52 63 53 48 54 62 55
REMARK SMILES IDX 49 56 52 57 61 58 75 59 50 60 51 61 60 63 76 64 53 65 42 66
REMARK SMILES IDX 43 67 47 68 44 69 46 70 45 71 64 72 65 73 69 74 66 75 68 76
REMARK SMILES IDX 67 77 54 78 55 79 59 80 56 81 58 82 57 83
REMARK H PARENT 10 20 74 51 52 62
REMARK Flexibility Score: inf
ROOT
ATOM      1  C   UNL A   1      40.106  21.518  27.252  1.00  0.00     0.188 C 
ENDROOT
BRANCH   1   2
ATOM      2  O   UNL A   1      39.434  21.778  26.044  1.00  0.00    -0.376 OA
BRANCH   2   3
ATOM      3  C   UNL A   1      38.880  23.058  25.790  1.00  0.00     0.202 C 
BRANCH   3   4
ATOM      4  C   UNL A   1      37.439  23.482  26.135  1.00  0.00     0.261 C 
BRANCH   4   5
ATOM      5  O   UNL A   1      36.591  23.842  25.039  1.00  0.00    -0.463 OA
BRANCH   5   6
ATOM      6  C   UNL A   1      36.230  22.831  24.209  1.00  0.00     0.313 C 
ATOM      7  O   UNL A   1      36.666  22.652  23.075  1.00  0.00    -0.252 OA
BRANCH   6   8
ATOM      8  C   UNL A   1      35.344  21.788  24.855  1.00  0.00     0.078 C 
ATOM      9  C   UNL A   1      33.481  22.812  23.361  1.00  0.00     0.013 C 
ATOM     10  C   UNL A   1      33.886  21.734  24.355  1.00  0.00    -0.011 C 
ATOM     11  C   UNL A   1      33.264  20.400  24.022  1.00  0.00     0.013 C 
ATOM     12  C   UNL A   1      34.167  22.106  25.799  1.00  0.00     0.005 C 
ATOM     13  C   UNL A   1      36.065  20.456  25.069  1.00  0.00     0.025 C 
ATOM     14  C   UNL A   1      34.014  21.321  27.066  1.00  0.00     0.010 C 
ATOM     15  C   UNL A   1      33.740  23.390  26.454  1.00  0.00     0.086 C 
ATOM     16  C   UNL A   1      33.767  22.641  27.790  1.00  0.00     0.015 C 
BRANCH  15  17
ATOM     17  C   UNL A   1      32.428  24.099  26.026  1.00  0.00     0.224 C 
ATOM     18  O   UNL A   1      31.316  23.597  26.265  1.00  0.00    -0.275 OA
ATOM     19  N   UNL A   1      32.375  25.292  25.347  1.00  0.00    -0.349 N 
ATOM     20  H   UNL A   1      31.459  25.593  25.150  1.00  0.00     0.163 HD
BRANCH  19  21
ATOM     21  C   UNL A   1      33.396  26.193  24.863  1.00  0.00     0.191 C 
BRANCH  21  22
ATOM     22  C   UNL A   1      32.989  27.608  25.062  1.00  0.00     0.122 A 
ATOM     23  C   UNL A   1      33.661  28.811  25.152  1.00  0.00     0.047 A 
ATOM     24  O   UNL A   1      31.645  27.826  25.182  1.00  0.00    -0.467 OA
ATOM     25  C   UNL A   1      32.676  29.814  25.326  1.00  0.00     0.042 A 
ATOM     26  C   UNL A   1      31.465  29.163  25.337  1.00  0.00     0.195 A 
ENDBRANCH  21  22
ENDBRANCH  19  21
ENDBRANCH  15  17
ENDBRANCH   6   8
ENDBRANCH   5   6
ENDBRANCH   4   5
ENDBRANCH   3   4
ENDBRANCH   2   3
ENDBRANCH   1   2
BRANCH   1  27
ATOM     27  C   UNL A   1      41.563  21.008  27.203  1.00  0.00     0.188 C 
BRANCH  27  28
ATOM     28  O   UNL A   1      41.960  20.008  26.288  1.00  0.00    -0.376 OA
BRANCH  28  29
ATOM     29  C   UNL A   1      43.056  20.253  25.426  1.00  0.00     0.202 C 
BRANCH  29  30
ATOM     30  C   UNL A   1      43.863  21.558  25.516  1.00  0.00     0.261 C 
BRANCH  30  31
ATOM     31  O   UNL A   1      43.367  22.665  24.749  1.00  0.00    -0.460 OA
BRANCH  31  32
ATOM     32  C   UNL A   1      44.095  23.806  24.833  1.00  0.00     0.338 C 
ATOM     33  O   UNL A   1      45.088  24.100  24.185  1.00  0.00    -0.246 OA
BRANCH  32  34
ATOM     34  C   UNL A   1      43.415  24.769  25.721  1.00  0.00     0.060 A 
ATOM     35  C   UNL A   1      43.969  26.049  25.881  1.00  0.00     0.016 A 
ATOM     36  C   UNL A   1      42.284  24.396  26.446  1.00  0.00     0.016 A 
ATOM     37  C   UNL A   1      43.407  26.951  26.786  1.00  0.00     0.010 A 
ATOM     38  C   UNL A   1      41.736  25.292  27.370  1.00  0.00     0.010 A 
ATOM     39  C   UNL A   1      42.311  26.562  27.567  1.00  0.00    -0.014 A 
BRANCH  39  40
ATOM     40  C   UNL A   1      41.870  27.409  28.702  1.00  0.00     0.031 A 
ATOM     41  C   UNL A   1      42.604  27.302  30.012  1.00  0.00     0.074 A 
ATOM     42  C   UNL A   1      40.835  28.260  28.581  1.00  0.00     0.049 A 
ATOM     43  N   UNL A   1      42.352  27.886  31.156  1.00  0.00    -0.248 NA
ATOM     44  C   UNL A   1      43.781  26.416  30.035  1.00  0.00     0.031 C 
ATOM     45  C   UNL A   1      40.070  28.499  27.358  1.00  0.00     0.029 A 
ATOM     46  N   UNL A   1      40.241  29.075  29.515  1.00  0.00    -0.354 N 
ATOM     47  C   UNL A   1      43.320  27.421  32.039  1.00  0.00     0.074 A 
ATOM     48  C   UNL A   1      44.158  26.500  31.303  1.00  0.00     0.031 C 
ATOM     49  C   UNL A   1      39.095  29.387  27.622  1.00  0.00     0.029 A 
ATOM     50  C   UNL A   1      39.143  29.749  29.037  1.00  0.00     0.049 A 
ATOM     51  H   UNL A   1      40.571  29.168  30.437  1.00  0.00     0.167 HD
ATOM     52  C   UNL A   1      43.494  27.730  33.345  1.00  0.00     0.031 A 
ATOM     53  C   UNL A   1      38.259  30.539  29.679  1.00  0.00     0.031 A 
ATOM     54  C   UNL A   1      42.659  28.642  34.081  1.00  0.00     0.049 A 
ATOM     55  C   UNL A   1      38.430  30.803  31.154  1.00  0.00     0.074 A 
ATOM     56  C   UNL A   1      42.781  29.044  35.400  1.00  0.00     0.029 A 
ATOM     57  N   UNL A   1      41.543  29.282  33.569  1.00  0.00    -0.354 N 
ATOM     58  N   UNL A   1      39.377  30.395  31.965  1.00  0.00    -0.248 NA
ATOM     59  C   UNL A   1      37.411  31.643  31.802  1.00  0.00     0.031 C 
ATOM     60  C   UNL A   1      41.696  29.869  35.708  1.00  0.00     0.029 A 
ATOM     61  C   UNL A   1      40.942  30.043  34.558  1.00  0.00     0.049 A 
ATOM     62  H   UNL A   1      41.223  29.206  32.641  1.00  0.00     0.167 HD
ATOM     63  C   UNL A   1      39.087  30.960  33.203  1.00  0.00     0.074 A 
ATOM     64  C   UNL A   1      37.887  31.751  33.033  1.00  0.00     0.031 C 
ATOM     65  C   UNL A   1      39.754  30.835  34.376  1.00  0.00     0.031 A 
BRANCH  52  66
ATOM     66  C   UNL A   1      44.603  27.039  34.087  1.00  0.00    -0.014 A 
ATOM     67  C   UNL A   1      44.410  25.799  34.714  1.00  0.00     0.009 A 
ATOM     68  C   UNL A   1      45.884  27.614  34.100  1.00  0.00     0.009 A 
ATOM     69  C   UNL A   1      45.471  25.162  35.361  1.00  0.00     0.001 A 
ATOM     70  C   UNL A   1      46.949  26.962  34.721  1.00  0.00     0.001 A 
ATOM     71  C   UNL A   1      46.741  25.740  35.357  1.00  0.00     0.000 A 
ENDBRANCH  52  66
BRANCH  53  72
ATOM     72  C   UNL A   1      37.092  31.115  28.952  1.00  0.00    -0.014 A 
ATOM     73  C   UNL A   1      37.061  32.474  28.604  1.00  0.00     0.009 A 
ATOM     74  C   UNL A   1      35.973  30.317  28.664  1.00  0.00     0.009 A 
ATOM     75  C   UNL A   1      35.917  33.031  28.022  1.00  0.00     0.001 A 
ATOM     76  C   UNL A   1      34.846  30.868  28.050  1.00  0.00     0.001 A 
ATOM     77  C   UNL A   1      34.813  32.227  27.744  1.00  0.00     0.000 A 
ENDBRANCH  53  72
BRANCH  65  78
ATOM     78  C   UNL A   1      39.240  31.613  35.557  1.00  0.00    -0.014 A 
ATOM     79  C   UNL A   1      38.227  31.109  36.387  1.00  0.00     0.009 A 
ATOM     80  C   UNL A   1      39.817  32.855  35.871  1.00  0.00     0.009 A 
ATOM     81  C   UNL A   1      37.777  31.848  37.484  1.00  0.00     0.001 A 
ATOM     82  C   UNL A   1      39.389  33.575  36.988  1.00  0.00     0.001 A 
ATOM     83  C   UNL A   1      38.362  33.077  37.786  1.00  0.00     0.000 A 
ENDBRANCH  65  78
ENDBRANCH  39  40
ENDBRANCH  32  34
ENDBRANCH  31  32
ENDBRANCH  30  31
ENDBRANCH  29  30
ENDBRANCH  28  29
ENDBRANCH  27  28
ENDBRANCH   1  27
TORSDOF 20
ENDMDL
MODEL 3
REMARK VINA RESULT:     -10.4      1.321      3.123
REMARK SMILES CC1(C)[C@@]2(CC[C@@H]2C(=O)NCc2ccco2)[C@]1(C)C(=O)OCCOCCOCCOC(=O)c1ccc(-c2c3nc(c(-c4ccccc4)c4ccc([nH]4)c(-c4ccccc4)c4nc(c(-c5ccccc5)c5ccc2[nH]5)C=C4)C=C3)cc1
REMARK SMILES IDX 25 1 24 2 23 3 22 4 21 5 19 6 20 7 17 8 1 9 2 10 3 11 4 12
REMARK SMILES IDX 18 13 5 14 7 15 6 16 8 17 9 18 10 19 11 21 12 22 13 23 16 24
REMARK SMILES IDX 14 25 15 26 26 27 27 28 28 29 29 30 30 31 31 32 32 33 33 34
REMARK SMILES IDX 34 35 80 36 35 37 79 38 36 39 37 40 38 41 73 42 39 43 78 44
REMARK SMILES IDX 72 45 74 46 40 47 77 48 71 49 70 50 41 52 63 53 48 54 62 55
REMARK SMILES IDX 49 56 52 57 61 58 75 59 50 60 51 61 60 63 76 64 53 65 42 66
REMARK SMILES IDX 43 67 47 68 44 69 46 70 45 71 64 72 65 73 69 74 66 75 68 76
REMARK SMILES IDX 67 77 54 78 55 79 59 80 56 81 58 82 57 83
REMARK H PARENT 10 20 74 51 52 62
REMARK Flexibility Score: inf
ROOT
ATOM      1  C   UNL A   1      35.491  32.022  27.828  1.00  0.00     0.188 C 
ENDROOT
BRANCH   1   2
ATOM      2  O   UNL A   1      36.069  30.740  27.784  1.00  0.00    -0.376 OA
BRANCH   2   3
ATOM      3  C   UNL A   1      35.251  29.582  27.776  1.00  0.00     0.202 C 
BRANCH   3   4
ATOM      4  C   UNL A   1      33.950  29.424  26.965  1.00  0.00     0.261 C 
BRANCH   4   5
ATOM      5  O   UNL A   1      33.549  28.089  26.639  1.00  0.00    -0.463 OA
BRANCH   5   6
ATOM      6  C   UNL A   1      32.223  27.902  26.420  1.00  0.00     0.313 C 
ATOM      7  O   UNL A   1      31.398  27.596  27.276  1.00  0.00    -0.252 OA
BRANCH   6   8
ATOM      8  C   UNL A   1      31.767  28.280  25.028  1.00  0.00     0.078 C 
ATOM      9  C   UNL A   1      31.203  25.754  24.802  1.00  0.00     0.013 C 
ATOM     10  C   UNL A   1      31.161  27.142  24.182  1.00  0.00    -0.011 C 
ATOM     11  C   UNL A   1      29.877  27.381  23.427  1.00  0.00     0.013 C 
ATOM     12  C   UNL A   1      32.448  27.806  23.728  1.00  0.00     0.005 C 
ATOM     13  C   UNL A   1      31.064  29.639  24.988  1.00  0.00     0.025 C 
ATOM     14  C   UNL A   1      32.712  28.799  22.637  1.00  0.00     0.010 C 
ATOM     15  C   UNL A   1      33.748  27.089  23.494  1.00  0.00     0.086 C 
ATOM     16  C   UNL A   1      34.113  28.209  22.514  1.00  0.00     0.015 C 
BRANCH  15  17
ATOM     17  C   UNL A   1      33.763  25.623  22.987  1.00  0.00     0.224 C 
ATOM     18  O   UNL A   1      33.329  25.326  21.860  1.00  0.00    -0.275 OA
ATOM     19  N   UNL A   1      34.220  24.552  23.717  1.00  0.00    -0.349 N 
ATOM     20  H   UNL A   1      34.149  23.693  23.242  1.00  0.00     0.163 HD
BRANCH  19  21
ATOM     21  C   UNL A   1      34.783  24.436  25.043  1.00  0.00     0.191 C 
BRANCH  21  22
ATOM     22  C   UNL A   1      34.307  23.198  25.711  1.00  0.00     0.122 A 
ATOM     23  C   UNL A   1      33.497  22.141  25.342  1.00  0.00     0.047 A 
ATOM     24  O   UNL A   1      34.751  23.007  26.991  1.00  0.00    -0.467 OA
ATOM     25  C   UNL A   1      33.454  21.258  26.448  1.00  0.00     0.042 A 
ATOM     26  C   UNL A   1      34.233  21.830  27.425  1.00  0.00     0.195 A 
ENDBRANCH  21  22
ENDBRANCH  19  21
ENDBRANCH  15  17
ENDBRANCH   6   8
ENDBRANCH   5   6
ENDBRANCH   4   5
ENDBRANCH   3   4
ENDBRANCH   2   3
ENDBRANCH   1   2
BRANCH   1  27
ATOM     27  C   UNL A   1      34.594  32.397  29.027  1.00  0.00     0.188 C 
BRANCH  27  28
ATOM     28  O   UNL A   1      34.575  33.710  29.548  1.00  0.00    -0.376 OA
BRANCH  28  29
ATOM     29  C   UNL A   1      33.778  34.695  28.917  1.00  0.00     0.202 C 
BRANCH  29  30
ATOM     30  C   UNL A   1      32.954  35.698  29.739  1.00  0.00     0.261 C 
BRANCH  30  31
ATOM     31  O   UNL A   1      32.362  35.194  30.946  1.00  0.00    -0.460 OA
BRANCH  31  32
ATOM     32  C   UNL A   1      32.771  35.796  32.090  1.00  0.00     0.338 C 
ATOM     33  O   UNL A   1      32.218  36.707  32.687  1.00  0.00    -0.246 OA
BRANCH  32  34
ATOM     34  C   UNL A   1      33.928  35.070  32.651  1.00  0.00     0.060 A 
ATOM     35  C   UNL A   1      35.201  35.653  32.558  1.00  0.00     0.016 A 
ATOM     36  C   UNL A   1      33.774  33.796  33.197  1.00  0.00     0.016 A 
ATOM     37  C   UNL A   1      36.329  34.953  32.990  1.00  0.00     0.010 A 
ATOM     38  C   UNL A   1      34.908  33.086  33.607  1.00  0.00     0.010 A 
ATOM     39  C   UNL A   1      36.192  33.648  33.479  1.00  0.00    -0.014 A 
BRANCH  39  40
ATOM     40  C   UNL A   1      37.396  32.807  33.698  1.00  0.00     0.031 A 
ATOM     41  C   UNL A   1      38.199  33.008  34.956  1.00  0.00     0.074 A 
ATOM     42  C   UNL A   1      37.777  31.881  32.800  1.00  0.00     0.049 A 
ATOM     43  N   UNL A   1      39.321  32.445  35.324  1.00  0.00    -0.248 NA
ATOM     44  C   UNL A   1      37.664  33.977  35.928  1.00  0.00     0.031 C 
ATOM     45  C   UNL A   1      37.064  31.549  31.568  1.00  0.00     0.029 A 
ATOM     46  N   UNL A   1      38.876  31.055  32.787  1.00  0.00    -0.354 N 
ATOM     47  C   UNL A   1      39.640  33.006  36.555  1.00  0.00     0.074 A 
ATOM     48  C   UNL A   1      38.599  33.961  36.868  1.00  0.00     0.031 C 
ATOM     49  C   UNL A   1      37.755  30.602  30.908  1.00  0.00     0.029 A 
ATOM     50  C   UNL A   1      38.974  30.290  31.650  1.00  0.00     0.049 A 
ATOM     51  H   UNL A   1      39.529  31.016  33.522  1.00  0.00     0.167 HD
ATOM     52  C   UNL A   1      40.704  32.752  37.352  1.00  0.00     0.031 A 
ATOM     53  C   UNL A   1      39.955  29.459  31.241  1.00  0.00     0.031 A 
ATOM     54  C   UNL A   1      41.743  31.806  37.041  1.00  0.00     0.049 A 
ATOM     55  C   UNL A   1      41.169  29.256  32.113  1.00  0.00     0.074 A 
ATOM     56  C   UNL A   1      42.842  31.457  37.807  1.00  0.00     0.029 A 
ATOM     57  N   UNL A   1      41.820  31.072  35.869  1.00  0.00    -0.354 N 
ATOM     58  N   UNL A   1      41.434  29.756  33.297  1.00  0.00    -0.248 NA
ATOM     59  C   UNL A   1      42.218  28.366  31.593  1.00  0.00     0.031 C 
ATOM     60  C   UNL A   1      43.625  30.566  37.066  1.00  0.00     0.029 A 
ATOM     61  C   UNL A   1      42.971  30.302  35.872  1.00  0.00     0.049 A 
ATOM     62  H   UNL A   1      41.157  31.095  35.143  1.00  0.00     0.167 HD
ATOM     63  C   UNL A   1      42.657  29.211  33.675  1.00  0.00     0.074 A 
ATOM     64  C   UNL A   1      43.074  28.331  32.604  1.00  0.00     0.031 C 
ATOM     65  C   UNL A   1      43.372  29.421  34.807  1.00  0.00     0.031 A 
BRANCH  52  66
ATOM     66  C   UNL A   1      40.832  33.544  38.623  1.00  0.00    -0.014 A 
ATOM     67  C   UNL A   1      41.578  34.731  38.679  1.00  0.00     0.009 A 
ATOM     68  C   UNL A   1      40.137  33.124  39.768  1.00  0.00     0.009 A 
ATOM     69  C   UNL A   1      41.645  35.467  39.865  1.00  0.00     0.001 A 
ATOM     70  C   UNL A   1      40.182  33.876  40.942  1.00  0.00     0.001 A 
ATOM     71  C   UNL A   1      40.941  35.043  40.991  1.00  0.00     0.000 A 
ENDBRANCH  52  66
BRANCH  53  72
ATOM     72  C   UNL A   1      39.868  28.779  29.919  1.00  0.00    -0.014 A 
ATOM     73  C   UNL A   1      39.354  27.477  29.812  1.00  0.00     0.009 A 
ATOM     74  C   UNL A   1      40.363  29.407  28.764  1.00  0.00     0.009 A 
ATOM     75  C   UNL A   1      39.378  26.803  28.587  1.00  0.00     0.001 A 
ATOM     76  C   UNL A   1      40.352  28.745  27.535  1.00  0.00     0.001 A 
ATOM     77  C   UNL A   1      39.875  27.438  27.450  1.00  0.00     0.000 A 
ENDBRANCH  53  72
BRANCH  65  78
ATOM     78  C   UNL A   1      44.651  28.647  34.978  1.00  0.00    -0.014 A 
ATOM     79  C   UNL A   1      44.651  27.304  35.385  1.00  0.00     0.009 A 
ATOM     80  C   UNL A   1      45.877  29.264  34.678  1.00  0.00     0.009 A 
ATOM     81  C   UNL A   1      45.853  26.607  35.523  1.00  0.00     0.001 A 
ATOM     82  C   UNL A   1      47.075  28.554  34.784  1.00  0.00     0.001 A 
ATOM     83  C   UNL A   1      47.062  27.230  35.218  1.00  0.00     0.000 A 
ENDBRANCH  65  78
ENDBRANCH  39  40
ENDBRANCH  32  34
ENDBRANCH  31  32
ENDBRANCH  30  31
ENDBRANCH  29  30
ENDBRANCH  28  29
ENDBRANCH  27  28
ENDBRANCH   1  27
TORSDOF 20
ENDMDL
