MODEL 1
REMARK VINA RESULT:     -11.3      0.000      0.000
REMARK SMILES Cc1ncccc1OC1(C(=O)OCCOCCOCCOC(=O)c2ccc(-c3c4nc(c(-c5ccccc5)c5ccc([nH]5)c(-c5ccccc5)c5nc(c(-c6ccccc6)c6ccc3[nH]6)C=C5)C=C4)cc2)CCN(C(=O)c2ccc(O)nn2)CC1
REMARK SMILES IDX 16 1 15 2 14 3 13 4 12 5 10 6 11 7 9 8 72 9 85 10 73 11
REMARK SMILES IDX 84 12 74 13 75 14 76 15 8 16 7 17 1 18 2 19 3 20 4 21 6 22
REMARK SMILES IDX 5 23 77 24 78 25 83 26 79 27 82 28 80 29 81 30 17 32 18 33
REMARK SMILES IDX 19 34 20 35 21 36 22 37 23 38 24 39 25 40 71 41 26 42 70 43
REMARK SMILES IDX 27 44 28 45 29 46 64 47 30 48 69 49 63 50 65 51 31 52 68 53
REMARK SMILES IDX 62 54 61 55 32 57 54 58 39 59 53 60 40 61 43 62 52 63 66 64
REMARK SMILES IDX 41 65 42 66 51 68 67 69 44 70 33 71 34 72 38 73 35 74 37 75
REMARK SMILES IDX 36 76 55 77 56 78 60 79 57 80 59 81 58 82 45 83 46 84 50 85
REMARK SMILES IDX 47 86 49 87 48 88
REMARK H PARENT 81 31 65 56 43 67
REMARK Flexibility Score: inf
ROOT
ATOM      1  C   UNL A   1      35.116  32.671  28.000  1.00  0.00     0.188 C 
ENDROOT
BRANCH   1   2
ATOM      2  O   UNL A   1      34.691  31.375  28.406  1.00  0.00    -0.376 OA
BRANCH   2   3
ATOM      3  C   UNL A   1      34.297  30.424  27.427  1.00  0.00     0.202 C 
BRANCH   3   4
ATOM      4  C   UNL A   1      32.792  30.270  27.192  1.00  0.00     0.261 C 
BRANCH   4   5
ATOM      5  O   UNL A   1      32.423  29.340  26.150  1.00  0.00    -0.460 OA
BRANCH   5   6
ATOM      6  C   UNL A   1      31.840  28.153  26.523  1.00  0.00     0.350 C 
ATOM      7  O   UNL A   1      31.414  27.941  27.651  1.00  0.00    -0.247 OA
BRANCH   6   8
ATOM      8  C   UNL A   1      31.887  27.082  25.373  1.00  0.00     0.209 C 
ATOM      9  C   UNL A   1      33.114  27.316  24.478  1.00  0.00     0.082 C 
ATOM     10  C   UNL A   1      32.025  25.768  26.159  1.00  0.00     0.082 C 
ATOM     11  C   UNL A   1      33.726  26.123  23.760  1.00  0.00     0.124 C 
ATOM     12  C   UNL A   1      32.453  24.582  25.334  1.00  0.00     0.124 C 
ATOM     13  N   UNL A   1      33.545  24.820  24.387  1.00  0.00    -0.337 N 
ATOM     14  C   UNL A   1      34.199  23.742  23.751  1.00  0.00     0.274 C 
ATOM     15  O   UNL A   1      35.059  23.878  22.885  1.00  0.00    -0.267 OA
BRANCH   8  16
ATOM     16  O   UNL A   1      30.557  27.019  24.805  1.00  0.00    -0.474 OA
BRANCH  16  17
ATOM     17  C   UNL A   1      29.961  27.652  23.757  1.00  0.00     0.142 A 
ATOM     18  C   UNL A   1      27.635  26.601  24.009  1.00  0.00     0.071 C 
ATOM     19  C   UNL A   1      28.593  27.588  23.451  1.00  0.00     0.079 A 
ATOM     20  N   UNL A   1      27.941  28.521  22.699  1.00  0.00    -0.258 NA
ATOM     21  C   UNL A   1      28.624  29.595  22.278  1.00  0.00     0.111 A 
ATOM     22  C   UNL A   1      30.638  28.779  23.262  1.00  0.00     0.050 A 
ATOM     23  C   UNL A   1      29.968  29.764  22.524  1.00  0.00     0.024 A 
ENDBRANCH  16  17
ENDBRANCH   8  16
BRANCH  14  24
ATOM     24  C   UNL A   1      33.845  22.376  24.198  1.00  0.00     0.151 A 
ATOM     25  C   UNL A   1      34.302  21.934  25.426  1.00  0.00     0.042 A 
ATOM     26  N   UNL A   1      32.901  21.724  23.471  1.00  0.00    -0.142 NA
ATOM     27  C   UNL A   1      33.730  20.779  25.940  1.00  0.00     0.072 A 
ATOM     28  N   UNL A   1      32.352  20.589  23.975  1.00  0.00    -0.112 NA
ATOM     29  C   UNL A   1      32.762  20.156  25.183  1.00  0.00     0.230 A 
BRANCH  29  30
ATOM     30  O   UNL A   1      32.120  19.058  25.659  1.00  0.00    -0.492 OA
ATOM     31  H   UNL A   1      31.303  19.151  26.109  1.00  0.00     0.295 HD
ENDBRANCH  29  30
ENDBRANCH  14  24
ENDBRANCH   6   8
ENDBRANCH   5   6
ENDBRANCH   4   5
ENDBRANCH   3   4
ENDBRANCH   2   3
ENDBRANCH   1   2
BRANCH   1  32
ATOM     32  C   UNL A   1      34.966  33.841  28.976  1.00  0.00     0.188 C 
BRANCH  32  33
ATOM     33  O   UNL A   1      34.075  33.586  30.048  1.00  0.00    -0.376 OA
BRANCH  33  34
ATOM     34  C   UNL A   1      34.074  34.559  31.083  1.00  0.00     0.202 C 
BRANCH  34  35
ATOM     35  C   UNL A   1      34.303  33.904  32.447  1.00  0.00     0.261 C 
BRANCH  35  36
ATOM     36  O   UNL A   1      34.932  32.611  32.376  1.00  0.00    -0.460 OA
BRANCH  36  37
ATOM     37  C   UNL A   1      36.016  32.413  33.162  1.00  0.00     0.338 C 
ATOM     38  O   UNL A   1      36.103  32.624  34.360  1.00  0.00    -0.246 OA
BRANCH  37  39
ATOM     39  C   UNL A   1      37.016  31.666  32.371  1.00  0.00     0.060 A 
ATOM     40  C   UNL A   1      37.981  30.902  33.043  1.00  0.00     0.016 A 
ATOM     41  C   UNL A   1      36.989  31.701  30.976  1.00  0.00     0.016 A 
ATOM     42  C   UNL A   1      38.943  30.193  32.318  1.00  0.00     0.010 A 
ATOM     43  C   UNL A   1      37.960  31.008  30.252  1.00  0.00     0.010 A 
ATOM     44  C   UNL A   1      38.960  30.277  30.919  1.00  0.00    -0.014 A 
BRANCH  44  45
ATOM     45  C   UNL A   1      40.128  29.783  30.150  1.00  0.00     0.031 A 
ATOM     46  C   UNL A   1      41.271  30.731  29.910  1.00  0.00     0.074 A 
ATOM     47  C   UNL A   1      40.175  28.536  29.651  1.00  0.00     0.049 A 
ATOM     48  N   UNL A   1      42.355  30.563  29.197  1.00  0.00    -0.248 NA
ATOM     49  C   UNL A   1      41.172  32.049  30.559  1.00  0.00     0.031 C 
ATOM     50  C   UNL A   1      39.159  27.503  29.839  1.00  0.00     0.029 A 
ATOM     51  N   UNL A   1      41.126  27.937  28.860  1.00  0.00    -0.354 N 
ATOM     52  C   UNL A   1      43.060  31.756  29.302  1.00  0.00     0.074 A 
ATOM     53  C   UNL A   1      42.270  32.647  30.124  1.00  0.00     0.031 C 
ATOM     54  C   UNL A   1      39.536  26.398  29.170  1.00  0.00     0.029 A 
ATOM     55  C   UNL A   1      40.798  26.660  28.478  1.00  0.00     0.049 A 
ATOM     56  H   UNL A   1      41.962  28.382  28.593  1.00  0.00     0.167 HD
ATOM     57  C   UNL A   1      44.258  32.084  28.764  1.00  0.00     0.031 A 
ATOM     58  C   UNL A   1      41.433  25.811  27.645  1.00  0.00     0.031 A 
ATOM     59  C   UNL A   1      45.041  31.214  27.931  1.00  0.00     0.049 A 
ATOM     60  C   UNL A   1      42.721  26.232  26.986  1.00  0.00     0.074 A 
ATOM     61  C   UNL A   1      46.278  31.453  27.359  1.00  0.00     0.029 A 
ATOM     62  N   UNL A   1      44.656  29.942  27.541  1.00  0.00    -0.354 N 
ATOM     63  N   UNL A   1      43.396  27.348  27.118  1.00  0.00    -0.248 NA
ATOM     64  C   UNL A   1      43.337  25.266  26.061  1.00  0.00     0.031 C 
ATOM     65  C   UNL A   1      46.617  30.346  26.575  1.00  0.00     0.029 A 
ATOM     66  C   UNL A   1      45.619  29.394  26.709  1.00  0.00     0.049 A 
ATOM     67  H   UNL A   1      43.824  29.493  27.814  1.00  0.00     0.167 HD
ATOM     68  C   UNL A   1      44.527  27.207  26.323  1.00  0.00     0.074 A 
ATOM     69  C   UNL A   1      44.455  25.893  25.719  1.00  0.00     0.031 C 
ATOM     70  C   UNL A   1      45.540  28.085  26.116  1.00  0.00     0.031 A 
BRANCH  57  71
ATOM     71  C   UNL A   1      44.773  33.469  29.034  1.00  0.00    -0.014 A 
ATOM     72  C   UNL A   1      44.450  34.545  28.192  1.00  0.00     0.009 A 
ATOM     73  C   UNL A   1      45.578  33.703  30.160  1.00  0.00     0.009 A 
ATOM     74  C   UNL A   1      44.952  35.821  28.453  1.00  0.00     0.001 A 
ATOM     75  C   UNL A   1      46.055  34.985  30.433  1.00  0.00     0.001 A 
ATOM     76  C   UNL A   1      45.751  36.041  29.576  1.00  0.00     0.000 A 
ENDBRANCH  57  71
BRANCH  58  77
ATOM     77  C   UNL A   1      40.856  24.470  27.362  1.00  0.00    -0.014 A 
ATOM     78  C   UNL A   1      39.729  24.339  26.536  1.00  0.00     0.009 A 
ATOM     79  C   UNL A   1      41.405  23.318  27.948  1.00  0.00     0.009 A 
ATOM     80  C   UNL A   1      39.149  23.086  26.322  1.00  0.00     0.001 A 
ATOM     81  C   UNL A   1      40.840  22.064  27.710  1.00  0.00     0.001 A 
ATOM     82  C   UNL A   1      39.708  21.949  26.906  1.00  0.00     0.000 A 
ENDBRANCH  58  77
BRANCH  70  83
ATOM     83  C   UNL A   1      46.678  27.642  25.237  1.00  0.00    -0.014 A 
ATOM     84  C   UNL A   1      46.760  28.033  23.893  1.00  0.00     0.009 A 
ATOM     85  C   UNL A   1      47.711  26.864  25.783  1.00  0.00     0.009 A 
ATOM     86  C   UNL A   1      47.839  27.626  23.103  1.00  0.00     0.001 A 
ATOM     87  C   UNL A   1      48.802  26.483  25.000  1.00  0.00     0.001 A 
ATOM     88  C   UNL A   1      48.861  26.858  23.659  1.00  0.00     0.000 A 
ENDBRANCH  70  83
ENDBRANCH  44  45
ENDBRANCH  37  39
ENDBRANCH  36  37
ENDBRANCH  35  36
ENDBRANCH  34  35
ENDBRANCH  33  34
ENDBRANCH  32  33
ENDBRANCH   1  32
TORSDOF 21
ENDMDL
MODEL 2
REMARK VINA RESULT:     -10.5      3.517      8.279
REMARK SMILES Cc1ncccc1OC1(C(=O)OCCOCCOCCOC(=O)c2ccc(-c3c4nc(c(-c5ccccc5)c5ccc([nH]5)c(-c5ccccc5)c5nc(c(-c6ccccc6)c6ccc3[nH]6)C=C5)C=C4)cc2)CCN(C(=O)c2ccc(O)nn2)CC1
REMARK SMILES IDX 16 1 15 2 14 3 13 4 12 5 10 6 11 7 9 8 72 9 85 10 73 11
REMARK SMILES IDX 84 12 74 13 75 14 76 15 8 16 7 17 1 18 2 19 3 20 4 21 6 22
REMARK SMILES IDX 5 23 77 24 78 25 83 26 79 27 82 28 80 29 81 30 17 32 18 33
REMARK SMILES IDX 19 34 20 35 21 36 22 37 23 38 24 39 25 40 71 41 26 42 70 43
REMARK SMILES IDX 27 44 28 45 29 46 64 47 30 48 69 49 63 50 65 51 31 52 68 53
REMARK SMILES IDX 62 54 61 55 32 57 54 58 39 59 53 60 40 61 43 62 52 63 66 64
REMARK SMILES IDX 41 65 42 66 51 68 67 69 44 70 33 71 34 72 38 73 35 74 37 75
REMARK SMILES IDX 36 76 55 77 56 78 60 79 57 80 59 81 58 82 45 83 46 84 50 85
REMARK SMILES IDX 47 86 49 87 48 88
REMARK H PARENT 81 31 65 56 43 67
REMARK Flexibility Score: inf
ROOT
ATOM      1  C   UNL A   1      30.720  26.090  23.059  1.00  0.00     0.188 C 
ENDROOT
BRANCH   1   2
ATOM      2  O   UNL A   1      31.909  25.316  22.950  1.00  0.00    -0.376 OA
BRANCH   2   3
ATOM      3  C   UNL A   1      31.823  23.900  22.865  1.00  0.00     0.202 C 
BRANCH   3   4
ATOM      4  C   UNL A   1      33.057  23.173  22.323  1.00  0.00     0.261 C 
BRANCH   4   5
ATOM      5  O   UNL A   1      33.947  22.638  23.328  1.00  0.00    -0.460 OA
BRANCH   5   6
ATOM      6  C   UNL A   1      35.006  23.416  23.730  1.00  0.00     0.350 C 
ATOM      7  O   UNL A   1      35.326  24.455  23.169  1.00  0.00    -0.247 OA
BRANCH   6   8
ATOM      8  C   UNL A   1      35.807  22.759  24.912  1.00  0.00     0.209 C 
ATOM      9  C   UNL A   1      35.969  21.250  24.673  1.00  0.00     0.082 C 
ATOM     10  C   UNL A   1      37.165  23.476  24.822  1.00  0.00     0.082 C 
ATOM     11  C   UNL A   1      37.181  20.547  25.263  1.00  0.00     0.124 C 
ATOM     12  C   UNL A   1      38.278  22.818  25.595  1.00  0.00     0.124 C 
ATOM     13  N   UNL A   1      38.372  21.361  25.472  1.00  0.00    -0.337 N 
ATOM     14  C   UNL A   1      39.511  20.669  25.934  1.00  0.00     0.274 C 
ATOM     15  O   UNL A   1      39.612  19.444  25.940  1.00  0.00    -0.267 OA
BRANCH   8  16
ATOM     16  O   UNL A   1      35.225  23.256  26.141  1.00  0.00    -0.474 OA
BRANCH  16  17
ATOM     17  C   UNL A   1      33.946  23.541  26.517  1.00  0.00     0.142 A 
ATOM     18  C   UNL A   1      33.953  26.023  25.868  1.00  0.00     0.071 C 
ATOM     19  C   UNL A   1      33.291  24.759  26.279  1.00  0.00     0.079 A 
ATOM     20  N   UNL A   1      31.934  24.897  26.264  1.00  0.00    -0.258 NA
ATOM     21  C   UNL A   1      31.177  23.802  26.421  1.00  0.00     0.111 A 
ATOM     22  C   UNL A   1      33.108  22.431  26.710  1.00  0.00     0.050 A 
ATOM     23  C   UNL A   1      31.713  22.556  26.656  1.00  0.00     0.024 A 
ENDBRANCH  16  17
ENDBRANCH   8  16
BRANCH  14  24
ATOM     24  C   UNL A   1      40.658  21.481  26.397  1.00  0.00     0.151 A 
ATOM     25  C   UNL A   1      40.783  21.757  27.747  1.00  0.00     0.042 A 
ATOM     26  N   UNL A   1      41.642  21.714  25.491  1.00  0.00    -0.142 NA
ATOM     27  C   UNL A   1      41.997  22.266  28.183  1.00  0.00     0.072 A 
ATOM     28  N   UNL A   1      42.825  22.224  25.923  1.00  0.00    -0.112 NA
ATOM     29  C   UNL A   1      42.978  22.472  27.238  1.00  0.00     0.230 A 
BRANCH  29  30
ATOM     30  O   UNL A   1      44.209  22.909  27.611  1.00  0.00    -0.492 OA
ATOM     31  H   UNL A   1      44.342  23.813  27.821  1.00  0.00     0.295 HD
ENDBRANCH  29  30
ENDBRANCH  14  24
ENDBRANCH   6   8
ENDBRANCH   5   6
ENDBRANCH   4   5
ENDBRANCH   3   4
ENDBRANCH   2   3
ENDBRANCH   1   2
BRANCH   1  32
ATOM     32  C   UNL A   1      30.669  27.471  22.401  1.00  0.00     0.188 C 
BRANCH  32  33
ATOM     33  O   UNL A   1      31.547  28.419  22.983  1.00  0.00    -0.376 OA
BRANCH  33  34
ATOM     34  C   UNL A   1      30.973  29.247  23.983  1.00  0.00     0.202 C 
BRANCH  34  35
ATOM     35  C   UNL A   1      31.661  29.032  25.332  1.00  0.00     0.261 C 
BRANCH  35  36
ATOM     36  O   UNL A   1      32.811  29.872  25.542  1.00  0.00    -0.460 OA
BRANCH  36  37
ATOM     37  C   UNL A   1      32.685  30.870  26.448  1.00  0.00     0.338 C 
ATOM     38  O   UNL A   1      31.735  31.622  26.585  1.00  0.00    -0.246 OA
BRANCH  37  39
ATOM     39  C   UNL A   1      33.798  30.747  27.412  1.00  0.00     0.060 A 
ATOM     40  C   UNL A   1      34.349  31.912  27.966  1.00  0.00     0.016 A 
ATOM     41  C   UNL A   1      34.281  29.491  27.785  1.00  0.00     0.016 A 
ATOM     42  C   UNL A   1      35.408  31.823  28.874  1.00  0.00     0.010 A 
ATOM     43  C   UNL A   1      35.350  29.403  28.677  1.00  0.00     0.010 A 
ATOM     44  C   UNL A   1      35.939  30.568  29.202  1.00  0.00    -0.014 A 
BRANCH  44  45
ATOM     45  C   UNL A   1      37.232  30.463  29.921  1.00  0.00     0.031 A 
ATOM     46  C   UNL A   1      38.378  29.786  29.222  1.00  0.00     0.074 A 
ATOM     47  C   UNL A   1      37.389  30.931  31.171  1.00  0.00     0.049 A 
ATOM     48  N   UNL A   1      39.572  29.495  29.673  1.00  0.00    -0.248 NA
ATOM     49  C   UNL A   1      38.142  29.375  27.828  1.00  0.00     0.031 C 
ATOM     50  C   UNL A   1      36.379  31.641  31.950  1.00  0.00     0.029 A 
ATOM     51  N   UNL A   1      38.475  30.854  32.011  1.00  0.00    -0.354 N 
ATOM     52  C   UNL A   1      40.223  28.859  28.624  1.00  0.00     0.074 A 
ATOM     53  C   UNL A   1      39.286  28.782  27.524  1.00  0.00     0.031 C 
ATOM     54  C   UNL A   1      36.888  31.926  33.163  1.00  0.00     0.029 A 
ATOM     55  C   UNL A   1      38.244  31.386  33.256  1.00  0.00     0.049 A 
ATOM     56  H   UNL A   1      39.335  30.457  31.745  1.00  0.00     0.167 HD
ATOM     57  C   UNL A   1      41.489  28.380  28.574  1.00  0.00     0.031 A 
ATOM     58  C   UNL A   1      39.030  31.409  34.351  1.00  0.00     0.031 A 
ATOM     59  C   UNL A   1      42.421  28.435  29.665  1.00  0.00     0.049 A 
ATOM     60  C   UNL A   1      40.403  30.789  34.301  1.00  0.00     0.074 A 
ATOM     61  C   UNL A   1      43.733  27.995  29.701  1.00  0.00     0.029 A 
ATOM     62  N   UNL A   1      42.136  28.950  30.920  1.00  0.00    -0.354 N 
ATOM     63  N   UNL A   1      41.021  30.221  33.294  1.00  0.00    -0.248 NA
ATOM     64  C   UNL A   1      41.189  30.820  35.545  1.00  0.00     0.031 C 
ATOM     65  C   UNL A   1      44.224  28.192  30.995  1.00  0.00     0.029 A 
ATOM     66  C   UNL A   1      43.238  28.811  31.747  1.00  0.00     0.049 A 
ATOM     67  H   UNL A   1      41.278  29.355  31.184  1.00  0.00     0.167 HD
ATOM     68  C   UNL A   1      42.275  29.858  33.772  1.00  0.00     0.074 A 
ATOM     69  C   UNL A   1      42.335  30.278  35.156  1.00  0.00     0.031 C 
ATOM     70  C   UNL A   1      43.289  29.236  33.121  1.00  0.00     0.031 A 
BRANCH  57  71
ATOM     71  C   UNL A   1      41.920  27.716  27.298  1.00  0.00    -0.014 A 
ATOM     72  C   UNL A   1      42.538  28.444  26.269  1.00  0.00     0.009 A 
ATOM     73  C   UNL A   1      41.722  26.337  27.133  1.00  0.00     0.009 A 
ATOM     74  C   UNL A   1      42.918  27.809  25.085  1.00  0.00     0.001 A 
ATOM     75  C   UNL A   1      42.128  25.699  25.959  1.00  0.00     0.001 A 
ATOM     76  C   UNL A   1      42.716  26.437  24.933  1.00  0.00     0.000 A 
ENDBRANCH  57  71
BRANCH  58  77
ATOM     77  C   UNL A   1      38.538  32.027  35.611  1.00  0.00    -0.014 A 
ATOM     78  C   UNL A   1      38.018  31.228  36.641  1.00  0.00     0.009 A 
ATOM     79  C   UNL A   1      38.551  33.421  35.774  1.00  0.00     0.009 A 
ATOM     80  C   UNL A   1      37.497  31.814  37.797  1.00  0.00     0.001 A 
ATOM     81  C   UNL A   1      38.056  34.002  36.943  1.00  0.00     0.001 A 
ATOM     82  C   UNL A   1      37.521  33.200  37.950  1.00  0.00     0.000 A 
ENDBRANCH  58  77
BRANCH  70  83
ATOM     83  C   UNL A   1      44.570  29.012  33.878  1.00  0.00    -0.014 A 
ATOM     84  C   UNL A   1      45.567  29.997  33.939  1.00  0.00     0.009 A 
ATOM     85  C   UNL A   1      44.754  27.814  34.587  1.00  0.00     0.009 A 
ATOM     86  C   UNL A   1      46.738  29.772  34.668  1.00  0.00     0.001 A 
ATOM     87  C   UNL A   1      45.912  27.604  35.338  1.00  0.00     0.001 A 
ATOM     88  C   UNL A   1      46.906  28.580  35.371  1.00  0.00     0.000 A 
ENDBRANCH  70  83
ENDBRANCH  44  45
ENDBRANCH  37  39
ENDBRANCH  36  37
ENDBRANCH  35  36
ENDBRANCH  34  35
ENDBRANCH  33  34
ENDBRANCH  32  33
ENDBRANCH   1  32
TORSDOF 21
ENDMDL
MODEL 3
REMARK VINA RESULT:     -10.3      1.582      5.849
REMARK SMILES Cc1ncccc1OC1(C(=O)OCCOCCOCCOC(=O)c2ccc(-c3c4nc(c(-c5ccccc5)c5ccc([nH]5)c(-c5ccccc5)c5nc(c(-c6ccccc6)c6ccc3[nH]6)C=C5)C=C4)cc2)CCN(C(=O)c2ccc(O)nn2)CC1
REMARK SMILES IDX 16 1 15 2 14 3 13 4 12 5 10 6 11 7 9 8 72 9 85 10 73 11
REMARK SMILES IDX 84 12 74 13 75 14 76 15 8 16 7 17 1 18 2 19 3 20 4 21 6 22
REMARK SMILES IDX 5 23 77 24 78 25 83 26 79 27 82 28 80 29 81 30 17 32 18 33
REMARK SMILES IDX 19 34 20 35 21 36 22 37 23 38 24 39 25 40 71 41 26 42 70 43
REMARK SMILES IDX 27 44 28 45 29 46 64 47 30 48 69 49 63 50 65 51 31 52 68 53
REMARK SMILES IDX 62 54 61 55 32 57 54 58 39 59 53 60 40 61 43 62 52 63 66 64
REMARK SMILES IDX 41 65 42 66 51 68 67 69 44 70 33 71 34 72 38 73 35 74 37 75
REMARK SMILES IDX 36 76 55 77 56 78 60 79 57 80 59 81 58 82 45 83 46 84 50 85
REMARK SMILES IDX 47 86 49 87 48 88
REMARK H PARENT 81 31 65 56 43 67
REMARK Flexibility Score: inf
ROOT
ATOM      1  C   UNL A   1      33.231  33.526  28.106  1.00  0.00     0.188 C 
ENDROOT
BRANCH   1   2
ATOM      2  O   UNL A   1      32.177  33.383  27.160  1.00  0.00    -0.376 OA
BRANCH   2   3
ATOM      3  C   UNL A   1      31.750  32.085  26.772  1.00  0.00     0.202 C 
BRANCH   3   4
ATOM      4  C   UNL A   1      32.754  30.947  26.977  1.00  0.00     0.261 C 
BRANCH   4   5
ATOM      5  O   UNL A   1      32.931  30.070  25.842  1.00  0.00    -0.460 OA
BRANCH   5   6
ATOM      6  C   UNL A   1      33.593  28.883  26.043  1.00  0.00     0.350 C 
ATOM      7  O   UNL A   1      34.597  28.785  26.737  1.00  0.00    -0.247 OA
BRANCH   6   8
ATOM      8  C   UNL A   1      32.977  27.710  25.197  1.00  0.00     0.209 C 
ATOM      9  C   UNL A   1      33.767  27.520  23.894  1.00  0.00     0.082 C 
ATOM     10  C   UNL A   1      33.161  26.504  26.132  1.00  0.00     0.082 C 
ATOM     11  C   UNL A   1      33.806  26.137  23.265  1.00  0.00     0.124 C 
ATOM     12  C   UNL A   1      32.994  25.161  25.470  1.00  0.00     0.124 C 
ATOM     13  N   UNL A   1      33.644  25.003  24.166  1.00  0.00    -0.337 N 
ATOM     14  C   UNL A   1      33.775  23.729  23.573  1.00  0.00     0.274 C 
ATOM     15  O   UNL A   1      34.229  23.541  22.448  1.00  0.00    -0.267 OA
BRANCH   8  16
ATOM     16  O   UNL A   1      31.544  27.922  25.170  1.00  0.00    -0.474 OA
BRANCH  16  17
ATOM     17  C   UNL A   1      30.662  28.197  24.169  1.00  0.00     0.142 A 
ATOM     18  C   UNL A   1      29.593  25.871  24.016  1.00  0.00     0.071 C 
ATOM     19  C   UNL A   1      29.664  27.322  23.714  1.00  0.00     0.079 A 
ATOM     20  N   UNL A   1      28.549  27.731  23.042  1.00  0.00    -0.258 NA
ATOM     21  C   UNL A   1      28.357  29.045  22.858  1.00  0.00     0.111 A 
ATOM     22  C   UNL A   1      30.431  29.560  23.921  1.00  0.00     0.050 A 
ATOM     23  C   UNL A   1      29.269  29.993  23.268  1.00  0.00     0.024 A 
ENDBRANCH  16  17
ENDBRANCH   8  16
BRANCH  14  24
ATOM     24  C   UNL A   1      33.374  22.558  24.386  1.00  0.00     0.151 A 
ATOM     25  C   UNL A   1      32.406  21.702  23.895  1.00  0.00     0.042 A 
ATOM     26  N   UNL A   1      34.150  22.273  25.464  1.00  0.00    -0.142 NA
ATOM     27  C   UNL A   1      32.256  20.478  24.531  1.00  0.00     0.072 A 
ATOM     28  N   UNL A   1      33.992  21.077  26.088  1.00  0.00    -0.112 NA
ATOM     29  C   UNL A   1      33.073  20.216  25.609  1.00  0.00     0.230 A 
BRANCH  29  30
ATOM     30  O   UNL A   1      33.019  19.011  26.233  1.00  0.00    -0.492 OA
ATOM     31  H   UNL A   1      33.072  18.221  25.733  1.00  0.00     0.295 HD
ENDBRANCH  29  30
ENDBRANCH  14  24
ENDBRANCH   6   8
ENDBRANCH   5   6
ENDBRANCH   4   5
ENDBRANCH   3   4
ENDBRANCH   2   3
ENDBRANCH   1   2
BRANCH   1  32
ATOM     32  C   UNL A   1      33.675  34.933  28.517  1.00  0.00     0.188 C 
BRANCH  32  33
ATOM     33  O   UNL A   1      33.598  35.176  29.910  1.00  0.00    -0.376 OA
BRANCH  33  34
ATOM     34  C   UNL A   1      34.295  34.248  30.729  1.00  0.00     0.202 C 
BRANCH  34  35
ATOM     35  C   UNL A   1      35.733  34.062  30.241  1.00  0.00     0.261 C 
BRANCH  35  36
ATOM     36  O   UNL A   1      36.570  33.332  31.156  1.00  0.00    -0.460 OA
BRANCH  36  37
ATOM     37  C   UNL A   1      36.332  32.005  31.281  1.00  0.00     0.338 C 
ATOM     38  O   UNL A   1      35.274  31.474  31.573  1.00  0.00    -0.246 OA
BRANCH  37  39
ATOM     39  C   UNL A   1      37.516  31.283  30.770  1.00  0.00     0.060 A 
ATOM     40  C   UNL A   1      38.446  30.769  31.684  1.00  0.00     0.016 A 
ATOM     41  C   UNL A   1      37.695  31.094  29.398  1.00  0.00     0.016 A 
ATOM     42  C   UNL A   1      39.577  30.090  31.226  1.00  0.00     0.010 A 
ATOM     43  C   UNL A   1      38.834  30.432  28.939  1.00  0.00     0.010 A 
ATOM     44  C   UNL A   1      39.797  29.954  29.848  1.00  0.00    -0.014 A 
BRANCH  44  45
ATOM     45  C   UNL A   1      41.114  29.505  29.337  1.00  0.00     0.031 A 
ATOM     46  C   UNL A   1      41.253  28.073  28.898  1.00  0.00     0.074 A 
ATOM     47  C   UNL A   1      42.173  30.330  29.282  1.00  0.00     0.049 A 
ATOM     48  N   UNL A   1      42.318  27.425  28.500  1.00  0.00    -0.248 NA
ATOM     49  C   UNL A   1      40.024  27.262  28.917  1.00  0.00     0.031 C 
ATOM     50  C   UNL A   1      42.171  31.747  29.636  1.00  0.00     0.029 A 
ATOM     51  N   UNL A   1      43.473  30.073  28.915  1.00  0.00    -0.354 N 
ATOM     52  C   UNL A   1      41.890  26.130  28.234  1.00  0.00     0.074 A 
ATOM     53  C   UNL A   1      40.477  26.077  28.540  1.00  0.00     0.031 C 
ATOM     54  C   UNL A   1      43.416  32.234  29.482  1.00  0.00     0.029 A 
ATOM     55  C   UNL A   1      44.307  31.155  29.054  1.00  0.00     0.049 A 
ATOM     56  H   UNL A   1      43.777  29.197  28.585  1.00  0.00     0.167 HD
ATOM     57  C   UNL A   1      42.605  25.077  27.775  1.00  0.00     0.031 A 
ATOM     58  C   UNL A   1      45.640  31.253  28.880  1.00  0.00     0.031 A 
ATOM     59  C   UNL A   1      44.012  25.113  27.486  1.00  0.00     0.049 A 
ATOM     60  C   UNL A   1      46.432  30.043  28.456  1.00  0.00     0.074 A 
ATOM     61  C   UNL A   1      44.818  24.101  26.996  1.00  0.00     0.029 A 
ATOM     62  N   UNL A   1      44.826  26.219  27.674  1.00  0.00    -0.354 N 
ATOM     63  N   UNL A   1      46.012  28.834  28.174  1.00  0.00    -0.248 NA
ATOM     64  C   UNL A   1      47.887  30.219  28.321  1.00  0.00     0.031 C 
ATOM     65  C   UNL A   1      46.132  24.577  26.941  1.00  0.00     0.029 A 
ATOM     66  C   UNL A   1      46.132  25.904  27.338  1.00  0.00     0.049 A 
ATOM     67  H   UNL A   1      44.521  27.098  27.997  1.00  0.00     0.167 HD
ATOM     68  C   UNL A   1      47.142  28.116  27.799  1.00  0.00     0.074 A 
ATOM     69  C   UNL A   1      48.264  29.026  27.879  1.00  0.00     0.031 C 
ATOM     70  C   UNL A   1      47.241  26.818  27.417  1.00  0.00     0.031 A 
BRANCH  57  71
ATOM     71  C   UNL A   1      41.873  23.777  27.597  1.00  0.00    -0.014 A 
ATOM     72  C   UNL A   1      42.252  22.623  28.300  1.00  0.00     0.009 A 
ATOM     73  C   UNL A   1      40.775  23.714  26.726  1.00  0.00     0.009 A 
ATOM     74  C   UNL A   1      41.567  21.422  28.108  1.00  0.00     0.001 A 
ATOM     75  C   UNL A   1      40.074  22.519  26.557  1.00  0.00     0.001 A 
ATOM     76  C   UNL A   1      40.476  21.372  27.240  1.00  0.00     0.000 A 
ENDBRANCH  57  71
BRANCH  58  77
ATOM     77  C   UNL A   1      46.332  32.547  29.124  1.00  0.00    -0.014 A 
ATOM     78  C   UNL A   1      46.493  33.476  28.085  1.00  0.00     0.009 A 
ATOM     79  C   UNL A   1      46.868  32.842  30.388  1.00  0.00     0.009 A 
ATOM     80  C   UNL A   1      47.199  34.663  28.299  1.00  0.00     0.001 A 
ATOM     81  C   UNL A   1      47.549  34.041  30.606  1.00  0.00     0.001 A 
ATOM     82  C   UNL A   1      47.723  34.946  29.560  1.00  0.00     0.000 A 
ENDBRANCH  58  77
BRANCH  70  83
ATOM     83  C   UNL A   1      48.598  26.313  27.010  1.00  0.00    -0.014 A 
ATOM     84  C   UNL A   1      49.102  26.525  25.718  1.00  0.00     0.009 A 
ATOM     85  C   UNL A   1      49.406  25.661  27.956  1.00  0.00     0.009 A 
ATOM     86  C   UNL A   1      50.375  26.064  25.372  1.00  0.00     0.001 A 
ATOM     87  C   UNL A   1      50.688  25.228  27.617  1.00  0.00     0.001 A 
ATOM     88  C   UNL A   1      51.169  25.423  26.323  1.00  0.00     0.000 A 
ENDBRANCH  70  83
ENDBRANCH  44  45
ENDBRANCH  37  39
ENDBRANCH  36  37
ENDBRANCH  35  36
ENDBRANCH  34  35
ENDBRANCH  33  34
ENDBRANCH  32  33
ENDBRANCH   1  32
TORSDOF 21
ENDMDL
