MODEL 1
REMARK VINA RESULT:     -14.2      0.000      0.000
REMARK SMILES O=C(OCCOCCOCCOC(=O)[C@H]1[NH2+]CC[C@H]1c1cccc(Oc2ccccc2)c1)c1ccc(-c2c3nc(c(-c4ccccc4)c4ccc([nH]4)c(-c4ccccc4)c4nc(c(-c5ccccc5)c5ccc2[nH]5)C=C4)C=C3)cc1
REMARK SMILES IDX 8 1 7 2 6 3 5 4 4 5 3 6 2 7 1 8 33 9 34 10 80 11 35 12 79 13
REMARK SMILES IDX 36 14 37 15 38 16 73 17 39 18 78 19 72 20 74 21 40 22 77 23
REMARK SMILES IDX 71 24 70 25 41 27 63 28 48 29 62 30 49 31 52 32 61 33 75 34
REMARK SMILES IDX 50 35 51 36 60 38 76 39 53 40 42 41 43 42 47 43 44 44 46 45
REMARK SMILES IDX 45 46 64 47 65 48 69 49 66 50 68 51 67 52 54 53 55 54 59 55
REMARK SMILES IDX 56 56 58 57 57 58 9 59 10 60 11 61 12 62 13 63 14 64 15 65
REMARK SMILES IDX 16 66 19 67 17 68 18 71 20 72 21 73 32 74 22 75 24 76 23 77
REMARK SMILES IDX 25 78 26 79 27 80 31 81 28 82 30 83 29 84
REMARK H PARENT 74 26 52 37 16 69 16 70
REMARK Flexibility Score: inf
ROOT
ATOM      1  C   UNL A   1      36.125  30.316  27.747  1.00  0.00     0.188 C 
ENDROOT
BRANCH   1   2
ATOM      2  C   UNL A   1      35.807  31.800  28.144  1.00  0.00     0.188 C 
BRANCH   2   3
ATOM      3  O   UNL A   1      34.616  32.996  27.638  1.00  0.00    -0.376 OA
BRANCH   3   4
ATOM      4  C   UNL A   1      33.663  34.198  28.715  1.00  0.00     0.202 C 
BRANCH   4   5
ATOM      5  C   UNL A   1      34.079  34.519  30.573  1.00  0.00     0.261 C 
BRANCH   5   6
ATOM      6  O   UNL A   1      34.124  33.049  31.679  1.00  0.00    -0.460 OA
BRANCH   6   7
ATOM      7  C   UNL A   1      35.422  32.629  32.815  1.00  0.00     0.338 C 
ATOM      8  O   UNL A   1      34.983  32.979  33.925  1.00  0.00    -0.246 OA
BRANCH   7   9
ATOM      9  C   UNL A   1      37.197  31.699  32.012  1.00  0.00     0.060 A 
ATOM     10  C   UNL A   1      38.204  30.776  32.669  1.00  0.00     0.016 A 
ATOM     11  C   UNL A   1      37.909  31.937  30.671  1.00  0.00     0.016 A 
ATOM     12  C   UNL A   1      39.417  30.240  32.207  1.00  0.00     0.010 A 
ATOM     13  C   UNL A   1      39.087  31.379  30.158  1.00  0.00     0.010 A 
ATOM     14  C   UNL A   1      39.819  30.513  30.933  1.00  0.00    -0.014 A 
BRANCH  14  15
ATOM     15  C   UNL A   1      41.019  29.923  30.368  1.00  0.00     0.031 A 
ATOM     16  C   UNL A   1      42.185  30.824  30.219  1.00  0.00     0.074 A 
ATOM     17  C   UNL A   1      40.894  28.692  29.852  1.00  0.00     0.049 A 
ATOM     18  N   UNL A   1      43.213  30.713  29.436  1.00  0.00    -0.248 NA
ATOM     19  C   UNL A   1      42.153  32.059  31.026  1.00  0.00     0.031 C 
ATOM     20  C   UNL A   1      39.737  27.808  30.046  1.00  0.00     0.029 A 
ATOM     21  N   UNL A   1      41.700  28.005  28.997  1.00  0.00    -0.354 N 
ATOM     22  C   UNL A   1      43.938  31.879  29.624  1.00  0.00     0.074 A 
ATOM     23  C   UNL A   1      43.208  32.706  30.557  1.00  0.00     0.031 C 
ATOM     24  C   UNL A   1      39.872  26.727  29.266  1.00  0.00     0.029 A 
ATOM     25  C   UNL A   1      41.096  26.876  28.496  1.00  0.00     0.049 A 
ATOM     26  H   UNL A   1      42.615  28.285  28.765  1.00  0.00     0.167 HD
ATOM     27  C   UNL A   1      45.114  32.202  29.045  1.00  0.00     0.031 A 
ATOM     28  C   UNL A   1      41.485  26.095  27.475  1.00  0.00     0.031 A 
ATOM     29  C   UNL A   1      45.730  31.323  28.089  1.00  0.00     0.049 A 
ATOM     30  C   UNL A   1      42.781  26.472  26.823  1.00  0.00     0.074 A 
ATOM     31  C   UNL A   1      46.928  31.450  27.419  1.00  0.00     0.029 A 
ATOM     32  N   UNL A   1      45.153  30.123  27.668  1.00  0.00    -0.354 N 
ATOM     33  N   UNL A   1      43.505  27.555  27.017  1.00  0.00    -0.248 NA
ATOM     34  C   UNL A   1      43.343  25.525  25.863  1.00  0.00     0.031 C 
ATOM     35  C   UNL A   1      47.050  30.348  26.561  1.00  0.00     0.029 A 
ATOM     36  C   UNL A   1      45.962  29.499  26.743  1.00  0.00     0.049 A 
ATOM     37  H   UNL A   1      44.290  29.772  27.986  1.00  0.00     0.167 HD
ATOM     38  C   UNL A   1      44.643  27.401  26.246  1.00  0.00     0.074 A 
ATOM     39  C   UNL A   1      44.495  26.120  25.567  1.00  0.00     0.031 C 
ATOM     40  C   UNL A   1      45.722  28.215  26.120  1.00  0.00     0.031 A 
BRANCH  27  41
ATOM     41  C   UNL A   1      45.697  33.544  29.402  1.00  0.00    -0.014 A 
ATOM     42  C   UNL A   1      45.365  34.705  28.678  1.00  0.00     0.009 A 
ATOM     43  C   UNL A   1      46.684  33.637  30.394  1.00  0.00     0.009 A 
ATOM     44  C   UNL A   1      46.067  35.898  28.874  1.00  0.00     0.001 A 
ATOM     45  C   UNL A   1      47.358  34.842  30.617  1.00  0.00     0.001 A 
ATOM     46  C   UNL A   1      47.067  35.964  29.841  1.00  0.00     0.000 A 
ENDBRANCH  27  41
BRANCH  28  47
ATOM     47  C   UNL A   1      40.656  24.923  27.096  1.00  0.00    -0.014 A 
ATOM     48  C   UNL A   1      41.012  23.635  27.517  1.00  0.00     0.009 A 
ATOM     49  C   UNL A   1      39.423  25.097  26.440  1.00  0.00     0.009 A 
ATOM     50  C   UNL A   1      40.161  22.547  27.289  1.00  0.00     0.001 A 
ATOM     51  C   UNL A   1      38.565  24.013  26.230  1.00  0.00     0.001 A 
ATOM     52  C   UNL A   1      38.935  22.738  26.653  1.00  0.00     0.000 A 
ENDBRANCH  28  47
BRANCH  40  53
ATOM     53  C   UNL A   1      46.832  27.700  25.259  1.00  0.00    -0.014 A 
ATOM     54  C   UNL A   1      47.756  26.768  25.747  1.00  0.00     0.009 A 
ATOM     55  C   UNL A   1      46.873  28.082  23.909  1.00  0.00     0.009 A 
ATOM     56  C   UNL A   1      48.716  26.230  24.893  1.00  0.00     0.001 A 
ATOM     57  C   UNL A   1      47.812  27.519  23.051  1.00  0.00     0.001 A 
ATOM     58  C   UNL A   1      48.734  26.596  23.545  1.00  0.00     0.000 A 
ENDBRANCH  40  53
ENDBRANCH  14  15
ENDBRANCH   7   9
ENDBRANCH   6   7
ENDBRANCH   5   6
ENDBRANCH   4   5
ENDBRANCH   3   4
ENDBRANCH   2   3
ENDBRANCH   1   2
BRANCH   1  59
ATOM     59  O   UNL A   1      35.031  29.437  27.866  1.00  0.00    -0.376 OA
BRANCH  59  60
ATOM     60  C   UNL A   1      34.156  29.554  26.769  1.00  0.00     0.202 C 
BRANCH  60  61
ATOM     61  C   UNL A   1      32.710  29.840  27.181  1.00  0.00     0.261 C 
BRANCH  61  62
ATOM     62  O   UNL A   1      31.651  29.240  26.365  1.00  0.00    -0.459 OA
BRANCH  62  63
ATOM     63  C   UNL A   1      31.334  27.930  26.652  1.00  0.00     0.365 C 
ATOM     64  O   UNL A   1      31.352  27.483  27.795  1.00  0.00    -0.245 OA
BRANCH  63  65
ATOM     65  C   UNL A   1      31.090  27.036  25.393  1.00  0.00     0.301 C 
ATOM     66  N   UNL A   1      32.020  27.400  24.288  1.00  0.00    -0.334 N 
ATOM     67  C   UNL A   1      31.015  25.484  25.228  1.00  0.00     0.095 C 
ATOM     68  C   UNL A   1      31.713  26.488  23.177  1.00  0.00     0.262 C 
ATOM     69  H   UNL A   1      32.989  27.280  24.587  1.00  0.00     0.347 HD
ATOM     70  H   UNL A   1      31.906  28.375  24.011  1.00  0.00     0.347 HD
ATOM     71  C   UNL A   1      30.791  25.413  23.723  1.00  0.00     0.076 C 
BRANCH  67  72
ATOM     72  C   UNL A   1      32.082  24.378  25.836  1.00  0.00    -0.034 A 
ATOM     73  C   UNL A   1      33.852  24.639  25.743  1.00  0.00     0.004 A 
ATOM     74  C   UNL A   1      31.442  22.859  25.321  1.00  0.00     0.051 A 
ATOM     75  C   UNL A   1      34.972  23.511  24.839  1.00  0.00     0.004 A 
ATOM     76  C   UNL A   1      32.409  21.656  24.397  1.00  0.00     0.127 A 
ATOM     77  C   UNL A   1      34.234  22.091  23.954  1.00  0.00     0.047 A 
BRANCH  76  78
ATOM     78  O   UNL A   1      32.009  20.039  25.161  1.00  0.00    -0.457 OA
BRANCH  78  79
ATOM     79  C   UNL A   1      32.381  18.420  24.760  1.00  0.00     0.127 A 
ATOM     80  C   UNL A   1      32.903  18.315  23.470  1.00  0.00     0.047 A 
ATOM     81  C   UNL A   1      32.737  17.293  25.667  1.00  0.00     0.047 A 
ATOM     82  C   UNL A   1      33.799  17.241  23.173  1.00  0.00     0.004 A 
ATOM     83  C   UNL A   1      33.632  16.266  25.359  1.00  0.00     0.004 A 
ATOM     84  C   UNL A   1      34.191  16.261  24.109  1.00  0.00     0.000 A 
ENDBRANCH  78  79
ENDBRANCH  76  78
ENDBRANCH  67  72
ENDBRANCH  63  65
ENDBRANCH  62  63
ENDBRANCH  61  62
ENDBRANCH  60  61
ENDBRANCH  59  60
ENDBRANCH   1  59
TORSDOF 20
ENDMDL
MODEL 2
REMARK VINA RESULT:     -13.1      2.075      4.575
REMARK SMILES O=C(OCCOCCOCCOC(=O)[C@H]1[NH2+]CC[C@H]1c1cccc(Oc2ccccc2)c1)c1ccc(-c2c3nc(c(-c4ccccc4)c4ccc([nH]4)c(-c4ccccc4)c4nc(c(-c5ccccc5)c5ccc2[nH]5)C=C4)C=C3)cc1
REMARK SMILES IDX 8 1 7 2 6 3 5 4 4 5 3 6 2 7 1 8 33 9 34 10 80 11 35 12 79 13
REMARK SMILES IDX 36 14 37 15 38 16 73 17 39 18 78 19 72 20 74 21 40 22 77 23
REMARK SMILES IDX 71 24 70 25 41 27 63 28 48 29 62 30 49 31 52 32 61 33 75 34
REMARK SMILES IDX 50 35 51 36 60 38 76 39 53 40 42 41 43 42 47 43 44 44 46 45
REMARK SMILES IDX 45 46 64 47 65 48 69 49 66 50 68 51 67 52 54 53 55 54 59 55
REMARK SMILES IDX 56 56 58 57 57 58 9 59 10 60 11 61 12 62 13 63 14 64 15 65
REMARK SMILES IDX 16 66 19 67 17 68 18 71 20 72 21 73 32 74 22 75 24 76 23 77
REMARK SMILES IDX 25 78 26 79 27 80 31 81 28 82 30 83 29 84
REMARK H PARENT 74 26 52 37 16 69 16 70
REMARK Flexibility Score: inf
ROOT
ATOM      1  C   UNL A   1      35.336  29.550  27.338  1.00  0.00     0.188 C 
ENDROOT
BRANCH   1   2
ATOM      2  C   UNL A   1      35.975  30.962  27.580  1.00  0.00     0.188 C 
BRANCH   2   3
ATOM      3  O   UNL A   1      35.384  32.621  27.526  1.00  0.00    -0.376 OA
BRANCH   3   4
ATOM      4  C   UNL A   1      33.820  33.311  28.296  1.00  0.00     0.202 C 
BRANCH   4   5
ATOM      5  C   UNL A   1      33.811  34.773  29.556  1.00  0.00     0.261 C 
BRANCH   5   6
ATOM      6  O   UNL A   1      34.622  34.472  31.180  1.00  0.00    -0.460 OA
BRANCH   6   7
ATOM      7  C   UNL A   1      34.998  32.888  31.890  1.00  0.00     0.338 C 
ATOM      8  O   UNL A   1      34.036  32.653  32.642  1.00  0.00    -0.246 OA
BRANCH   7   9
ATOM      9  C   UNL A   1      36.828  31.922  31.274  1.00  0.00     0.060 A 
ATOM     10  C   UNL A   1      37.781  31.038  32.054  1.00  0.00     0.016 A 
ATOM     11  C   UNL A   1      37.640  32.090  29.980  1.00  0.00     0.016 A 
ATOM     12  C   UNL A   1      39.025  30.482  31.714  1.00  0.00     0.010 A 
ATOM     13  C   UNL A   1      38.853  31.509  29.588  1.00  0.00     0.010 A 
ATOM     14  C   UNL A   1      39.523  30.687  30.461  1.00  0.00    -0.014 A 
BRANCH  14  15
ATOM     15  C   UNL A   1      40.761  30.072  30.021  1.00  0.00     0.031 A 
ATOM     16  C   UNL A   1      41.930  30.973  29.886  1.00  0.00     0.074 A 
ATOM     17  C   UNL A   1      40.678  28.806  29.587  1.00  0.00     0.049 A 
ATOM     18  N   UNL A   1      43.008  30.817  29.183  1.00  0.00    -0.248 NA
ATOM     19  C   UNL A   1      41.836  32.261  30.599  1.00  0.00     0.031 C 
ATOM     20  C   UNL A   1      39.516  27.926  29.766  1.00  0.00     0.029 A 
ATOM     21  N   UNL A   1      41.545  28.068  28.840  1.00  0.00    -0.354 N 
ATOM     22  C   UNL A   1      43.712  32.001  29.336  1.00  0.00     0.074 A 
ATOM     23  C   UNL A   1      42.916  32.884  30.156  1.00  0.00     0.031 C 
ATOM     24  C   UNL A   1      39.710  26.794  29.077  1.00  0.00     0.029 A 
ATOM     25  C   UNL A   1      40.982  26.901  28.381  1.00  0.00     0.049 A 
ATOM     26  H   UNL A   1      42.471  28.342  28.649  1.00  0.00     0.167 HD
ATOM     27  C   UNL A   1      44.923  32.295  28.815  1.00  0.00     0.031 A 
ATOM     28  C   UNL A   1      41.443  26.054  27.446  1.00  0.00     0.031 A 
ATOM     29  C   UNL A   1      45.607  31.357  27.967  1.00  0.00     0.049 A 
ATOM     30  C   UNL A   1      42.778  26.398  26.857  1.00  0.00     0.074 A 
ATOM     31  C   UNL A   1      46.846  31.449  27.371  1.00  0.00     0.029 A 
ATOM     32  N   UNL A   1      45.066  30.124  27.595  1.00  0.00    -0.354 N 
ATOM     33  N   UNL A   1      43.481  27.499  27.021  1.00  0.00    -0.248 NA
ATOM     34  C   UNL A   1      43.409  25.391  26.006  1.00  0.00     0.031 C 
ATOM     35  C   UNL A   1      47.033  30.290  26.604  1.00  0.00     0.029 A 
ATOM     36  C   UNL A   1      45.939  29.445  26.773  1.00  0.00     0.049 A 
ATOM     37  H   UNL A   1      44.186  29.787  27.880  1.00  0.00     0.167 HD
ATOM     38  C   UNL A   1      44.669  27.303  26.341  1.00  0.00     0.074 A 
ATOM     39  C   UNL A   1      44.574  25.976  25.747  1.00  0.00     0.031 C 
ATOM     40  C   UNL A   1      45.750  28.117  26.228  1.00  0.00     0.031 A 
BRANCH  27  41
ATOM     41  C   UNL A   1      45.472  33.665  29.112  1.00  0.00    -0.014 A 
ATOM     42  C   UNL A   1      45.252  34.750  28.243  1.00  0.00     0.009 A 
ATOM     43  C   UNL A   1      46.324  33.854  30.211  1.00  0.00     0.009 A 
ATOM     44  C   UNL A   1      45.939  35.956  28.413  1.00  0.00     0.001 A 
ATOM     45  C   UNL A   1      46.980  35.074  30.402  1.00  0.00     0.001 A 
ATOM     46  C   UNL A   1      46.806  36.115  29.490  1.00  0.00     0.000 A 
ENDBRANCH  27  41
BRANCH  28  47
ATOM     47  C   UNL A   1      40.648  24.849  27.097  1.00  0.00    -0.014 A 
ATOM     48  C   UNL A   1      41.014  23.589  27.591  1.00  0.00     0.009 A 
ATOM     49  C   UNL A   1      39.435  24.968  26.396  1.00  0.00     0.009 A 
ATOM     50  C   UNL A   1      40.191  22.476  27.388  1.00  0.00     0.001 A 
ATOM     51  C   UNL A   1      38.604  23.858  26.210  1.00  0.00     0.001 A 
ATOM     52  C   UNL A   1      38.983  22.612  26.706  1.00  0.00     0.000 A 
ENDBRANCH  28  47
BRANCH  40  53
ATOM     53  C   UNL A   1      46.918  27.554  25.483  1.00  0.00    -0.014 A 
ATOM     54  C   UNL A   1      47.064  27.756  24.105  1.00  0.00     0.009 A 
ATOM     55  C   UNL A   1      47.934  26.910  26.205  1.00  0.00     0.009 A 
ATOM     56  C   UNL A   1      48.212  27.309  23.456  1.00  0.00     0.001 A 
ATOM     57  C   UNL A   1      49.094  26.493  25.560  1.00  0.00     0.001 A 
ATOM     58  C   UNL A   1      49.230  26.690  24.186  1.00  0.00     0.000 A 
ENDBRANCH  40  53
ENDBRANCH  14  15
ENDBRANCH   7   9
ENDBRANCH   6   7
ENDBRANCH   5   6
ENDBRANCH   4   5
ENDBRANCH   3   4
ENDBRANCH   2   3
ENDBRANCH   1   2
BRANCH   1  59
ATOM     59  O   UNL A   1      33.935  29.565  27.189  1.00  0.00    -0.376 OA
BRANCH  59  60
ATOM     60  C   UNL A   1      33.528  28.793  26.084  1.00  0.00     0.202 C 
BRANCH  60  61
ATOM     61  C   UNL A   1      33.065  27.387  26.471  1.00  0.00     0.261 C 
BRANCH  61  62
ATOM     62  O   UNL A   1      33.245  26.327  25.477  1.00  0.00    -0.459 OA
BRANCH  62  63
ATOM     63  C   UNL A   1      33.588  25.085  25.968  1.00  0.00     0.365 C 
ATOM     64  O   UNL A   1      34.744  24.789  26.259  1.00  0.00    -0.245 OA
BRANCH  63  65
ATOM     65  C   UNL A   1      32.416  24.053  25.987  1.00  0.00     0.301 C 
ATOM     66  N   UNL A   1      31.281  24.542  26.818  1.00  0.00    -0.334 N 
ATOM     67  C   UNL A   1      31.654  23.334  24.828  1.00  0.00     0.095 C 
ATOM     68  C   UNL A   1      30.242  23.507  26.745  1.00  0.00     0.262 C 
ATOM     69  H   UNL A   1      30.927  25.426  26.448  1.00  0.00     0.347 HD
ATOM     70  H   UNL A   1      31.571  24.710  27.782  1.00  0.00     0.347 HD
ATOM     71  C   UNL A   1      30.655  22.535  25.655  1.00  0.00     0.076 C 
BRANCH  67  72
ATOM     72  C   UNL A   1      31.037  24.043  23.468  1.00  0.00    -0.034 A 
ATOM     73  C   UNL A   1      32.042  24.290  22.005  1.00  0.00     0.004 A 
ATOM     74  C   UNL A   1      30.121  25.375  24.075  1.00  0.00     0.051 A 
ATOM     75  C   UNL A   1      32.397  25.945  21.316  1.00  0.00     0.004 A 
ATOM     76  C   UNL A   1      30.373  27.067  23.519  1.00  0.00     0.127 A 
ATOM     77  C   UNL A   1      31.736  27.405  22.197  1.00  0.00     0.047 A 
BRANCH  76  78
ATOM     78  O   UNL A   1      28.688  27.750  23.297  1.00  0.00    -0.457 OA
BRANCH  78  79
ATOM     79  C   UNL A   1      28.083  29.223  22.679  1.00  0.00     0.127 A 
ATOM     80  C   UNL A   1      27.555  30.028  23.690  1.00  0.00     0.047 A 
ATOM     81  C   UNL A   1      28.496  29.960  21.453  1.00  0.00     0.047 A 
ATOM     82  C   UNL A   1      27.567  31.449  23.520  1.00  0.00     0.004 A 
ATOM     83  C   UNL A   1      28.518  31.350  21.318  1.00  0.00     0.004 A 
ATOM     84  C   UNL A   1      28.077  32.099  22.377  1.00  0.00     0.000 A 
ENDBRANCH  78  79
ENDBRANCH  76  78
ENDBRANCH  67  72
ENDBRANCH  63  65
ENDBRANCH  62  63
ENDBRANCH  61  62
ENDBRANCH  60  61
ENDBRANCH  59  60
ENDBRANCH   1  59
TORSDOF 20
ENDMDL
MODEL 3
REMARK VINA RESULT:     -12.1      4.008      9.054
REMARK SMILES O=C(OCCOCCOCCOC(=O)[C@H]1[NH2+]CC[C@H]1c1cccc(Oc2ccccc2)c1)c1ccc(-c2c3nc(c(-c4ccccc4)c4ccc([nH]4)c(-c4ccccc4)c4nc(c(-c5ccccc5)c5ccc2[nH]5)C=C4)C=C3)cc1
REMARK SMILES IDX 8 1 7 2 6 3 5 4 4 5 3 6 2 7 1 8 33 9 34 10 80 11 35 12 79 13
REMARK SMILES IDX 36 14 37 15 38 16 73 17 39 18 78 19 72 20 74 21 40 22 77 23
REMARK SMILES IDX 71 24 70 25 41 27 63 28 48 29 62 30 49 31 52 32 61 33 75 34
REMARK SMILES IDX 50 35 51 36 60 38 76 39 53 40 42 41 43 42 47 43 44 44 46 45
REMARK SMILES IDX 45 46 64 47 65 48 69 49 66 50 68 51 67 52 54 53 55 54 59 55
REMARK SMILES IDX 56 56 58 57 57 58 9 59 10 60 11 61 12 62 13 63 14 64 15 65
REMARK SMILES IDX 16 66 19 67 17 68 18 71 20 72 21 73 32 74 22 75 24 76 23 77
REMARK SMILES IDX 25 78 26 79 27 80 31 81 28 82 30 83 29 84
REMARK H PARENT 74 26 52 37 16 69 16 70
REMARK Flexibility Score: inf
ROOT
ATOM      1  C   UNL A   1      31.375  23.585  26.902  1.00  0.00     0.188 C 
ENDROOT
BRANCH   1   2
ATOM      2  C   UNL A   1      31.942  22.237  26.335  1.00  0.00     0.188 C 
BRANCH   2   3
ATOM      3  O   UNL A   1      33.540  21.500  26.247  1.00  0.00    -0.376 OA
BRANCH   3   4
ATOM      4  C   UNL A   1      34.544  21.110  24.712  1.00  0.00     0.202 C 
BRANCH   4   5
ATOM      5  C   UNL A   1      36.258  20.223  24.761  1.00  0.00     0.261 C 
BRANCH   5   6
ATOM      6  O   UNL A   1      37.526  20.931  25.890  1.00  0.00    -0.460 OA
BRANCH   6   7
ATOM      7  C   UNL A   1      37.921  22.652  26.079  1.00  0.00     0.338 C 
ATOM      8  O   UNL A   1      36.862  23.242  25.803  1.00  0.00    -0.246 OA
BRANCH   7   9
ATOM      9  C   UNL A   1      39.926  23.159  26.700  1.00  0.00     0.060 A 
ATOM     10  C   UNL A   1      40.563  24.511  26.948  1.00  0.00     0.016 A 
ATOM     11  C   UNL A   1      41.169  22.265  26.829  1.00  0.00     0.016 A 
ATOM     12  C   UNL A   1      41.885  24.877  27.251  1.00  0.00     0.010 A 
ATOM     13  C   UNL A   1      42.486  22.588  27.181  1.00  0.00     0.010 A 
ATOM     14  C   UNL A   1      42.823  23.900  27.412  1.00  0.00    -0.014 A 
BRANCH  14  15
ATOM     15  C   UNL A   1      44.185  24.206  27.807  1.00  0.00     0.031 A 
ATOM     16  C   UNL A   1      44.448  24.263  29.264  1.00  0.00     0.074 A 
ATOM     17  C   UNL A   1      45.015  24.604  26.832  1.00  0.00     0.049 A 
ATOM     18  N   UNL A   1      45.407  24.860  29.901  1.00  0.00    -0.248 NA
ATOM     19  C   UNL A   1      43.449  23.603  30.126  1.00  0.00     0.031 C 
ATOM     20  C   UNL A   1      44.739  24.503  25.393  1.00  0.00     0.029 A 
ATOM     21  N   UNL A   1      46.214  25.246  26.899  1.00  0.00    -0.354 N 
ATOM     22  C   UNL A   1      45.112  24.682  31.244  1.00  0.00     0.074 A 
ATOM     23  C   UNL A   1      43.861  23.966  31.329  1.00  0.00     0.031 C 
ATOM     24  C   UNL A   1      45.705  25.136  24.713  1.00  0.00     0.029 A 
ATOM     25  C   UNL A   1      46.627  25.716  25.674  1.00  0.00     0.049 A 
ATOM     26  H   UNL A   1      46.726  25.361  27.731  1.00  0.00     0.167 HD
ATOM     27  C   UNL A   1      45.850  25.101  32.295  1.00  0.00     0.031 A 
ATOM     28  C   UNL A   1      47.619  26.577  25.394  1.00  0.00     0.031 A 
ATOM     29  C   UNL A   1      47.058  25.852  32.095  1.00  0.00     0.049 A 
ATOM     30  C   UNL A   1      48.419  27.054  26.569  1.00  0.00     0.074 A 
ATOM     31  C   UNL A   1      47.959  26.336  33.019  1.00  0.00     0.029 A 
ATOM     32  N   UNL A   1      47.525  26.232  30.833  1.00  0.00    -0.354 N 
ATOM     33  N   UNL A   1      48.179  26.862  27.849  1.00  0.00    -0.248 NA
ATOM     34  C   UNL A   1      49.636  27.811  26.282  1.00  0.00     0.031 C 
ATOM     35  C   UNL A   1      48.944  27.045  32.317  1.00  0.00     0.029 A 
ATOM     36  C   UNL A   1      48.695  26.949  30.950  1.00  0.00     0.049 A 
ATOM     37  H   UNL A   1      47.081  26.017  29.982  1.00  0.00     0.167 HD
ATOM     38  C   UNL A   1      49.244  27.426  28.530  1.00  0.00     0.074 A 
ATOM     39  C   UNL A   1      50.120  27.983  27.508  1.00  0.00     0.031 C 
ATOM     40  C   UNL A   1      49.499  27.466  29.862  1.00  0.00     0.031 A 
BRANCH  27  41
ATOM     41  C   UNL A   1      45.304  24.798  33.666  1.00  0.00    -0.014 A 
ATOM     42  C   UNL A   1      45.620  23.600  34.335  1.00  0.00     0.009 A 
ATOM     43  C   UNL A   1      44.365  25.660  34.251  1.00  0.00     0.009 A 
ATOM     44  C   UNL A   1      44.945  23.232  35.503  1.00  0.00     0.001 A 
ATOM     45  C   UNL A   1      43.719  25.308  35.440  1.00  0.00     0.001 A 
ATOM     46  C   UNL A   1      43.991  24.085  36.052  1.00  0.00     0.000 A 
ENDBRANCH  27  41
BRANCH  28  47
ATOM     47  C   UNL A   1      47.878  26.958  23.982  1.00  0.00    -0.014 A 
ATOM     48  C   UNL A   1      47.184  28.026  23.396  1.00  0.00     0.009 A 
ATOM     49  C   UNL A   1      48.924  26.359  23.257  1.00  0.00     0.009 A 
ATOM     50  C   UNL A   1      47.525  28.483  22.118  1.00  0.00     0.001 A 
ATOM     51  C   UNL A   1      49.276  26.829  21.988  1.00  0.00     0.001 A 
ATOM     52  C   UNL A   1      48.576  27.891  21.419  1.00  0.00     0.000 A 
ENDBRANCH  28  47
BRANCH  40  53
ATOM     53  C   UNL A   1      50.801  28.084  30.261  1.00  0.00    -0.014 A 
ATOM     54  C   UNL A   1      50.857  29.380  30.790  1.00  0.00     0.009 A 
ATOM     55  C   UNL A   1      51.966  27.304  30.203  1.00  0.00     0.009 A 
ATOM     56  C   UNL A   1      52.069  29.890  31.247  1.00  0.00     0.001 A 
ATOM     57  C   UNL A   1      53.169  27.805  30.691  1.00  0.00     0.001 A 
ATOM     58  C   UNL A   1      53.219  29.099  31.209  1.00  0.00     0.000 A 
ENDBRANCH  40  53
ENDBRANCH  14  15
ENDBRANCH   7   9
ENDBRANCH   6   7
ENDBRANCH   5   6
ENDBRANCH   4   5
ENDBRANCH   3   4
ENDBRANCH   2   3
ENDBRANCH   1   2
BRANCH   1  59
ATOM     59  O   UNL A   1      30.269  24.094  26.192  1.00  0.00    -0.376 OA
BRANCH  59  60
ATOM     60  C   UNL A   1      30.678  24.937  25.141  1.00  0.00     0.202 C 
BRANCH  60  61
ATOM     61  C   UNL A   1      30.600  24.266  23.767  1.00  0.00     0.261 C 
BRANCH  61  62
ATOM     62  O   UNL A   1      31.382  24.866  22.685  1.00  0.00    -0.459 OA
BRANCH  62  63
ATOM     63  C   UNL A   1      32.685  25.199  22.990  1.00  0.00     0.365 C 
ATOM     64  O   UNL A   1      33.488  24.380  23.429  1.00  0.00    -0.245 OA
BRANCH  63  65
ATOM     65  C   UNL A   1      33.007  26.723  22.866  1.00  0.00     0.301 C 
ATOM     66  N   UNL A   1      31.804  27.494  22.448  1.00  0.00    -0.334 N 
ATOM     67  C   UNL A   1      33.674  27.722  23.866  1.00  0.00     0.095 C 
ATOM     68  C   UNL A   1      32.220  28.901  22.385  1.00  0.00     0.262 C 
ATOM     69  H   UNL A   1      31.053  27.377  23.130  1.00  0.00     0.347 HD
ATOM     70  H   UNL A   1      31.450  27.171  21.547  1.00  0.00     0.347 HD
ATOM     71  C   UNL A   1      33.592  28.991  23.028  1.00  0.00     0.076 C 
BRANCH  67  72
ATOM     72  C   UNL A   1      33.304  27.906  25.466  1.00  0.00    -0.034 A 
ATOM     73  C   UNL A   1      31.805  28.740  25.988  1.00  0.00     0.004 A 
ATOM     74  C   UNL A   1      34.802  28.371  26.188  1.00  0.00     0.051 A 
ATOM     75  C   UNL A   1      31.822  30.263  26.998  1.00  0.00     0.004 A 
ATOM     76  C   UNL A   1      34.985  29.857  27.184  1.00  0.00     0.127 A 
ATOM     77  C   UNL A   1      33.442  30.984  27.444  1.00  0.00     0.047 A 
BRANCH  76  78
ATOM     78  O   UNL A   1      36.000  29.343  28.620  1.00  0.00    -0.457 OA
BRANCH  78  79
ATOM     79  C   UNL A   1      37.682  29.200  28.886  1.00  0.00     0.127 A 
ATOM     80  C   UNL A   1      37.961  28.499  30.060  1.00  0.00     0.047 A 
ATOM     81  C   UNL A   1      38.788  29.203  27.888  1.00  0.00     0.047 A 
ATOM     82  C   UNL A   1      39.187  27.768  30.154  1.00  0.00     0.004 A 
ATOM     83  C   UNL A   1      39.968  28.464  27.994  1.00  0.00     0.004 A 
ATOM     84  C   UNL A   1      40.152  27.715  29.126  1.00  0.00     0.000 A 
ENDBRANCH  78  79
ENDBRANCH  76  78
ENDBRANCH  67  72
ENDBRANCH  63  65
ENDBRANCH  62  63
ENDBRANCH  61  62
ENDBRANCH  60  61
ENDBRANCH  59  60
ENDBRANCH   1  59
TORSDOF 20
ENDMDL
