MODEL 1
REMARK VINA RESULT:      -9.7      0.000      0.000
REMARK SMILES O=C(OCCOCCOCCOC(=O)c1ccc(C[NH2+][C@@H]2CCCc3sccc32)nc1)c1ccc(-c2c3nc(c(-c4ccccc4)c4ccc([nH]4)c(-c4ccccc4)c4nc(c(-c5ccccc5)c5ccc2[nH]5)C=C4)C=C3)cc1
REMARK SMILES IDX 8 1 7 2 6 3 5 4 4 5 3 6 2 7 1 8 32 9 33 10 79 11 34 12 78 13
REMARK SMILES IDX 35 14 36 15 37 16 72 17 38 18 77 19 71 20 73 21 39 22 76 23
REMARK SMILES IDX 70 24 69 25 40 27 62 28 47 29 61 30 48 31 51 32 60 33 74 34
REMARK SMILES IDX 49 35 50 36 59 38 75 39 52 40 41 41 42 42 46 43 43 44 45 45
REMARK SMILES IDX 44 46 63 47 64 48 68 49 65 50 67 51 66 52 53 53 54 54 58 55
REMARK SMILES IDX 55 56 57 57 56 58 9 59 10 60 11 61 12 62 13 63 14 64 15 65
REMARK SMILES IDX 16 66 31 67 17 68 30 69 18 70 19 71 20 72 21 75 22 76 29 77
REMARK SMILES IDX 23 78 25 79 28 80 24 81 26 82 27 83
REMARK H PARENT 73 26 51 37 20 73 20 74
REMARK Flexibility Score: inf
ROOT
ATOM      1  C   UNL A   1      33.983  28.823  26.301  1.00  0.00     0.188 C 
ENDROOT
BRANCH   1   2
ATOM      2  C   UNL A   1      32.688  28.742  27.117  1.00  0.00     0.188 C 
BRANCH   2   3
ATOM      3  O   UNL A   1      32.309  30.025  27.639  1.00  0.00    -0.376 OA
BRANCH   3   4
ATOM      4  C   UNL A   1      32.280  31.058  26.645  1.00  0.00     0.202 C 
BRANCH   4   5
ATOM      5  C   UNL A   1      31.428  32.279  27.017  1.00  0.00     0.261 C 
BRANCH   5   6
ATOM      6  O   UNL A   1      32.206  33.482  27.075  1.00  0.00    -0.460 OA
BRANCH   6   7
ATOM      7  C   UNL A   1      32.973  33.939  28.095  1.00  0.00     0.338 C 
ATOM      8  O   UNL A   1      32.619  34.967  28.670  1.00  0.00    -0.246 OA
BRANCH   7   9
ATOM      9  C   UNL A   1      34.210  33.251  28.596  1.00  0.00     0.060 A 
ATOM     10  C   UNL A   1      34.259  32.285  29.602  1.00  0.00     0.016 A 
ATOM     11  C   UNL A   1      35.419  33.590  27.961  1.00  0.00     0.016 A 
ATOM     12  C   UNL A   1      35.468  31.767  30.059  1.00  0.00     0.010 A 
ATOM     13  C   UNL A   1      36.634  33.032  28.372  1.00  0.00     0.010 A 
ATOM     14  C   UNL A   1      36.664  32.151  29.459  1.00  0.00    -0.014 A 
BRANCH  14  15
ATOM     15  C   UNL A   1      37.940  31.729  30.066  1.00  0.00     0.031 A 
ATOM     16  C   UNL A   1      38.604  30.490  29.550  1.00  0.00     0.074 A 
ATOM     17  C   UNL A   1      38.542  32.488  30.996  1.00  0.00     0.049 A 
ATOM     18  N   UNL A   1      39.694  29.904  29.964  1.00  0.00    -0.248 NA
ATOM     19  C   UNL A   1      37.965  29.841  28.393  1.00  0.00     0.031 C 
ATOM     20  C   UNL A   1      38.057  33.783  31.465  1.00  0.00     0.029 A 
ATOM     21  N   UNL A   1      39.694  32.282  31.711  1.00  0.00    -0.354 N 
ATOM     22  C   UNL A   1      39.872  28.817  29.122  1.00  0.00     0.074 A 
ATOM     23  C   UNL A   1      38.767  28.808  28.190  1.00  0.00     0.031 C 
ATOM     24  C   UNL A   1      38.885  34.242  32.416  1.00  0.00     0.029 A 
ATOM     25  C   UNL A   1      39.921  33.249  32.658  1.00  0.00     0.049 A 
ATOM     26  H   UNL A   1      40.296  31.519  31.560  1.00  0.00     0.167 HD
ATOM     27  C   UNL A   1      40.872  27.906  29.126  1.00  0.00     0.031 A 
ATOM     28  C   UNL A   1      40.832  33.302  33.646  1.00  0.00     0.031 A 
ATOM     29  C   UNL A   1      41.945  27.910  30.082  1.00  0.00     0.049 A 
ATOM     30  C   UNL A   1      41.843  32.200  33.743  1.00  0.00     0.074 A 
ATOM     31  C   UNL A   1      42.992  27.017  30.213  1.00  0.00     0.029 A 
ATOM     32  N   UNL A   1      42.093  28.858  31.085  1.00  0.00    -0.354 N 
ATOM     33  N   UNL A   1      41.985  31.152  32.968  1.00  0.00    -0.248 NA
ATOM     34  C   UNL A   1      42.821  32.289  34.832  1.00  0.00     0.031 C 
ATOM     35  C   UNL A   1      43.746  27.399  31.330  1.00  0.00     0.029 A 
ATOM     36  C   UNL A   1      43.197  28.556  31.862  1.00  0.00     0.049 A 
ATOM     37  H   UNL A   1      41.500  29.632  31.223  1.00  0.00     0.167 HD
ATOM     38  C   UNL A   1      43.084  30.464  33.458  1.00  0.00     0.074 A 
ATOM     39  C   UNL A   1      43.569  31.218  34.600  1.00  0.00     0.031 C 
ATOM     40  C   UNL A   1      43.646  29.321  32.998  1.00  0.00     0.031 A 
BRANCH  27  41
ATOM     41  C   UNL A   1      40.780  26.807  28.110  1.00  0.00    -0.014 A 
ATOM     42  C   UNL A   1      41.333  26.946  26.826  1.00  0.00     0.009 A 
ATOM     43  C   UNL A   1      40.066  25.639  28.421  1.00  0.00     0.009 A 
ATOM     44  C   UNL A   1      41.126  25.959  25.859  1.00  0.00     0.001 A 
ATOM     45  C   UNL A   1      39.883  24.644  27.460  1.00  0.00     0.001 A 
ATOM     46  C   UNL A   1      40.401  24.811  26.176  1.00  0.00     0.000 A 
ENDBRANCH  27  41
BRANCH  28  47
ATOM     47  C   UNL A   1      40.760  34.396  34.647  1.00  0.00    -0.014 A 
ATOM     48  C   UNL A   1      41.495  35.578  34.491  1.00  0.00     0.009 A 
ATOM     49  C   UNL A   1      39.902  34.270  35.753  1.00  0.00     0.009 A 
ATOM     50  C   UNL A   1      41.374  36.610  35.427  1.00  0.00     0.001 A 
ATOM     51  C   UNL A   1      39.766  35.310  36.673  1.00  0.00     0.001 A 
ATOM     52  C   UNL A   1      40.506  36.479  36.511  1.00  0.00     0.000 A 
ENDBRANCH  28  47
BRANCH  40  53
ATOM     53  C   UNL A   1      44.869  28.833  33.716  1.00  0.00    -0.014 A 
ATOM     54  C   UNL A   1      46.154  29.140  33.247  1.00  0.00     0.009 A 
ATOM     55  C   UNL A   1      44.725  28.110  34.909  1.00  0.00     0.009 A 
ATOM     56  C   UNL A   1      47.278  28.713  33.955  1.00  0.00     0.001 A 
ATOM     57  C   UNL A   1      45.851  27.704  35.626  1.00  0.00     0.001 A 
ATOM     58  C   UNL A   1      47.125  28.002  35.145  1.00  0.00     0.000 A 
ENDBRANCH  40  53
ENDBRANCH  14  15
ENDBRANCH   7   9
ENDBRANCH   6   7
ENDBRANCH   5   6
ENDBRANCH   4   5
ENDBRANCH   3   4
ENDBRANCH   2   3
ENDBRANCH   1   2
BRANCH   1  59
ATOM     59  O   UNL A   1      33.956  28.162  25.035  1.00  0.00    -0.376 OA
BRANCH  59  60
ATOM     60  C   UNL A   1      33.587  28.947  23.905  1.00  0.00     0.202 C 
BRANCH  60  61
ATOM     61  C   UNL A   1      32.341  28.496  23.134  1.00  0.00     0.261 C 
BRANCH  61  62
ATOM     62  O   UNL A   1      31.098  28.704  23.830  1.00  0.00    -0.460 OA
BRANCH  62  63
ATOM     63  C   UNL A   1      30.127  27.808  23.529  1.00  0.00     0.339 C 
ATOM     64  O   UNL A   1      29.191  27.974  22.753  1.00  0.00    -0.246 OA
BRANCH  63  65
ATOM     65  C   UNL A   1      30.224  26.592  24.347  1.00  0.00     0.078 A 
ATOM     66  C   UNL A   1      30.286  25.360  23.695  1.00  0.00     0.019 A 
ATOM     67  C   UNL A   1      30.341  26.604  25.726  1.00  0.00     0.127 A 
ATOM     68  C   UNL A   1      30.467  24.196  24.435  1.00  0.00     0.031 A 
ATOM     69  N   UNL A   1      30.511  25.481  26.473  1.00  0.00    -0.254 NA
ATOM     70  C   UNL A   1      30.574  24.288  25.823  1.00  0.00     0.094 A 
BRANCH  70  71
ATOM     71  C   UNL A   1      30.737  23.021  26.649  1.00  0.00     0.318 C 
BRANCH  71  72
ATOM     72  N   UNL A   1      31.268  21.898  25.869  1.00  0.00    -0.335 N 
ATOM     73  H   UNL A   1      31.121  22.089  24.878  1.00  0.00     0.347 HD
ATOM     74  H   UNL A   1      30.777  21.055  26.167  1.00  0.00     0.347 HD
BRANCH  72  75
ATOM     75  C   UNL A   1      32.701  21.679  26.096  1.00  0.00     0.215 C 
ATOM     76  C   UNL A   1      33.171  22.266  27.452  1.00  0.00     0.071 C 
ATOM     77  C   UNL A   1      33.487  22.283  24.948  1.00  0.00     0.023 A 
ATOM     78  C   UNL A   1      34.703  22.304  27.556  1.00  0.00     0.012 C 
ATOM     79  C   UNL A   1      34.684  22.951  25.153  1.00  0.00     0.014 A 
ATOM     80  C   UNL A   1      33.193  22.207  23.545  1.00  0.00     0.022 A 
ATOM     81  C   UNL A   1      35.316  23.213  26.484  1.00  0.00     0.047 C 
ATOM     82  S   UNL A   1      35.398  23.508  23.711  1.00  0.00    -0.148 S 
ATOM     83  C   UNL A   1      34.138  22.842  22.770  1.00  0.00     0.065 A 
ENDBRANCH  72  75
ENDBRANCH  71  72
ENDBRANCH  70  71
ENDBRANCH  63  65
ENDBRANCH  62  63
ENDBRANCH  61  62
ENDBRANCH  60  61
ENDBRANCH  59  60
ENDBRANCH   1  59
TORSDOF 20
ENDMDL
MODEL 2
REMARK VINA RESULT:      -9.6      4.099      8.287
REMARK SMILES O=C(OCCOCCOCCOC(=O)c1ccc(C[NH2+][C@@H]2CCCc3sccc32)nc1)c1ccc(-c2c3nc(c(-c4ccccc4)c4ccc([nH]4)c(-c4ccccc4)c4nc(c(-c5ccccc5)c5ccc2[nH]5)C=C4)C=C3)cc1
REMARK SMILES IDX 8 1 7 2 6 3 5 4 4 5 3 6 2 7 1 8 32 9 33 10 79 11 34 12 78 13
REMARK SMILES IDX 35 14 36 15 37 16 72 17 38 18 77 19 71 20 73 21 39 22 76 23
REMARK SMILES IDX 70 24 69 25 40 27 62 28 47 29 61 30 48 31 51 32 60 33 74 34
REMARK SMILES IDX 49 35 50 36 59 38 75 39 52 40 41 41 42 42 46 43 43 44 45 45
REMARK SMILES IDX 44 46 63 47 64 48 68 49 65 50 67 51 66 52 53 53 54 54 58 55
REMARK SMILES IDX 55 56 57 57 56 58 9 59 10 60 11 61 12 62 13 63 14 64 15 65
REMARK SMILES IDX 16 66 31 67 17 68 30 69 18 70 19 71 20 72 21 75 22 76 29 77
REMARK SMILES IDX 23 78 25 79 28 80 24 81 26 82 27 83
REMARK H PARENT 73 26 51 37 20 73 20 74
REMARK Flexibility Score: inf
ROOT
ATOM      1  C   UNL A   1      32.872  36.354  31.397  1.00  0.00     0.188 C 
ENDROOT
BRANCH   1   2
ATOM      2  C   UNL A   1      33.522  37.413  32.295  1.00  0.00     0.188 C 
BRANCH   2   3
ATOM      3  O   UNL A   1      34.412  36.821  33.254  1.00  0.00    -0.376 OA
BRANCH   3   4
ATOM      4  C   UNL A   1      34.517  35.397  33.130  1.00  0.00     0.202 C 
BRANCH   4   5
ATOM      5  C   UNL A   1      35.953  34.873  32.989  1.00  0.00     0.261 C 
BRANCH   5   6
ATOM      6  O   UNL A   1      36.085  33.526  33.465  1.00  0.00    -0.460 OA
BRANCH   6   7
ATOM      7  C   UNL A   1      36.235  32.390  32.740  1.00  0.00     0.338 C 
ATOM      8  O   UNL A   1      35.293  31.598  32.704  1.00  0.00    -0.246 OA
BRANCH   7   9
ATOM      9  C   UNL A   1      37.462  32.050  31.945  1.00  0.00     0.060 A 
ATOM     10  C   UNL A   1      37.648  32.289  30.583  1.00  0.00     0.016 A 
ATOM     11  C   UNL A   1      38.531  31.472  32.655  1.00  0.00     0.016 A 
ATOM     12  C   UNL A   1      38.791  31.858  29.915  1.00  0.00     0.010 A 
ATOM     13  C   UNL A   1      39.708  31.087  32.005  1.00  0.00     0.010 A 
ATOM     14  C   UNL A   1      39.819  31.237  30.619  1.00  0.00    -0.014 A 
BRANCH  14  15
ATOM     15  C   UNL A   1      40.939  30.633  29.872  1.00  0.00     0.031 A 
ATOM     16  C   UNL A   1      42.179  31.444  29.659  1.00  0.00     0.074 A 
ATOM     17  C   UNL A   1      40.885  29.352  29.472  1.00  0.00     0.049 A 
ATOM     18  N   UNL A   1      43.259  31.142  28.993  1.00  0.00    -0.248 NA
ATOM     19  C   UNL A   1      42.214  32.765  30.311  1.00  0.00     0.031 C 
ATOM     20  C   UNL A   1      39.788  28.430  29.753  1.00  0.00     0.029 A 
ATOM     21  N   UNL A   1      41.776  28.603  28.747  1.00  0.00    -0.354 N 
ATOM     22  C   UNL A   1      44.103  32.233  29.141  1.00  0.00     0.074 A 
ATOM     23  C   UNL A   1      43.402  33.215  29.937  1.00  0.00     0.031 C 
ATOM     24  C   UNL A   1      40.052  27.248  29.177  1.00  0.00     0.029 A 
ATOM     25  C   UNL A   1      41.305  27.350  28.444  1.00  0.00     0.049 A 
ATOM     26  H   UNL A   1      42.662  28.930  28.472  1.00  0.00     0.167 HD
ATOM     27  C   UNL A   1      45.354  32.399  28.654  1.00  0.00     0.031 A 
ATOM     28  C   UNL A   1      41.804  26.408  27.624  1.00  0.00     0.031 A 
ATOM     29  C   UNL A   1      46.022  31.427  27.833  1.00  0.00     0.049 A 
ATOM     30  C   UNL A   1      43.121  26.669  26.958  1.00  0.00     0.074 A 
ATOM     31  C   UNL A   1      47.272  31.499  27.248  1.00  0.00     0.029 A 
ATOM     32  N   UNL A   1      45.476  30.202  27.474  1.00  0.00    -0.354 N 
ATOM     33  N   UNL A   1      43.899  27.719  27.069  1.00  0.00    -0.248 NA
ATOM     34  C   UNL A   1      43.635  25.621  26.069  1.00  0.00     0.031 C 
ATOM     35  C   UNL A   1      47.460  30.336  26.490  1.00  0.00     0.029 A 
ATOM     36  C   UNL A   1      46.349  29.520  26.646  1.00  0.00     0.049 A 
ATOM     37  H   UNL A   1      44.597  29.868  27.765  1.00  0.00     0.167 HD
ATOM     38  C   UNL A   1      45.009  27.452  26.284  1.00  0.00     0.074 A 
ATOM     39  C   UNL A   1      44.800  26.139  25.701  1.00  0.00     0.031 C 
ATOM     40  C   UNL A   1      46.106  28.220  26.074  1.00  0.00     0.031 A 
BRANCH  27  41
ATOM     41  C   UNL A   1      46.015  33.713  28.946  1.00  0.00    -0.014 A 
ATOM     42  C   UNL A   1      46.792  33.903  30.100  1.00  0.00     0.009 A 
ATOM     43  C   UNL A   1      45.800  34.800  28.084  1.00  0.00     0.009 A 
ATOM     44  C   UNL A   1      47.295  35.169  30.412  1.00  0.00     0.001 A 
ATOM     45  C   UNL A   1      46.324  36.057  28.386  1.00  0.00     0.001 A 
ATOM     46  C   UNL A   1      47.059  36.243  29.556  1.00  0.00     0.000 A 
ENDBRANCH  27  41
BRANCH  28  47
ATOM     47  C   UNL A   1      41.007  25.188  27.343  1.00  0.00    -0.014 A 
ATOM     48  C   UNL A   1      41.331  23.955  27.922  1.00  0.00     0.009 A 
ATOM     49  C   UNL A   1      39.872  25.275  26.517  1.00  0.00     0.009 A 
ATOM     50  C   UNL A   1      40.536  22.831  27.674  1.00  0.00     0.001 A 
ATOM     51  C   UNL A   1      39.067  24.157  26.290  1.00  0.00     0.001 A 
ATOM     52  C   UNL A   1      39.403  22.934  26.867  1.00  0.00     0.000 A 
ENDBRANCH  28  47
BRANCH  40  53
ATOM     53  C   UNL A   1      47.177  27.641  25.199  1.00  0.00    -0.014 A 
ATOM     54  C   UNL A   1      47.161  27.837  23.810  1.00  0.00     0.009 A 
ATOM     55  C   UNL A   1      48.245  26.945  25.785  1.00  0.00     0.009 A 
ATOM     56  C   UNL A   1      48.191  27.326  23.020  1.00  0.00     0.001 A 
ATOM     57  C   UNL A   1      49.285  26.456  24.994  1.00  0.00     0.001 A 
ATOM     58  C   UNL A   1      49.254  26.642  23.612  1.00  0.00     0.000 A 
ENDBRANCH  40  53
ENDBRANCH  14  15
ENDBRANCH   7   9
ENDBRANCH   6   7
ENDBRANCH   5   6
ENDBRANCH   4   5
ENDBRANCH   3   4
ENDBRANCH   2   3
ENDBRANCH   1   2
BRANCH   1  59
ATOM     59  O   UNL A   1      32.649  36.747  30.042  1.00  0.00    -0.376 OA
BRANCH  59  60
ATOM     60  C   UNL A   1      33.501  36.172  29.056  1.00  0.00     0.202 C 
BRANCH  60  61
ATOM     61  C   UNL A   1      32.976  34.922  28.340  1.00  0.00     0.261 C 
BRANCH  61  62
ATOM     62  O   UNL A   1      33.998  33.996  27.926  1.00  0.00    -0.460 OA
BRANCH  62  63
ATOM     63  C   UNL A   1      34.156  32.928  28.744  1.00  0.00     0.339 C 
ATOM     64  O   UNL A   1      34.397  32.956  29.947  1.00  0.00    -0.246 OA
BRANCH  63  65
ATOM     65  C   UNL A   1      34.132  31.657  28.008  1.00  0.00     0.078 A 
ATOM     66  C   UNL A   1      35.217  30.792  28.148  1.00  0.00     0.019 A 
ATOM     67  C   UNL A   1      33.056  31.234  27.247  1.00  0.00     0.127 A 
ATOM     68  C   UNL A   1      35.187  29.543  27.536  1.00  0.00     0.031 A 
ATOM     69  N   UNL A   1      33.005  30.023  26.631  1.00  0.00    -0.254 NA
ATOM     70  C   UNL A   1      34.068  29.188  26.782  1.00  0.00     0.094 A 
BRANCH  70  71
ATOM     71  C   UNL A   1      34.035  27.840  26.075  1.00  0.00     0.318 C 
BRANCH  71  72
ATOM     72  N   UNL A   1      32.763  27.132  26.261  1.00  0.00    -0.335 N 
ATOM     73  H   UNL A   1      32.011  27.704  25.877  1.00  0.00     0.347 HD
ATOM     74  H   UNL A   1      32.642  26.972  27.260  1.00  0.00     0.347 HD
BRANCH  72  75
ATOM     75  C   UNL A   1      32.742  25.824  25.597  1.00  0.00     0.215 C 
ATOM     76  C   UNL A   1      34.077  25.057  25.781  1.00  0.00     0.071 C 
ATOM     77  C   UNL A   1      32.430  26.015  24.124  1.00  0.00     0.023 A 
ATOM     78  C   UNL A   1      34.165  23.838  24.851  1.00  0.00     0.012 C 
ATOM     79  C   UNL A   1      33.061  25.270  23.141  1.00  0.00     0.014 A 
ATOM     80  C   UNL A   1      31.447  26.882  23.539  1.00  0.00     0.022 A 
ATOM     81  C   UNL A   1      34.135  24.254  23.375  1.00  0.00     0.047 C 
ATOM     82  S   UNL A   1      32.521  25.638  21.570  1.00  0.00    -0.148 S 
ATOM     83  C   UNL A   1      31.405  26.785  22.165  1.00  0.00     0.065 A 
ENDBRANCH  72  75
ENDBRANCH  71  72
ENDBRANCH  70  71
ENDBRANCH  63  65
ENDBRANCH  62  63
ENDBRANCH  61  62
ENDBRANCH  60  61
ENDBRANCH  59  60
ENDBRANCH   1  59
TORSDOF 20
ENDMDL
MODEL 3
REMARK VINA RESULT:      -9.6      3.738      7.675
REMARK SMILES O=C(OCCOCCOCCOC(=O)c1ccc(C[NH2+][C@@H]2CCCc3sccc32)nc1)c1ccc(-c2c3nc(c(-c4ccccc4)c4ccc([nH]4)c(-c4ccccc4)c4nc(c(-c5ccccc5)c5ccc2[nH]5)C=C4)C=C3)cc1
REMARK SMILES IDX 8 1 7 2 6 3 5 4 4 5 3 6 2 7 1 8 32 9 33 10 79 11 34 12 78 13
REMARK SMILES IDX 35 14 36 15 37 16 72 17 38 18 77 19 71 20 73 21 39 22 76 23
REMARK SMILES IDX 70 24 69 25 40 27 62 28 47 29 61 30 48 31 51 32 60 33 74 34
REMARK SMILES IDX 49 35 50 36 59 38 75 39 52 40 41 41 42 42 46 43 43 44 45 45
REMARK SMILES IDX 44 46 63 47 64 48 68 49 65 50 67 51 66 52 53 53 54 54 58 55
REMARK SMILES IDX 55 56 57 57 56 58 9 59 10 60 11 61 12 62 13 63 14 64 15 65
REMARK SMILES IDX 16 66 31 67 17 68 30 69 18 70 19 71 20 72 21 75 22 76 29 77
REMARK SMILES IDX 23 78 25 79 28 80 24 81 26 82 27 83
REMARK H PARENT 73 26 51 37 20 73 20 74
REMARK Flexibility Score: inf
ROOT
ATOM      1  C   UNL A   1      35.253  34.195  29.270  1.00  0.00     0.188 C 
ENDROOT
BRANCH   1   2
ATOM      2  C   UNL A   1      34.086  34.742  30.099  1.00  0.00     0.188 C 
BRANCH   2   3
ATOM      3  O   UNL A   1      34.489  35.051  31.443  1.00  0.00    -0.376 OA
BRANCH   3   4
ATOM      4  C   UNL A   1      33.503  34.709  32.425  1.00  0.00     0.202 C 
BRANCH   4   5
ATOM      5  C   UNL A   1      33.876  33.515  33.314  1.00  0.00     0.261 C 
BRANCH   5   6
ATOM      6  O   UNL A   1      34.899  32.700  32.724  1.00  0.00    -0.460 OA
BRANCH   6   7
ATOM      7  C   UNL A   1      36.107  32.365  33.239  1.00  0.00     0.338 C 
ATOM      8  O   UNL A   1      36.338  32.659  34.411  1.00  0.00    -0.246 OA
BRANCH   7   9
ATOM      9  C   UNL A   1      37.172  31.624  32.484  1.00  0.00     0.060 A 
ATOM     10  C   UNL A   1      38.137  30.783  33.041  1.00  0.00     0.016 A 
ATOM     11  C   UNL A   1      37.164  31.766  31.083  1.00  0.00     0.016 A 
ATOM     12  C   UNL A   1      39.139  30.207  32.265  1.00  0.00     0.010 A 
ATOM     13  C   UNL A   1      38.132  31.145  30.287  1.00  0.00     0.010 A 
ATOM     14  C   UNL A   1      39.154  30.400  30.887  1.00  0.00    -0.014 A 
BRANCH  14  15
ATOM     15  C   UNL A   1      40.315  29.930  30.108  1.00  0.00     0.031 A 
ATOM     16  C   UNL A   1      41.462  30.867  29.895  1.00  0.00     0.074 A 
ATOM     17  C   UNL A   1      40.383  28.658  29.678  1.00  0.00     0.049 A 
ATOM     18  N   UNL A   1      42.555  30.690  29.204  1.00  0.00    -0.248 NA
ATOM     19  C   UNL A   1      41.377  32.169  30.578  1.00  0.00     0.031 C 
ATOM     20  C   UNL A   1      39.390  27.625  29.954  1.00  0.00     0.029 A 
ATOM     21  N   UNL A   1      41.331  28.020  28.921  1.00  0.00    -0.354 N 
ATOM     22  C   UNL A   1      43.287  31.857  29.365  1.00  0.00     0.074 A 
ATOM     23  C   UNL A   1      42.506  32.745  30.197  1.00  0.00     0.031 C 
ATOM     24  C   UNL A   1      39.761  26.488  29.345  1.00  0.00     0.029 A 
ATOM     25  C   UNL A   1      40.984  26.733  28.595  1.00  0.00     0.049 A 
ATOM     26  H   UNL A   1      42.175  28.442  28.640  1.00  0.00     0.167 HD
ATOM     27  C   UNL A   1      44.506  32.160  28.862  1.00  0.00     0.031 A 
ATOM     28  C   UNL A   1      41.560  25.865  27.744  1.00  0.00     0.031 A 
ATOM     29  C   UNL A   1      45.254  31.279  28.008  1.00  0.00     0.049 A 
ATOM     30  C   UNL A   1      42.832  26.273  27.064  1.00  0.00     0.074 A 
ATOM     31  C   UNL A   1      46.479  31.491  27.405  1.00  0.00     0.029 A 
ATOM     32  N   UNL A   1      44.827  30.014  27.627  1.00  0.00    -0.354 N 
ATOM     33  N   UNL A   1      43.501  27.394  27.188  1.00  0.00    -0.248 NA
ATOM     34  C   UNL A   1      43.432  25.303  26.142  1.00  0.00     0.031 C 
ATOM     35  C   UNL A   1      46.769  30.370  26.616  1.00  0.00     0.029 A 
ATOM     36  C   UNL A   1      45.750  29.443  26.770  1.00  0.00     0.049 A 
ATOM     37  H   UNL A   1      43.992  29.586  27.925  1.00  0.00     0.167 HD
ATOM     38  C   UNL A   1      44.618  27.259  26.379  1.00  0.00     0.074 A 
ATOM     39  C   UNL A   1      44.532  25.945  25.768  1.00  0.00     0.031 C 
ATOM     40  C   UNL A   1      45.628  28.137  26.170  1.00  0.00     0.031 A 
BRANCH  27  41
ATOM     41  C   UNL A   1      45.037  33.527  29.176  1.00  0.00    -0.014 A 
ATOM     42  C   UNL A   1      45.800  33.772  30.329  1.00  0.00     0.009 A 
ATOM     43  C   UNL A   1      44.709  34.603  28.336  1.00  0.00     0.009 A 
ATOM     44  C   UNL A   1      46.178  35.075  30.662  1.00  0.00     0.001 A 
ATOM     45  C   UNL A   1      45.109  35.900  28.658  1.00  0.00     0.001 A 
ATOM     46  C   UNL A   1      45.831  36.137  29.828  1.00  0.00     0.000 A 
ENDBRANCH  27  41
BRANCH  28  47
ATOM     47  C   UNL A   1      40.885  24.578  27.447  1.00  0.00    -0.014 A 
ATOM     48  C   UNL A   1      39.777  24.514  26.591  1.00  0.00     0.009 A 
ATOM     49  C   UNL A   1      41.389  23.385  27.995  1.00  0.00     0.009 A 
ATOM     50  C   UNL A   1      39.187  23.282  26.294  1.00  0.00     0.001 A 
ATOM     51  C   UNL A   1      40.812  22.154  27.679  1.00  0.00     0.001 A 
ATOM     52  C   UNL A   1      39.709  22.105  26.831  1.00  0.00     0.000 A 
ENDBRANCH  28  47
BRANCH  40  53
ATOM     53  C   UNL A   1      46.736  27.690  25.264  1.00  0.00    -0.014 A 
ATOM     54  C   UNL A   1      47.764  26.859  25.733  1.00  0.00     0.009 A 
ATOM     55  C   UNL A   1      46.712  28.059  23.912  1.00  0.00     0.009 A 
ATOM     56  C   UNL A   1      48.761  26.420  24.862  1.00  0.00     0.001 A 
ATOM     57  C   UNL A   1      47.698  27.599  23.038  1.00  0.00     0.001 A 
ATOM     58  C   UNL A   1      48.723  26.785  23.516  1.00  0.00     0.000 A 
ENDBRANCH  40  53
ENDBRANCH  14  15
ENDBRANCH   7   9
ENDBRANCH   6   7
ENDBRANCH   5   6
ENDBRANCH   4   5
ENDBRANCH   3   4
ENDBRANCH   2   3
ENDBRANCH   1   2
BRANCH   1  59
ATOM     59  O   UNL A   1      34.905  33.661  27.992  1.00  0.00    -0.376 OA
BRANCH  59  60
ATOM     60  C   UNL A   1      35.169  32.279  27.776  1.00  0.00     0.202 C 
BRANCH  60  61
ATOM     61  C   UNL A   1      33.992  31.316  27.972  1.00  0.00     0.261 C 
BRANCH  61  62
ATOM     62  O   UNL A   1      33.917  30.257  27.000  1.00  0.00    -0.460 OA
BRANCH  62  63
ATOM     63  C   UNL A   1      32.727  30.165  26.357  1.00  0.00     0.339 C 
ATOM     64  O   UNL A   1      31.802  30.970  26.410  1.00  0.00    -0.246 OA
BRANCH  63  65
ATOM     65  C   UNL A   1      32.579  28.889  25.646  1.00  0.00     0.078 A 
ATOM     66  C   UNL A   1      31.511  28.748  24.759  1.00  0.00     0.019 A 
ATOM     67  C   UNL A   1      33.486  27.849  25.744  1.00  0.00     0.127 A 
ATOM     68  C   UNL A   1      31.392  27.586  24.002  1.00  0.00     0.031 A 
ATOM     69  N   UNL A   1      33.388  26.699  25.023  1.00  0.00    -0.254 NA
ATOM     70  C   UNL A   1      32.345  26.578  24.159  1.00  0.00     0.094 A 
BRANCH  70  71
ATOM     71  C   UNL A   1      32.209  25.287  23.366  1.00  0.00     0.318 C 
BRANCH  71  72
ATOM     72  N   UNL A   1      33.495  24.790  22.863  1.00  0.00    -0.335 N 
ATOM     73  H   UNL A   1      34.246  25.234  23.391  1.00  0.00     0.347 HD
ATOM     74  H   UNL A   1      33.546  25.017  21.871  1.00  0.00     0.347 HD
BRANCH  72  75
ATOM     75  C   UNL A   1      33.628  23.334  22.993  1.00  0.00     0.215 C 
ATOM     76  C   UNL A   1      32.277  22.605  22.778  1.00  0.00     0.071 C 
ATOM     77  C   UNL A   1      34.206  23.005  24.356  1.00  0.00     0.023 A 
ATOM     78  C   UNL A   1      32.353  21.131  23.202  1.00  0.00     0.012 C 
ATOM     79  C   UNL A   1      33.762  21.920  25.095  1.00  0.00     0.014 A 
ATOM     80  C   UNL A   1      35.286  23.662  25.036  1.00  0.00     0.022 A 
ATOM     81  C   UNL A   1      32.656  20.993  24.699  1.00  0.00     0.047 C 
ATOM     82  S   UNL A   1      34.584  21.733  26.574  1.00  0.00    -0.148 S 
ATOM     83  C   UNL A   1      35.579  23.083  26.251  1.00  0.00     0.065 A 
ENDBRANCH  72  75
ENDBRANCH  71  72
ENDBRANCH  70  71
ENDBRANCH  63  65
ENDBRANCH  62  63
ENDBRANCH  61  62
ENDBRANCH  60  61
ENDBRANCH  59  60
ENDBRANCH   1  59
TORSDOF 20
ENDMDL
