MODEL 1
REMARK VINA RESULT:      -9.1      0.000      0.000
REMARK SMILES CCN(C(=O)NC[C@]1(C)CCCO1)[C@@H](C)CC(=O)OCCOCCOCCOC(=O)c1ccc(-c2c3nc(c(-c4ccccc4)c4ccc([nH]4)c(-c4ccccc4)c4nc(c(-c5ccccc5)c5ccc2[nH]5)C=C4)C=C3)cc1
REMARK SMILES IDX 22 1 21 2 20 3 19 4 17 5 18 6 16 7 14 8 15 9 3 10 2 11 1 12
REMARK SMILES IDX 4 13 5 14 6 15 7 17 8 18 10 19 13 20 9 21 11 22 12 23 23 24
REMARK SMILES IDX 24 25 25 26 26 27 27 28 28 29 29 30 30 31 31 32 32 33 78 34
REMARK SMILES IDX 33 35 77 36 34 37 35 38 36 39 71 40 37 41 76 42 70 43 72 44
REMARK SMILES IDX 38 45 75 46 69 47 68 48 39 50 61 51 46 52 60 53 47 54 50 55
REMARK SMILES IDX 59 56 73 57 48 58 49 59 58 61 74 62 51 63 40 64 41 65 45 66
REMARK SMILES IDX 42 67 44 68 43 69 62 70 63 71 67 72 64 73 66 74 65 75 52 76
REMARK SMILES IDX 53 77 57 78 54 79 56 80 55 81
REMARK H PARENT 6 16 72 49 50 60
REMARK Flexibility Score: inf
ROOT
ATOM      1  O   UNL A   1      35.092  31.707  27.665  1.00  0.00    -0.376 OA
ENDROOT
BRANCH   1   2
ATOM      2  C   UNL A   1      35.238  30.339  28.018  1.00  0.00     0.202 C 
BRANCH   2   3
ATOM      3  C   UNL A   1      34.321  29.334  27.310  1.00  0.00     0.261 C 
BRANCH   3   4
ATOM      4  O   UNL A   1      34.600  29.137  25.905  1.00  0.00    -0.463 OA
BRANCH   4   5
ATOM      5  C   UNL A   1      33.675  28.449  25.195  1.00  0.00     0.307 C 
ATOM      6  O   UNL A   1      33.164  28.861  24.157  1.00  0.00    -0.252 OA
BRANCH   5   7
ATOM      7  C   UNL A   1      33.322  27.069  25.717  1.00  0.00     0.147 C 
BRANCH   7   8
ATOM      8  C   UNL A   1      31.910  26.478  25.632  1.00  0.00     0.094 C 
ATOM      9  C   UNL A   1      31.072  26.914  26.851  1.00  0.00     0.032 C 
BRANCH   8  10
ATOM     10  N   UNL A   1      31.793  25.018  25.413  1.00  0.00    -0.322 N 
BRANCH  10  11
ATOM     11  C   UNL A   1      31.431  24.550  24.073  1.00  0.00     0.118 C 
ATOM     12  C   UNL A   1      30.363  25.371  23.376  1.00  0.00     0.027 C 
ENDBRANCH  10  11
BRANCH  10  13
ATOM     13  C   UNL A   1      32.279  24.237  26.429  1.00  0.00     0.317 C 
ATOM     14  O   UNL A   1      31.583  23.930  27.404  1.00  0.00    -0.249 OA
ATOM     15  N   UNL A   1      33.512  23.724  26.477  1.00  0.00    -0.335 N 
ATOM     16  H   UNL A   1      33.616  23.148  27.268  1.00  0.00     0.165 HD
BRANCH  15  17
ATOM     17  C   UNL A   1      34.746  23.762  25.709  1.00  0.00     0.152 C 
BRANCH  17  18
ATOM     18  C   UNL A   1      34.819  22.701  24.564  1.00  0.00     0.083 C 
ATOM     19  C   UNL A   1      33.691  21.659  24.541  1.00  0.00     0.039 C 
ATOM     20  O   UNL A   1      36.041  21.938  24.724  1.00  0.00    -0.373 OA
ATOM     21  C   UNL A   1      34.896  23.418  23.212  1.00  0.00     0.044 C 
ATOM     22  C   UNL A   1      34.245  20.529  25.374  1.00  0.00     0.031 C 
ATOM     23  C   UNL A   1      35.711  20.570  25.011  1.00  0.00     0.161 C 
ENDBRANCH  17  18
ENDBRANCH  15  17
ENDBRANCH  10  13
ENDBRANCH   8  10
ENDBRANCH   7   8
ENDBRANCH   5   7
ENDBRANCH   4   5
ENDBRANCH   3   4
ENDBRANCH   2   3
ENDBRANCH   1   2
BRANCH   1  24
ATOM     24  C   UNL A   1      34.027  32.448  28.249  1.00  0.00     0.188 C 
BRANCH  24  25
ATOM     25  C   UNL A   1      34.302  33.848  28.813  1.00  0.00     0.188 C 
BRANCH  25  26
ATOM     26  O   UNL A   1      33.614  34.122  30.020  1.00  0.00    -0.376 OA
BRANCH  26  27
ATOM     27  C   UNL A   1      34.397  34.773  31.010  1.00  0.00     0.202 C 
BRANCH  27  28
ATOM     28  C   UNL A   1      34.169  34.076  32.351  1.00  0.00     0.261 C 
BRANCH  28  29
ATOM     29  O   UNL A   1      34.744  32.754  32.408  1.00  0.00    -0.460 OA
BRANCH  29  30
ATOM     30  C   UNL A   1      35.852  32.609  33.172  1.00  0.00     0.338 C 
ATOM     31  O   UNL A   1      35.967  32.883  34.355  1.00  0.00    -0.246 OA
BRANCH  30  32
ATOM     32  C   UNL A   1      36.854  31.844  32.388  1.00  0.00     0.060 A 
ATOM     33  C   UNL A   1      37.705  30.949  33.055  1.00  0.00     0.016 A 
ATOM     34  C   UNL A   1      36.929  31.977  31.001  1.00  0.00     0.016 A 
ATOM     35  C   UNL A   1      38.658  30.215  32.340  1.00  0.00     0.010 A 
ATOM     36  C   UNL A   1      37.892  31.258  30.289  1.00  0.00     0.010 A 
ATOM     37  C   UNL A   1      38.787  30.400  30.956  1.00  0.00    -0.014 A 
BRANCH  37  38
ATOM     38  C   UNL A   1      39.974  29.879  30.228  1.00  0.00     0.031 A 
ATOM     39  C   UNL A   1      41.146  30.803  30.027  1.00  0.00     0.074 A 
ATOM     40  C   UNL A   1      40.020  28.630  29.731  1.00  0.00     0.049 A 
ATOM     41  N   UNL A   1      42.247  30.617  29.345  1.00  0.00    -0.248 NA
ATOM     42  C   UNL A   1      41.052  32.119  30.678  1.00  0.00     0.031 C 
ATOM     43  C   UNL A   1      38.979  27.616  29.877  1.00  0.00     0.029 A 
ATOM     44  N   UNL A   1      40.991  28.013  28.977  1.00  0.00    -0.354 N 
ATOM     45  C   UNL A   1      42.971  31.796  29.476  1.00  0.00     0.074 A 
ATOM     46  C   UNL A   1      42.168  32.702  30.268  1.00  0.00     0.031 C 
ATOM     47  C   UNL A   1      39.359  26.508  29.216  1.00  0.00     0.029 A 
ATOM     48  C   UNL A   1      40.649  26.747  28.569  1.00  0.00     0.049 A 
ATOM     49  H   UNL A   1      41.849  28.440  28.751  1.00  0.00     0.167 HD
ATOM     50  C   UNL A   1      44.197  32.102  28.986  1.00  0.00     0.031 A 
ATOM     51  C   UNL A   1      41.287  25.892  27.744  1.00  0.00     0.031 A 
ATOM     52  C   UNL A   1      44.990  31.220  28.175  1.00  0.00     0.049 A 
ATOM     53  C   UNL A   1      42.612  26.282  27.138  1.00  0.00     0.074 A 
ATOM     54  C   UNL A   1      46.249  31.437  27.642  1.00  0.00     0.029 A 
ATOM     55  N   UNL A   1      44.596  29.955  27.766  1.00  0.00    -0.354 N 
ATOM     56  N   UNL A   1      43.302  27.387  27.292  1.00  0.00    -0.248 NA
ATOM     57  C   UNL A   1      43.250  25.299  26.248  1.00  0.00     0.031 C 
ATOM     58  C   UNL A   1      46.588  30.330  26.858  1.00  0.00     0.029 A 
ATOM     59  C   UNL A   1      45.573  29.393  26.963  1.00  0.00     0.049 A 
ATOM     60  H   UNL A   1      43.747  29.521  28.011  1.00  0.00     0.167 HD
ATOM     61  C   UNL A   1      44.463  27.220  26.545  1.00  0.00     0.074 A 
ATOM     62  C   UNL A   1      44.393  25.902  25.951  1.00  0.00     0.031 C 
ATOM     63  C   UNL A   1      45.497  28.081  26.371  1.00  0.00     0.031 A 
BRANCH  50  64
ATOM     64  C   UNL A   1      44.729  33.477  29.286  1.00  0.00    -0.014 A 
ATOM     65  C   UNL A   1      45.506  33.729  30.431  1.00  0.00     0.009 A 
ATOM     66  C   UNL A   1      44.456  34.537  28.407  1.00  0.00     0.009 A 
ATOM     67  C   UNL A   1      45.955  35.021  30.711  1.00  0.00     0.001 A 
ATOM     68  C   UNL A   1      44.937  35.820  28.670  1.00  0.00     0.001 A 
ATOM     69  C   UNL A   1      45.674  36.064  29.828  1.00  0.00     0.000 A 
ENDBRANCH  50  64
BRANCH  51  70
ATOM     70  C   UNL A   1      40.667  24.580  27.410  1.00  0.00    -0.014 A 
ATOM     71  C   UNL A   1      41.188  23.384  27.925  1.00  0.00     0.009 A 
ATOM     72  C   UNL A   1      39.554  24.520  26.554  1.00  0.00     0.009 A 
ATOM     73  C   UNL A   1      40.623  22.155  27.572  1.00  0.00     0.001 A 
ATOM     74  C   UNL A   1      38.972  23.293  26.230  1.00  0.00     0.001 A 
ATOM     75  C   UNL A   1      39.512  22.111  26.732  1.00  0.00     0.000 A 
ENDBRANCH  51  70
BRANCH  63  76
ATOM     76  C   UNL A   1      46.661  27.615  25.537  1.00  0.00    -0.014 A 
ATOM     77  C   UNL A   1      47.689  26.828  26.082  1.00  0.00     0.009 A 
ATOM     78  C   UNL A   1      46.705  27.932  24.169  1.00  0.00     0.009 A 
ATOM     79  C   UNL A   1      48.751  26.399  25.281  1.00  0.00     0.001 A 
ATOM     80  C   UNL A   1      47.749  27.474  23.365  1.00  0.00     0.001 A 
ATOM     81  C   UNL A   1      48.777  26.716  23.924  1.00  0.00     0.000 A 
ENDBRANCH  63  76
ENDBRANCH  37  38
ENDBRANCH  30  32
ENDBRANCH  29  30
ENDBRANCH  28  29
ENDBRANCH  27  28
ENDBRANCH  26  27
ENDBRANCH  25  26
ENDBRANCH  24  25
ENDBRANCH   1  24
TORSDOF 23
ENDMDL
MODEL 2
REMARK VINA RESULT:      -8.7      4.155      9.595
REMARK SMILES CCN(C(=O)NC[C@]1(C)CCCO1)[C@@H](C)CC(=O)OCCOCCOCCOC(=O)c1ccc(-c2c3nc(c(-c4ccccc4)c4ccc([nH]4)c(-c4ccccc4)c4nc(c(-c5ccccc5)c5ccc2[nH]5)C=C4)C=C3)cc1
REMARK SMILES IDX 22 1 21 2 20 3 19 4 17 5 18 6 16 7 14 8 15 9 3 10 2 11 1 12
REMARK SMILES IDX 4 13 5 14 6 15 7 17 8 18 10 19 13 20 9 21 11 22 12 23 23 24
REMARK SMILES IDX 24 25 25 26 26 27 27 28 28 29 29 30 30 31 31 32 32 33 78 34
REMARK SMILES IDX 33 35 77 36 34 37 35 38 36 39 71 40 37 41 76 42 70 43 72 44
REMARK SMILES IDX 38 45 75 46 69 47 68 48 39 50 61 51 46 52 60 53 47 54 50 55
REMARK SMILES IDX 59 56 73 57 48 58 49 59 58 61 74 62 51 63 40 64 41 65 45 66
REMARK SMILES IDX 42 67 44 68 43 69 62 70 63 71 67 72 64 73 66 74 65 75 52 76
REMARK SMILES IDX 53 77 57 78 54 79 56 80 55 81
REMARK H PARENT 6 16 72 49 50 60
REMARK Flexibility Score: inf
ROOT
ATOM      1  O   UNL A   1      38.782  21.378  26.417  1.00  0.00    -0.376 OA
ENDROOT
BRANCH   1   2
ATOM      2  C   UNL A   1      37.975  21.814  25.333  1.00  0.00     0.202 C 
BRANCH   2   3
ATOM      3  C   UNL A   1      36.505  21.375  25.335  1.00  0.00     0.261 C 
BRANCH   3   4
ATOM      4  O   UNL A   1      35.706  21.922  26.409  1.00  0.00    -0.463 OA
BRANCH   4   5
ATOM      5  C   UNL A   1      35.178  23.151  26.203  1.00  0.00     0.307 C 
ATOM      6  O   UNL A   1      35.836  24.133  25.870  1.00  0.00    -0.252 OA
BRANCH   5   7
ATOM      7  C   UNL A   1      33.671  23.264  26.347  1.00  0.00     0.147 C 
BRANCH   7   8
ATOM      8  C   UNL A   1      32.718  23.327  25.147  1.00  0.00     0.094 C 
ATOM      9  C   UNL A   1      31.338  22.756  25.528  1.00  0.00     0.032 C 
BRANCH   8  10
ATOM     10  N   UNL A   1      33.191  22.745  23.870  1.00  0.00    -0.322 N 
BRANCH  10  11
ATOM     11  C   UNL A   1      32.818  21.363  23.562  1.00  0.00     0.118 C 
ATOM     12  C   UNL A   1      31.922  21.197  22.350  1.00  0.00     0.027 C 
ENDBRANCH  10  11
BRANCH  10  13
ATOM     13  C   UNL A   1      33.728  23.645  22.985  1.00  0.00     0.317 C 
ATOM     14  O   UNL A   1      34.470  23.287  22.063  1.00  0.00    -0.249 OA
ATOM     15  N   UNL A   1      33.509  24.963  23.008  1.00  0.00    -0.335 N 
ATOM     16  H   UNL A   1      33.947  25.399  22.242  1.00  0.00     0.165 HD
BRANCH  15  17
ATOM     17  C   UNL A   1      32.817  25.945  23.825  1.00  0.00     0.152 C 
BRANCH  17  18
ATOM     18  C   UNL A   1      32.516  27.291  23.089  1.00  0.00     0.083 C 
ATOM     19  C   UNL A   1      32.200  28.493  23.992  1.00  0.00     0.039 C 
ATOM     20  O   UNL A   1      31.337  27.110  22.267  1.00  0.00    -0.373 OA
ATOM     21  C   UNL A   1      33.683  27.631  22.155  1.00  0.00     0.044 C 
ATOM     22  C   UNL A   1      30.698  28.442  24.124  1.00  0.00     0.031 C 
ATOM     23  C   UNL A   1      30.285  27.958  22.754  1.00  0.00     0.161 C 
ENDBRANCH  17  18
ENDBRANCH  15  17
ENDBRANCH  10  13
ENDBRANCH   8  10
ENDBRANCH   7   8
ENDBRANCH   5   7
ENDBRANCH   4   5
ENDBRANCH   3   4
ENDBRANCH   2   3
ENDBRANCH   1   2
BRANCH   1  24
ATOM     24  C   UNL A   1      40.180  21.223  26.204  1.00  0.00     0.188 C 
BRANCH  24  25
ATOM     25  C   UNL A   1      40.778  19.813  26.109  1.00  0.00     0.188 C 
BRANCH  25  26
ATOM     26  O   UNL A   1      42.172  19.769  26.350  1.00  0.00    -0.376 OA
BRANCH  26  27
ATOM     27  C   UNL A   1      42.763  21.032  26.622  1.00  0.00     0.202 C 
BRANCH  27  28
ATOM     28  C   UNL A   1      43.539  21.485  25.385  1.00  0.00     0.261 C 
BRANCH  28  29
ATOM     29  O   UNL A   1      43.025  22.703  24.808  1.00  0.00    -0.460 OA
BRANCH  29  30
ATOM     30  C   UNL A   1      43.835  23.787  24.862  1.00  0.00     0.338 C 
ATOM     31  O   UNL A   1      44.804  24.012  24.156  1.00  0.00    -0.246 OA
BRANCH  30  32
ATOM     32  C   UNL A   1      43.218  24.777  25.779  1.00  0.00     0.060 A 
ATOM     33  C   UNL A   1      43.802  26.047  25.906  1.00  0.00     0.016 A 
ATOM     34  C   UNL A   1      42.049  24.473  26.478  1.00  0.00     0.016 A 
ATOM     35  C   UNL A   1      43.240  27.000  26.764  1.00  0.00     0.010 A 
ATOM     36  C   UNL A   1      41.497  25.418  27.347  1.00  0.00     0.010 A 
ATOM     37  C   UNL A   1      42.109  26.674  27.524  1.00  0.00    -0.014 A 
BRANCH  37  38
ATOM     38  C   UNL A   1      41.678  27.538  28.654  1.00  0.00     0.031 A 
ATOM     39  C   UNL A   1      42.436  27.440  29.952  1.00  0.00     0.074 A 
ATOM     40  C   UNL A   1      40.632  28.377  28.559  1.00  0.00     0.049 A 
ATOM     41  N   UNL A   1      42.196  28.012  31.104  1.00  0.00    -0.248 NA
ATOM     42  C   UNL A   1      43.621  26.567  29.946  1.00  0.00     0.031 C 
ATOM     43  C   UNL A   1      39.829  28.604  27.361  1.00  0.00     0.029 A 
ATOM     44  N   UNL A   1      40.056  29.185  29.512  1.00  0.00    -0.354 N 
ATOM     45  C   UNL A   1      43.191  27.559  31.961  1.00  0.00     0.074 A 
ATOM     46  C   UNL A   1      44.014  26.637  31.208  1.00  0.00     0.031 C 
ATOM     47  C   UNL A   1      38.849  29.478  27.655  1.00  0.00     0.029 A 
ATOM     48  C   UNL A   1      38.933  29.842  29.070  1.00  0.00     0.049 A 
ATOM     49  H   UNL A   1      40.413  29.282  30.423  1.00  0.00     0.167 HD
ATOM     50  C   UNL A   1      43.409  27.881  33.259  1.00  0.00     0.031 A 
ATOM     51  C   UNL A   1      38.057  30.622  29.736  1.00  0.00     0.031 A 
ATOM     52  C   UNL A   1      42.583  28.774  34.024  1.00  0.00     0.049 A 
ATOM     53  C   UNL A   1      38.267  30.901  31.203  1.00  0.00     0.074 A 
ATOM     54  C   UNL A   1      42.730  29.170  35.342  1.00  0.00     0.029 A 
ATOM     55  N   UNL A   1      41.442  29.399  33.544  1.00  0.00    -0.354 N 
ATOM     56  N   UNL A   1      39.227  30.492  31.997  1.00  0.00    -0.248 NA
ATOM     57  C   UNL A   1      37.271  31.760  31.864  1.00  0.00     0.031 C 
ATOM     58  C   UNL A   1      41.644  29.984  35.678  1.00  0.00     0.029 A 
ATOM     59  C   UNL A   1      40.860  30.154  34.549  1.00  0.00     0.049 A 
ATOM     60  H   UNL A   1      41.098  29.319  32.626  1.00  0.00     0.167 HD
ATOM     61  C   UNL A   1      38.968  31.065  33.237  1.00  0.00     0.074 A 
ATOM     62  C   UNL A   1      37.770  31.863  33.088  1.00  0.00     0.031 C 
ATOM     63  C   UNL A   1      39.665  30.944  34.395  1.00  0.00     0.031 A 
BRANCH  50  64
ATOM     64  C   UNL A   1      44.575  27.217  33.942  1.00  0.00    -0.014 A 
ATOM     65  C   UNL A   1      44.430  25.991  34.613  1.00  0.00     0.009 A 
ATOM     66  C   UNL A   1      45.840  27.825  33.907  1.00  0.00     0.009 A 
ATOM     67  C   UNL A   1      45.516  25.414  35.274  1.00  0.00     0.001 A 
ATOM     68  C   UNL A   1      46.932  27.228  34.538  1.00  0.00     0.001 A 
ATOM     69  C   UNL A   1      46.766  26.031  35.232  1.00  0.00     0.000 A 
ENDBRANCH  50  64
BRANCH  51  70
ATOM     70  C   UNL A   1      36.870  31.176  29.028  1.00  0.00    -0.014 A 
ATOM     71  C   UNL A   1      35.771  30.362  28.716  1.00  0.00     0.009 A 
ATOM     72  C   UNL A   1      36.841  32.527  28.645  1.00  0.00     0.009 A 
ATOM     73  C   UNL A   1      34.680  30.882  28.015  1.00  0.00     0.001 A 
ATOM     74  C   UNL A   1      35.735  33.052  27.973  1.00  0.00     0.001 A 
ATOM     75  C   UNL A   1      34.659  32.228  27.651  1.00  0.00     0.000 A 
ENDBRANCH  51  70
BRANCH  63  76
ATOM     76  C   UNL A   1      39.177  31.723  35.589  1.00  0.00    -0.014 A 
ATOM     77  C   UNL A   1      38.206  31.204  36.460  1.00  0.00     0.009 A 
ATOM     78  C   UNL A   1      39.738  32.979  35.872  1.00  0.00     0.009 A 
ATOM     79  C   UNL A   1      37.782  31.943  37.567  1.00  0.00     0.001 A 
ATOM     80  C   UNL A   1      39.337  33.701  36.997  1.00  0.00     0.001 A 
ATOM     81  C   UNL A   1      38.351  33.187  37.838  1.00  0.00     0.000 A 
ENDBRANCH  63  76
ENDBRANCH  37  38
ENDBRANCH  30  32
ENDBRANCH  29  30
ENDBRANCH  28  29
ENDBRANCH  27  28
ENDBRANCH  26  27
ENDBRANCH  25  26
ENDBRANCH  24  25
ENDBRANCH   1  24
TORSDOF 23
ENDMDL
MODEL 3
REMARK VINA RESULT:      -8.7      3.216      9.112
REMARK SMILES CCN(C(=O)NC[C@]1(C)CCCO1)[C@@H](C)CC(=O)OCCOCCOCCOC(=O)c1ccc(-c2c3nc(c(-c4ccccc4)c4ccc([nH]4)c(-c4ccccc4)c4nc(c(-c5ccccc5)c5ccc2[nH]5)C=C4)C=C3)cc1
REMARK SMILES IDX 22 1 21 2 20 3 19 4 17 5 18 6 16 7 14 8 15 9 3 10 2 11 1 12
REMARK SMILES IDX 4 13 5 14 6 15 7 17 8 18 10 19 13 20 9 21 11 22 12 23 23 24
REMARK SMILES IDX 24 25 25 26 26 27 27 28 28 29 29 30 30 31 31 32 32 33 78 34
REMARK SMILES IDX 33 35 77 36 34 37 35 38 36 39 71 40 37 41 76 42 70 43 72 44
REMARK SMILES IDX 38 45 75 46 69 47 68 48 39 50 61 51 46 52 60 53 47 54 50 55
REMARK SMILES IDX 59 56 73 57 48 58 49 59 58 61 74 62 51 63 40 64 41 65 45 66
REMARK SMILES IDX 42 67 44 68 43 69 62 70 63 71 67 72 64 73 66 74 65 75 52 76
REMARK SMILES IDX 53 77 57 78 54 79 56 80 55 81
REMARK H PARENT 6 16 72 49 50 60
REMARK Flexibility Score: inf
ROOT
ATOM      1  O   UNL A   1      38.758  21.981  26.310  1.00  0.00    -0.376 OA
ENDROOT
BRANCH   1   2
ATOM      2  C   UNL A   1      38.152  22.979  25.501  1.00  0.00     0.202 C 
BRANCH   2   3
ATOM      3  C   UNL A   1      37.012  23.790  26.130  1.00  0.00     0.261 C 
BRANCH   3   4
ATOM      4  O   UNL A   1      35.919  24.101  25.237  1.00  0.00    -0.463 OA
BRANCH   4   5
ATOM      5  C   UNL A   1      35.025  23.111  25.006  1.00  0.00     0.307 C 
ATOM      6  O   UNL A   1      34.731  22.248  25.830  1.00  0.00    -0.252 OA
BRANCH   5   7
ATOM      7  C   UNL A   1      34.327  23.141  23.660  1.00  0.00     0.147 C 
BRANCH   7   8
ATOM      8  C   UNL A   1      32.801  23.130  23.508  1.00  0.00     0.094 C 
ATOM      9  C   UNL A   1      32.344  21.855  22.771  1.00  0.00     0.032 C 
BRANCH   8  10
ATOM     10  N   UNL A   1      32.166  24.331  22.919  1.00  0.00    -0.322 N 
BRANCH  10  11
ATOM     11  C   UNL A   1      30.713  24.473  23.043  1.00  0.00     0.118 C 
ATOM     12  C   UNL A   1      30.256  25.686  23.831  1.00  0.00     0.027 C 
ENDBRANCH  10  11
BRANCH  10  13
ATOM     13  C   UNL A   1      33.036  25.316  22.527  1.00  0.00     0.317 C 
ATOM     14  O   UNL A   1      33.410  25.426  21.353  1.00  0.00    -0.249 OA
ATOM     15  N   UNL A   1      33.553  26.245  23.337  1.00  0.00    -0.335 N 
ATOM     16  H   UNL A   1      34.101  26.881  22.825  1.00  0.00     0.165 HD
BRANCH  15  17
ATOM     17  C   UNL A   1      33.546  26.597  24.747  1.00  0.00     0.152 C 
BRANCH  17  18
ATOM     18  C   UNL A   1      33.272  28.110  25.027  1.00  0.00     0.083 C 
ATOM     19  C   UNL A   1      34.108  28.747  26.148  1.00  0.00     0.039 C 
ATOM     20  O   UNL A   1      31.893  28.255  25.447  1.00  0.00    -0.373 OA
ATOM     21  C   UNL A   1      33.446  28.906  23.729  1.00  0.00     0.044 C 
ATOM     22  C   UNL A   1      33.249  28.553  27.373  1.00  0.00     0.031 C 
ATOM     23  C   UNL A   1      31.859  28.725  26.805  1.00  0.00     0.161 C 
ENDBRANCH  17  18
ENDBRANCH  15  17
ENDBRANCH  10  13
ENDBRANCH   8  10
ENDBRANCH   7   8
ENDBRANCH   5   7
ENDBRANCH   4   5
ENDBRANCH   3   4
ENDBRANCH   2   3
ENDBRANCH   1   2
BRANCH   1  24
ATOM     24  C   UNL A   1      40.143  21.709  26.128  1.00  0.00     0.188 C 
BRANCH  24  25
ATOM     25  C   UNL A   1      40.696  20.328  26.502  1.00  0.00     0.188 C 
BRANCH  25  26
ATOM     26  O   UNL A   1      42.093  20.317  26.730  1.00  0.00    -0.376 OA
BRANCH  26  27
ATOM     27  C   UNL A   1      42.636  19.032  27.002  1.00  0.00     0.202 C 
BRANCH  27  28
ATOM     28  C   UNL A   1      43.177  18.443  25.699  1.00  0.00     0.261 C 
BRANCH  28  29
ATOM     29  O   UNL A   1      43.416  19.440  24.684  1.00  0.00    -0.460 OA
BRANCH  29  30
ATOM     30  C   UNL A   1      44.710  19.683  24.367  1.00  0.00     0.338 C 
ATOM     31  O   UNL A   1      45.456  18.958  23.729  1.00  0.00    -0.246 OA
BRANCH  30  32
ATOM     32  C   UNL A   1      45.017  21.088  24.733  1.00  0.00     0.060 A 
ATOM     33  C   UNL A   1      45.444  21.376  26.039  1.00  0.00     0.016 A 
ATOM     34  C   UNL A   1      44.926  22.109  23.786  1.00  0.00     0.016 A 
ATOM     35  C   UNL A   1      45.741  22.693  26.409  1.00  0.00     0.010 A 
ATOM     36  C   UNL A   1      45.206  23.426  24.160  1.00  0.00     0.010 A 
ATOM     37  C   UNL A   1      45.579  23.732  25.483  1.00  0.00    -0.014 A 
BRANCH  37  38
ATOM     38  C   UNL A   1      45.587  25.151  25.925  1.00  0.00     0.031 A 
ATOM     39  C   UNL A   1      46.900  25.889  25.922  1.00  0.00     0.074 A 
ATOM     40  C   UNL A   1      44.475  25.780  26.344  1.00  0.00     0.049 A 
ATOM     41  N   UNL A   1      47.183  27.092  26.352  1.00  0.00    -0.248 NA
ATOM     42  C   UNL A   1      48.051  25.159  25.365  1.00  0.00     0.031 C 
ATOM     43  C   UNL A   1      43.131  25.207  26.370  1.00  0.00     0.029 A 
ATOM     44  N   UNL A   1      44.312  27.048  26.852  1.00  0.00    -0.354 N 
ATOM     45  C   UNL A   1      48.544  27.258  26.129  1.00  0.00     0.074 A 
ATOM     46  C   UNL A   1      49.036  26.022  25.562  1.00  0.00     0.031 C 
ATOM     47  C   UNL A   1      42.283  26.114  26.886  1.00  0.00     0.029 A 
ATOM     48  C   UNL A   1      43.029  27.316  27.263  1.00  0.00     0.049 A 
ATOM     49  H   UNL A   1      45.046  27.700  26.915  1.00  0.00     0.167 HD
ATOM     50  C   UNL A   1      49.320  28.343  26.369  1.00  0.00     0.031 A 
ATOM     51  C   UNL A   1      42.521  28.392  27.898  1.00  0.00     0.031 A 
ATOM     52  C   UNL A   1      48.847  29.566  26.957  1.00  0.00     0.049 A 
ATOM     53  C   UNL A   1      43.418  29.556  28.235  1.00  0.00     0.074 A 
ATOM     54  C   UNL A   1      49.556  30.724  27.228  1.00  0.00     0.029 A 
ATOM     55  N   UNL A   1      47.545  29.786  27.380  1.00  0.00    -0.354 N 
ATOM     56  N   UNL A   1      44.697  29.716  27.992  1.00  0.00    -0.248 NA
ATOM     57  C   UNL A   1      42.794  30.695  28.928  1.00  0.00     0.031 C 
ATOM     58  C   UNL A   1      48.699  31.620  27.873  1.00  0.00     0.029 A 
ATOM     59  C   UNL A   1      47.438  31.049  27.937  1.00  0.00     0.049 A 
ATOM     60  H   UNL A   1      46.807  29.141  27.296  1.00  0.00     0.167 HD
ATOM     61  C   UNL A   1      45.022  30.979  28.475  1.00  0.00     0.074 A 
ATOM     62  C   UNL A   1      43.804  31.551  29.009  1.00  0.00     0.031 C 
ATOM     63  C   UNL A   1      46.223  31.611  28.471  1.00  0.00     0.031 A 
BRANCH  50  64
ATOM     64  C   UNL A   1      50.782  28.227  26.029  1.00  0.00    -0.014 A 
ATOM     65  C   UNL A   1      51.713  27.730  26.957  1.00  0.00     0.009 A 
ATOM     66  C   UNL A   1      51.233  28.613  24.757  1.00  0.00     0.009 A 
ATOM     67  C   UNL A   1      53.070  27.670  26.634  1.00  0.00     0.001 A 
ATOM     68  C   UNL A   1      52.585  28.517  24.424  1.00  0.00     0.001 A 
ATOM     69  C   UNL A   1      53.504  28.059  25.367  1.00  0.00     0.000 A 
ENDBRANCH  50  64
BRANCH  51  70
ATOM     70  C   UNL A   1      41.085  28.411  28.292  1.00  0.00    -0.014 A 
ATOM     71  C   UNL A   1      40.663  27.850  29.507  1.00  0.00     0.009 A 
ATOM     72  C   UNL A   1      40.124  28.978  27.439  1.00  0.00     0.009 A 
ATOM     73  C   UNL A   1      39.308  27.837  29.848  1.00  0.00     0.001 A 
ATOM     74  C   UNL A   1      38.775  28.993  27.797  1.00  0.00     0.001 A 
ATOM     75  C   UNL A   1      38.366  28.414  28.998  1.00  0.00     0.000 A 
ENDBRANCH  51  70
BRANCH  63  76
ATOM     76  C   UNL A   1      46.278  33.011  29.023  1.00  0.00    -0.014 A 
ATOM     77  C   UNL A   1      45.962  34.128  28.233  1.00  0.00     0.009 A 
ATOM     78  C   UNL A   1      46.605  33.210  30.375  1.00  0.00     0.009 A 
ATOM     79  C   UNL A   1      46.009  35.415  28.776  1.00  0.00     0.001 A 
ATOM     80  C   UNL A   1      46.618  34.494  30.923  1.00  0.00     0.001 A 
ATOM     81  C   UNL A   1      46.331  35.596  30.120  1.00  0.00     0.000 A 
ENDBRANCH  63  76
ENDBRANCH  37  38
ENDBRANCH  30  32
ENDBRANCH  29  30
ENDBRANCH  28  29
ENDBRANCH  27  28
ENDBRANCH  26  27
ENDBRANCH  25  26
ENDBRANCH  24  25
ENDBRANCH   1  24
TORSDOF 23
ENDMDL
