MODEL 1
REMARK VINA RESULT:     -10.6      0.000      0.000
REMARK SMILES O=C(C[C@H](NC(=O)[C@]12C[C@H]3C[C@H](C[C@H](C3)C1)C2)c1cccc([N+](=O)[O-])c1)OCCOCCOCCOC(=O)c1ccc(-c2c3nc(c(-c4ccccc4)c4ccc([nH]4)c(-c4ccccc4)c4nc(c(-c5ccccc5)c5ccc2[nH]5)C=C4)C=C3)cc1
REMARK SMILES IDX 31 1 30 2 29 3 28 4 27 5 2 6 1 7 3 8 4 9 18 10 19 11 26 12
REMARK SMILES IDX 20 13 22 14 21 15 23 16 24 17 25 18 5 19 6 20 7 22 8 23 9 24
REMARK SMILES IDX 16 25 17 26 10 27 14 28 12 29 11 30 15 31 13 32 32 33 33 34
REMARK SMILES IDX 34 35 35 36 36 37 37 38 38 39 39 40 40 41 86 42 41 43 85 44
REMARK SMILES IDX 42 45 43 46 44 47 79 48 45 49 84 50 78 51 80 52 46 53 83 54
REMARK SMILES IDX 77 55 76 56 47 58 69 59 54 60 68 61 55 62 58 63 67 64 81 65
REMARK SMILES IDX 56 66 57 67 66 69 82 70 59 71 48 72 49 73 53 74 50 75 52 76
REMARK SMILES IDX 51 77 70 78 71 79 75 80 72 81 74 82 73 83 60 84 61 85 65 86
REMARK SMILES IDX 62 87 64 88 63 89
REMARK H PARENT 5 21 80 57 58 68
REMARK Flexibility Score: inf
ROOT
ATOM      1  C   UNL A   1      34.731  33.654  28.024  1.00  0.00     0.188 C 
ENDROOT
BRANCH   1   2
ATOM      2  O   UNL A   1      35.719  32.709  28.375  1.00  0.00    -0.376 OA
BRANCH   2   3
ATOM      3  C   UNL A   1      35.757  31.442  27.754  1.00  0.00     0.202 C 
BRANCH   3   4
ATOM      4  C   UNL A   1      34.505  30.541  27.789  1.00  0.00     0.261 C 
BRANCH   4   5
ATOM      5  O   UNL A   1      33.630  30.472  26.635  1.00  0.00    -0.463 OA
BRANCH   5   6
ATOM      6  C   UNL A   1      33.166  29.360  26.013  1.00  0.00     0.308 C 
ATOM      7  O   UNL A   1      33.808  28.318  26.052  1.00  0.00    -0.252 OA
BRANCH   6   8
ATOM      8  C   UNL A   1      31.942  29.528  25.164  1.00  0.00     0.152 C 
BRANCH   8   9
ATOM      9  C   UNL A   1      31.566  28.328  24.305  1.00  0.00     0.123 C 
BRANCH   9  10
ATOM     10  C   UNL A   1      30.141  28.485  23.747  1.00  0.00    -0.018 A 
ATOM     11  C   UNL A   1      29.263  27.371  23.753  1.00  0.00     0.006 A 
ATOM     12  C   UNL A   1      29.632  29.691  23.251  1.00  0.00     0.091 A 
ATOM     13  C   UNL A   1      27.912  27.481  23.416  1.00  0.00     0.007 A 
ATOM     14  C   UNL A   1      28.264  29.806  22.936  1.00  0.00     0.269 A 
ATOM     15  C   UNL A   1      27.399  28.710  23.029  1.00  0.00     0.085 A 
BRANCH  14  16
ATOM     16  N   UNL A   1      27.716  31.111  22.557  1.00  0.00     0.062 N 
ATOM     17  O   UNL A   1      27.158  31.778  23.440  1.00  0.00    -0.258 OA
ATOM     18  O   UNL A   1      27.864  31.476  21.384  1.00  0.00    -0.258 OA
ENDBRANCH  14  16
ENDBRANCH   9  10
BRANCH   9  19
ATOM     19  N   UNL A   1      32.604  27.868  23.379  1.00  0.00    -0.348 N 
ATOM     20  C   UNL A   1      33.101  26.734  22.830  1.00  0.00     0.226 C 
ATOM     21  H   UNL A   1      33.112  28.643  23.044  1.00  0.00     0.164 HD
ATOM     22  O   UNL A   1      33.862  26.954  21.875  1.00  0.00    -0.274 OA
BRANCH  20  23
ATOM     23  C   UNL A   1      32.846  25.275  23.275  1.00  0.00     0.050 C 
ATOM     24  C   UNL A   1      31.444  24.809  22.874  1.00  0.00     0.020 C 
ATOM     25  C   UNL A   1      32.907  25.254  24.844  1.00  0.00     0.020 C 
ATOM     26  C   UNL A   1      33.899  24.244  22.806  1.00  0.00     0.020 C 
ATOM     27  C   UNL A   1      31.126  23.427  23.432  1.00  0.00    -0.010 C 
ATOM     28  C   UNL A   1      32.581  23.864  25.415  1.00  0.00    -0.010 C 
ATOM     29  C   UNL A   1      33.564  22.831  23.344  1.00  0.00    -0.010 C 
ATOM     30  C   UNL A   1      32.150  22.422  22.896  1.00  0.00     0.007 C 
ATOM     31  C   UNL A   1      31.173  23.461  24.962  1.00  0.00     0.007 C 
ATOM     32  C   UNL A   1      33.599  22.846  24.881  1.00  0.00     0.007 C 
ENDBRANCH  20  23
ENDBRANCH   9  19
ENDBRANCH   8   9
ENDBRANCH   6   8
ENDBRANCH   5   6
ENDBRANCH   4   5
ENDBRANCH   3   4
ENDBRANCH   2   3
ENDBRANCH   1   2
BRANCH   1  33
ATOM     33  C   UNL A   1      35.164  35.089  28.362  1.00  0.00     0.188 C 
BRANCH  33  34
ATOM     34  O   UNL A   1      34.364  36.157  27.866  1.00  0.00    -0.376 OA
BRANCH  34  35
ATOM     35  C   UNL A   1      33.249  36.591  28.646  1.00  0.00     0.202 C 
BRANCH  35  36
ATOM     36  C   UNL A   1      33.341  36.552  30.186  1.00  0.00     0.261 C 
BRANCH  36  37
ATOM     37  O   UNL A   1      32.553  35.535  30.843  1.00  0.00    -0.460 OA
BRANCH  37  38
ATOM     38  C   UNL A   1      32.473  35.656  32.192  1.00  0.00     0.338 C 
ATOM     39  O   UNL A   1      31.566  36.167  32.828  1.00  0.00    -0.246 OA
BRANCH  38  40
ATOM     40  C   UNL A   1      33.583  34.959  32.877  1.00  0.00     0.060 A 
ATOM     41  C   UNL A   1      34.734  35.703  33.168  1.00  0.00     0.016 A 
ATOM     42  C   UNL A   1      33.585  33.572  33.048  1.00  0.00     0.016 A 
ATOM     43  C   UNL A   1      35.907  35.058  33.565  1.00  0.00     0.010 A 
ATOM     44  C   UNL A   1      34.770  32.923  33.433  1.00  0.00     0.010 A 
ATOM     45  C   UNL A   1      35.949  33.659  33.651  1.00  0.00    -0.014 A 
BRANCH  45  46
ATOM     46  C   UNL A   1      37.271  32.988  33.772  1.00  0.00     0.031 A 
ATOM     47  C   UNL A   1      38.053  33.147  35.045  1.00  0.00     0.074 A 
ATOM     48  C   UNL A   1      37.764  32.202  32.799  1.00  0.00     0.049 A 
ATOM     49  N   UNL A   1      39.174  32.573  35.406  1.00  0.00    -0.248 NA
ATOM     50  C   UNL A   1      37.505  34.087  36.034  1.00  0.00     0.031 C 
ATOM     51  C   UNL A   1      37.119  31.968  31.516  1.00  0.00     0.029 A 
ATOM     52  N   UNL A   1      38.900  31.429  32.750  1.00  0.00    -0.354 N 
ATOM     53  C   UNL A   1      39.473  33.092  36.657  1.00  0.00     0.074 A 
ATOM     54  C   UNL A   1      38.420  34.030  36.990  1.00  0.00     0.031 C 
ATOM     55  C   UNL A   1      37.827  31.053  30.830  1.00  0.00     0.029 A 
ATOM     56  C   UNL A   1      39.001  30.671  31.607  1.00  0.00     0.049 A 
ATOM     57  H   UNL A   1      39.576  31.420  33.464  1.00  0.00     0.167 HD
ATOM     58  C   UNL A   1      40.536  32.829  37.455  1.00  0.00     0.031 A 
ATOM     59  C   UNL A   1      39.929  29.769  31.231  1.00  0.00     0.031 A 
ATOM     60  C   UNL A   1      41.610  31.934  37.118  1.00  0.00     0.049 A 
ATOM     61  C   UNL A   1      41.115  29.515  32.122  1.00  0.00     0.074 A 
ATOM     62  C   UNL A   1      42.735  31.621  37.862  1.00  0.00     0.029 A 
ATOM     63  N   UNL A   1      41.703  31.223  35.933  1.00  0.00    -0.354 N 
ATOM     64  N   UNL A   1      41.367  29.986  33.319  1.00  0.00    -0.248 NA
ATOM     65  C   UNL A   1      42.155  28.615  31.599  1.00  0.00     0.031 C 
ATOM     66  C   UNL A   1      43.534  30.757  37.104  1.00  0.00     0.029 A 
ATOM     67  C   UNL A   1      42.880  30.491  35.912  1.00  0.00     0.049 A 
ATOM     68  H   UNL A   1      41.033  31.235  35.212  1.00  0.00     0.167 HD
ATOM     69  C   UNL A   1      42.585  29.435  33.695  1.00  0.00     0.074 A 
ATOM     70  C   UNL A   1      43.008  28.570  32.612  1.00  0.00     0.031 C 
ATOM     71  C   UNL A   1      43.295  29.636  34.832  1.00  0.00     0.031 A 
BRANCH  58  72
ATOM     72  C   UNL A   1      40.607  33.583  38.751  1.00  0.00    -0.014 A 
ATOM     73  C   UNL A   1      39.979  33.101  39.910  1.00  0.00     0.009 A 
ATOM     74  C   UNL A   1      41.307  34.798  38.806  1.00  0.00     0.009 A 
ATOM     75  C   UNL A   1      40.017  33.846  41.091  1.00  0.00     0.001 A 
ATOM     76  C   UNL A   1      41.363  35.527  39.994  1.00  0.00     0.001 A 
ATOM     77  C   UNL A   1      40.709  35.055  41.132  1.00  0.00     0.000 A 
ENDBRANCH  58  72
BRANCH  59  78
ATOM     78  C   UNL A   1      39.795  29.030  29.945  1.00  0.00    -0.014 A 
ATOM     79  C   UNL A   1      39.236  27.741  29.923  1.00  0.00     0.009 A 
ATOM     80  C   UNL A   1      40.259  29.584  28.743  1.00  0.00     0.009 A 
ATOM     81  C   UNL A   1      39.172  27.014  28.731  1.00  0.00     0.001 A 
ATOM     82  C   UNL A   1      40.163  28.869  27.546  1.00  0.00     0.001 A 
ATOM     83  C   UNL A   1      39.632  27.580  27.543  1.00  0.00     0.000 A 
ENDBRANCH  59  78
BRANCH  71  84
ATOM     84  C   UNL A   1      44.593  28.892  34.974  1.00  0.00    -0.014 A 
ATOM     85  C   UNL A   1      45.806  29.453  34.542  1.00  0.00     0.009 A 
ATOM     86  C   UNL A   1      44.607  27.626  35.579  1.00  0.00     0.009 A 
ATOM     87  C   UNL A   1      47.002  28.746  34.686  1.00  0.00     0.001 A 
ATOM     88  C   UNL A   1      45.808  26.933  35.744  1.00  0.00     0.001 A 
ATOM     89  C   UNL A   1      47.002  27.489  35.290  1.00  0.00     0.000 A 
ENDBRANCH  71  84
ENDBRANCH  45  46
ENDBRANCH  38  40
ENDBRANCH  37  38
ENDBRANCH  36  37
ENDBRANCH  35  36
ENDBRANCH  34  35
ENDBRANCH  33  34
ENDBRANCH   1  33
TORSDOF 22
ENDMDL
MODEL 2
REMARK VINA RESULT:     -10.5      1.000      5.724
REMARK SMILES O=C(C[C@H](NC(=O)[C@]12C[C@H]3C[C@H](C[C@H](C3)C1)C2)c1cccc([N+](=O)[O-])c1)OCCOCCOCCOC(=O)c1ccc(-c2c3nc(c(-c4ccccc4)c4ccc([nH]4)c(-c4ccccc4)c4nc(c(-c5ccccc5)c5ccc2[nH]5)C=C4)C=C3)cc1
REMARK SMILES IDX 31 1 30 2 29 3 28 4 27 5 2 6 1 7 3 8 4 9 18 10 19 11 26 12
REMARK SMILES IDX 20 13 22 14 21 15 23 16 24 17 25 18 5 19 6 20 7 22 8 23 9 24
REMARK SMILES IDX 16 25 17 26 10 27 14 28 12 29 11 30 15 31 13 32 32 33 33 34
REMARK SMILES IDX 34 35 35 36 36 37 37 38 38 39 39 40 40 41 86 42 41 43 85 44
REMARK SMILES IDX 42 45 43 46 44 47 79 48 45 49 84 50 78 51 80 52 46 53 83 54
REMARK SMILES IDX 77 55 76 56 47 58 69 59 54 60 68 61 55 62 58 63 67 64 81 65
REMARK SMILES IDX 56 66 57 67 66 69 82 70 59 71 48 72 49 73 53 74 50 75 52 76
REMARK SMILES IDX 51 77 70 78 71 79 75 80 72 81 74 82 73 83 60 84 61 85 65 86
REMARK SMILES IDX 62 87 64 88 63 89
REMARK H PARENT 5 21 80 57 58 68
REMARK Flexibility Score: inf
ROOT
ATOM      1  C   UNL A   1      34.966  34.212  27.901  1.00  0.00     0.188 C 
ENDROOT
BRANCH   1   2
ATOM      2  O   UNL A   1      34.907  32.813  27.726  1.00  0.00    -0.376 OA
BRANCH   2   3
ATOM      3  C   UNL A   1      33.792  32.076  28.183  1.00  0.00     0.202 C 
BRANCH   3   4
ATOM      4  C   UNL A   1      33.145  31.026  27.257  1.00  0.00     0.261 C 
BRANCH   4   5
ATOM      5  O   UNL A   1      33.979  30.086  26.533  1.00  0.00    -0.463 OA
BRANCH   5   6
ATOM      6  C   UNL A   1      33.597  28.932  25.932  1.00  0.00     0.308 C 
ATOM      7  O   UNL A   1      34.197  27.890  26.160  1.00  0.00    -0.252 OA
BRANCH   6   8
ATOM      8  C   UNL A   1      32.535  29.045  24.880  1.00  0.00     0.152 C 
BRANCH   8   9
ATOM      9  C   UNL A   1      32.049  27.726  24.292  1.00  0.00     0.123 C 
BRANCH   9  10
ATOM     10  C   UNL A   1      30.573  27.833  23.869  1.00  0.00    -0.018 A 
ATOM     11  C   UNL A   1      29.704  26.735  24.089  1.00  0.00     0.006 A 
ATOM     12  C   UNL A   1      30.013  28.979  23.295  1.00  0.00     0.091 A 
ATOM     13  C   UNL A   1      28.325  26.818  23.882  1.00  0.00     0.007 A 
ATOM     14  C   UNL A   1      28.620  29.071  23.110  1.00  0.00     0.269 A 
ATOM     15  C   UNL A   1      27.772  28.001  23.413  1.00  0.00     0.085 A 
BRANCH  14  16
ATOM     16  N   UNL A   1      28.032  30.330  22.644  1.00  0.00     0.062 N 
ATOM     17  O   UNL A   1      28.314  30.705  21.497  1.00  0.00    -0.258 OA
ATOM     18  O   UNL A   1      27.273  30.929  23.416  1.00  0.00    -0.258 OA
ENDBRANCH  14  16
ENDBRANCH   9  10
BRANCH   9  19
ATOM     19  N   UNL A   1      32.972  27.076  23.358  1.00  0.00    -0.348 N 
ATOM     20  C   UNL A   1      33.405  25.848  22.986  1.00  0.00     0.226 C 
ATOM     21  H   UNL A   1      33.432  27.762  22.821  1.00  0.00     0.164 HD
ATOM     22  O   UNL A   1      34.046  25.865  21.924  1.00  0.00    -0.274 OA
BRANCH  20  23
ATOM     23  C   UNL A   1      33.212  24.509  23.734  1.00  0.00     0.050 C 
ATOM     24  C   UNL A   1      33.504  24.660  25.230  1.00  0.00     0.020 C 
ATOM     25  C   UNL A   1      34.271  23.502  23.159  1.00  0.00     0.020 C 
ATOM     26  C   UNL A   1      31.839  23.826  23.531  1.00  0.00     0.020 C 
ATOM     27  C   UNL A   1      33.460  23.321  25.954  1.00  0.00    -0.010 C 
ATOM     28  C   UNL A   1      34.237  22.149  23.889  1.00  0.00    -0.010 C 
ATOM     29  C   UNL A   1      31.777  22.478  24.291  1.00  0.00    -0.010 C 
ATOM     30  C   UNL A   1      32.067  22.705  25.785  1.00  0.00     0.007 C 
ATOM     31  C   UNL A   1      34.524  22.382  25.376  1.00  0.00     0.007 C 
ATOM     32  C   UNL A   1      32.844  21.523  23.730  1.00  0.00     0.007 C 
ENDBRANCH  20  23
ENDBRANCH   9  19
ENDBRANCH   8   9
ENDBRANCH   6   8
ENDBRANCH   5   6
ENDBRANCH   4   5
ENDBRANCH   3   4
ENDBRANCH   2   3
ENDBRANCH   1   2
BRANCH   1  33
ATOM     33  C   UNL A   1      34.094  34.680  29.077  1.00  0.00     0.188 C 
BRANCH  33  34
ATOM     34  O   UNL A   1      33.602  36.016  29.045  1.00  0.00    -0.376 OA
BRANCH  34  35
ATOM     35  C   UNL A   1      32.968  36.535  30.215  1.00  0.00     0.202 C 
BRANCH  35  36
ATOM     36  C   UNL A   1      32.468  35.561  31.301  1.00  0.00     0.261 C 
BRANCH  36  37
ATOM     37  O   UNL A   1      32.501  36.055  32.660  1.00  0.00    -0.460 OA
BRANCH  37  38
ATOM     38  C   UNL A   1      33.723  36.448  33.096  1.00  0.00     0.338 C 
ATOM     39  O   UNL A   1      34.010  37.522  33.599  1.00  0.00    -0.246 OA
BRANCH  38  40
ATOM     40  C   UNL A   1      34.714  35.352  33.028  1.00  0.00     0.060 A 
ATOM     41  C   UNL A   1      34.570  34.291  33.931  1.00  0.00     0.016 A 
ATOM     42  C   UNL A   1      35.867  35.452  32.244  1.00  0.00     0.016 A 
ATOM     43  C   UNL A   1      35.604  33.368  34.102  1.00  0.00     0.010 A 
ATOM     44  C   UNL A   1      36.912  34.531  32.428  1.00  0.00     0.010 A 
ATOM     45  C   UNL A   1      36.804  33.511  33.390  1.00  0.00    -0.014 A 
BRANCH  45  46
ATOM     46  C   UNL A   1      37.986  32.712  33.810  1.00  0.00     0.031 A 
ATOM     47  C   UNL A   1      38.528  31.668  32.875  1.00  0.00     0.074 A 
ATOM     48  C   UNL A   1      38.616  32.931  34.978  1.00  0.00     0.049 A 
ATOM     49  N   UNL A   1      39.603  30.930  32.991  1.00  0.00    -0.248 NA
ATOM     50  C   UNL A   1      37.745  31.416  31.656  1.00  0.00     0.031 C 
ATOM     51  C   UNL A   1      38.196  33.899  35.978  1.00  0.00     0.029 A 
ATOM     52  N   UNL A   1      39.760  32.379  35.503  1.00  0.00    -0.354 N 
ATOM     53  C   UNL A   1      39.620  30.115  31.868  1.00  0.00     0.074 A 
ATOM     54  C   UNL A   1      38.445  30.446  31.087  1.00  0.00     0.031 C 
ATOM     55  C   UNL A   1      39.107  33.931  36.967  1.00  0.00     0.029 A 
ATOM     56  C   UNL A   1      40.152  32.952  36.691  1.00  0.00     0.049 A 
ATOM     57  H   UNL A   1      40.252  31.644  35.072  1.00  0.00     0.167 HD
ATOM     58  C   UNL A   1      40.519  29.164  31.522  1.00  0.00     0.031 A 
ATOM     59  C   UNL A   1      41.230  32.718  37.465  1.00  0.00     0.031 A 
ATOM     60  C   UNL A   1      41.665  28.795  32.308  1.00  0.00     0.049 A 
ATOM     61  C   UNL A   1      42.200  31.636  37.072  1.00  0.00     0.074 A 
ATOM     62  C   UNL A   1      42.621  27.830  32.038  1.00  0.00     0.029 A 
ATOM     63  N   UNL A   1      42.002  29.362  33.527  1.00  0.00    -0.354 N 
ATOM     64  N   UNL A   1      42.223  30.899  35.990  1.00  0.00    -0.248 NA
ATOM     65  C   UNL A   1      43.286  31.345  38.022  1.00  0.00     0.031 C 
ATOM     66  C   UNL A   1      43.508  27.779  33.120  1.00  0.00     0.029 A 
ATOM     67  C   UNL A   1      43.135  28.749  34.036  1.00  0.00     0.049 A 
ATOM     68  H   UNL A   1      41.509  30.091  33.967  1.00  0.00     0.167 HD
ATOM     69  C   UNL A   1      43.325  30.064  36.123  1.00  0.00     0.074 A 
ATOM     70  C   UNL A   1      43.964  30.407  37.377  1.00  0.00     0.031 C 
ATOM     71  C   UNL A   1      43.763  29.093  35.285  1.00  0.00     0.031 A 
BRANCH  58  72
ATOM     72  C   UNL A   1      40.247  28.412  30.251  1.00  0.00    -0.014 A 
ATOM     73  C   UNL A   1      40.802  28.821  29.029  1.00  0.00     0.009 A 
ATOM     74  C   UNL A   1      39.415  27.283  30.281  1.00  0.00     0.009 A 
ATOM     75  C   UNL A   1      40.493  28.135  27.852  1.00  0.00     0.001 A 
ATOM     76  C   UNL A   1      39.129  26.585  29.108  1.00  0.00     0.001 A 
ATOM     77  C   UNL A   1      39.659  27.018  27.893  1.00  0.00     0.000 A 
ENDBRANCH  58  72
BRANCH  59  78
ATOM     78  C   UNL A   1      41.465  33.513  38.703  1.00  0.00    -0.014 A 
ATOM     79  C   UNL A   1      42.287  34.653  38.669  1.00  0.00     0.009 A 
ATOM     80  C   UNL A   1      40.910  33.119  39.929  1.00  0.00     0.009 A 
ATOM     81  C   UNL A   1      42.568  35.361  39.839  1.00  0.00     0.001 A 
ATOM     82  C   UNL A   1      41.165  33.849  41.093  1.00  0.00     0.001 A 
ATOM     83  C   UNL A   1      42.003  34.961  41.050  1.00  0.00     0.000 A 
ENDBRANCH  59  78
BRANCH  71  84
ATOM     84  C   UNL A   1      45.003  28.345  35.685  1.00  0.00    -0.014 A 
ATOM     85  C   UNL A   1      44.931  27.169  36.449  1.00  0.00     0.009 A 
ATOM     86  C   UNL A   1      46.261  28.806  35.264  1.00  0.00     0.009 A 
ATOM     87  C   UNL A   1      46.096  26.487  36.808  1.00  0.00     0.001 A 
ATOM     88  C   UNL A   1      47.421  28.108  35.603  1.00  0.00     0.001 A 
ATOM     89  C   UNL A   1      47.339  26.955  36.382  1.00  0.00     0.000 A 
ENDBRANCH  71  84
ENDBRANCH  45  46
ENDBRANCH  38  40
ENDBRANCH  37  38
ENDBRANCH  36  37
ENDBRANCH  35  36
ENDBRANCH  34  35
ENDBRANCH  33  34
ENDBRANCH   1  33
TORSDOF 22
ENDMDL
MODEL 3
REMARK VINA RESULT:     -10.3      1.797      2.782
REMARK SMILES O=C(C[C@H](NC(=O)[C@]12C[C@H]3C[C@H](C[C@H](C3)C1)C2)c1cccc([N+](=O)[O-])c1)OCCOCCOCCOC(=O)c1ccc(-c2c3nc(c(-c4ccccc4)c4ccc([nH]4)c(-c4ccccc4)c4nc(c(-c5ccccc5)c5ccc2[nH]5)C=C4)C=C3)cc1
REMARK SMILES IDX 31 1 30 2 29 3 28 4 27 5 2 6 1 7 3 8 4 9 18 10 19 11 26 12
REMARK SMILES IDX 20 13 22 14 21 15 23 16 24 17 25 18 5 19 6 20 7 22 8 23 9 24
REMARK SMILES IDX 16 25 17 26 10 27 14 28 12 29 11 30 15 31 13 32 32 33 33 34
REMARK SMILES IDX 34 35 35 36 36 37 37 38 38 39 39 40 40 41 86 42 41 43 85 44
REMARK SMILES IDX 42 45 43 46 44 47 79 48 45 49 84 50 78 51 80 52 46 53 83 54
REMARK SMILES IDX 77 55 76 56 47 58 69 59 54 60 68 61 55 62 58 63 67 64 81 65
REMARK SMILES IDX 56 66 57 67 66 69 82 70 59 71 48 72 49 73 53 74 50 75 52 76
REMARK SMILES IDX 51 77 70 78 71 79 75 80 72 81 74 82 73 83 60 84 61 85 65 86
REMARK SMILES IDX 62 87 64 88 63 89
REMARK H PARENT 5 21 80 57 58 68
REMARK Flexibility Score: inf
ROOT
ATOM      1  C   UNL A   1      34.055  31.581  27.875  1.00  0.00     0.188 C 
ENDROOT
BRANCH   1   2
ATOM      2  O   UNL A   1      34.609  30.477  27.193  1.00  0.00    -0.376 OA
BRANCH   2   3
ATOM      3  C   UNL A   1      33.846  29.309  26.973  1.00  0.00     0.202 C 
BRANCH   3   4
ATOM      4  C   UNL A   1      32.316  29.354  27.169  1.00  0.00     0.261 C 
BRANCH   4   5
ATOM      5  O   UNL A   1      31.462  28.468  26.402  1.00  0.00    -0.463 OA
BRANCH   5   6
ATOM      6  C   UNL A   1      31.151  27.177  26.675  1.00  0.00     0.308 C 
ATOM      7  O   UNL A   1      31.765  26.563  27.538  1.00  0.00    -0.252 OA
BRANCH   6   8
ATOM      8  C   UNL A   1      30.154  26.521  25.766  1.00  0.00     0.152 C 
BRANCH   8   9
ATOM      9  C   UNL A   1      30.593  25.198  25.154  1.00  0.00     0.123 C 
BRANCH   9  10
ATOM     10  C   UNL A   1      31.557  25.437  23.979  1.00  0.00    -0.018 A 
ATOM     11  C   UNL A   1      31.663  24.462  22.955  1.00  0.00     0.006 A 
ATOM     12  C   UNL A   1      32.331  26.593  23.835  1.00  0.00     0.091 A 
ATOM     13  C   UNL A   1      32.390  24.683  21.783  1.00  0.00     0.007 A 
ATOM     14  C   UNL A   1      33.043  26.826  22.643  1.00  0.00     0.269 A 
ATOM     15  C   UNL A   1      33.065  25.882  21.611  1.00  0.00     0.085 A 
BRANCH  14  16
ATOM     16  N   UNL A   1      33.731  28.105  22.448  1.00  0.00     0.062 N 
ATOM     17  O   UNL A   1      34.575  28.171  21.542  1.00  0.00    -0.258 OA
ATOM     18  O   UNL A   1      33.410  29.047  23.184  1.00  0.00    -0.258 OA
ENDBRANCH  14  16
ENDBRANCH   9  10
BRANCH   9  19
ATOM     19  N   UNL A   1      30.948  24.148  26.114  1.00  0.00    -0.348 N 
ATOM     20  C   UNL A   1      32.014  23.438  26.552  1.00  0.00     0.226 C 
ATOM     21  H   UNL A   1      30.142  23.864  26.602  1.00  0.00     0.164 HD
ATOM     22  O   UNL A   1      31.782  22.821  27.603  1.00  0.00    -0.274 OA
BRANCH  20  23
ATOM     23  C   UNL A   1      33.405  23.308  25.889  1.00  0.00     0.050 C 
ATOM     24  C   UNL A   1      33.321  22.534  24.570  1.00  0.00     0.020 C 
ATOM     25  C   UNL A   1      34.303  22.465  26.861  1.00  0.00     0.020 C 
ATOM     26  C   UNL A   1      34.164  24.638  25.673  1.00  0.00     0.020 C 
ATOM     27  C   UNL A   1      34.701  22.273  23.979  1.00  0.00    -0.010 C 
ATOM     28  C   UNL A   1      35.696  22.191  26.269  1.00  0.00    -0.010 C 
ATOM     29  C   UNL A   1      35.555  24.382  25.042  1.00  0.00    -0.010 C 
ATOM     30  C   UNL A   1      35.397  23.613  23.719  1.00  0.00     0.007 C 
ATOM     31  C   UNL A   1      35.531  21.428  24.950  1.00  0.00     0.007 C 
ATOM     32  C   UNL A   1      36.403  23.528  26.000  1.00  0.00     0.007 C 
ENDBRANCH  20  23
ENDBRANCH   9  19
ENDBRANCH   8   9
ENDBRANCH   6   8
ENDBRANCH   5   6
ENDBRANCH   4   5
ENDBRANCH   3   4
ENDBRANCH   2   3
ENDBRANCH   1   2
BRANCH   1  33
ATOM     33  C   UNL A   1      35.082  32.707  28.072  1.00  0.00     0.188 C 
BRANCH  33  34
ATOM     34  O   UNL A   1      34.742  34.005  27.597  1.00  0.00    -0.376 OA
BRANCH  34  35
ATOM     35  C   UNL A   1      34.357  34.999  28.548  1.00  0.00     0.202 C 
BRANCH  35  36
ATOM     36  C   UNL A   1      34.004  34.573  29.988  1.00  0.00     0.261 C 
BRANCH  36  37
ATOM     37  O   UNL A   1      32.768  35.099  30.520  1.00  0.00    -0.460 OA
BRANCH  37  38
ATOM     38  C   UNL A   1      32.841  35.551  31.797  1.00  0.00     0.338 C 
ATOM     39  O   UNL A   1      32.047  36.287  32.360  1.00  0.00    -0.246 OA
BRANCH  38  40
ATOM     40  C   UNL A   1      33.965  34.938  32.537  1.00  0.00     0.060 A 
ATOM     41  C   UNL A   1      35.182  35.632  32.559  1.00  0.00     0.016 A 
ATOM     42  C   UNL A   1      33.898  33.629  33.022  1.00  0.00     0.016 A 
ATOM     43  C   UNL A   1      36.345  34.999  33.003  1.00  0.00     0.010 A 
ATOM     44  C   UNL A   1      35.072  32.989  33.454  1.00  0.00     0.010 A 
ATOM     45  C   UNL A   1      36.309  33.656  33.405  1.00  0.00    -0.014 A 
BRANCH  45  46
ATOM     46  C   UNL A   1      37.593  32.924  33.576  1.00  0.00     0.031 A 
ATOM     47  C   UNL A   1      38.355  33.082  34.861  1.00  0.00     0.074 A 
ATOM     48  C   UNL A   1      38.065  32.086  32.637  1.00  0.00     0.049 A 
ATOM     49  N   UNL A   1      39.437  32.465  35.264  1.00  0.00    -0.248 NA
ATOM     50  C   UNL A   1      37.834  34.078  35.810  1.00  0.00     0.031 C 
ATOM     51  C   UNL A   1      37.438  31.847  31.347  1.00  0.00     0.029 A 
ATOM     52  N   UNL A   1      39.162  31.257  32.636  1.00  0.00    -0.354 N 
ATOM     53  C   UNL A   1      39.736  33.006  36.505  1.00  0.00     0.074 A 
ATOM     54  C   UNL A   1      38.725  34.004  36.788  1.00  0.00     0.031 C 
ATOM     55  C   UNL A   1      38.113  30.878  30.704  1.00  0.00     0.029 A 
ATOM     56  C   UNL A   1      39.249  30.461  31.518  1.00  0.00     0.049 A 
ATOM     57  H   UNL A   1      39.822  31.236  33.366  1.00  0.00     0.167 HD
ATOM     58  C   UNL A   1      40.767  32.714  37.334  1.00  0.00     0.031 A 
ATOM     59  C   UNL A   1      40.138  29.503  31.189  1.00  0.00     0.031 A 
ATOM     60  C   UNL A   1      41.801  31.757  37.048  1.00  0.00     0.049 A 
ATOM     61  C   UNL A   1      41.291  29.217  32.114  1.00  0.00     0.074 A 
ATOM     62  C   UNL A   1      42.893  31.410  37.826  1.00  0.00     0.029 A 
ATOM     63  N   UNL A   1      41.884  31.007  35.887  1.00  0.00    -0.354 N 
ATOM     64  N   UNL A   1      41.541  29.711  33.302  1.00  0.00    -0.248 NA
ATOM     65  C   UNL A   1      42.295  28.251  31.641  1.00  0.00     0.031 C 
ATOM     66  C   UNL A   1      43.664  30.486  37.111  1.00  0.00     0.029 A 
ATOM     67  C   UNL A   1      43.022  30.218  35.913  1.00  0.00     0.049 A 
ATOM     68  H   UNL A   1      41.231  31.031  35.150  1.00  0.00     0.167 HD
ATOM     69  C   UNL A   1      42.722  29.111  33.721  1.00  0.00     0.074 A 
ATOM     70  C   UNL A   1      43.123  28.194  32.674  1.00  0.00     0.031 C 
ATOM     71  C   UNL A   1      43.416  29.311  34.867  1.00  0.00     0.031 A 
BRANCH  58  72
ATOM     72  C   UNL A   1      40.848  33.501  38.609  1.00  0.00    -0.014 A 
ATOM     73  C   UNL A   1      41.473  34.757  38.652  1.00  0.00     0.009 A 
ATOM     74  C   UNL A   1      40.300  32.970  39.786  1.00  0.00     0.009 A 
ATOM     75  C   UNL A   1      41.581  35.448  39.861  1.00  0.00     0.001 A 
ATOM     76  C   UNL A   1      40.388  33.674  40.987  1.00  0.00     0.001 A 
ATOM     77  C   UNL A   1      41.037  34.907  41.026  1.00  0.00     0.000 A 
ENDBRANCH  58  72
BRANCH  59  78
ATOM     78  C   UNL A   1      39.994  28.733  29.922  1.00  0.00    -0.014 A 
ATOM     79  C   UNL A   1      39.429  27.447  29.934  1.00  0.00     0.009 A 
ATOM     80  C   UNL A   1      40.455  29.256  28.705  1.00  0.00     0.009 A 
ATOM     81  C   UNL A   1      39.356  26.691  28.761  1.00  0.00     0.001 A 
ATOM     82  C   UNL A   1      40.350  28.512  27.526  1.00  0.00     0.001 A 
ATOM     83  C   UNL A   1      39.813  27.226  27.557  1.00  0.00     0.000 A 
ENDBRANCH  59  78
BRANCH  71  84
ATOM     84  C   UNL A   1      44.672  28.508  35.060  1.00  0.00    -0.014 A 
ATOM     85  C   UNL A   1      45.920  28.994  34.639  1.00  0.00     0.009 A 
ATOM     86  C   UNL A   1      44.610  27.262  35.703  1.00  0.00     0.009 A 
ATOM     87  C   UNL A   1      47.076  28.233  34.829  1.00  0.00     0.001 A 
ATOM     88  C   UNL A   1      45.770  26.515  35.916  1.00  0.00     0.001 A 
ATOM     89  C   UNL A   1      47.000  26.997  35.472  1.00  0.00     0.000 A 
ENDBRANCH  71  84
ENDBRANCH  45  46
ENDBRANCH  38  40
ENDBRANCH  37  38
ENDBRANCH  36  37
ENDBRANCH  35  36
ENDBRANCH  34  35
ENDBRANCH  33  34
ENDBRANCH   1  33
TORSDOF 22
ENDMDL
