MODEL 1
REMARK VINA RESULT:      -9.3      0.000      0.000
REMARK SMILES O=C(NCC(=O)OCCOCCOCCOC(=O)c1ccc(-c2c3nc(c(-c4ccccc4)c4ccc([nH]4)c(-c4ccccc4)c4nc(c(-c5ccccc5)c5ccc2[nH]5)C=C4)C=C3)cc1)NCc1ccc(Cl)cc1
REMARK SMILES IDX 11 1 10 2 9 3 8 4 7 5 5 6 6 7 4 8 3 9 1 10 2 11 67 12 68 15
REMARK SMILES IDX 69 16 70 17 75 18 71 19 74 20 72 21 73 22 12 23 13 24 14 25
REMARK SMILES IDX 15 26 16 27 17 28 18 29 19 30 20 31 66 32 21 33 65 34 22 35
REMARK SMILES IDX 23 36 24 37 59 38 25 39 64 40 58 41 60 42 26 43 63 44 57 45
REMARK SMILES IDX 56 46 27 48 49 49 34 50 48 51 35 52 38 53 47 54 61 55 36 56
REMARK SMILES IDX 37 57 46 59 62 60 39 61 28 62 29 63 33 64 30 65 32 66 31 67
REMARK SMILES IDX 50 68 51 69 55 70 52 71 54 72 53 73 40 74 41 75 45 76 42 77
REMARK SMILES IDX 44 78 43 79
REMARK H PARENT 3 13 67 14 60 47 38 58
REMARK Flexibility Score: inf
ROOT
ATOM      1  C   UNL A   1      34.223  31.936  28.749  1.00  0.00     0.188 C 
ENDROOT
BRANCH   1   2
ATOM      2  O   UNL A   1      33.541  30.934  28.004  1.00  0.00    -0.376 OA
BRANCH   2   3
ATOM      3  C   UNL A   1      34.091  30.512  26.759  1.00  0.00     0.202 C 
BRANCH   3   4
ATOM      4  C   UNL A   1      33.359  29.411  25.968  1.00  0.00     0.261 C 
BRANCH   4   5
ATOM      5  O   UNL A   1      32.176  29.846  25.255  1.00  0.00    -0.462 OA
BRANCH   5   6
ATOM      6  C   UNL A   1      31.962  29.283  24.035  1.00  0.00     0.325 C 
ATOM      7  O   UNL A   1      30.852  29.119  23.537  1.00  0.00    -0.250 OA
BRANCH   6   8
ATOM      8  C   UNL A   1      33.240  29.038  23.212  1.00  0.00     0.240 C 
BRANCH   8   9
ATOM      9  N   UNL A   1      33.324  27.988  22.207  1.00  0.00    -0.327 N 
ATOM     10  O   UNL A   1      33.501  25.964  21.320  1.00  0.00    -0.249 OA
ATOM     11  C   UNL A   1      33.546  26.664  22.327  1.00  0.00     0.315 C 
ATOM     12  N   UNL A   1      33.774  26.188  23.569  1.00  0.00    -0.334 N 
ATOM     13  H   UNL A   1      33.195  28.299  21.281  1.00  0.00     0.166 HD
ATOM     14  H   UNL A   1      33.778  26.817  24.327  1.00  0.00     0.165 HD
BRANCH  12  15
ATOM     15  C   UNL A   1      34.012  24.787  23.819  1.00  0.00     0.153 C 
BRANCH  15  16
ATOM     16  C   UNL A   1      32.907  24.232  24.679  1.00  0.00    -0.029 A 
ATOM     17  C   UNL A   1      32.876  24.525  26.053  1.00  0.00     0.007 A 
ATOM     18  C   UNL A   1      31.897  23.439  24.125  1.00  0.00     0.007 A 
ATOM     19  C   UNL A   1      31.841  24.044  26.855  1.00  0.00     0.021 A 
ATOM     20  C   UNL A   1      30.865  22.952  24.929  1.00  0.00     0.021 A 
ATOM     21  C   UNL A   1      30.840  23.258  26.289  1.00  0.00     0.041 A 
ATOM     22  Cl  UNL A   1      29.562  22.663  27.275  1.00  0.00    -0.084 Cl
ENDBRANCH  15  16
ENDBRANCH  12  15
ENDBRANCH   8   9
ENDBRANCH   6   8
ENDBRANCH   5   6
ENDBRANCH   4   5
ENDBRANCH   3   4
ENDBRANCH   2   3
ENDBRANCH   1   2
BRANCH   1  23
ATOM     23  C   UNL A   1      35.158  32.909  28.010  1.00  0.00     0.188 C 
BRANCH  23  24
ATOM     24  O   UNL A   1      34.631  34.204  27.847  1.00  0.00    -0.376 OA
BRANCH  24  25
ATOM     25  C   UNL A   1      33.338  34.467  28.349  1.00  0.00     0.202 C 
BRANCH  25  26
ATOM     26  C   UNL A   1      33.202  35.510  29.470  1.00  0.00     0.261 C 
BRANCH  26  27
ATOM     27  O   UNL A   1      32.441  35.117  30.626  1.00  0.00    -0.460 OA
BRANCH  27  28
ATOM     28  C   UNL A   1      32.745  35.712  31.799  1.00  0.00     0.338 C 
ATOM     29  O   UNL A   1      32.097  36.573  32.381  1.00  0.00    -0.246 OA
BRANCH  28  30
ATOM     30  C   UNL A   1      33.888  34.984  32.391  1.00  0.00     0.060 A 
ATOM     31  C   UNL A   1      35.155  35.589  32.414  1.00  0.00     0.016 A 
ATOM     32  C   UNL A   1      33.708  33.709  32.927  1.00  0.00     0.016 A 
ATOM     33  C   UNL A   1      36.251  34.908  32.951  1.00  0.00     0.010 A 
ATOM     34  C   UNL A   1      34.810  33.018  33.439  1.00  0.00     0.010 A 
ATOM     35  C   UNL A   1      36.090  33.600  33.424  1.00  0.00    -0.014 A 
BRANCH  35  36
ATOM     36  C   UNL A   1      37.272  32.740  33.682  1.00  0.00     0.031 A 
ATOM     37  C   UNL A   1      38.029  32.959  34.964  1.00  0.00     0.074 A 
ATOM     38  C   UNL A   1      37.690  31.813  32.803  1.00  0.00     0.049 A 
ATOM     39  N   UNL A   1      39.171  32.455  35.354  1.00  0.00    -0.248 NA
ATOM     40  C   UNL A   1      37.412  33.881  35.934  1.00  0.00     0.031 C 
ATOM     41  C   UNL A   1      37.015  31.453  31.558  1.00  0.00     0.029 A 
ATOM     42  N   UNL A   1      38.809  31.017  32.824  1.00  0.00    -0.354 N 
ATOM     43  C   UNL A   1      39.421  33.018  36.598  1.00  0.00     0.074 A 
ATOM     44  C   UNL A   1      38.325  33.914  36.892  1.00  0.00     0.031 C 
ATOM     45  C   UNL A   1      37.747  30.521  30.922  1.00  0.00     0.029 A 
ATOM     46  C   UNL A   1      38.962  30.255  31.691  1.00  0.00     0.049 A 
ATOM     47  H   UNL A   1      39.441  30.993  33.579  1.00  0.00     0.167 HD
ATOM     48  C   UNL A   1      40.472  32.811  37.425  1.00  0.00     0.031 A 
ATOM     49  C   UNL A   1      39.985  29.465  31.305  1.00  0.00     0.031 A 
ATOM     50  C   UNL A   1      41.571  31.934  37.127  1.00  0.00     0.049 A 
ATOM     51  C   UNL A   1      41.193  29.323  32.198  1.00  0.00     0.074 A 
ATOM     52  C   UNL A   1      42.683  31.653  37.902  1.00  0.00     0.029 A 
ATOM     53  N   UNL A   1      41.699  31.202  35.958  1.00  0.00    -0.354 N 
ATOM     54  N   UNL A   1      41.420  29.854  33.375  1.00  0.00    -0.248 NA
ATOM     55  C   UNL A   1      42.286  28.468  31.707  1.00  0.00     0.031 C 
ATOM     56  C   UNL A   1      43.514  30.798  37.174  1.00  0.00     0.029 A 
ATOM     57  C   UNL A   1      42.884  30.487  35.980  1.00  0.00     0.049 A 
ATOM     58  H   UNL A   1      41.045  31.192  35.222  1.00  0.00     0.167 HD
ATOM     59  C   UNL A   1      42.657  29.362  33.784  1.00  0.00     0.074 A 
ATOM     60  C   UNL A   1      43.131  28.490  32.731  1.00  0.00     0.031 C 
ATOM     61  C   UNL A   1      43.333  29.605  34.933  1.00  0.00     0.031 A 
BRANCH  48  62
ATOM     62  C   UNL A   1      40.504  33.587  38.712  1.00  0.00    -0.014 A 
ATOM     63  C   UNL A   1      39.937  33.078  39.890  1.00  0.00     0.009 A 
ATOM     64  C   UNL A   1      41.137  34.841  38.749  1.00  0.00     0.009 A 
ATOM     65  C   UNL A   1      39.971  33.825  41.071  1.00  0.00     0.001 A 
ATOM     66  C   UNL A   1      41.198  35.569  39.938  1.00  0.00     0.001 A 
ATOM     67  C   UNL A   1      40.606  35.065  41.094  1.00  0.00     0.000 A 
ENDBRANCH  48  62
BRANCH  49  68
ATOM     68  C   UNL A   1      39.938  28.763  29.994  1.00  0.00    -0.014 A 
ATOM     69  C   UNL A   1      40.335  29.417  28.817  1.00  0.00     0.009 A 
ATOM     70  C   UNL A   1      39.462  27.445  29.906  1.00  0.00     0.009 A 
ATOM     71  C   UNL A   1      40.230  28.777  27.579  1.00  0.00     0.001 A 
ATOM     72  C   UNL A   1      39.388  26.796  28.671  1.00  0.00     0.001 A 
ATOM     73  C   UNL A   1      39.761  27.466  27.507  1.00  0.00     0.000 A 
ENDBRANCH  49  68
BRANCH  61  74
ATOM     74  C   UNL A   1      44.622  28.864  35.161  1.00  0.00    -0.014 A 
ATOM     75  C   UNL A   1      45.864  29.410  34.801  1.00  0.00     0.009 A 
ATOM     76  C   UNL A   1      44.592  27.625  35.824  1.00  0.00     0.009 A 
ATOM     77  C   UNL A   1      47.045  28.719  35.080  1.00  0.00     0.001 A 
ATOM     78  C   UNL A   1      45.775  26.952  36.128  1.00  0.00     0.001 A 
ATOM     79  C   UNL A   1      47.001  27.496  35.750  1.00  0.00     0.000 A 
ENDBRANCH  61  74
ENDBRANCH  35  36
ENDBRANCH  28  30
ENDBRANCH  27  28
ENDBRANCH  26  27
ENDBRANCH  25  26
ENDBRANCH  24  25
ENDBRANCH  23  24
ENDBRANCH   1  23
TORSDOF 20
ENDMDL
MODEL 2
REMARK VINA RESULT:      -9.2      2.095      2.935
REMARK SMILES O=C(NCC(=O)OCCOCCOCCOC(=O)c1ccc(-c2c3nc(c(-c4ccccc4)c4ccc([nH]4)c(-c4ccccc4)c4nc(c(-c5ccccc5)c5ccc2[nH]5)C=C4)C=C3)cc1)NCc1ccc(Cl)cc1
REMARK SMILES IDX 11 1 10 2 9 3 8 4 7 5 5 6 6 7 4 8 3 9 1 10 2 11 67 12 68 15
REMARK SMILES IDX 69 16 70 17 75 18 71 19 74 20 72 21 73 22 12 23 13 24 14 25
REMARK SMILES IDX 15 26 16 27 17 28 18 29 19 30 20 31 66 32 21 33 65 34 22 35
REMARK SMILES IDX 23 36 24 37 59 38 25 39 64 40 58 41 60 42 26 43 63 44 57 45
REMARK SMILES IDX 56 46 27 48 49 49 34 50 48 51 35 52 38 53 47 54 61 55 36 56
REMARK SMILES IDX 37 57 46 59 62 60 39 61 28 62 29 63 33 64 30 65 32 66 31 67
REMARK SMILES IDX 50 68 51 69 55 70 52 71 54 72 53 73 40 74 41 75 45 76 42 77
REMARK SMILES IDX 44 78 43 79
REMARK H PARENT 3 13 67 14 60 47 38 58
REMARK Flexibility Score: inf
ROOT
ATOM      1  C   UNL A   1      34.117  31.889  28.286  1.00  0.00     0.188 C 
ENDROOT
BRANCH   1   2
ATOM      2  O   UNL A   1      33.937  31.012  27.179  1.00  0.00    -0.376 OA
BRANCH   2   3
ATOM      3  C   UNL A   1      33.001  29.944  27.298  1.00  0.00     0.202 C 
BRANCH   3   4
ATOM      4  C   UNL A   1      32.988  28.854  26.208  1.00  0.00     0.261 C 
BRANCH   4   5
ATOM      5  O   UNL A   1      34.071  27.896  26.281  1.00  0.00    -0.462 OA
BRANCH   5   6
ATOM      6  C   UNL A   1      33.781  26.623  25.900  1.00  0.00     0.325 C 
ATOM      7  O   UNL A   1      34.625  25.753  25.705  1.00  0.00    -0.250 OA
BRANCH   6   8
ATOM      8  C   UNL A   1      32.281  26.277  25.919  1.00  0.00     0.240 C 
BRANCH   8   9
ATOM      9  N   UNL A   1      31.683  25.374  24.946  1.00  0.00    -0.327 N 
ATOM     10  O   UNL A   1      30.295  24.602  23.398  1.00  0.00    -0.249 OA
ATOM     11  C   UNL A   1      30.555  25.481  24.215  1.00  0.00     0.315 C 
ATOM     12  N   UNL A   1      29.795  26.578  24.414  1.00  0.00    -0.334 N 
ATOM     13  H   UNL A   1      32.190  24.543  24.795  1.00  0.00     0.166 HD
ATOM     14  H   UNL A   1      30.083  27.244  25.079  1.00  0.00     0.165 HD
BRANCH  12  15
ATOM     15  C   UNL A   1      28.573  26.803  23.679  1.00  0.00     0.153 C 
BRANCH  15  16
ATOM     16  C   UNL A   1      28.567  28.204  23.126  1.00  0.00    -0.029 A 
ATOM     17  C   UNL A   1      27.425  29.010  23.271  1.00  0.00     0.007 A 
ATOM     18  C   UNL A   1      29.695  28.724  22.481  1.00  0.00     0.007 A 
ATOM     19  C   UNL A   1      27.418  30.319  22.791  1.00  0.00     0.021 A 
ATOM     20  C   UNL A   1      29.685  30.032  21.995  1.00  0.00     0.021 A 
ATOM     21  C   UNL A   1      28.549  30.825  22.155  1.00  0.00     0.041 A 
ATOM     22  Cl  UNL A   1      28.545  32.440  21.562  1.00  0.00    -0.084 Cl
ENDBRANCH  15  16
ENDBRANCH  12  15
ENDBRANCH   8   9
ENDBRANCH   6   8
ENDBRANCH   5   6
ENDBRANCH   4   5
ENDBRANCH   3   4
ENDBRANCH   2   3
ENDBRANCH   1   2
BRANCH   1  23
ATOM     23  C   UNL A   1      35.227  32.952  28.222  1.00  0.00     0.188 C 
BRANCH  23  24
ATOM     24  O   UNL A   1      34.765  34.254  27.951  1.00  0.00    -0.376 OA
BRANCH  24  25
ATOM     25  C   UNL A   1      33.409  34.549  28.216  1.00  0.00     0.202 C 
BRANCH  25  26
ATOM     26  C   UNL A   1      33.099  35.541  29.349  1.00  0.00     0.261 C 
BRANCH  26  27
ATOM     27  O   UNL A   1      32.570  34.985  30.566  1.00  0.00    -0.460 OA
BRANCH  27  28
ATOM     28  C   UNL A   1      32.883  35.611  31.720  1.00  0.00     0.338 C 
ATOM     29  O   UNL A   1      32.236  36.483  32.287  1.00  0.00    -0.246 OA
BRANCH  28  30
ATOM     30  C   UNL A   1      34.036  34.904  32.318  1.00  0.00     0.060 A 
ATOM     31  C   UNL A   1      35.318  35.469  32.223  1.00  0.00     0.016 A 
ATOM     32  C   UNL A   1      33.851  33.688  32.976  1.00  0.00     0.016 A 
ATOM     33  C   UNL A   1      36.422  34.806  32.765  1.00  0.00     0.010 A 
ATOM     34  C   UNL A   1      34.959  33.012  33.493  1.00  0.00     0.010 A 
ATOM     35  C   UNL A   1      36.252  33.551  33.362  1.00  0.00    -0.014 A 
BRANCH  35  36
ATOM     36  C   UNL A   1      37.422  32.681  33.639  1.00  0.00     0.031 A 
ATOM     37  C   UNL A   1      38.179  32.913  34.919  1.00  0.00     0.074 A 
ATOM     38  C   UNL A   1      37.831  31.734  32.777  1.00  0.00     0.049 A 
ATOM     39  N   UNL A   1      39.313  32.402  35.320  1.00  0.00    -0.248 NA
ATOM     40  C   UNL A   1      37.571  33.859  35.871  1.00  0.00     0.031 C 
ATOM     41  C   UNL A   1      37.156  31.360  31.537  1.00  0.00     0.029 A 
ATOM     42  N   UNL A   1      38.941  30.924  32.815  1.00  0.00    -0.354 N 
ATOM     43  C   UNL A   1      39.567  32.984  36.555  1.00  0.00     0.074 A 
ATOM     44  C   UNL A   1      38.482  33.899  36.830  1.00  0.00     0.031 C 
ATOM     45  C   UNL A   1      37.877  30.408  30.920  1.00  0.00     0.029 A 
ATOM     46  C   UNL A   1      39.088  30.141  31.696  1.00  0.00     0.049 A 
ATOM     47  H   UNL A   1      39.570  30.906  33.572  1.00  0.00     0.167 HD
ATOM     48  C   UNL A   1      40.614  32.779  37.389  1.00  0.00     0.031 A 
ATOM     49  C   UNL A   1      40.101  29.332  31.327  1.00  0.00     0.031 A 
ATOM     50  C   UNL A   1      41.703  31.884  37.109  1.00  0.00     0.049 A 
ATOM     51  C   UNL A   1      41.305  29.192  32.226  1.00  0.00     0.074 A 
ATOM     52  C   UNL A   1      42.809  31.603  37.892  1.00  0.00     0.029 A 
ATOM     53  N   UNL A   1      41.825  31.130  35.953  1.00  0.00    -0.354 N 
ATOM     54  N   UNL A   1      41.536  29.740  33.393  1.00  0.00    -0.248 NA
ATOM     55  C   UNL A   1      42.390  28.315  31.753  1.00  0.00     0.031 C 
ATOM     56  C   UNL A   1      43.632  30.726  37.181  1.00  0.00     0.029 A 
ATOM     57  C   UNL A   1      43.001  30.401  35.991  1.00  0.00     0.049 A 
ATOM     58  H   UNL A   1      41.173  31.114  35.216  1.00  0.00     0.167 HD
ATOM     59  C   UNL A   1      42.766  29.241  33.814  1.00  0.00     0.074 A 
ATOM     60  C   UNL A   1      43.231  28.345  32.778  1.00  0.00     0.031 C 
ATOM     61  C   UNL A   1      43.442  29.496  34.961  1.00  0.00     0.031 A 
BRANCH  48  62
ATOM     62  C   UNL A   1      40.652  33.577  38.662  1.00  0.00    -0.014 A 
ATOM     63  C   UNL A   1      40.077  33.096  39.847  1.00  0.00     0.009 A 
ATOM     64  C   UNL A   1      41.299  34.824  38.678  1.00  0.00     0.009 A 
ATOM     65  C   UNL A   1      40.117  33.862  41.015  1.00  0.00     0.001 A 
ATOM     66  C   UNL A   1      41.366  35.572  39.854  1.00  0.00     0.001 A 
ATOM     67  C   UNL A   1      40.766  35.096  41.018  1.00  0.00     0.000 A 
ENDBRANCH  48  62
BRANCH  49  68
ATOM     68  C   UNL A   1      40.049  28.607  30.028  1.00  0.00    -0.014 A 
ATOM     69  C   UNL A   1      40.512  29.215  28.850  1.00  0.00     0.009 A 
ATOM     70  C   UNL A   1      39.504  27.316  29.952  1.00  0.00     0.009 A 
ATOM     71  C   UNL A   1      40.402  28.557  27.622  1.00  0.00     0.001 A 
ATOM     72  C   UNL A   1      39.425  26.648  28.727  1.00  0.00     0.001 A 
ATOM     73  C   UNL A   1      39.864  27.273  27.562  1.00  0.00     0.000 A 
ENDBRANCH  49  68
BRANCH  61  74
ATOM     74  C   UNL A   1      44.722  28.743  35.205  1.00  0.00    -0.014 A 
ATOM     75  C   UNL A   1      45.971  29.268  34.840  1.00  0.00     0.009 A 
ATOM     76  C   UNL A   1      44.675  27.517  35.889  1.00  0.00     0.009 A 
ATOM     77  C   UNL A   1      47.143  28.567  35.134  1.00  0.00     0.001 A 
ATOM     78  C   UNL A   1      45.849  26.835  36.209  1.00  0.00     0.001 A 
ATOM     79  C   UNL A   1      47.082  27.357  35.824  1.00  0.00     0.000 A 
ENDBRANCH  61  74
ENDBRANCH  35  36
ENDBRANCH  28  30
ENDBRANCH  27  28
ENDBRANCH  26  27
ENDBRANCH  25  26
ENDBRANCH  24  25
ENDBRANCH  23  24
ENDBRANCH   1  23
TORSDOF 20
ENDMDL
MODEL 3
REMARK VINA RESULT:      -9.2      5.024      7.364
REMARK SMILES O=C(NCC(=O)OCCOCCOCCOC(=O)c1ccc(-c2c3nc(c(-c4ccccc4)c4ccc([nH]4)c(-c4ccccc4)c4nc(c(-c5ccccc5)c5ccc2[nH]5)C=C4)C=C3)cc1)NCc1ccc(Cl)cc1
REMARK SMILES IDX 11 1 10 2 9 3 8 4 7 5 5 6 6 7 4 8 3 9 1 10 2 11 67 12 68 15
REMARK SMILES IDX 69 16 70 17 75 18 71 19 74 20 72 21 73 22 12 23 13 24 14 25
REMARK SMILES IDX 15 26 16 27 17 28 18 29 19 30 20 31 66 32 21 33 65 34 22 35
REMARK SMILES IDX 23 36 24 37 59 38 25 39 64 40 58 41 60 42 26 43 63 44 57 45
REMARK SMILES IDX 56 46 27 48 49 49 34 50 48 51 35 52 38 53 47 54 61 55 36 56
REMARK SMILES IDX 37 57 46 59 62 60 39 61 28 62 29 63 33 64 30 65 32 66 31 67
REMARK SMILES IDX 50 68 51 69 55 70 52 71 54 72 53 73 40 74 41 75 45 76 42 77
REMARK SMILES IDX 44 78 43 79
REMARK H PARENT 3 13 67 14 60 47 38 58
REMARK Flexibility Score: inf
ROOT
ATOM      1  C   UNL A   1      32.764  31.025  26.886  1.00  0.00     0.188 C 
ENDROOT
BRANCH   1   2
ATOM      2  O   UNL A   1      33.413  30.053  26.074  1.00  0.00    -0.376 OA
BRANCH   2   3
ATOM      3  C   UNL A   1      32.805  28.773  25.921  1.00  0.00     0.202 C 
BRANCH   3   4
ATOM      4  C   UNL A   1      33.488  27.741  25.002  1.00  0.00     0.261 C 
BRANCH   4   5
ATOM      5  O   UNL A   1      33.870  26.501  25.644  1.00  0.00    -0.462 OA
BRANCH   5   6
ATOM      6  C   UNL A   1      34.320  25.510  24.828  1.00  0.00     0.325 C 
ATOM      7  O   UNL A   1      35.136  24.657  25.166  1.00  0.00    -0.250 OA
BRANCH   6   8
ATOM      8  C   UNL A   1      33.579  25.404  23.483  1.00  0.00     0.240 C 
BRANCH   8   9
ATOM      9  N   UNL A   1      32.416  24.546  23.307  1.00  0.00    -0.327 N 
ATOM     10  O   UNL A   1      30.295  23.923  23.132  1.00  0.00    -0.249 OA
ATOM     11  C   UNL A   1      31.097  24.813  23.397  1.00  0.00     0.315 C 
ATOM     12  N   UNL A   1      30.746  26.068  23.745  1.00  0.00    -0.334 N 
ATOM     13  H   UNL A   1      32.629  23.611  23.084  1.00  0.00     0.166 HD
ATOM     14  H   UNL A   1      31.453  26.729  23.926  1.00  0.00     0.165 HD
BRANCH  12  15
ATOM     15  C   UNL A   1      29.364  26.471  23.860  1.00  0.00     0.153 C 
BRANCH  15  16
ATOM     16  C   UNL A   1      29.172  27.811  23.202  1.00  0.00    -0.029 A 
ATOM     17  C   UNL A   1      30.274  28.485  22.650  1.00  0.00     0.007 A 
ATOM     18  C   UNL A   1      27.901  28.392  23.117  1.00  0.00     0.007 A 
ATOM     19  C   UNL A   1      30.104  29.713  22.010  1.00  0.00     0.021 A 
ATOM     20  C   UNL A   1      27.733  29.623  22.482  1.00  0.00     0.021 A 
ATOM     21  C   UNL A   1      28.834  30.277  21.929  1.00  0.00     0.041 A 
ATOM     22  Cl  UNL A   1      28.619  31.790  21.140  1.00  0.00    -0.084 Cl
ENDBRANCH  15  16
ENDBRANCH  12  15
ENDBRANCH   8   9
ENDBRANCH   6   8
ENDBRANCH   5   6
ENDBRANCH   4   5
ENDBRANCH   3   4
ENDBRANCH   2   3
ENDBRANCH   1   2
BRANCH   1  23
ATOM     23  C   UNL A   1      33.573  31.744  27.980  1.00  0.00     0.188 C 
BRANCH  23  24
ATOM     24  O   UNL A   1      34.524  32.658  27.487  1.00  0.00    -0.376 OA
BRANCH  24  25
ATOM     25  C   UNL A   1      34.536  33.964  28.026  1.00  0.00     0.202 C 
BRANCH  25  26
ATOM     26  C   UNL A   1      34.685  34.111  29.548  1.00  0.00     0.261 C 
BRANCH  26  27
ATOM     27  O   UNL A   1      35.867  33.543  30.139  1.00  0.00    -0.460 OA
BRANCH  27  28
ATOM     28  C   UNL A   1      35.723  32.395  30.833  1.00  0.00     0.338 C 
ATOM     29  O   UNL A   1      34.760  32.058  31.511  1.00  0.00    -0.246 OA
BRANCH  28  30
ATOM     30  C   UNL A   1      36.835  31.497  30.455  1.00  0.00     0.060 A 
ATOM     31  C   UNL A   1      37.556  30.831  31.459  1.00  0.00     0.016 A 
ATOM     32  C   UNL A   1      37.161  31.308  29.112  1.00  0.00     0.016 A 
ATOM     33  C   UNL A   1      38.623  29.993  31.123  1.00  0.00     0.010 A 
ATOM     34  C   UNL A   1      38.245  30.492  28.778  1.00  0.00     0.010 A 
ATOM     35  C   UNL A   1      39.000  29.858  29.781  1.00  0.00    -0.014 A 
BRANCH  35  36
ATOM     36  C   UNL A   1      40.310  29.260  29.422  1.00  0.00     0.031 A 
ATOM     37  C   UNL A   1      41.509  30.170  29.390  1.00  0.00     0.074 A 
ATOM     38  C   UNL A   1      40.442  27.962  29.102  1.00  0.00     0.049 A 
ATOM     39  N   UNL A   1      42.722  29.934  28.963  1.00  0.00    -0.248 NA
ATOM     40  C   UNL A   1      41.303  31.535  29.904  1.00  0.00     0.031 C 
ATOM     41  C   UNL A   1      39.381  26.958  29.155  1.00  0.00     0.029 A 
ATOM     42  N   UNL A   1      41.538  27.271  28.644  1.00  0.00    -0.354 N 
ATOM     43  C   UNL A   1      43.414  31.126  29.132  1.00  0.00     0.074 A 
ATOM     44  C   UNL A   1      42.485  32.088  29.681  1.00  0.00     0.031 C 
ATOM     45  C   UNL A   1      39.873  25.783  28.725  1.00  0.00     0.029 A 
ATOM     46  C   UNL A   1      41.267  25.963  28.321  1.00  0.00     0.049 A 
ATOM     47  H   UNL A   1      42.432  27.674  28.557  1.00  0.00     0.167 HD
ATOM     48  C   UNL A   1      44.710  31.400  28.852  1.00  0.00     0.031 A 
ATOM     49  C   UNL A   1      42.046  25.033  27.732  1.00  0.00     0.031 A 
ATOM     50  C   UNL A   1      45.631  30.451  28.288  1.00  0.00     0.049 A 
ATOM     51  C   UNL A   1      43.459  25.388  27.338  1.00  0.00     0.074 A 
ATOM     52  C   UNL A   1      46.965  30.630  27.972  1.00  0.00     0.029 A 
ATOM     53  N   UNL A   1      45.308  29.146  27.953  1.00  0.00    -0.354 N 
ATOM     54  N   UNL A   1      44.108  26.514  27.505  1.00  0.00    -0.248 NA
ATOM     55  C   UNL A   1      44.248  24.337  26.674  1.00  0.00     0.031 C 
ATOM     56  C   UNL A   1      47.434  29.451  27.386  1.00  0.00     0.029 A 
ATOM     57  C   UNL A   1      46.413  28.515  27.409  1.00  0.00     0.049 A 
ATOM     58  H   UNL A   1      44.425  28.730  28.082  1.00  0.00     0.167 HD
ATOM     59  C   UNL A   1      45.391  26.294  27.012  1.00  0.00     0.074 A 
ATOM     60  C   UNL A   1      45.429  24.926  26.540  1.00  0.00     0.031 C 
ATOM     61  C   UNL A   1      46.444  27.146  26.963  1.00  0.00     0.031 A 
BRANCH  48  62
ATOM     62  C   UNL A   1      45.192  32.801  29.106  1.00  0.00    -0.014 A 
ATOM     63  C   UNL A   1      45.784  33.163  30.326  1.00  0.00     0.009 A 
ATOM     64  C   UNL A   1      45.073  33.769  28.095  1.00  0.00     0.009 A 
ATOM     65  C   UNL A   1      46.214  34.474  30.541  1.00  0.00     0.001 A 
ATOM     66  C   UNL A   1      45.534  35.069  28.302  1.00  0.00     0.001 A 
ATOM     67  C   UNL A   1      46.094  35.423  29.528  1.00  0.00     0.000 A 
ENDBRANCH  48  62
BRANCH  49  68
ATOM     68  C   UNL A   1      41.507  23.676  27.443  1.00  0.00    -0.014 A 
ATOM     69  C   UNL A   1      40.599  23.476  26.390  1.00  0.00     0.009 A 
ATOM     70  C   UNL A   1      41.870  22.579  28.239  1.00  0.00     0.009 A 
ATOM     71  C   UNL A   1      40.046  22.213  26.162  1.00  0.00     0.001 A 
ATOM     72  C   UNL A   1      41.340  21.311  27.987  1.00  0.00     0.001 A 
ATOM     73  C   UNL A   1      40.420  21.131  26.956  1.00  0.00     0.000 A 
ENDBRANCH  49  68
BRANCH  61  74
ATOM     74  C   UNL A   1      47.756  26.614  26.455  1.00  0.00    -0.014 A 
ATOM     75  C   UNL A   1      48.151  26.771  25.118  1.00  0.00     0.009 A 
ATOM     76  C   UNL A   1      48.648  26.014  27.360  1.00  0.00     0.009 A 
ATOM     77  C   UNL A   1      49.402  26.315  24.694  1.00  0.00     0.001 A 
ATOM     78  C   UNL A   1      49.908  25.588  26.941  1.00  0.00     0.001 A 
ATOM     79  C   UNL A   1      50.281  25.733  25.606  1.00  0.00     0.000 A 
ENDBRANCH  61  74
ENDBRANCH  35  36
ENDBRANCH  28  30
ENDBRANCH  27  28
ENDBRANCH  26  27
ENDBRANCH  25  26
ENDBRANCH  24  25
ENDBRANCH  23  24
ENDBRANCH   1  23
TORSDOF 20
ENDMDL
