MODEL 1
REMARK VINA RESULT:     -10.1      0.000      0.000
REMARK SMILES C[C@H]1CCC[C@]1(C(=O)OCCOCCOCCOC(=O)c1ccc(-c2c3nc(c(-c4ccccc4)c4ccc([nH]4)c(-c4ccccc4)c4nc(c(-c5ccccc5)c5ccc2[nH]5)C=C4)C=C3)cc1)c1ccc2c(c1)OCO2
REMARK SMILES IDX 14 1 13 2 12 3 11 4 10 5 9 6 7 7 8 8 6 9 1 10 2 11 3 12 4 13
REMARK SMILES IDX 5 14 69 15 70 16 74 17 71 18 73 19 72 20 75 21 77 22 76 23
REMARK SMILES IDX 15 24 16 25 17 26 18 27 19 28 20 29 21 30 22 31 68 32 23 33
REMARK SMILES IDX 67 34 24 35 25 36 26 37 61 38 27 39 66 40 60 41 62 42 28 43
REMARK SMILES IDX 65 44 59 45 58 46 29 48 51 49 36 50 50 51 37 52 40 53 49 54
REMARK SMILES IDX 63 55 38 56 39 57 48 59 64 60 41 61 30 62 31 63 35 64 32 65
REMARK SMILES IDX 34 66 33 67 52 68 53 69 57 70 54 71 56 72 55 73 42 74 43 75
REMARK SMILES IDX 47 76 44 77 46 78 45 79
REMARK H PARENT 62 47 40 58
REMARK Flexibility Score: inf
ROOT
ATOM      1  C   UNL A   1      34.945  33.492  28.052  1.00  0.00     0.188 C 
ENDROOT
BRANCH   1   2
ATOM      2  C   UNL A   1      34.372  32.129  28.409  1.00  0.00     0.188 C 
BRANCH   2   3
ATOM      3  O   UNL A   1      34.237  31.194  27.352  1.00  0.00    -0.376 OA
BRANCH   3   4
ATOM      4  C   UNL A   1      34.778  29.901  27.594  1.00  0.00     0.202 C 
BRANCH   4   5
ATOM      5  C   UNL A   1      34.464  28.804  26.564  1.00  0.00     0.261 C 
BRANCH   5   6
ATOM      6  O   UNL A   1      33.144  28.820  25.975  1.00  0.00    -0.463 OA
BRANCH   6   7
ATOM      7  C   UNL A   1      33.089  28.449  24.663  1.00  0.00     0.316 C 
ATOM      8  O   UNL A   1      33.729  29.019  23.781  1.00  0.00    -0.251 OA
BRANCH   7   9
ATOM      9  C   UNL A   1      32.076  27.314  24.348  1.00  0.00     0.096 C 
ATOM     10  C   UNL A   1      32.963  26.369  22.030  1.00  0.00     0.009 C 
ATOM     11  C   UNL A   1      32.491  26.106  23.452  1.00  0.00     0.008 C 
ATOM     12  C   UNL A   1      33.463  25.291  24.290  1.00  0.00     0.005 C 
ATOM     13  C   UNL A   1      32.909  25.404  25.705  1.00  0.00     0.002 C 
ATOM     14  C   UNL A   1      31.943  26.602  25.729  1.00  0.00     0.024 C 
BRANCH   9  15
ATOM     15  C   UNL A   1      30.739  27.860  23.768  1.00  0.00    -0.027 A 
ATOM     16  C   UNL A   1      29.550  27.077  23.763  1.00  0.00     0.009 A 
ATOM     17  C   UNL A   1      30.621  29.222  23.417  1.00  0.00     0.055 A 
ATOM     18  C   UNL A   1      28.291  27.634  23.497  1.00  0.00     0.051 A 
ATOM     19  C   UNL A   1      29.366  29.748  23.183  1.00  0.00     0.166 A 
ATOM     20  C   UNL A   1      28.232  28.981  23.239  1.00  0.00     0.165 A 
ATOM     21  O   UNL A   1      29.095  31.059  22.944  1.00  0.00    -0.454 OA
ATOM     22  O   UNL A   1      27.101  29.712  23.053  1.00  0.00    -0.454 OA
ATOM     23  C   UNL A   1      27.654  31.044  23.014  1.00  0.00     0.468 C 
ENDBRANCH   9  15
ENDBRANCH   7   9
ENDBRANCH   6   7
ENDBRANCH   5   6
ENDBRANCH   4   5
ENDBRANCH   3   4
ENDBRANCH   2   3
ENDBRANCH   1   2
BRANCH   1  24
ATOM     24  O   UNL A   1      34.616  34.539  28.947  1.00  0.00    -0.376 OA
BRANCH  24  25
ATOM     25  C   UNL A   1      33.254  34.973  28.973  1.00  0.00     0.202 C 
BRANCH  25  26
ATOM     26  C   UNL A   1      32.877  36.347  29.574  1.00  0.00     0.261 C 
BRANCH  26  27
ATOM     27  O   UNL A   1      33.245  36.585  30.947  1.00  0.00    -0.460 OA
BRANCH  27  28
ATOM     28  C   UNL A   1      32.778  35.726  31.891  1.00  0.00     0.338 C 
ATOM     29  O   UNL A   1      31.621  35.455  32.103  1.00  0.00    -0.246 OA
BRANCH  28  30
ATOM     30  C   UNL A   1      33.949  34.967  32.445  1.00  0.00     0.060 A 
ATOM     31  C   UNL A   1      35.218  35.565  32.376  1.00  0.00     0.016 A 
ATOM     32  C   UNL A   1      33.809  33.737  33.098  1.00  0.00     0.016 A 
ATOM     33  C   UNL A   1      36.346  34.915  32.896  1.00  0.00     0.010 A 
ATOM     34  C   UNL A   1      34.939  33.079  33.604  1.00  0.00     0.010 A 
ATOM     35  C   UNL A   1      36.222  33.642  33.468  1.00  0.00    -0.014 A 
BRANCH  35  36
ATOM     36  C   UNL A   1      37.428  32.794  33.683  1.00  0.00     0.031 A 
ATOM     37  C   UNL A   1      38.211  33.000  34.956  1.00  0.00     0.074 A 
ATOM     38  C   UNL A   1      37.834  31.855  32.809  1.00  0.00     0.049 A 
ATOM     39  N   UNL A   1      39.341  32.462  35.340  1.00  0.00    -0.248 NA
ATOM     40  C   UNL A   1      37.635  33.947  35.926  1.00  0.00     0.031 C 
ATOM     41  C   UNL A   1      37.151  31.486  31.573  1.00  0.00     0.029 A 
ATOM     42  N   UNL A   1      38.940  31.036  32.839  1.00  0.00    -0.354 N 
ATOM     43  C   UNL A   1      39.620  33.020  36.582  1.00  0.00     0.074 A 
ATOM     44  C   UNL A   1      38.554  33.952  36.878  1.00  0.00     0.031 C 
ATOM     45  C   UNL A   1      37.854  30.516  30.959  1.00  0.00     0.029 A 
ATOM     46  C   UNL A   1      39.063  30.228  31.734  1.00  0.00     0.049 A 
ATOM     47  H   UNL A   1      39.585  31.031  33.584  1.00  0.00     0.167 HD
ATOM     48  C   UNL A   1      40.666  32.784  37.408  1.00  0.00     0.031 A 
ATOM     49  C   UNL A   1      40.048  29.379  31.375  1.00  0.00     0.031 A 
ATOM     50  C   UNL A   1      41.739  31.871  37.124  1.00  0.00     0.049 A 
ATOM     51  C   UNL A   1      41.257  29.206  32.263  1.00  0.00     0.074 A 
ATOM     52  C   UNL A   1      42.844  31.574  37.904  1.00  0.00     0.029 A 
ATOM     53  N   UNL A   1      41.847  31.114  35.970  1.00  0.00    -0.354 N 
ATOM     54  N   UNL A   1      41.512  29.742  33.433  1.00  0.00    -0.248 NA
ATOM     55  C   UNL A   1      42.318  28.307  31.777  1.00  0.00     0.031 C 
ATOM     56  C   UNL A   1      43.651  30.681  37.195  1.00  0.00     0.029 A 
ATOM     57  C   UNL A   1      43.014  30.369  36.005  1.00  0.00     0.049 A 
ATOM     58  H   UNL A   1      41.192  31.107  35.235  1.00  0.00     0.167 HD
ATOM     59  C   UNL A   1      42.738  29.219  33.834  1.00  0.00     0.074 A 
ATOM     60  C   UNL A   1      43.173  28.316  32.791  1.00  0.00     0.031 C 
ATOM     61  C   UNL A   1      43.437  29.462  34.970  1.00  0.00     0.031 A 
BRANCH  48  62
ATOM     62  C   UNL A   1      40.724  33.574  38.686  1.00  0.00    -0.014 A 
ATOM     63  C   UNL A   1      40.201  33.068  39.887  1.00  0.00     0.009 A 
ATOM     64  C   UNL A   1      41.331  34.840  38.688  1.00  0.00     0.009 A 
ATOM     65  C   UNL A   1      40.253  33.832  41.055  1.00  0.00     0.001 A 
ATOM     66  C   UNL A   1      41.409  35.586  39.865  1.00  0.00     0.001 A 
ATOM     67  C   UNL A   1      40.861  35.087  41.043  1.00  0.00     0.000 A 
ENDBRANCH  48  62
BRANCH  49  68
ATOM     68  C   UNL A   1      39.971  28.639  30.083  1.00  0.00    -0.014 A 
ATOM     69  C   UNL A   1      40.417  29.229  28.889  1.00  0.00     0.009 A 
ATOM     70  C   UNL A   1      39.397  27.359  30.028  1.00  0.00     0.009 A 
ATOM     71  C   UNL A   1      40.266  28.565  27.669  1.00  0.00     0.001 A 
ATOM     72  C   UNL A   1      39.276  26.683  28.812  1.00  0.00     0.001 A 
ATOM     73  C   UNL A   1      39.701  27.291  27.632  1.00  0.00     0.000 A 
ENDBRANCH  49  68
BRANCH  61  74
ATOM     74  C   UNL A   1      44.720  28.704  35.184  1.00  0.00    -0.014 A 
ATOM     75  C   UNL A   1      45.959  29.221  34.777  1.00  0.00     0.009 A 
ATOM     76  C   UNL A   1      44.690  27.476  35.865  1.00  0.00     0.009 A 
ATOM     77  C   UNL A   1      47.137  28.508  35.021  1.00  0.00     0.001 A 
ATOM     78  C   UNL A   1      45.869  26.781  36.135  1.00  0.00     0.001 A 
ATOM     79  C   UNL A   1      47.092  27.294  35.705  1.00  0.00     0.000 A 
ENDBRANCH  61  74
ENDBRANCH  35  36
ENDBRANCH  28  30
ENDBRANCH  27  28
ENDBRANCH  26  27
ENDBRANCH  25  26
ENDBRANCH  24  25
ENDBRANCH   1  24
TORSDOF 18
ENDMDL
MODEL 2
REMARK VINA RESULT:     -10.1      5.697     10.083
REMARK SMILES C[C@H]1CCC[C@]1(C(=O)OCCOCCOCCOC(=O)c1ccc(-c2c3nc(c(-c4ccccc4)c4ccc([nH]4)c(-c4ccccc4)c4nc(c(-c5ccccc5)c5ccc2[nH]5)C=C4)C=C3)cc1)c1ccc2c(c1)OCO2
REMARK SMILES IDX 14 1 13 2 12 3 11 4 10 5 9 6 7 7 8 8 6 9 1 10 2 11 3 12 4 13
REMARK SMILES IDX 5 14 69 15 70 16 74 17 71 18 73 19 72 20 75 21 77 22 76 23
REMARK SMILES IDX 15 24 16 25 17 26 18 27 19 28 20 29 21 30 22 31 68 32 23 33
REMARK SMILES IDX 67 34 24 35 25 36 26 37 61 38 27 39 66 40 60 41 62 42 28 43
REMARK SMILES IDX 65 44 59 45 58 46 29 48 51 49 36 50 50 51 37 52 40 53 49 54
REMARK SMILES IDX 63 55 38 56 39 57 48 59 64 60 41 61 30 62 31 63 35 64 32 65
REMARK SMILES IDX 34 66 33 67 52 68 53 69 57 70 54 71 56 72 55 73 42 74 43 75
REMARK SMILES IDX 47 76 44 77 46 78 45 79
REMARK H PARENT 62 47 40 58
REMARK Flexibility Score: inf
ROOT
ATOM      1  C   UNL A   1      34.928  21.147  24.909  1.00  0.00     0.188 C 
ENDROOT
BRANCH   1   2
ATOM      2  C   UNL A   1      35.218  22.560  25.393  1.00  0.00     0.188 C 
BRANCH   2   3
ATOM      3  O   UNL A   1      35.221  23.584  24.414  1.00  0.00    -0.376 OA
BRANCH   3   4
ATOM      4  C   UNL A   1      34.185  23.518  23.441  1.00  0.00     0.202 C 
BRANCH   4   5
ATOM      5  C   UNL A   1      33.168  24.671  23.417  1.00  0.00     0.261 C 
BRANCH   5   6
ATOM      6  O   UNL A   1      33.586  25.922  24.009  1.00  0.00    -0.463 OA
BRANCH   6   7
ATOM      7  C   UNL A   1      32.952  26.256  25.169  1.00  0.00     0.316 C 
ATOM      8  O   UNL A   1      32.718  25.442  26.061  1.00  0.00    -0.251 OA
BRANCH   7   9
ATOM      9  C   UNL A   1      32.452  27.725  25.240  1.00  0.00     0.096 C 
ATOM     10  C   UNL A   1      31.116  27.776  27.535  1.00  0.00     0.009 C 
ATOM     11  C   UNL A   1      32.157  28.399  26.617  1.00  0.00     0.008 C 
ATOM     12  C   UNL A   1      33.515  28.609  27.267  1.00  0.00     0.005 C 
ATOM     13  C   UNL A   1      34.427  28.967  26.100  1.00  0.00     0.002 C 
ATOM     14  C   UNL A   1      33.720  28.523  24.807  1.00  0.00     0.024 C 
BRANCH   9  15
ATOM     15  C   UNL A   1      31.198  27.967  24.349  1.00  0.00    -0.027 A 
ATOM     16  C   UNL A   1      30.245  26.939  24.102  1.00  0.00     0.009 A 
ATOM     17  C   UNL A   1      30.866  29.273  23.931  1.00  0.00     0.055 A 
ATOM     18  C   UNL A   1      28.991  27.204  23.535  1.00  0.00     0.051 A 
ATOM     19  C   UNL A   1      29.616  29.509  23.397  1.00  0.00     0.166 A 
ATOM     20  C   UNL A   1      28.697  28.508  23.220  1.00  0.00     0.165 A 
ATOM     21  O   UNL A   1      29.124  30.730  23.053  1.00  0.00    -0.454 OA
ATOM     22  O   UNL A   1      27.507  28.971  22.753  1.00  0.00    -0.454 OA
ATOM     23  C   UNL A   1      27.746  30.393  22.793  1.00  0.00     0.468 C 
ENDBRANCH   9  15
ENDBRANCH   7   9
ENDBRANCH   6   7
ENDBRANCH   5   6
ENDBRANCH   4   5
ENDBRANCH   3   4
ENDBRANCH   2   3
ENDBRANCH   1   2
BRANCH   1  24
ATOM     24  O   UNL A   1      36.011  20.239  25.013  1.00  0.00    -0.376 OA
BRANCH  24  25
ATOM     25  C   UNL A   1      37.330  20.785  24.953  1.00  0.00     0.202 C 
BRANCH  25  26
ATOM     26  C   UNL A   1      38.566  19.885  25.184  1.00  0.00     0.261 C 
BRANCH  26  27
ATOM     27  O   UNL A   1      39.416  20.214  26.301  1.00  0.00    -0.460 OA
BRANCH  27  28
ATOM     28  C   UNL A   1      40.732  19.887  26.220  1.00  0.00     0.338 C 
ATOM     29  O   UNL A   1      41.192  18.886  25.726  1.00  0.00    -0.246 OA
BRANCH  28  30
ATOM     30  C   UNL A   1      41.533  21.098  26.601  1.00  0.00     0.060 A 
ATOM     31  C   UNL A   1      41.804  21.313  27.962  1.00  0.00     0.016 A 
ATOM     32  C   UNL A   1      42.086  21.964  25.650  1.00  0.00     0.016 A 
ATOM     33  C   UNL A   1      42.565  22.414  28.376  1.00  0.00     0.010 A 
ATOM     34  C   UNL A   1      42.835  23.076  26.065  1.00  0.00     0.010 A 
ATOM     35  C   UNL A   1      43.043  23.333  27.433  1.00  0.00    -0.014 A 
BRANCH  35  36
ATOM     36  C   UNL A   1      43.521  24.676  27.869  1.00  0.00     0.031 A 
ATOM     37  C   UNL A   1      42.481  25.705  28.236  1.00  0.00     0.074 A 
ATOM     38  C   UNL A   1      44.824  24.999  27.963  1.00  0.00     0.049 A 
ATOM     39  N   UNL A   1      42.627  26.966  28.554  1.00  0.00    -0.248 NA
ATOM     40  C   UNL A   1      41.082  25.242  28.239  1.00  0.00     0.031 C 
ATOM     41  C   UNL A   1      45.947  24.100  27.715  1.00  0.00     0.029 A 
ATOM     42  N   UNL A   1      45.417  26.195  28.296  1.00  0.00    -0.354 N 
ATOM     43  C   UNL A   1      41.343  27.449  28.774  1.00  0.00     0.074 A 
ATOM     44  C   UNL A   1      40.429  26.354  28.534  1.00  0.00     0.031 C 
ATOM     45  C   UNL A   1      47.096  24.777  27.900  1.00  0.00     0.029 A 
ATOM     46  C   UNL A   1      46.790  26.170  28.234  1.00  0.00     0.049 A 
ATOM     47  H   UNL A   1      44.906  26.997  28.554  1.00  0.00     0.167 HD
ATOM     48  C   UNL A   1      40.950  28.691  29.143  1.00  0.00     0.031 A 
ATOM     49  C   UNL A   1      47.693  27.159  28.397  1.00  0.00     0.031 A 
ATOM     50  C   UNL A   1      41.842  29.794  29.375  1.00  0.00     0.049 A 
ATOM     51  C   UNL A   1      47.228  28.562  28.709  1.00  0.00     0.074 A 
ATOM     52  C   UNL A   1      41.529  31.090  29.747  1.00  0.00     0.029 A 
ATOM     53  N   UNL A   1      43.220  29.733  29.250  1.00  0.00    -0.354 N 
ATOM     54  N   UNL A   1      46.011  29.008  28.910  1.00  0.00    -0.248 NA
ATOM     55  C   UNL A   1      48.267  29.601  28.815  1.00  0.00     0.031 C 
ATOM     56  C   UNL A   1      42.714  31.830  29.790  1.00  0.00     0.029 A 
ATOM     57  C   UNL A   1      43.770  30.977  29.512  1.00  0.00     0.049 A 
ATOM     58  H   UNL A   1      43.732  28.928  29.009  1.00  0.00     0.167 HD
ATOM     59  C   UNL A   1      46.144  30.363  29.202  1.00  0.00     0.074 A 
ATOM     60  C   UNL A   1      47.558  30.666  29.160  1.00  0.00     0.031 C 
ATOM     61  C   UNL A   1      45.178  31.272  29.482  1.00  0.00     0.031 A 
BRANCH  48  62
ATOM     62  C   UNL A   1      39.472  28.934  29.269  1.00  0.00    -0.014 A 
ATOM     63  C   UNL A   1      38.795  28.736  30.483  1.00  0.00     0.009 A 
ATOM     64  C   UNL A   1      38.750  29.390  28.155  1.00  0.00     0.009 A 
ATOM     65  C   UNL A   1      37.418  28.953  30.567  1.00  0.00     0.001 A 
ATOM     66  C   UNL A   1      37.379  29.637  28.250  1.00  0.00     0.001 A 
ATOM     67  C   UNL A   1      36.713  29.407  29.452  1.00  0.00     0.000 A 
ENDBRANCH  48  62
BRANCH  49  68
ATOM     68  C   UNL A   1      49.149  26.886  28.230  1.00  0.00    -0.014 A 
ATOM     69  C   UNL A   1      49.745  26.918  26.959  1.00  0.00     0.009 A 
ATOM     70  C   UNL A   1      49.939  26.535  29.336  1.00  0.00     0.009 A 
ATOM     71  C   UNL A   1      51.092  26.579  26.797  1.00  0.00     0.001 A 
ATOM     72  C   UNL A   1      51.292  26.227  29.176  1.00  0.00     0.001 A 
ATOM     73  C   UNL A   1      51.865  26.239  27.906  1.00  0.00     0.000 A 
ENDBRANCH  49  68
BRANCH  61  74
ATOM     74  C   UNL A   1      45.608  32.673  29.827  1.00  0.00    -0.014 A 
ATOM     75  C   UNL A   1      45.935  33.043  31.140  1.00  0.00     0.009 A 
ATOM     76  C   UNL A   1      45.750  33.623  28.801  1.00  0.00     0.009 A 
ATOM     77  C   UNL A   1      46.365  34.343  31.423  1.00  0.00     0.001 A 
ATOM     78  C   UNL A   1      46.209  34.911  29.080  1.00  0.00     0.001 A 
ATOM     79  C   UNL A   1      46.508  35.273  30.393  1.00  0.00     0.000 A 
ENDBRANCH  61  74
ENDBRANCH  35  36
ENDBRANCH  28  30
ENDBRANCH  27  28
ENDBRANCH  26  27
ENDBRANCH  25  26
ENDBRANCH  24  25
ENDBRANCH   1  24
TORSDOF 18
ENDMDL
MODEL 3
REMARK VINA RESULT:      -9.9      3.726      8.896
REMARK SMILES C[C@H]1CCC[C@]1(C(=O)OCCOCCOCCOC(=O)c1ccc(-c2c3nc(c(-c4ccccc4)c4ccc([nH]4)c(-c4ccccc4)c4nc(c(-c5ccccc5)c5ccc2[nH]5)C=C4)C=C3)cc1)c1ccc2c(c1)OCO2
REMARK SMILES IDX 14 1 13 2 12 3 11 4 10 5 9 6 7 7 8 8 6 9 1 10 2 11 3 12 4 13
REMARK SMILES IDX 5 14 69 15 70 16 74 17 71 18 73 19 72 20 75 21 77 22 76 23
REMARK SMILES IDX 15 24 16 25 17 26 18 27 19 28 20 29 21 30 22 31 68 32 23 33
REMARK SMILES IDX 67 34 24 35 25 36 26 37 61 38 27 39 66 40 60 41 62 42 28 43
REMARK SMILES IDX 65 44 59 45 58 46 29 48 51 49 36 50 50 51 37 52 40 53 49 54
REMARK SMILES IDX 63 55 38 56 39 57 48 59 64 60 41 61 30 62 31 63 35 64 32 65
REMARK SMILES IDX 34 66 33 67 52 68 53 69 57 70 54 71 56 72 55 73 42 74 43 75
REMARK SMILES IDX 47 76 44 77 46 78 45 79
REMARK H PARENT 62 47 40 58
REMARK Flexibility Score: inf
ROOT
ATOM      1  C   UNL A   1      40.632  21.325  26.553  1.00  0.00     0.188 C 
ENDROOT
BRANCH   1   2
ATOM      2  C   UNL A   1      39.220  21.687  26.120  1.00  0.00     0.188 C 
BRANCH   2   3
ATOM      3  O   UNL A   1      38.725  22.947  26.539  1.00  0.00    -0.376 OA
BRANCH   3   4
ATOM      4  C   UNL A   1      37.817  23.586  25.649  1.00  0.00     0.202 C 
BRANCH   4   5
ATOM      5  C   UNL A   1      36.548  22.808  25.261  1.00  0.00     0.261 C 
BRANCH   5   6
ATOM      6  O   UNL A   1      35.317  23.203  25.909  1.00  0.00    -0.463 OA
BRANCH   6   7
ATOM      7  C   UNL A   1      34.177  22.884  25.232  1.00  0.00     0.316 C 
ATOM      8  O   UNL A   1      34.116  21.956  24.427  1.00  0.00    -0.251 OA
BRANCH   7   9
ATOM      9  C   UNL A   1      32.983  23.848  25.476  1.00  0.00     0.096 C 
ATOM     10  C   UNL A   1      31.453  23.431  23.346  1.00  0.00     0.009 C 
ATOM     11  C   UNL A   1      31.582  23.549  24.856  1.00  0.00     0.008 C 
ATOM     12  C   UNL A   1      31.045  22.351  25.623  1.00  0.00     0.005 C 
ATOM     13  C   UNL A   1      31.532  22.581  27.048  1.00  0.00     0.002 C 
ATOM     14  C   UNL A   1      32.675  23.609  26.986  1.00  0.00     0.024 C 
BRANCH   9  15
ATOM     15  C   UNL A   1      33.327  25.320  25.109  1.00  0.00    -0.027 A 
ATOM     16  C   UNL A   1      33.681  25.699  23.783  1.00  0.00     0.009 A 
ATOM     17  C   UNL A   1      33.095  26.356  26.039  1.00  0.00     0.055 A 
ATOM     18  C   UNL A   1      33.731  27.040  23.378  1.00  0.00     0.051 A 
ATOM     19  C   UNL A   1      33.129  27.667  25.607  1.00  0.00     0.166 A 
ATOM     20  C   UNL A   1      33.420  27.999  24.310  1.00  0.00     0.165 A 
ATOM     21  O   UNL A   1      32.820  28.754  26.364  1.00  0.00    -0.454 OA
ATOM     22  O   UNL A   1      33.323  29.336  24.082  1.00  0.00    -0.454 OA
ATOM     23  C   UNL A   1      32.800  29.780  25.351  1.00  0.00     0.468 C 
ENDBRANCH   9  15
ENDBRANCH   7   9
ENDBRANCH   6   7
ENDBRANCH   5   6
ENDBRANCH   4   5
ENDBRANCH   3   4
ENDBRANCH   2   3
ENDBRANCH   1   2
BRANCH   1  24
ATOM     24  O   UNL A   1      41.208  20.223  25.873  1.00  0.00    -0.376 OA
BRANCH  24  25
ATOM     25  C   UNL A   1      42.633  20.187  25.776  1.00  0.00     0.202 C 
BRANCH  25  26
ATOM     26  C   UNL A   1      43.458  21.495  25.820  1.00  0.00     0.261 C 
BRANCH  26  27
ATOM     27  O   UNL A   1      42.953  22.614  25.064  1.00  0.00    -0.460 OA
BRANCH  27  28
ATOM     28  C   UNL A   1      43.691  23.754  25.041  1.00  0.00     0.338 C 
ATOM     29  O   UNL A   1      44.596  24.006  24.282  1.00  0.00    -0.246 OA
BRANCH  28  30
ATOM     30  C   UNL A   1      43.020  24.757  25.934  1.00  0.00     0.060 A 
ATOM     31  C   UNL A   1      43.589  26.037  26.038  1.00  0.00     0.016 A 
ATOM     32  C   UNL A   1      41.814  24.491  26.592  1.00  0.00     0.016 A 
ATOM     33  C   UNL A   1      42.996  27.022  26.839  1.00  0.00     0.010 A 
ATOM     34  C   UNL A   1      41.229  25.471  27.407  1.00  0.00     0.010 A 
ATOM     35  C   UNL A   1      41.839  26.729  27.572  1.00  0.00    -0.014 A 
BRANCH  35  36
ATOM     36  C   UNL A   1      41.413  27.616  28.691  1.00  0.00     0.031 A 
ATOM     37  C   UNL A   1      42.184  27.530  29.985  1.00  0.00     0.074 A 
ATOM     38  C   UNL A   1      40.394  28.490  28.592  1.00  0.00     0.049 A 
ATOM     39  N   UNL A   1      41.962  28.121  31.132  1.00  0.00    -0.248 NA
ATOM     40  C   UNL A   1      43.368  26.653  29.978  1.00  0.00     0.031 C 
ATOM     41  C   UNL A   1      39.599  28.743  27.394  1.00  0.00     0.029 A 
ATOM     42  N   UNL A   1      39.854  29.330  29.539  1.00  0.00    -0.354 N 
ATOM     43  C   UNL A   1      42.963  27.671  31.985  1.00  0.00     0.074 A 
ATOM     44  C   UNL A   1      43.779  26.744  31.232  1.00  0.00     0.031 C 
ATOM     45  C   UNL A   1      38.669  29.674  27.678  1.00  0.00     0.029 A 
ATOM     46  C   UNL A   1      38.771  30.049  29.090  1.00  0.00     0.049 A 
ATOM     47  H   UNL A   1      40.210  29.410  30.454  1.00  0.00     0.167 HD
ATOM     48  C   UNL A   1      43.189  27.994  33.280  1.00  0.00     0.031 A 
ATOM     49  C   UNL A   1      37.942  30.886  29.747  1.00  0.00     0.031 A 
ATOM     50  C   UNL A   1      42.382  28.903  34.047  1.00  0.00     0.049 A 
ATOM     51  C   UNL A   1      38.152  31.155  31.218  1.00  0.00     0.074 A 
ATOM     52  C   UNL A   1      42.536  29.285  35.369  1.00  0.00     0.029 A 
ATOM     53  N   UNL A   1      41.266  29.567  33.565  1.00  0.00    -0.354 N 
ATOM     54  N   UNL A   1      39.098  30.721  32.016  1.00  0.00    -0.248 NA
ATOM     55  C   UNL A   1      37.172  32.034  31.881  1.00  0.00     0.031 C 
ATOM     56  C   UNL A   1      41.478  30.134  35.704  1.00  0.00     0.029 A 
ATOM     57  C   UNL A   1      40.706  30.336  34.571  1.00  0.00     0.049 A 
ATOM     58  H   UNL A   1      40.922  29.501  32.645  1.00  0.00     0.167 HD
ATOM     59  C   UNL A   1      38.848  31.300  33.257  1.00  0.00     0.074 A 
ATOM     60  C   UNL A   1      37.668  32.124  33.107  1.00  0.00     0.031 C 
ATOM     61  C   UNL A   1      39.539  31.164  34.415  1.00  0.00     0.031 A 
BRANCH  48  62
ATOM     62  C   UNL A   1      44.339  27.312  33.967  1.00  0.00    -0.014 A 
ATOM     63  C   UNL A   1      45.608  27.908  34.045  1.00  0.00     0.009 A 
ATOM     64  C   UNL A   1      44.140  26.057  34.564  1.00  0.00     0.009 A 
ATOM     65  C   UNL A   1      46.662  27.243  34.675  1.00  0.00     0.001 A 
ATOM     66  C   UNL A   1      45.188  25.410  35.221  1.00  0.00     0.001 A 
ATOM     67  C   UNL A   1      46.450  25.998  35.265  1.00  0.00     0.000 A 
ENDBRANCH  48  62
BRANCH  49  68
ATOM     68  C   UNL A   1      36.792  31.517  29.039  1.00  0.00    -0.014 A 
ATOM     69  C   UNL A   1      36.858  32.850  28.604  1.00  0.00     0.009 A 
ATOM     70  C   UNL A   1      35.599  30.803  28.844  1.00  0.00     0.009 A 
ATOM     71  C   UNL A   1      35.747  33.461  28.016  1.00  0.00     0.001 A 
ATOM     72  C   UNL A   1      34.500  31.406  28.228  1.00  0.00     0.001 A 
ATOM     73  C   UNL A   1      34.572  32.738  27.823  1.00  0.00     0.000 A 
ENDBRANCH  49  68
BRANCH  61  74
ATOM     74  C   UNL A   1      39.083  31.963  35.606  1.00  0.00    -0.014 A 
ATOM     75  C   UNL A   1      38.215  31.423  36.568  1.00  0.00     0.009 A 
ATOM     76  C   UNL A   1      39.584  33.261  35.800  1.00  0.00     0.009 A 
ATOM     77  C   UNL A   1      37.837  32.179  37.682  1.00  0.00     0.001 A 
ATOM     78  C   UNL A   1      39.230  34.002  36.928  1.00  0.00     0.001 A 
ATOM     79  C   UNL A   1      38.349  33.463  37.864  1.00  0.00     0.000 A 
ENDBRANCH  61  74
ENDBRANCH  35  36
ENDBRANCH  28  30
ENDBRANCH  27  28
ENDBRANCH  26  27
ENDBRANCH  25  26
ENDBRANCH  24  25
ENDBRANCH   1  24
TORSDOF 18
ENDMDL
