MODEL 1
REMARK VINA RESULT:     -10.4      0.000      0.000
REMARK SMILES COc1ccc(CNC(=O)[C@H]2CC(C)=C(C)C[C@@H]2C(=O)OCCOCCOCCOC(=O)c2ccc(-c3c4nc(c(-c5ccccc5)c5ccc([nH]5)c(-c5ccccc5)c5nc(c(-c6ccccc6)c6ccc3[nH]6)C=C5)C=C4)cc2)cc1OC
REMARK SMILES IDX 25 1 24 2 23 3 22 4 21 5 19 6 20 7 18 8 11 9 12 10 13 11
REMARK SMILES IDX 17 12 14 13 15 14 16 15 9 16 8 17 10 19 7 20 6 21 3 22 4 23
REMARK SMILES IDX 82 24 5 25 81 26 2 27 1 28 83 29 84 30 26 31 27 32 28 33
REMARK SMILES IDX 29 34 30 35 31 36 32 37 33 38 34 39 80 40 35 41 79 42 36 43
REMARK SMILES IDX 37 44 38 45 73 46 39 47 78 48 72 49 74 50 40 51 77 52 71 53
REMARK SMILES IDX 70 54 41 56 63 57 48 58 62 59 49 60 52 61 61 62 75 63 50 64
REMARK SMILES IDX 51 65 60 67 76 68 53 69 42 70 43 71 47 72 44 73 46 74 45 75
REMARK SMILES IDX 64 76 65 77 69 78 66 79 68 80 67 81 54 82 55 83 59 84 56 85
REMARK SMILES IDX 58 86 57 87
REMARK H PARENT 8 18 74 55 52 66
REMARK Flexibility Score: inf
ROOT
ATOM      1  C   UNL A   1      34.907  32.322  28.050  1.00  0.00     0.188 C 
ENDROOT
BRANCH   1   2
ATOM      2  O   UNL A   1      33.985  31.250  27.938  1.00  0.00    -0.376 OA
BRANCH   2   3
ATOM      3  C   UNL A   1      34.464  29.946  27.660  1.00  0.00     0.202 C 
BRANCH   3   4
ATOM      4  C   UNL A   1      33.600  29.071  26.759  1.00  0.00     0.261 C 
BRANCH   4   5
ATOM      5  O   UNL A   1      33.207  29.746  25.553  1.00  0.00    -0.463 OA
BRANCH   5   6
ATOM      6  C   UNL A   1      32.885  28.963  24.493  1.00  0.00     0.310 C 
ATOM      7  O   UNL A   1      33.699  28.467  23.723  1.00  0.00    -0.252 OA
BRANCH   6   8
ATOM      8  C   UNL A   1      31.390  28.743  24.347  1.00  0.00     0.116 C 
ATOM      9  C   UNL A   1      30.995  27.836  23.166  1.00  0.00     0.097 C 
ATOM     10  C   UNL A   1      30.109  28.494  22.087  1.00  0.00     0.045 C 
ATOM     11  C   UNL A   1      29.355  29.754  22.439  1.00  0.00    -0.074 C 
ATOM     12  C   UNL A   1      30.626  30.050  24.570  1.00  0.00     0.046 C 
ATOM     13  C   UNL A   1      28.349  30.182  21.394  1.00  0.00     0.039 C 
ATOM     14  C   UNL A   1      29.579  30.444  23.572  1.00  0.00    -0.073 C 
ATOM     15  C   UNL A   1      28.794  31.677  23.945  1.00  0.00     0.039 C 
BRANCH   9  16
ATOM     16  C   UNL A   1      30.378  26.560  23.752  1.00  0.00     0.224 C 
ATOM     17  N   UNL A   1      31.099  25.392  23.730  1.00  0.00    -0.352 N 
ATOM     18  H   UNL A   1      30.723  24.670  24.283  1.00  0.00     0.163 HD
ATOM     19  O   UNL A   1      29.270  26.542  24.288  1.00  0.00    -0.275 OA
BRANCH  17  20
ATOM     20  C   UNL A   1      32.326  25.042  23.030  1.00  0.00     0.151 C 
BRANCH  20  21
ATOM     21  C   UNL A   1      33.247  24.087  23.762  1.00  0.00    -0.025 A 
ATOM     22  C   UNL A   1      34.850  22.165  25.098  1.00  0.00     0.160 A 
ATOM     23  C   UNL A   1      35.436  23.250  24.437  1.00  0.00     0.051 A 
ATOM     24  C   UNL A   1      33.459  22.030  25.109  1.00  0.00     0.161 A 
ATOM     25  C   UNL A   1      34.641  24.207  23.791  1.00  0.00     0.009 A 
ATOM     26  C   UNL A   1      32.682  22.974  24.413  1.00  0.00     0.056 A 
BRANCH  22  27
ATOM     27  O   UNL A   1      35.671  21.340  25.819  1.00  0.00    -0.493 OA
ATOM     28  C   UNL A   1      36.415  20.454  24.983  1.00  0.00     0.278 C 
ENDBRANCH  22  27
BRANCH  24  29
ATOM     29  O   UNL A   1      32.698  21.073  25.725  1.00  0.00    -0.493 OA
ATOM     30  C   UNL A   1      32.592  19.794  25.119  1.00  0.00     0.278 C 
ENDBRANCH  24  29
ENDBRANCH  20  21
ENDBRANCH  17  20
ENDBRANCH   9  16
ENDBRANCH   6   8
ENDBRANCH   5   6
ENDBRANCH   4   5
ENDBRANCH   3   4
ENDBRANCH   2   3
ENDBRANCH   1   2
BRANCH   1  31
ATOM     31  C   UNL A   1      34.507  33.633  28.761  1.00  0.00     0.188 C 
BRANCH  31  32
ATOM     32  O   UNL A   1      33.854  33.615  30.018  1.00  0.00    -0.376 OA
BRANCH  32  33
ATOM     33  C   UNL A   1      34.460  34.251  31.130  1.00  0.00     0.202 C 
BRANCH  33  34
ATOM     34  C   UNL A   1      34.358  33.576  32.501  1.00  0.00     0.261 C 
BRANCH  34  35
ATOM     35  O   UNL A   1      34.918  32.251  32.537  1.00  0.00    -0.460 OA
BRANCH  35  36
ATOM     36  C   UNL A   1      36.148  32.157  33.097  1.00  0.00     0.338 C 
ATOM     37  O   UNL A   1      36.475  32.497  34.219  1.00  0.00    -0.246 OA
BRANCH  36  38
ATOM     38  C   UNL A   1      37.060  31.396  32.214  1.00  0.00     0.060 A 
ATOM     39  C   UNL A   1      38.075  30.653  32.827  1.00  0.00     0.016 A 
ATOM     40  C   UNL A   1      36.996  31.486  30.823  1.00  0.00     0.016 A 
ATOM     41  C   UNL A   1      39.067  30.045  32.058  1.00  0.00     0.010 A 
ATOM     42  C   UNL A   1      38.004  30.888  30.051  1.00  0.00     0.010 A 
ATOM     43  C   UNL A   1      39.068  30.203  30.667  1.00  0.00    -0.014 A 
BRANCH  43  44
ATOM     44  C   UNL A   1      40.289  29.825  29.908  1.00  0.00     0.031 A 
ATOM     45  C   UNL A   1      40.326  28.490  29.212  1.00  0.00     0.074 A 
ATOM     46  C   UNL A   1      41.317  30.680  29.756  1.00  0.00     0.049 A 
ATOM     47  N   UNL A   1      41.264  27.969  28.460  1.00  0.00    -0.248 NA
ATOM     48  C   UNL A   1      39.143  27.630  29.380  1.00  0.00     0.031 C 
ATOM     49  C   UNL A   1      41.391  32.028  30.315  1.00  0.00     0.029 A 
ATOM     50  N   UNL A   1      42.496  30.535  29.064  1.00  0.00    -0.354 N 
ATOM     51  C   UNL A   1      40.786  26.723  28.069  1.00  0.00     0.074 A 
ATOM     52  C   UNL A   1      39.490  26.554  28.691  1.00  0.00     0.031 C 
ATOM     53  C   UNL A   1      42.555  32.590  29.941  1.00  0.00     0.029 A 
ATOM     54  C   UNL A   1      43.317  31.633  29.138  1.00  0.00     0.049 A 
ATOM     55  H   UNL A   1      42.729  29.720  28.563  1.00  0.00     0.167 HD
ATOM     56  C   UNL A   1      41.363  25.803  27.261  1.00  0.00     0.031 A 
ATOM     57  C   UNL A   1      44.546  31.840  28.626  1.00  0.00     0.031 A 
ATOM     58  C   UNL A   1      42.656  25.948  26.648  1.00  0.00     0.049 A 
ATOM     59  C   UNL A   1      45.204  30.767  27.798  1.00  0.00     0.074 A 
ATOM     60  C   UNL A   1      43.323  25.063  25.819  1.00  0.00     0.029 A 
ATOM     61  N   UNL A   1      43.481  27.051  26.800  1.00  0.00    -0.354 N 
ATOM     62  N   UNL A   1      44.737  29.598  27.432  1.00  0.00    -0.248 NA
ATOM     63  C   UNL A   1      46.560  31.052  27.303  1.00  0.00     0.031 C 
ATOM     64  C   UNL A   1      44.574  25.607  25.510  1.00  0.00     0.029 A 
ATOM     65  C   UNL A   1      44.660  26.858  26.099  1.00  0.00     0.049 A 
ATOM     66  H   UNL A   1      43.262  27.853  27.328  1.00  0.00     0.167 HD
ATOM     67  C   UNL A   1      45.728  29.022  26.643  1.00  0.00     0.074 A 
ATOM     68  C   UNL A   1      46.812  29.979  26.568  1.00  0.00     0.031 C 
ATOM     69  C   UNL A   1      45.737  27.812  26.033  1.00  0.00     0.031 A 
BRANCH  56  70
ATOM     70  C   UNL A   1      40.605  24.526  27.027  1.00  0.00    -0.014 A 
ATOM     71  C   UNL A   1      39.359  24.526  26.380  1.00  0.00     0.009 A 
ATOM     72  C   UNL A   1      41.155  23.305  27.444  1.00  0.00     0.009 A 
ATOM     73  C   UNL A   1      38.664  23.330  26.188  1.00  0.00     0.001 A 
ATOM     74  C   UNL A   1      40.471  22.108  27.225  1.00  0.00     0.001 A 
ATOM     75  C   UNL A   1      39.222  22.123  26.606  1.00  0.00     0.000 A 
ENDBRANCH  56  70
BRANCH  57  76
ATOM     76  C   UNL A   1      45.260  33.118  28.889  1.00  0.00    -0.014 A 
ATOM     77  C   UNL A   1      45.262  34.149  27.938  1.00  0.00     0.009 A 
ATOM     78  C   UNL A   1      45.984  33.292  30.080  1.00  0.00     0.009 A 
ATOM     79  C   UNL A   1      45.998  35.315  28.160  1.00  0.00     0.001 A 
ATOM     80  C   UNL A   1      46.695  34.471  30.312  1.00  0.00     0.001 A 
ATOM     81  C   UNL A   1      46.710  35.477  29.347  1.00  0.00     0.000 A 
ENDBRANCH  57  76
BRANCH  69  82
ATOM     82  C   UNL A   1      46.941  27.469  25.199  1.00  0.00    -0.014 A 
ATOM     83  C   UNL A   1      47.021  27.830  23.844  1.00  0.00     0.009 A 
ATOM     84  C   UNL A   1      48.021  26.790  25.783  1.00  0.00     0.009 A 
ATOM     85  C   UNL A   1      48.138  27.478  23.083  1.00  0.00     0.001 A 
ATOM     86  C   UNL A   1      49.150  26.465  25.028  1.00  0.00     0.001 A 
ATOM     87  C   UNL A   1      49.202  26.798  23.676  1.00  0.00     0.000 A 
ENDBRANCH  69  82
ENDBRANCH  43  44
ENDBRANCH  36  38
ENDBRANCH  35  36
ENDBRANCH  34  35
ENDBRANCH  33  34
ENDBRANCH  32  33
ENDBRANCH  31  32
ENDBRANCH   1  31
TORSDOF 22
ENDMDL
MODEL 2
REMARK VINA RESULT:     -10.2      3.137      9.942
REMARK SMILES COc1ccc(CNC(=O)[C@H]2CC(C)=C(C)C[C@@H]2C(=O)OCCOCCOCCOC(=O)c2ccc(-c3c4nc(c(-c5ccccc5)c5ccc([nH]5)c(-c5ccccc5)c5nc(c(-c6ccccc6)c6ccc3[nH]6)C=C5)C=C4)cc2)cc1OC
REMARK SMILES IDX 25 1 24 2 23 3 22 4 21 5 19 6 20 7 18 8 11 9 12 10 13 11
REMARK SMILES IDX 17 12 14 13 15 14 16 15 9 16 8 17 10 19 7 20 6 21 3 22 4 23
REMARK SMILES IDX 82 24 5 25 81 26 2 27 1 28 83 29 84 30 26 31 27 32 28 33
REMARK SMILES IDX 29 34 30 35 31 36 32 37 33 38 34 39 80 40 35 41 79 42 36 43
REMARK SMILES IDX 37 44 38 45 73 46 39 47 78 48 72 49 74 50 40 51 77 52 71 53
REMARK SMILES IDX 70 54 41 56 63 57 48 58 62 59 49 60 52 61 61 62 75 63 50 64
REMARK SMILES IDX 51 65 60 67 76 68 53 69 42 70 43 71 47 72 44 73 46 74 45 75
REMARK SMILES IDX 64 76 65 77 69 78 66 79 68 80 67 81 54 82 55 83 59 84 56 85
REMARK SMILES IDX 58 86 57 87
REMARK H PARENT 8 18 74 55 52 66
REMARK Flexibility Score: inf
ROOT
ATOM      1  C   UNL A   1      39.923  21.371  26.094  1.00  0.00     0.188 C 
ENDROOT
BRANCH   1   2
ATOM      2  O   UNL A   1      38.862  22.209  26.522  1.00  0.00    -0.376 OA
BRANCH   2   3
ATOM      3  C   UNL A   1      37.941  22.708  25.569  1.00  0.00     0.202 C 
BRANCH   3   4
ATOM      4  C   UNL A   1      37.008  23.823  26.027  1.00  0.00     0.261 C 
BRANCH   4   5
ATOM      5  O   UNL A   1      35.723  23.760  25.388  1.00  0.00    -0.463 OA
BRANCH   5   6
ATOM      6  C   UNL A   1      34.845  22.846  25.872  1.00  0.00     0.310 C 
ATOM      7  O   UNL A   1      34.520  22.751  27.050  1.00  0.00    -0.252 OA
BRANCH   6   8
ATOM      8  C   UNL A   1      34.278  21.936  24.797  1.00  0.00     0.116 C 
ATOM      9  C   UNL A   1      32.740  21.876  24.763  1.00  0.00     0.097 C 
ATOM     10  C   UNL A   1      32.120  20.486  25.023  1.00  0.00     0.045 C 
ATOM     11  C   UNL A   1      32.990  19.264  24.858  1.00  0.00    -0.074 C 
ATOM     12  C   UNL A   1      35.076  20.632  24.716  1.00  0.00     0.046 C 
ATOM     13  C   UNL A   1      32.232  17.957  24.911  1.00  0.00     0.039 C 
ATOM     14  C   UNL A   1      34.324  19.336  24.701  1.00  0.00    -0.073 C 
ATOM     15  C   UNL A   1      35.188  18.116  24.490  1.00  0.00     0.039 C 
BRANCH   9  16
ATOM     16  C   UNL A   1      32.284  22.497  23.437  1.00  0.00     0.224 C 
ATOM     17  N   UNL A   1      31.684  23.732  23.443  1.00  0.00    -0.352 N 
ATOM     18  H   UNL A   1      31.590  24.144  22.554  1.00  0.00     0.163 HD
ATOM     19  O   UNL A   1      32.472  21.954  22.349  1.00  0.00    -0.275 OA
BRANCH  17  20
ATOM     20  C   UNL A   1      31.166  24.535  24.540  1.00  0.00     0.151 C 
BRANCH  20  21
ATOM     21  C   UNL A   1      30.631  25.900  24.156  1.00  0.00    -0.025 A 
ATOM     22  C   UNL A   1      29.792  28.489  23.357  1.00  0.00     0.160 A 
ATOM     23  C   UNL A   1      28.871  27.442  23.469  1.00  0.00     0.051 A 
ATOM     24  C   UNL A   1      31.139  28.261  23.650  1.00  0.00     0.161 A 
ATOM     25  C   UNL A   1      29.285  26.167  23.879  1.00  0.00     0.009 A 
ATOM     26  C   UNL A   1      31.542  26.963  24.013  1.00  0.00     0.056 A 
BRANCH  22  27
ATOM     27  O   UNL A   1      29.305  29.738  23.080  1.00  0.00    -0.493 OA
ATOM     28  C   UNL A   1      27.891  29.735  22.882  1.00  0.00     0.278 C 
ENDBRANCH  22  27
BRANCH  24  29
ATOM     29  O   UNL A   1      32.179  29.152  23.641  1.00  0.00    -0.493 OA
ATOM     30  C   UNL A   1      33.283  28.917  24.501  1.00  0.00     0.278 C 
ENDBRANCH  24  29
ENDBRANCH  20  21
ENDBRANCH  17  20
ENDBRANCH   9  16
ENDBRANCH   6   8
ENDBRANCH   5   6
ENDBRANCH   4   5
ENDBRANCH   3   4
ENDBRANCH   2   3
ENDBRANCH   1   2
BRANCH   1  31
ATOM     31  C   UNL A   1      41.392  21.819  26.253  1.00  0.00     0.188 C 
BRANCH  31  32
ATOM     32  O   UNL A   1      42.339  21.005  26.923  1.00  0.00    -0.376 OA
BRANCH  32  33
ATOM     33  C   UNL A   1      42.180  19.597  26.916  1.00  0.00     0.202 C 
BRANCH  33  34
ATOM     34  C   UNL A   1      42.995  18.776  25.912  1.00  0.00     0.261 C 
BRANCH  34  35
ATOM     35  O   UNL A   1      43.218  19.448  24.660  1.00  0.00    -0.460 OA
BRANCH  35  36
ATOM     36  C   UNL A   1      44.517  19.608  24.311  1.00  0.00     0.338 C 
ATOM     37  O   UNL A   1      45.227  18.810  23.726  1.00  0.00    -0.246 OA
BRANCH  36  38
ATOM     38  C   UNL A   1      44.956  20.996  24.576  1.00  0.00     0.060 A 
ATOM     39  C   UNL A   1      45.680  21.227  25.750  1.00  0.00     0.016 A 
ATOM     40  C   UNL A   1      44.584  22.063  23.758  1.00  0.00     0.016 A 
ATOM     41  C   UNL A   1      45.986  22.529  26.146  1.00  0.00     0.010 A 
ATOM     42  C   UNL A   1      44.877  23.373  24.165  1.00  0.00     0.010 A 
ATOM     43  C   UNL A   1      45.540  23.615  25.383  1.00  0.00    -0.014 A 
BRANCH  43  44
ATOM     44  C   UNL A   1      45.595  24.975  25.979  1.00  0.00     0.031 A 
ATOM     45  C   UNL A   1      46.901  25.726  25.952  1.00  0.00     0.074 A 
ATOM     46  C   UNL A   1      44.493  25.581  26.458  1.00  0.00     0.049 A 
ATOM     47  N   UNL A   1      47.174  26.936  26.371  1.00  0.00    -0.248 NA
ATOM     48  C   UNL A   1      48.050  25.019  25.364  1.00  0.00     0.031 C 
ATOM     49  C   UNL A   1      43.151  25.003  26.489  1.00  0.00     0.029 A 
ATOM     50  N   UNL A   1      44.334  26.834  27.001  1.00  0.00    -0.354 N 
ATOM     51  C   UNL A   1      48.523  27.134  26.102  1.00  0.00     0.074 A 
ATOM     52  C   UNL A   1      49.020  25.910  25.511  1.00  0.00     0.031 C 
ATOM     53  C   UNL A   1      42.303  25.903  27.020  1.00  0.00     0.029 A 
ATOM     54  C   UNL A   1      43.046  27.107  27.388  1.00  0.00     0.049 A 
ATOM     55  H   UNL A   1      45.076  27.474  27.101  1.00  0.00     0.167 HD
ATOM     56  C   UNL A   1      49.284  28.233  26.316  1.00  0.00     0.031 A 
ATOM     57  C   UNL A   1      42.526  28.200  27.982  1.00  0.00     0.031 A 
ATOM     58  C   UNL A   1      48.811  29.452  26.915  1.00  0.00     0.049 A 
ATOM     59  C   UNL A   1      43.412  29.380  28.286  1.00  0.00     0.074 A 
ATOM     60  C   UNL A   1      49.514  30.615  27.177  1.00  0.00     0.029 A 
ATOM     61  N   UNL A   1      47.513  29.664  27.351  1.00  0.00    -0.354 N 
ATOM     62  N   UNL A   1      44.684  29.555  28.020  1.00  0.00    -0.248 NA
ATOM     63  C   UNL A   1      42.780  30.522  28.966  1.00  0.00     0.031 C 
ATOM     64  C   UNL A   1      48.654  31.514  27.817  1.00  0.00     0.029 A 
ATOM     65  C   UNL A   1      47.400  30.931  27.900  1.00  0.00     0.049 A 
ATOM     66  H   UNL A   1      46.779  29.011  27.279  1.00  0.00     0.167 HD
ATOM     67  C   UNL A   1      44.996  30.832  28.472  1.00  0.00     0.074 A 
ATOM     68  C   UNL A   1      43.776  31.396  29.013  1.00  0.00     0.031 C 
ATOM     69  C   UNL A   1      46.185  31.482  28.440  1.00  0.00     0.031 A 
BRANCH  56  70
ATOM     70  C   UNL A   1      50.735  28.147  25.930  1.00  0.00    -0.014 A 
ATOM     71  C   UNL A   1      51.189  28.627  24.691  1.00  0.00     0.009 A 
ATOM     72  C   UNL A   1      51.661  27.596  26.828  1.00  0.00     0.009 A 
ATOM     73  C   UNL A   1      52.539  28.522  24.347  1.00  0.00     0.001 A 
ATOM     74  C   UNL A   1      53.013  27.518  26.491  1.00  0.00     0.001 A 
ATOM     75  C   UNL A   1      53.449  27.972  25.247  1.00  0.00     0.000 A 
ENDBRANCH  56  70
BRANCH  57  76
ATOM     76  C   UNL A   1      41.086  28.237  28.350  1.00  0.00    -0.014 A 
ATOM     77  C   UNL A   1      40.147  28.864  27.518  1.00  0.00     0.009 A 
ATOM     78  C   UNL A   1      40.652  27.683  29.565  1.00  0.00     0.009 A 
ATOM     79  C   UNL A   1      38.810  28.962  27.907  1.00  0.00     0.001 A 
ATOM     80  C   UNL A   1      39.309  27.755  29.938  1.00  0.00     0.001 A 
ATOM     81  C   UNL A   1      38.391  28.404  29.115  1.00  0.00     0.000 A 
ENDBRANCH  57  76
BRANCH  69  82
ATOM     82  C   UNL A   1      46.216  32.890  28.970  1.00  0.00    -0.014 A 
ATOM     83  C   UNL A   1      46.597  33.166  30.294  1.00  0.00     0.009 A 
ATOM     84  C   UNL A   1      45.877  33.959  28.126  1.00  0.00     0.009 A 
ATOM     85  C   UNL A   1      46.593  34.479  30.771  1.00  0.00     0.001 A 
ATOM     86  C   UNL A   1      45.903  35.273  28.597  1.00  0.00     0.001 A 
ATOM     87  C   UNL A   1      46.249  35.530  29.922  1.00  0.00     0.000 A 
ENDBRANCH  69  82
ENDBRANCH  43  44
ENDBRANCH  36  38
ENDBRANCH  35  36
ENDBRANCH  34  35
ENDBRANCH  33  34
ENDBRANCH  32  33
ENDBRANCH  31  32
ENDBRANCH   1  31
TORSDOF 22
ENDMDL
MODEL 3
REMARK VINA RESULT:      -9.8      1.286      2.009
REMARK SMILES COc1ccc(CNC(=O)[C@H]2CC(C)=C(C)C[C@@H]2C(=O)OCCOCCOCCOC(=O)c2ccc(-c3c4nc(c(-c5ccccc5)c5ccc([nH]5)c(-c5ccccc5)c5nc(c(-c6ccccc6)c6ccc3[nH]6)C=C5)C=C4)cc2)cc1OC
REMARK SMILES IDX 25 1 24 2 23 3 22 4 21 5 19 6 20 7 18 8 11 9 12 10 13 11
REMARK SMILES IDX 17 12 14 13 15 14 16 15 9 16 8 17 10 19 7 20 6 21 3 22 4 23
REMARK SMILES IDX 82 24 5 25 81 26 2 27 1 28 83 29 84 30 26 31 27 32 28 33
REMARK SMILES IDX 29 34 30 35 31 36 32 37 33 38 34 39 80 40 35 41 79 42 36 43
REMARK SMILES IDX 37 44 38 45 73 46 39 47 78 48 72 49 74 50 40 51 77 52 71 53
REMARK SMILES IDX 70 54 41 56 63 57 48 58 62 59 49 60 52 61 61 62 75 63 50 64
REMARK SMILES IDX 51 65 60 67 76 68 53 69 42 70 43 71 47 72 44 73 46 74 45 75
REMARK SMILES IDX 64 76 65 77 69 78 66 79 68 80 67 81 54 82 55 83 59 84 56 85
REMARK SMILES IDX 58 86 57 87
REMARK H PARENT 8 18 74 55 52 66
REMARK Flexibility Score: inf
ROOT
ATOM      1  C   UNL A   1      34.363  32.027  29.040  1.00  0.00     0.188 C 
ENDROOT
BRANCH   1   2
ATOM      2  O   UNL A   1      34.286  31.073  27.994  1.00  0.00    -0.376 OA
BRANCH   2   3
ATOM      3  C   UNL A   1      33.149  31.055  27.150  1.00  0.00     0.202 C 
BRANCH   3   4
ATOM      4  C   UNL A   1      32.297  29.791  27.165  1.00  0.00     0.261 C 
BRANCH   4   5
ATOM      5  O   UNL A   1      33.082  28.600  26.991  1.00  0.00    -0.463 OA
BRANCH   5   6
ATOM      6  C   UNL A   1      33.709  28.451  25.797  1.00  0.00     0.310 C 
ATOM      7  O   UNL A   1      34.734  29.041  25.472  1.00  0.00    -0.252 OA
BRANCH   6   8
ATOM      8  C   UNL A   1      33.019  27.457  24.881  1.00  0.00     0.116 C 
ATOM      9  C   UNL A   1      32.466  28.071  23.581  1.00  0.00     0.097 C 
ATOM     10  C   UNL A   1      30.938  27.964  23.390  1.00  0.00     0.045 C 
ATOM     11  C   UNL A   1      30.178  26.942  24.200  1.00  0.00    -0.074 C 
ATOM     12  C   UNL A   1      32.137  26.500  25.686  1.00  0.00     0.046 C 
ATOM     13  C   UNL A   1      28.738  26.765  23.773  1.00  0.00     0.039 C 
ATOM     14  C   UNL A   1      30.729  26.270  25.226  1.00  0.00    -0.073 C 
ATOM     15  C   UNL A   1      29.983  25.216  26.007  1.00  0.00     0.039 C 
BRANCH   9  16
ATOM     16  C   UNL A   1      33.260  27.470  22.414  1.00  0.00     0.224 C 
ATOM     17  N   UNL A   1      32.829  26.301  21.839  1.00  0.00    -0.352 N 
ATOM     18  H   UNL A   1      33.272  26.077  20.989  1.00  0.00     0.163 HD
ATOM     19  O   UNL A   1      34.253  28.015  21.935  1.00  0.00    -0.275 OA
BRANCH  17  20
ATOM     20  C   UNL A   1      31.828  25.337  22.270  1.00  0.00     0.151 C 
BRANCH  20  21
ATOM     21  C   UNL A   1      32.368  24.060  22.880  1.00  0.00    -0.025 A 
ATOM     22  C   UNL A   1      33.498  21.773  24.121  1.00  0.00     0.160 A 
ATOM     23  C   UNL A   1      32.155  21.784  23.729  1.00  0.00     0.051 A 
ATOM     24  C   UNL A   1      34.296  22.897  23.891  1.00  0.00     0.161 A 
ATOM     25  C   UNL A   1      31.603  22.910  23.102  1.00  0.00     0.009 A 
ATOM     26  C   UNL A   1      33.710  24.034  23.305  1.00  0.00     0.056 A 
BRANCH  22  27
ATOM     27  O   UNL A   1      34.010  20.600  24.607  1.00  0.00    -0.493 OA
ATOM     28  C   UNL A   1      33.227  20.072  25.678  1.00  0.00     0.278 C 
ENDBRANCH  22  27
BRANCH  24  29
ATOM     29  O   UNL A   1      35.628  23.069  24.160  1.00  0.00    -0.493 OA
ATOM     30  C   UNL A   1      36.560  22.924  23.099  1.00  0.00     0.278 C 
ENDBRANCH  24  29
ENDBRANCH  20  21
ENDBRANCH  17  20
ENDBRANCH   9  16
ENDBRANCH   6   8
ENDBRANCH   5   6
ENDBRANCH   4   5
ENDBRANCH   3   4
ENDBRANCH   2   3
ENDBRANCH   1   2
BRANCH   1  31
ATOM     31  C   UNL A   1      34.813  33.476  28.752  1.00  0.00     0.188 C 
BRANCH  31  32
ATOM     32  O   UNL A   1      34.836  34.455  29.776  1.00  0.00    -0.376 OA
BRANCH  32  33
ATOM     33  C   UNL A   1      34.142  34.215  30.988  1.00  0.00     0.202 C 
BRANCH  33  34
ATOM     34  C   UNL A   1      34.959  33.935  32.253  1.00  0.00     0.261 C 
BRANCH  34  35
ATOM     35  O   UNL A   1      35.138  32.535  32.528  1.00  0.00    -0.460 OA
BRANCH  35  36
ATOM     36  C   UNL A   1      36.294  32.210  33.156  1.00  0.00     0.338 C 
ATOM     37  O   UNL A   1      36.561  32.362  34.334  1.00  0.00    -0.246 OA
BRANCH  36  38
ATOM     38  C   UNL A   1      37.180  31.451  32.246  1.00  0.00     0.060 A 
ATOM     39  C   UNL A   1      38.173  30.658  32.831  1.00  0.00     0.016 A 
ATOM     40  C   UNL A   1      37.116  31.588  30.859  1.00  0.00     0.016 A 
ATOM     41  C   UNL A   1      39.144  30.045  32.039  1.00  0.00     0.010 A 
ATOM     42  C   UNL A   1      38.102  30.984  30.064  1.00  0.00     0.010 A 
ATOM     43  C   UNL A   1      39.147  30.248  30.653  1.00  0.00    -0.014 A 
BRANCH  43  44
ATOM     44  C   UNL A   1      40.353  29.859  29.879  1.00  0.00     0.031 A 
ATOM     45  C   UNL A   1      40.371  28.519  29.189  1.00  0.00     0.074 A 
ATOM     46  C   UNL A   1      41.385  30.706  29.707  1.00  0.00     0.049 A 
ATOM     47  N   UNL A   1      41.294  27.988  28.426  1.00  0.00    -0.248 NA
ATOM     48  C   UNL A   1      39.185  27.669  29.380  1.00  0.00     0.031 C 
ATOM     49  C   UNL A   1      41.477  32.056  30.258  1.00  0.00     0.029 A 
ATOM     50  N   UNL A   1      42.553  30.549  28.999  1.00  0.00    -0.354 N 
ATOM     51  C   UNL A   1      40.802  26.743  28.049  1.00  0.00     0.074 A 
ATOM     52  C   UNL A   1      39.515  26.586  28.691  1.00  0.00     0.031 C 
ATOM     53  C   UNL A   1      42.639  32.608  29.863  1.00  0.00     0.029 A 
ATOM     54  C   UNL A   1      43.382  31.642  29.055  1.00  0.00     0.049 A 
ATOM     55  H   UNL A   1      42.773  29.730  28.499  1.00  0.00     0.167 HD
ATOM     56  C   UNL A   1      41.362  25.815  27.238  1.00  0.00     0.031 A 
ATOM     57  C   UNL A   1      44.605  31.838  28.523  1.00  0.00     0.031 A 
ATOM     58  C   UNL A   1      42.646  25.949  26.605  1.00  0.00     0.049 A 
ATOM     59  C   UNL A   1      45.243  30.756  27.691  1.00  0.00     0.074 A 
ATOM     60  C   UNL A   1      43.294  25.054  25.770  1.00  0.00     0.029 A 
ATOM     61  N   UNL A   1      43.481  27.046  26.739  1.00  0.00    -0.354 N 
ATOM     62  N   UNL A   1      44.763  29.588  27.339  1.00  0.00    -0.248 NA
ATOM     63  C   UNL A   1      46.593  31.029  27.175  1.00  0.00     0.031 C 
ATOM     64  C   UNL A   1      44.544  25.589  25.440  1.00  0.00     0.029 A 
ATOM     65  C   UNL A   1      44.648  26.842  26.021  1.00  0.00     0.049 A 
ATOM     66  H   UNL A   1      43.274  27.852  27.265  1.00  0.00     0.167 HD
ATOM     67  C   UNL A   1      45.738  29.002  26.538  1.00  0.00     0.074 A 
ATOM     68  C   UNL A   1      46.827  29.951  26.441  1.00  0.00     0.031 C 
ATOM     69  C   UNL A   1      45.729  27.789  25.934  1.00  0.00     0.031 A 
BRANCH  56  70
ATOM     70  C   UNL A   1      40.592  24.542  27.022  1.00  0.00    -0.014 A 
ATOM     71  C   UNL A   1      41.091  23.305  27.461  1.00  0.00     0.009 A 
ATOM     72  C   UNL A   1      39.341  24.585  26.387  1.00  0.00     0.009 A 
ATOM     73  C   UNL A   1      40.365  22.132  27.235  1.00  0.00     0.001 A 
ATOM     74  C   UNL A   1      38.607  23.415  26.188  1.00  0.00     0.001 A 
ATOM     75  C   UNL A   1      39.124  22.189  26.603  1.00  0.00     0.000 A 
ENDBRANCH  56  70
BRANCH  57  76
ATOM     76  C   UNL A   1      45.331  33.112  28.769  1.00  0.00    -0.014 A 
ATOM     77  C   UNL A   1      46.133  33.273  29.909  1.00  0.00     0.009 A 
ATOM     78  C   UNL A   1      45.186  34.192  27.883  1.00  0.00     0.009 A 
ATOM     79  C   UNL A   1      46.750  34.498  30.172  1.00  0.00     0.001 A 
ATOM     80  C   UNL A   1      45.829  35.405  28.133  1.00  0.00     0.001 A 
ATOM     81  C   UNL A   1      46.601  35.562  29.282  1.00  0.00     0.000 A 
ENDBRANCH  57  76
BRANCH  69  82
ATOM     82  C   UNL A   1      46.919  27.433  25.084  1.00  0.00    -0.014 A 
ATOM     83  C   UNL A   1      47.024  27.867  23.752  1.00  0.00     0.009 A 
ATOM     84  C   UNL A   1      47.960  26.666  25.630  1.00  0.00     0.009 A 
ATOM     85  C   UNL A   1      48.126  27.502  22.975  1.00  0.00     0.001 A 
ATOM     86  C   UNL A   1      49.075  26.329  24.860  1.00  0.00     0.001 A 
ATOM     87  C   UNL A   1      49.150  26.736  23.530  1.00  0.00     0.000 A 
ENDBRANCH  69  82
ENDBRANCH  43  44
ENDBRANCH  36  38
ENDBRANCH  35  36
ENDBRANCH  34  35
ENDBRANCH  33  34
ENDBRANCH  32  33
ENDBRANCH  31  32
ENDBRANCH   1  31
TORSDOF 22
ENDMDL
