MODEL 1
REMARK VINA RESULT:      -8.6      0.000      0.000
REMARK SMILES CC[C@H](C)[C@H](NC(=O)[C@H](C(C)C)n1c(=O)[nH]c2ccccc2c1=O)C(=O)OCCOCCOCCOC(=O)c1ccc(-c2c3nc(c(-c4ccccc4)c4ccc([nH]4)c(-c4ccccc4)c4nc(c(-c5ccccc5)c5ccc2[nH]5)C=C4)C=C3)cc1
REMARK SMILES IDX 31 1 30 2 29 3 28 4 27 5 25 6 26 7 5 8 3 9 4 10 2 11 1 12
REMARK SMILES IDX 6 13 7 14 8 16 9 17 13 18 14 19 23 20 15 21 16 22 22 23
REMARK SMILES IDX 24 24 17 25 21 27 18 28 20 29 19 30 10 31 11 32 12 33 32 34
REMARK SMILES IDX 33 35 34 36 35 37 36 38 37 39 38 40 39 41 40 42 86 43 41 44
REMARK SMILES IDX 85 45 42 46 43 47 44 48 79 49 45 50 84 51 78 52 80 53 46 54
REMARK SMILES IDX 83 55 77 56 76 57 47 59 69 60 54 61 68 62 55 63 58 64 67 65
REMARK SMILES IDX 81 66 56 67 57 68 66 70 82 71 59 72 48 73 49 74 53 75 50 76
REMARK SMILES IDX 52 77 51 78 70 79 71 80 75 81 72 82 74 83 73 84 60 85 61 86
REMARK SMILES IDX 65 87 62 88 64 89 63 90
REMARK H PARENT 6 15 16 26 80 58 58 69
REMARK Flexibility Score: inf
ROOT
ATOM      1  C   UNL A   1      51.203  26.276  39.794  1.00  0.00     0.188 C 
ENDROOT
BRANCH   1   2
ATOM      2  O   UNL A   1      51.304  24.887  40.034  1.00  0.00    -0.376 OA
BRANCH   2   3
ATOM      3  C   UNL A   1      51.325  23.957  38.965  1.00  0.00     0.202 C 
BRANCH   3   4
ATOM      4  C   UNL A   1      52.553  23.789  38.078  1.00  0.00     0.261 C 
BRANCH   4   5
ATOM      5  O   UNL A   1      52.583  22.554  37.353  1.00  0.00    -0.462 OA
BRANCH   5   6
ATOM      6  C   UNL A   1      51.932  22.551  36.158  1.00  0.00     0.328 C 
ATOM      7  O   UNL A   1      51.486  23.564  35.621  1.00  0.00    -0.250 OA
BRANCH   6   8
ATOM      8  C   UNL A   1      51.479  21.141  35.696  1.00  0.00     0.195 C 
BRANCH   8   9
ATOM      9  C   UNL A   1      52.877  20.626  35.410  1.00  0.00     0.019 C 
ATOM     10  C   UNL A   1      52.639  19.153  35.861  1.00  0.00     0.010 C 
BRANCH   9  11
ATOM     11  C   UNL A   1      53.252  21.426  34.037  1.00  0.00     0.002 C 
ATOM     12  C   UNL A   1      53.176  20.737  32.682  1.00  0.00     0.004 C 
ENDBRANCH   9  11
ENDBRANCH   8   9
BRANCH   8  13
ATOM     13  N   UNL A   1      50.605  20.529  34.645  1.00  0.00    -0.341 N 
ATOM     14  C   UNL A   1      49.251  20.627  34.334  1.00  0.00     0.244 C 
ATOM     15  H   UNL A   1      51.095  19.925  34.042  1.00  0.00     0.164 HD
ATOM     16  O   UNL A   1      49.043  20.220  33.174  1.00  0.00    -0.273 OA
BRANCH  14  17
ATOM     17  C   UNL A   1      47.953  21.299  35.217  1.00  0.00     0.187 C 
BRANCH  17  18
ATOM     18  N   UNL A   1      47.660  20.235  36.242  1.00  0.00    -0.247 N 
ATOM     19  C   UNL A   1      46.549  19.437  36.011  1.00  0.00     0.329 A 
ATOM     20  C   UNL A   1      48.315  20.284  37.480  1.00  0.00     0.264 A 
ATOM     21  O   UNL A   1      45.970  19.347  34.928  1.00  0.00    -0.248 OA
ATOM     22  N   UNL A   1      45.998  18.824  37.099  1.00  0.00    -0.307 N 
ATOM     23  C   UNL A   1      47.903  19.274  38.480  1.00  0.00     0.064 A 
ATOM     24  O   UNL A   1      49.120  21.153  37.811  1.00  0.00    -0.268 OA
ATOM     25  C   UNL A   1      46.651  18.696  38.317  1.00  0.00     0.055 A 
ATOM     26  H   UNL A   1      45.090  18.453  37.017  1.00  0.00     0.171 HD
ATOM     27  C   UNL A   1      48.681  18.942  39.591  1.00  0.00     0.016 A 
ATOM     28  C   UNL A   1      46.090  17.912  39.323  1.00  0.00     0.027 A 
ATOM     29  C   UNL A   1      48.166  18.068  40.554  1.00  0.00     0.001 A 
ATOM     30  C   UNL A   1      46.856  17.592  40.442  1.00  0.00     0.002 A 
ENDBRANCH  17  18
BRANCH  17  31
ATOM     31  C   UNL A   1      47.735  22.739  36.038  1.00  0.00     0.016 C 
ATOM     32  C   UNL A   1      48.232  24.157  35.613  1.00  0.00     0.010 C 
ATOM     33  C   UNL A   1      46.221  23.094  36.133  1.00  0.00     0.010 C 
ENDBRANCH  17  31
ENDBRANCH  14  17
ENDBRANCH   8  13
ENDBRANCH   6   8
ENDBRANCH   5   6
ENDBRANCH   4   5
ENDBRANCH   3   4
ENDBRANCH   2   3
ENDBRANCH   1   2
BRANCH   1  34
ATOM     34  C   UNL A   1      50.788  26.803  38.398  1.00  0.00     0.188 C 
BRANCH  34  35
ATOM     35  O   UNL A   1      49.429  26.931  38.059  1.00  0.00    -0.376 OA
BRANCH  35  36
ATOM     36  C   UNL A   1      48.729  28.072  38.517  1.00  0.00     0.202 C 
BRANCH  36  37
ATOM     37  C   UNL A   1      47.581  27.989  39.548  1.00  0.00     0.261 C 
BRANCH  37  38
ATOM     38  O   UNL A   1      46.233  27.970  39.045  1.00  0.00    -0.460 OA
BRANCH  38  39
ATOM     39  C   UNL A   1      45.917  26.956  38.179  1.00  0.00     0.338 C 
ATOM     40  O   UNL A   1      46.128  25.782  38.333  1.00  0.00    -0.246 OA
BRANCH  39  41
ATOM     41  C   UNL A   1      44.993  27.503  37.135  1.00  0.00     0.060 A 
ATOM     42  C   UNL A   1      43.675  27.065  37.030  1.00  0.00     0.016 A 
ATOM     43  C   UNL A   1      45.498  28.420  36.193  1.00  0.00     0.016 A 
ATOM     44  C   UNL A   1      42.855  27.570  36.011  1.00  0.00     0.010 A 
ATOM     45  C   UNL A   1      44.684  28.905  35.159  1.00  0.00     0.010 A 
ATOM     46  C   UNL A   1      43.343  28.509  35.080  1.00  0.00    -0.014 A 
BRANCH  46  47
ATOM     47  C   UNL A   1      42.379  29.252  34.221  1.00  0.00     0.031 A 
ATOM     48  C   UNL A   1      41.975  28.809  32.846  1.00  0.00     0.074 A 
ATOM     49  C   UNL A   1      41.838  30.373  34.740  1.00  0.00     0.049 A 
ATOM     50  N   UNL A   1      41.033  29.303  32.078  1.00  0.00    -0.248 NA
ATOM     51  C   UNL A   1      42.710  27.687  32.249  1.00  0.00     0.031 C 
ATOM     52  C   UNL A   1      42.184  30.932  36.049  1.00  0.00     0.029 A 
ATOM     53  N   UNL A   1      40.881  31.228  34.254  1.00  0.00    -0.354 N 
ATOM     54  C   UNL A   1      41.034  28.535  30.921  1.00  0.00     0.074 A 
ATOM     55  C   UNL A   1      42.109  27.572  31.067  1.00  0.00     0.031 C 
ATOM     56  C   UNL A   1      41.425  32.012  36.277  1.00  0.00     0.029 A 
ATOM     57  C   UNL A   1      40.562  32.244  35.124  1.00  0.00     0.049 A 
ATOM     58  H   UNL A   1      40.464  31.124  33.368  1.00  0.00     0.167 HD
ATOM     59  C   UNL A   1      40.202  28.617  29.854  1.00  0.00     0.031 A 
ATOM     60  C   UNL A   1      39.669  33.248  35.023  1.00  0.00     0.031 A 
ATOM     61  C   UNL A   1      39.150  29.596  29.704  1.00  0.00     0.049 A 
ATOM     62  C   UNL A   1      38.776  33.327  33.818  1.00  0.00     0.074 A 
ATOM     63  C   UNL A   1      38.234  29.714  28.670  1.00  0.00     0.029 A 
ATOM     64  N   UNL A   1      38.877  30.623  30.593  1.00  0.00    -0.354 N 
ATOM     65  N   UNL A   1      38.722  32.526  32.782  1.00  0.00    -0.248 NA
ATOM     66  C   UNL A   1      37.805  34.430  33.776  1.00  0.00     0.031 C 
ATOM     67  C   UNL A   1      37.460  30.854  28.894  1.00  0.00     0.029 A 
ATOM     68  C   UNL A   1      37.832  31.398  30.112  1.00  0.00     0.049 A 
ATOM     69  H   UNL A   1      39.354  30.780  31.440  1.00  0.00     0.167 HD
ATOM     70  C   UNL A   1      37.701  33.016  31.977  1.00  0.00     0.074 A 
ATOM     71  C   UNL A   1      37.145  34.167  32.655  1.00  0.00     0.031 C 
ATOM     72  C   UNL A   1      37.273  32.547  30.780  1.00  0.00     0.031 A 
BRANCH  59  73
ATOM     73  C   UNL A   1      40.343  27.606  28.744  1.00  0.00    -0.014 A 
ATOM     74  C   UNL A   1      41.066  27.928  27.582  1.00  0.00     0.009 A 
ATOM     75  C   UNL A   1      39.599  26.416  28.768  1.00  0.00     0.009 A 
ATOM     76  C   UNL A   1      41.015  27.099  26.460  1.00  0.00     0.001 A 
ATOM     77  C   UNL A   1      39.573  25.574  27.653  1.00  0.00     0.001 A 
ATOM     78  C   UNL A   1      40.267  25.923  26.496  1.00  0.00     0.000 A 
ENDBRANCH  59  73
BRANCH  60  79
ATOM     79  C   UNL A   1      39.569  34.238  36.129  1.00  0.00    -0.014 A 
ATOM     80  C   UNL A   1      40.287  35.444  36.063  1.00  0.00     0.009 A 
ATOM     81  C   UNL A   1      38.813  33.964  37.277  1.00  0.00     0.009 A 
ATOM     82  C   UNL A   1      40.272  36.340  37.133  1.00  0.00     0.001 A 
ATOM     83  C   UNL A   1      38.768  34.881  38.330  1.00  0.00     0.001 A 
ATOM     84  C   UNL A   1      39.508  36.062  38.263  1.00  0.00     0.000 A 
ENDBRANCH  60  79
BRANCH  72  85
ATOM     85  C   UNL A   1      36.136  33.263  30.098  1.00  0.00    -0.014 A 
ATOM     86  C   UNL A   1      36.351  33.897  28.862  1.00  0.00     0.009 A 
ATOM     87  C   UNL A   1      34.892  33.416  30.727  1.00  0.00     0.009 A 
ATOM     88  C   UNL A   1      35.355  34.687  28.284  1.00  0.00     0.001 A 
ATOM     89  C   UNL A   1      33.885  34.178  30.130  1.00  0.00     0.001 A 
ATOM     90  C   UNL A   1      34.121  34.824  28.917  1.00  0.00     0.000 A 
ENDBRANCH  72  85
ENDBRANCH  46  47
ENDBRANCH  39  41
ENDBRANCH  38  39
ENDBRANCH  37  38
ENDBRANCH  36  37
ENDBRANCH  35  36
ENDBRANCH  34  35
ENDBRANCH   1  34
TORSDOF 23
ENDMDL
MODEL 2
REMARK VINA RESULT:      -8.6     11.058     18.604
REMARK SMILES CC[C@H](C)[C@H](NC(=O)[C@H](C(C)C)n1c(=O)[nH]c2ccccc2c1=O)C(=O)OCCOCCOCCOC(=O)c1ccc(-c2c3nc(c(-c4ccccc4)c4ccc([nH]4)c(-c4ccccc4)c4nc(c(-c5ccccc5)c5ccc2[nH]5)C=C4)C=C3)cc1
REMARK SMILES IDX 31 1 30 2 29 3 28 4 27 5 25 6 26 7 5 8 3 9 4 10 2 11 1 12
REMARK SMILES IDX 6 13 7 14 8 16 9 17 13 18 14 19 23 20 15 21 16 22 22 23
REMARK SMILES IDX 24 24 17 25 21 27 18 28 20 29 19 30 10 31 11 32 12 33 32 34
REMARK SMILES IDX 33 35 34 36 35 37 36 38 37 39 38 40 39 41 40 42 86 43 41 44
REMARK SMILES IDX 85 45 42 46 43 47 44 48 79 49 45 50 84 51 78 52 80 53 46 54
REMARK SMILES IDX 83 55 77 56 76 57 47 59 69 60 54 61 68 62 55 63 58 64 67 65
REMARK SMILES IDX 81 66 56 67 57 68 66 70 82 71 59 72 48 73 49 74 53 75 50 76
REMARK SMILES IDX 52 77 51 78 70 79 71 80 75 81 72 82 74 83 73 84 60 85 61 86
REMARK SMILES IDX 65 87 62 88 64 89 63 90
REMARK H PARENT 6 15 16 26 80 58 58 69
REMARK Flexibility Score: inf
ROOT
ATOM      1  C   UNL A   1      45.501  39.494  27.585  1.00  0.00     0.188 C 
ENDROOT
BRANCH   1   2
ATOM      2  O   UNL A   1      45.775  38.923  26.322  1.00  0.00    -0.376 OA
BRANCH   2   3
ATOM      3  C   UNL A   1      46.652  39.554  25.405  1.00  0.00     0.202 C 
BRANCH   3   4
ATOM      4  C   UNL A   1      46.525  41.036  25.071  1.00  0.00     0.261 C 
BRANCH   4   5
ATOM      5  O   UNL A   1      46.560  41.896  26.216  1.00  0.00    -0.462 OA
BRANCH   5   6
ATOM      6  C   UNL A   1      47.377  42.980  26.121  1.00  0.00     0.328 C 
ATOM      7  O   UNL A   1      48.245  43.255  26.948  1.00  0.00    -0.250 OA
BRANCH   6   8
ATOM      8  C   UNL A   1      46.898  44.036  25.091  1.00  0.00     0.195 C 
BRANCH   8   9
ATOM      9  C   UNL A   1      47.466  45.231  25.832  1.00  0.00     0.019 C 
ATOM     10  C   UNL A   1      48.497  45.662  24.747  1.00  0.00     0.010 C 
BRANCH   9  11
ATOM     11  C   UNL A   1      46.132  45.844  26.547  1.00  0.00     0.002 C 
ATOM     12  C   UNL A   1      45.640  45.306  27.883  1.00  0.00     0.004 C 
ENDBRANCH   9  11
ENDBRANCH   8   9
BRANCH   8  13
ATOM     13  N   UNL A   1      45.614  44.515  24.485  1.00  0.00    -0.341 N 
ATOM     14  C   UNL A   1      44.878  44.150  23.360  1.00  0.00     0.244 C 
ATOM     15  H   UNL A   1      45.199  45.248  24.994  1.00  0.00     0.164 HD
ATOM     16  O   UNL A   1      43.710  44.579  23.449  1.00  0.00    -0.273 OA
BRANCH  14  17
ATOM     17  C   UNL A   1      45.294  43.159  22.033  1.00  0.00     0.187 C 
BRANCH  17  18
ATOM     18  N   UNL A   1      44.356  43.635  20.954  1.00  0.00    -0.247 N 
ATOM     19  C   UNL A   1      43.367  42.748  20.555  1.00  0.00     0.329 A 
ATOM     20  C   UNL A   1      44.687  44.783  20.223  1.00  0.00     0.264 A 
ATOM     21  O   UNL A   1      43.030  41.749  21.190  1.00  0.00    -0.248 OA
ATOM     22  N   UNL A   1      42.836  42.942  19.312  1.00  0.00    -0.307 N 
ATOM     23  C   UNL A   1      43.780  45.134  19.108  1.00  0.00     0.064 A 
ATOM     24  O   UNL A   1      45.712  45.444  20.384  1.00  0.00    -0.268 OA
ATOM     25  C   UNL A   1      42.991  44.116  18.588  1.00  0.00     0.055 A 
ATOM     26  H   UNL A   1      42.318  42.210  18.906  1.00  0.00     0.171 HD
ATOM     27  C   UNL A   1      43.739  46.406  18.531  1.00  0.00     0.016 A 
ATOM     28  C   UNL A   1      42.282  44.296  17.403  1.00  0.00     0.027 A 
ATOM     29  C   UNL A   1      42.943  46.623  17.402  1.00  0.00     0.001 A 
ATOM     30  C   UNL A   1      42.253  45.558  16.814  1.00  0.00     0.002 A 
ENDBRANCH  17  18
BRANCH  17  31
ATOM     31  C   UNL A   1      46.726  42.842  21.229  1.00  0.00     0.016 C 
ATOM     32  C   UNL A   1      48.149  43.377  21.583  1.00  0.00     0.010 C 
ATOM     33  C   UNL A   1      47.073  41.325  21.304  1.00  0.00     0.010 C 
ENDBRANCH  17  31
ENDBRANCH  14  17
ENDBRANCH   8  13
ENDBRANCH   6   8
ENDBRANCH   5   6
ENDBRANCH   4   5
ENDBRANCH   3   4
ENDBRANCH   2   3
ENDBRANCH   1   2
BRANCH   1  34
ATOM     34  C   UNL A   1      45.743  38.683  28.881  1.00  0.00     0.188 C 
BRANCH  34  35
ATOM     35  O   UNL A   1      46.724  39.088  29.804  1.00  0.00    -0.376 OA
BRANCH  35  36
ATOM     36  C   UNL A   1      46.496  38.836  31.178  1.00  0.00     0.202 C 
BRANCH  36  37
ATOM     37  C   UNL A   1      45.947  37.489  31.700  1.00  0.00     0.261 C 
BRANCH  37  38
ATOM     38  O   UNL A   1      46.893  36.432  31.939  1.00  0.00    -0.460 OA
BRANCH  38  39
ATOM     39  C   UNL A   1      47.425  35.825  30.832  1.00  0.00     0.338 C 
ATOM     40  O   UNL A   1      48.462  36.096  30.286  1.00  0.00    -0.246 OA
BRANCH  39  41
ATOM     41  C   UNL A   1      46.657  34.564  30.576  1.00  0.00     0.060 A 
ATOM     42  C   UNL A   1      46.254  34.207  29.292  1.00  0.00     0.016 A 
ATOM     43  C   UNL A   1      46.269  33.770  31.673  1.00  0.00     0.016 A 
ATOM     44  C   UNL A   1      45.498  33.042  29.101  1.00  0.00     0.010 A 
ATOM     45  C   UNL A   1      45.493  32.618  31.483  1.00  0.00     0.010 A 
ATOM     46  C   UNL A   1      45.128  32.225  30.189  1.00  0.00    -0.014 A 
BRANCH  46  47
ATOM     47  C   UNL A   1      44.609  30.854  29.927  1.00  0.00     0.031 A 
ATOM     48  C   UNL A   1      43.152  30.527  29.786  1.00  0.00     0.074 A 
ATOM     49  C   UNL A   1      45.523  29.871  29.795  1.00  0.00     0.049 A 
ATOM     50  N   UNL A   1      42.606  29.395  29.410  1.00  0.00    -0.248 NA
ATOM     51  C   UNL A   1      42.183  31.584  30.107  1.00  0.00     0.031 C 
ATOM     52  C   UNL A   1      46.967  30.053  29.955  1.00  0.00     0.029 A 
ATOM     53  N   UNL A   1      45.387  28.541  29.480  1.00  0.00    -0.354 N 
ATOM     54  C   UNL A   1      41.234  29.607  29.415  1.00  0.00     0.074 A 
ATOM     55  C   UNL A   1      41.027  30.964  29.882  1.00  0.00     0.031 C 
ATOM     56  C   UNL A   1      47.585  28.892  29.701  1.00  0.00     0.029 A 
ATOM     57  C   UNL A   1      46.585  27.875  29.391  1.00  0.00     0.049 A 
ATOM     58  H   UNL A   1      44.515  28.108  29.332  1.00  0.00     0.167 HD
ATOM     59  C   UNL A   1      40.248  28.753  29.043  1.00  0.00     0.031 A 
ATOM     60  C   UNL A   1      46.865  26.592  29.085  1.00  0.00     0.031 A 
ATOM     61  C   UNL A   1      40.459  27.393  28.603  1.00  0.00     0.049 A 
ATOM     62  C   UNL A   1      45.749  25.663  28.699  1.00  0.00     0.074 A 
ATOM     63  C   UNL A   1      39.513  26.480  28.165  1.00  0.00     0.029 A 
ATOM     64  N   UNL A   1      41.684  26.747  28.554  1.00  0.00    -0.354 N 
ATOM     65  N   UNL A   1      44.467  25.914  28.607  1.00  0.00    -0.248 NA
ATOM     66  C   UNL A   1      46.119  24.283  28.352  1.00  0.00     0.031 C 
ATOM     67  C   UNL A   1      40.152  25.262  27.927  1.00  0.00     0.029 A 
ATOM     68  C   UNL A   1      41.510  25.439  28.128  1.00  0.00     0.049 A 
ATOM     69  H   UNL A   1      42.549  27.155  28.787  1.00  0.00     0.167 HD
ATOM     70  C   UNL A   1      43.879  24.732  28.173  1.00  0.00     0.074 A 
ATOM     71  C   UNL A   1      44.947  23.772  27.995  1.00  0.00     0.031 C 
ATOM     72  C   UNL A   1      42.568  24.475  27.949  1.00  0.00     0.031 A 
BRANCH  59  73
ATOM     73  C   UNL A   1      38.822  29.244  29.049  1.00  0.00    -0.014 A 
ATOM     74  C   UNL A   1      38.030  29.099  30.203  1.00  0.00     0.009 A 
ATOM     75  C   UNL A   1      38.210  29.667  27.859  1.00  0.00     0.009 A 
ATOM     76  C   UNL A   1      36.655  29.335  30.155  1.00  0.00     0.001 A 
ATOM     77  C   UNL A   1      36.838  29.930  27.822  1.00  0.00     0.001 A 
ATOM     78  C   UNL A   1      36.060  29.750  28.964  1.00  0.00     0.000 A 
ENDBRANCH  59  73
BRANCH  60  79
ATOM     79  C   UNL A   1      48.281  26.138  29.105  1.00  0.00    -0.014 A 
ATOM     80  C   UNL A   1      48.876  25.739  30.314  1.00  0.00     0.009 A 
ATOM     81  C   UNL A   1      49.063  26.158  27.942  1.00  0.00     0.009 A 
ATOM     82  C   UNL A   1      50.228  25.396  30.362  1.00  0.00     0.001 A 
ATOM     83  C   UNL A   1      50.406  25.776  27.986  1.00  0.00     0.001 A 
ATOM     84  C   UNL A   1      50.990  25.408  29.197  1.00  0.00     0.000 A 
ENDBRANCH  60  79
BRANCH  72  85
ATOM     85  C   UNL A   1      42.181  23.097  27.478  1.00  0.00    -0.014 A 
ATOM     86  C   UNL A   1      42.716  22.593  26.280  1.00  0.00     0.009 A 
ATOM     87  C   UNL A   1      41.201  22.349  28.147  1.00  0.00     0.009 A 
ATOM     88  C   UNL A   1      42.262  21.383  25.750  1.00  0.00     0.001 A 
ATOM     89  C   UNL A   1      40.773  21.122  27.633  1.00  0.00     0.001 A 
ATOM     90  C   UNL A   1      41.293  20.647  26.429  1.00  0.00     0.000 A 
ENDBRANCH  72  85
ENDBRANCH  46  47
ENDBRANCH  39  41
ENDBRANCH  38  39
ENDBRANCH  37  38
ENDBRANCH  36  37
ENDBRANCH  35  36
ENDBRANCH  34  35
ENDBRANCH   1  34
TORSDOF 23
ENDMDL
MODEL 3
REMARK VINA RESULT:      -8.5      5.559     10.840
REMARK SMILES CC[C@H](C)[C@H](NC(=O)[C@H](C(C)C)n1c(=O)[nH]c2ccccc2c1=O)C(=O)OCCOCCOCCOC(=O)c1ccc(-c2c3nc(c(-c4ccccc4)c4ccc([nH]4)c(-c4ccccc4)c4nc(c(-c5ccccc5)c5ccc2[nH]5)C=C4)C=C3)cc1
REMARK SMILES IDX 31 1 30 2 29 3 28 4 27 5 25 6 26 7 5 8 3 9 4 10 2 11 1 12
REMARK SMILES IDX 6 13 7 14 8 16 9 17 13 18 14 19 23 20 15 21 16 22 22 23
REMARK SMILES IDX 24 24 17 25 21 27 18 28 20 29 19 30 10 31 11 32 12 33 32 34
REMARK SMILES IDX 33 35 34 36 35 37 36 38 37 39 38 40 39 41 40 42 86 43 41 44
REMARK SMILES IDX 85 45 42 46 43 47 44 48 79 49 45 50 84 51 78 52 80 53 46 54
REMARK SMILES IDX 83 55 77 56 76 57 47 59 69 60 54 61 68 62 55 63 58 64 67 65
REMARK SMILES IDX 81 66 56 67 57 68 66 70 82 71 59 72 48 73 49 74 53 75 50 76
REMARK SMILES IDX 52 77 51 78 70 79 71 80 75 81 72 82 74 83 73 84 60 85 61 86
REMARK SMILES IDX 65 87 62 88 64 89 63 90
REMARK H PARENT 6 15 16 26 80 58 58 69
REMARK Flexibility Score: inf
ROOT
ATOM      1  C   UNL A   1      39.500  30.894  33.066  1.00  0.00     0.188 C 
ENDROOT
BRANCH   1   2
ATOM      2  O   UNL A   1      40.516  29.938  32.846  1.00  0.00    -0.376 OA
BRANCH   2   3
ATOM      3  C   UNL A   1      40.346  28.584  33.230  1.00  0.00     0.202 C 
BRANCH   3   4
ATOM      4  C   UNL A   1      41.177  27.961  34.346  1.00  0.00     0.261 C 
BRANCH   4   5
ATOM      5  O   UNL A   1      42.309  27.217  33.883  1.00  0.00    -0.462 OA
BRANCH   5   6
ATOM      6  C   UNL A   1      42.566  26.053  34.540  1.00  0.00     0.328 C 
ATOM      7  O   UNL A   1      41.761  25.501  35.289  1.00  0.00    -0.250 OA
BRANCH   6   8
ATOM      8  C   UNL A   1      44.067  25.663  34.559  1.00  0.00     0.195 C 
BRANCH   8   9
ATOM      9  C   UNL A   1      43.855  24.304  35.200  1.00  0.00     0.019 C 
ATOM     10  C   UNL A   1      43.909  23.460  33.890  1.00  0.00     0.010 C 
BRANCH   9  11
ATOM     11  C   UNL A   1      44.713  24.451  36.581  1.00  0.00     0.002 C 
ATOM     12  C   UNL A   1      44.124  25.147  37.800  1.00  0.00     0.004 C 
ENDBRANCH   9  11
ENDBRANCH   8   9
BRANCH   8  13
ATOM     13  N   UNL A   1      45.355  26.176  35.126  1.00  0.00    -0.341 N 
ATOM     14  C   UNL A   1      46.206  27.228  34.798  1.00  0.00     0.244 C 
ATOM     15  H   UNL A   1      45.668  25.655  35.900  1.00  0.00     0.164 HD
ATOM     16  O   UNL A   1      46.965  27.485  35.754  1.00  0.00    -0.273 OA
BRANCH  14  17
ATOM     17  C   UNL A   1      46.261  28.223  33.411  1.00  0.00     0.187 C 
BRANCH  17  18
ATOM     18  N   UNL A   1      47.650  27.979  32.880  1.00  0.00    -0.247 N 
ATOM     19  C   UNL A   1      48.394  29.101  32.546  1.00  0.00     0.329 A 
ATOM     20  C   UNL A   1      48.010  26.685  32.483  1.00  0.00     0.264 A 
ATOM     21  O   UNL A   1      48.124  30.248  32.904  1.00  0.00    -0.248 OA
ATOM     22  N   UNL A   1      49.411  28.919  31.652  1.00  0.00    -0.307 N 
ATOM     23  C   UNL A   1      49.348  26.534  31.871  1.00  0.00     0.064 A 
ATOM     24  O   UNL A   1      47.262  25.709  32.522  1.00  0.00    -0.268 OA
ATOM     25  C   UNL A   1      49.927  27.673  31.325  1.00  0.00     0.055 A 
ATOM     26  H   UNL A   1      49.798  29.712  31.217  1.00  0.00     0.171 HD
ATOM     27  C   UNL A   1      50.003  25.305  31.766  1.00  0.00     0.016 A 
ATOM     28  C   UNL A   1      51.071  27.584  30.535  1.00  0.00     0.027 A 
ATOM     29  C   UNL A   1      51.211  25.228  31.064  1.00  0.00     0.001 A 
ATOM     30  C   UNL A   1      51.718  26.356  30.413  1.00  0.00     0.002 A 
ENDBRANCH  17  18
BRANCH  17  31
ATOM     31  C   UNL A   1      45.310  28.354  32.043  1.00  0.00     0.016 C 
ATOM     32  C   UNL A   1      44.529  27.213  31.318  1.00  0.00     0.010 C 
ATOM     33  C   UNL A   1      44.083  29.276  32.312  1.00  0.00     0.010 C 
ENDBRANCH  17  31
ENDBRANCH  14  17
ENDBRANCH   8  13
ENDBRANCH   6   8
ENDBRANCH   5   6
ENDBRANCH   4   5
ENDBRANCH   3   4
ENDBRANCH   2   3
ENDBRANCH   1   2
BRANCH   1  34
ATOM     34  C   UNL A   1      39.130  31.913  31.960  1.00  0.00     0.188 C 
BRANCH  34  35
ATOM     35  O   UNL A   1      38.136  32.882  32.186  1.00  0.00    -0.376 OA
BRANCH  35  36
ATOM     36  C   UNL A   1      37.252  33.195  31.126  1.00  0.00     0.202 C 
BRANCH  36  37
ATOM     37  C   UNL A   1      35.881  32.503  30.951  1.00  0.00     0.261 C 
BRANCH  37  38
ATOM     38  O   UNL A   1      35.875  31.076  30.763  1.00  0.00    -0.460 OA
BRANCH  38  39
ATOM     39  C   UNL A   1      35.818  30.629  29.468  1.00  0.00     0.338 C 
ATOM     40  O   UNL A   1      35.018  30.946  28.629  1.00  0.00    -0.246 OA
BRANCH  39  41
ATOM     41  C   UNL A   1      37.096  29.906  29.168  1.00  0.00     0.060 A 
ATOM     42  C   UNL A   1      37.677  29.954  27.903  1.00  0.00     0.016 A 
ATOM     43  C   UNL A   1      37.671  29.098  30.168  1.00  0.00     0.016 A 
ATOM     44  C   UNL A   1      38.848  29.227  27.650  1.00  0.00     0.010 A 
ATOM     45  C   UNL A   1      38.829  28.353  29.906  1.00  0.00     0.010 A 
ATOM     46  C   UNL A   1      39.449  28.438  28.653  1.00  0.00    -0.014 A 
BRANCH  46  47
ATOM     47  C   UNL A   1      40.839  27.941  28.454  1.00  0.00     0.031 A 
ATOM     48  C   UNL A   1      41.170  26.546  28.011  1.00  0.00     0.074 A 
ATOM     49  C   UNL A   1      41.837  28.819  28.673  1.00  0.00     0.049 A 
ATOM     50  N   UNL A   1      42.338  26.060  27.666  1.00  0.00    -0.248 NA
ATOM     51  C   UNL A   1      40.072  25.572  27.950  1.00  0.00     0.031 C 
ATOM     52  C   UNL A   1      41.646  30.191  29.150  1.00  0.00     0.029 A 
ATOM     53  N   UNL A   1      43.196  28.709  28.511  1.00  0.00    -0.354 N 
ATOM     54  C   UNL A   1      42.117  24.735  27.313  1.00  0.00     0.074 A 
ATOM     55  C   UNL A   1      40.707  24.478  27.537  1.00  0.00     0.031 C 
ATOM     56  C   UNL A   1      42.836  30.804  29.205  1.00  0.00     0.029 A 
ATOM     57  C   UNL A   1      43.878  29.866  28.799  1.00  0.00     0.049 A 
ATOM     58  H   UNL A   1      43.638  27.880  28.215  1.00  0.00     0.167 HD
ATOM     59  C   UNL A   1      43.005  23.832  26.830  1.00  0.00     0.031 A 
ATOM     60  C   UNL A   1      45.192  30.159  28.738  1.00  0.00     0.031 A 
ATOM     61  C   UNL A   1      44.414  24.087  26.634  1.00  0.00     0.049 A 
ATOM     62  C   UNL A   1      46.156  29.130  28.220  1.00  0.00     0.074 A 
ATOM     63  C   UNL A   1      45.371  23.235  26.104  1.00  0.00     0.029 A 
ATOM     64  N   UNL A   1      45.071  25.262  26.965  1.00  0.00    -0.354 N 
ATOM     65  N   UNL A   1      45.910  27.917  27.791  1.00  0.00    -0.248 NA
ATOM     66  C   UNL A   1      47.574  29.516  28.154  1.00  0.00     0.031 C 
ATOM     67  C   UNL A   1      46.614  23.863  26.186  1.00  0.00     0.029 A 
ATOM     68  C   UNL A   1      46.423  25.141  26.683  1.00  0.00     0.049 A 
ATOM     69  H   UNL A   1      44.641  26.062  27.343  1.00  0.00     0.167 HD
ATOM     70  C   UNL A   1      47.136  27.402  27.386  1.00  0.00     0.074 A 
ATOM     71  C   UNL A   1      48.119  28.442  27.596  1.00  0.00     0.031 C 
ATOM     72  C   UNL A   1      47.410  26.172  26.890  1.00  0.00     0.031 A 
BRANCH  59  73
ATOM     73  C   UNL A   1      42.507  22.466  26.431  1.00  0.00    -0.014 A 
ATOM     74  C   UNL A   1      41.183  22.087  26.712  1.00  0.00     0.009 A 
ATOM     75  C   UNL A   1      43.401  21.494  25.955  1.00  0.00     0.009 A 
ATOM     76  C   UNL A   1      40.775  20.760  26.559  1.00  0.00     0.001 A 
ATOM     77  C   UNL A   1      42.983  20.173  25.775  1.00  0.00     0.001 A 
ATOM     78  C   UNL A   1      41.676  19.804  26.091  1.00  0.00     0.000 A 
ENDBRANCH  59  73
BRANCH  60  79
ATOM     79  C   UNL A   1      45.650  31.511  29.156  1.00  0.00    -0.014 A 
ATOM     80  C   UNL A   1      45.759  32.544  28.209  1.00  0.00     0.009 A 
ATOM     81  C   UNL A   1      46.039  31.764  30.479  1.00  0.00     0.009 A 
ATOM     82  C   UNL A   1      46.272  33.789  28.570  1.00  0.00     0.001 A 
ATOM     83  C   UNL A   1      46.515  33.026  30.846  1.00  0.00     0.001 A 
ATOM     84  C   UNL A   1      46.643  34.032  29.890  1.00  0.00     0.000 A 
ENDBRANCH  60  79
BRANCH  72  85
ATOM     85  C   UNL A   1      48.836  25.853  26.522  1.00  0.00    -0.014 A 
ATOM     86  C   UNL A   1      49.697  25.290  27.480  1.00  0.00     0.009 A 
ATOM     87  C   UNL A   1      49.363  26.216  25.273  1.00  0.00     0.009 A 
ATOM     88  C   UNL A   1      51.055  25.122  27.207  1.00  0.00     0.001 A 
ATOM     89  C   UNL A   1      50.716  26.014  24.989  1.00  0.00     0.001 A 
ATOM     90  C   UNL A   1      51.564  25.481  25.960  1.00  0.00     0.000 A 
ENDBRANCH  72  85
ENDBRANCH  46  47
ENDBRANCH  39  41
ENDBRANCH  38  39
ENDBRANCH  37  38
ENDBRANCH  36  37
ENDBRANCH  35  36
ENDBRANCH  34  35
ENDBRANCH   1  34
TORSDOF 23
ENDMDL
