MODEL 1
REMARK VINA RESULT:     -10.2      0.000      0.000
REMARK SMILES Cc1nc(-c2ccc(S(=O)(=O)N3CC[NH2+][C@H](C(=O)OCCOCCOCCOC(=O)c4ccc(-c5c6nc(c(-c7ccccc7)c7ccc([nH]7)c(-c7ccccc7)c7nc(c(-c8ccccc8)c8ccc5[nH]8)C=C7)C=C6)cc4)C3)s2)cs1
REMARK SMILES IDX 23 1 22 2 21 3 20 4 19 5 17 6 18 7 16 8 12 9 13 10 79 11
REMARK SMILES IDX 14 12 15 13 9 16 10 17 11 18 8 19 5 20 6 21 80 22 7 23 4 24
REMARK SMILES IDX 1 25 2 26 3 27 82 28 81 29 24 30 25 31 26 32 27 33 28 34
REMARK SMILES IDX 29 35 30 36 31 37 32 38 78 39 33 40 77 41 34 42 35 43 36 44
REMARK SMILES IDX 71 45 37 46 76 47 70 48 72 49 38 50 75 51 69 52 68 53 39 55
REMARK SMILES IDX 61 56 46 57 60 58 47 59 50 60 59 61 73 62 48 63 49 64 58 66
REMARK SMILES IDX 74 67 51 68 40 69 41 70 45 71 42 72 44 73 43 74 62 75 63 76
REMARK SMILES IDX 67 77 64 78 66 79 65 80 52 81 53 82 57 83 54 84 56 85 55 86
REMARK H PARENT 15 14 15 15 72 54 50 65
REMARK Flexibility Score: inf
ROOT
ATOM      1  C   UNL A   1      36.912  22.696  25.305  1.00  0.00     0.188 C 
ENDROOT
BRANCH   1   2
ATOM      2  O   UNL A   1      36.973  22.762  23.885  1.00  0.00    -0.376 OA
BRANCH   2   3
ATOM      3  C   UNL A   1      35.764  22.883  23.151  1.00  0.00     0.202 C 
BRANCH   3   4
ATOM      4  C   UNL A   1      34.873  24.072  23.511  1.00  0.00     0.261 C 
BRANCH   4   5
ATOM      5  O   UNL A   1      33.861  24.326  22.517  1.00  0.00    -0.459 OA
BRANCH   5   6
ATOM      6  C   UNL A   1      33.560  25.636  22.321  1.00  0.00     0.366 C 
ATOM      7  O   UNL A   1      33.637  26.213  21.242  1.00  0.00    -0.245 OA
BRANCH   6   8
ATOM      8  C   UNL A   1      33.061  26.337  23.578  1.00  0.00     0.308 C 
ATOM      9  N   UNL A   1      31.191  26.824  25.058  1.00  0.00    -0.185 NA
ATOM     10  C   UNL A   1      31.816  28.084  25.536  1.00  0.00     0.164 C 
ATOM     11  C   UNL A   1      31.547  26.513  23.646  1.00  0.00     0.180 C 
ATOM     12  C   UNL A   1      33.316  28.203  25.172  1.00  0.00     0.278 C 
ATOM     13  N   UNL A   1      33.775  27.617  23.889  1.00  0.00    -0.332 N 
ATOM     14  H   UNL A   1      34.776  27.431  23.950  1.00  0.00     0.347 HD
ATOM     15  H   UNL A   1      33.573  28.283  23.144  1.00  0.00     0.347 HD
BRANCH   9  16
ATOM     16  S   UNL A   1      30.937  25.520  26.123  1.00  0.00     0.253 S 
ATOM     17  O   UNL A   1      29.515  25.492  26.390  1.00  0.00    -0.206 OA
ATOM     18  O   UNL A   1      31.911  25.626  27.188  1.00  0.00    -0.206 OA
BRANCH  16  19
ATOM     19  C   UNL A   1      31.310  23.939  25.350  1.00  0.00     0.135 A 
ATOM     20  C   UNL A   1      32.218  21.656  25.015  1.00  0.00     0.055 A 
ATOM     21  C   UNL A   1      31.472  22.080  23.942  1.00  0.00     0.023 A 
ATOM     22  S   UNL A   1      32.242  22.811  26.268  1.00  0.00    -0.121 S 
ATOM     23  C   UNL A   1      31.020  23.409  24.106  1.00  0.00     0.034 A 
BRANCH  20  24
ATOM     24  C   UNL A   1      32.921  20.337  24.961  1.00  0.00     0.091 A 
ATOM     25  C   UNL A   1      32.405  16.737  25.175  1.00  0.00     0.079 C 
ATOM     26  C   UNL A   1      32.930  18.123  25.050  1.00  0.00     0.090 A 
ATOM     27  N   UNL A   1      32.193  19.191  25.237  1.00  0.00    -0.241 NA
ATOM     28  S   UNL A   1      34.568  18.431  24.636  1.00  0.00    -0.127 S 
ATOM     29  C   UNL A   1      34.240  20.123  24.626  1.00  0.00     0.096 A 
ENDBRANCH  20  24
ENDBRANCH  16  19
ENDBRANCH   9  16
ENDBRANCH   6   8
ENDBRANCH   5   6
ENDBRANCH   4   5
ENDBRANCH   3   4
ENDBRANCH   2   3
ENDBRANCH   1   2
BRANCH   1  30
ATOM     30  C   UNL A   1      38.224  22.598  26.109  1.00  0.00     0.188 C 
BRANCH  30  31
ATOM     31  O   UNL A   1      39.198  21.631  25.753  1.00  0.00    -0.376 OA
BRANCH  31  32
ATOM     32  C   UNL A   1      40.266  21.393  26.656  1.00  0.00     0.202 C 
BRANCH  32  33
ATOM     33  C   UNL A   1      41.663  21.434  26.037  1.00  0.00     0.261 C 
BRANCH  33  34
ATOM     34  O   UNL A   1      41.937  22.704  25.417  1.00  0.00    -0.460 OA
BRANCH  34  35
ATOM     35  C   UNL A   1      43.167  23.226  25.641  1.00  0.00     0.338 C 
ATOM     36  O   UNL A   1      44.191  23.000  25.019  1.00  0.00    -0.246 OA
BRANCH  35  37
ATOM     37  C   UNL A   1      43.082  24.264  26.688  1.00  0.00     0.060 A 
ATOM     38  C   UNL A   1      42.660  23.885  27.970  1.00  0.00     0.016 A 
ATOM     39  C   UNL A   1      43.344  25.604  26.397  1.00  0.00     0.016 A 
ATOM     40  C   UNL A   1      42.450  24.853  28.954  1.00  0.00     0.010 A 
ATOM     41  C   UNL A   1      43.119  26.572  27.378  1.00  0.00     0.010 A 
ATOM     42  C   UNL A   1      42.637  26.205  28.647  1.00  0.00    -0.014 A 
BRANCH  42  43
ATOM     43  C   UNL A   1      42.175  27.269  29.569  1.00  0.00     0.031 A 
ATOM     44  C   UNL A   1      42.901  27.453  30.873  1.00  0.00     0.074 A 
ATOM     45  C   UNL A   1      41.100  28.024  29.284  1.00  0.00     0.049 A 
ATOM     46  N   UNL A   1      42.574  28.182  31.909  1.00  0.00    -0.248 NA
ATOM     47  C   UNL A   1      44.164  26.712  31.027  1.00  0.00     0.031 C 
ATOM     48  C   UNL A   1      40.350  27.995  28.031  1.00  0.00     0.029 A 
ATOM     49  N   UNL A   1      40.443  28.951  30.054  1.00  0.00    -0.354 N 
ATOM     50  C   UNL A   1      43.578  27.971  32.845  1.00  0.00     0.074 A 
ATOM     51  C   UNL A   1      44.522  27.045  32.258  1.00  0.00     0.031 C 
ATOM     52  C   UNL A   1      39.313  28.846  28.129  1.00  0.00     0.029 A 
ATOM     53  C   UNL A   1      39.303  29.440  29.465  1.00  0.00     0.049 A 
ATOM     54  H   UNL A   1      40.757  29.236  30.943  1.00  0.00     0.167 HD
ATOM     55  C   UNL A   1      43.699  28.495  34.087  1.00  0.00     0.031 A 
ATOM     56  C   UNL A   1      38.340  30.239  29.964  1.00  0.00     0.031 A 
ATOM     57  C   UNL A   1      42.752  29.397  34.681  1.00  0.00     0.049 A 
ATOM     58  C   UNL A   1      38.440  30.726  31.387  1.00  0.00     0.074 A 
ATOM     59  C   UNL A   1      42.785  29.977  35.938  1.00  0.00     0.029 A 
ATOM     60  N   UNL A   1      41.597  29.844  34.061  1.00  0.00    -0.354 N 
ATOM     61  N   UNL A   1      39.388  30.518  32.268  1.00  0.00    -0.248 NA
ATOM     62  C   UNL A   1      37.328  31.551  31.886  1.00  0.00     0.031 C 
ATOM     63  C   UNL A   1      41.623  30.740  36.094  1.00  0.00     0.029 A 
ATOM     64  C   UNL A   1      40.896  30.674  34.917  1.00  0.00     0.049 A 
ATOM     65  H   UNL A   1      41.318  29.606  33.148  1.00  0.00     0.167 HD
ATOM     66  C   UNL A   1      39.004  31.209  33.411  1.00  0.00     0.074 A 
ATOM     67  C   UNL A   1      37.738  31.845  33.113  1.00  0.00     0.031 C 
ATOM     68  C   UNL A   1      39.645  31.312  34.600  1.00  0.00     0.031 A 
BRANCH  55  69
ATOM     69  C   UNL A   1      44.879  28.059  34.905  1.00  0.00    -0.014 A 
ATOM     70  C   UNL A   1      46.079  28.786  34.896  1.00  0.00     0.009 A 
ATOM     71  C   UNL A   1      44.779  26.917  35.715  1.00  0.00     0.009 A 
ATOM     72  C   UNL A   1      47.166  28.360  35.661  1.00  0.00     0.001 A 
ATOM     73  C   UNL A   1      45.859  26.507  36.496  1.00  0.00     0.001 A 
ATOM     74  C   UNL A   1      47.054  27.224  36.463  1.00  0.00     0.000 A 
ENDBRANCH  55  69
BRANCH  56  75
ATOM     75  C   UNL A   1      37.163  30.597  29.132  1.00  0.00    -0.014 A 
ATOM     76  C   UNL A   1      36.972  31.917  28.698  1.00  0.00     0.009 A 
ATOM     77  C   UNL A   1      36.211  29.623  28.789  1.00  0.00     0.009 A 
ATOM     78  C   UNL A   1      35.838  32.259  27.956  1.00  0.00     0.001 A 
ATOM     79  C   UNL A   1      35.093  29.964  28.025  1.00  0.00     0.001 A 
ATOM     80  C   UNL A   1      34.903  31.283  27.616  1.00  0.00     0.000 A 
ENDBRANCH  56  75
BRANCH  68  81
ATOM     81  C   UNL A   1      39.025  32.181  35.655  1.00  0.00    -0.014 A 
ATOM     82  C   UNL A   1      38.422  31.627  36.794  1.00  0.00     0.009 A 
ATOM     83  C   UNL A   1      39.118  33.577  35.543  1.00  0.00     0.009 A 
ATOM     84  C   UNL A   1      37.911  32.457  37.794  1.00  0.00     0.001 A 
ATOM     85  C   UNL A   1      38.627  34.404  36.554  1.00  0.00     0.001 A 
ATOM     86  C   UNL A   1      38.020  33.843  37.676  1.00  0.00     0.000 A 
ENDBRANCH  68  81
ENDBRANCH  42  43
ENDBRANCH  35  37
ENDBRANCH  34  35
ENDBRANCH  33  34
ENDBRANCH  32  33
ENDBRANCH  31  32
ENDBRANCH  30  31
ENDBRANCH   1  30
TORSDOF 20
ENDMDL
MODEL 2
REMARK VINA RESULT:     -10.2      1.346      5.905
REMARK SMILES Cc1nc(-c2ccc(S(=O)(=O)N3CC[NH2+][C@H](C(=O)OCCOCCOCCOC(=O)c4ccc(-c5c6nc(c(-c7ccccc7)c7ccc([nH]7)c(-c7ccccc7)c7nc(c(-c8ccccc8)c8ccc5[nH]8)C=C7)C=C6)cc4)C3)s2)cs1
REMARK SMILES IDX 23 1 22 2 21 3 20 4 19 5 17 6 18 7 16 8 12 9 13 10 79 11
REMARK SMILES IDX 14 12 15 13 9 16 10 17 11 18 8 19 5 20 6 21 80 22 7 23 4 24
REMARK SMILES IDX 1 25 2 26 3 27 82 28 81 29 24 30 25 31 26 32 27 33 28 34
REMARK SMILES IDX 29 35 30 36 31 37 32 38 78 39 33 40 77 41 34 42 35 43 36 44
REMARK SMILES IDX 71 45 37 46 76 47 70 48 72 49 38 50 75 51 69 52 68 53 39 55
REMARK SMILES IDX 61 56 46 57 60 58 47 59 50 60 59 61 73 62 48 63 49 64 58 66
REMARK SMILES IDX 74 67 51 68 40 69 41 70 45 71 42 72 44 73 43 74 62 75 63 76
REMARK SMILES IDX 67 77 64 78 66 79 65 80 52 81 53 82 57 83 54 84 56 85 55 86
REMARK H PARENT 15 14 15 15 72 54 50 65
REMARK Flexibility Score: inf
ROOT
ATOM      1  C   UNL A   1      37.071  22.365  25.353  1.00  0.00     0.188 C 
ENDROOT
BRANCH   1   2
ATOM      2  O   UNL A   1      37.024  22.852  24.017  1.00  0.00    -0.376 OA
BRANCH   2   3
ATOM      3  C   UNL A   1      35.771  22.921  23.355  1.00  0.00     0.202 C 
BRANCH   3   4
ATOM      4  C   UNL A   1      34.967  24.205  23.565  1.00  0.00     0.261 C 
BRANCH   4   5
ATOM      5  O   UNL A   1      33.716  24.198  22.848  1.00  0.00    -0.459 OA
BRANCH   5   6
ATOM      6  C   UNL A   1      33.322  25.404  22.364  1.00  0.00     0.366 C 
ATOM      7  O   UNL A   1      33.641  25.851  21.268  1.00  0.00    -0.245 OA
BRANCH   6   8
ATOM      8  C   UNL A   1      32.388  26.158  23.303  1.00  0.00     0.308 C 
ATOM      9  N   UNL A   1      30.384  26.112  24.684  1.00  0.00    -0.185 NA
ATOM     10  C   UNL A   1      30.195  27.581  24.566  1.00  0.00     0.164 C 
ATOM     11  C   UNL A   1      31.010  25.521  23.470  1.00  0.00     0.180 C 
ATOM     12  C   UNL A   1      31.439  28.319  24.017  1.00  0.00     0.278 C 
ATOM     13  N   UNL A   1      32.283  27.624  23.016  1.00  0.00    -0.332 N 
ATOM     14  H   UNL A   1      33.218  28.032  23.030  1.00  0.00     0.347 HD
ATOM     15  H   UNL A   1      31.849  27.738  22.099  1.00  0.00     0.347 HD
BRANCH   9  16
ATOM     16  S   UNL A   1      30.730  25.397  26.189  1.00  0.00     0.253 S 
ATOM     17  O   UNL A   1      29.454  25.013  26.755  1.00  0.00    -0.206 OA
ATOM     18  O   UNL A   1      31.643  26.273  26.893  1.00  0.00    -0.206 OA
BRANCH  16  19
ATOM     19  C   UNL A   1      31.654  23.864  26.008  1.00  0.00     0.135 A 
ATOM     20  C   UNL A   1      32.292  21.595  25.234  1.00  0.00     0.055 A 
ATOM     21  C   UNL A   1      33.211  22.124  26.108  1.00  0.00     0.023 A 
ATOM     22  S   UNL A   1      31.025  22.688  24.909  1.00  0.00    -0.121 S 
ATOM     23  C   UNL A   1      32.805  23.384  26.603  1.00  0.00     0.034 A 
BRANCH  20  24
ATOM     24  C   UNL A   1      32.461  20.199  24.727  1.00  0.00     0.091 A 
ATOM     25  C   UNL A   1      32.543  16.704  25.754  1.00  0.00     0.079 C 
ATOM     26  C   UNL A   1      32.567  18.007  25.037  1.00  0.00     0.090 A 
ATOM     27  N   UNL A   1      32.518  19.166  25.648  1.00  0.00    -0.241 NA
ATOM     28  S   UNL A   1      32.655  18.091  23.324  1.00  0.00    -0.127 S 
ATOM     29  C   UNL A   1      32.534  19.807  23.408  1.00  0.00     0.096 A 
ENDBRANCH  20  24
ENDBRANCH  16  19
ENDBRANCH   9  16
ENDBRANCH   6   8
ENDBRANCH   5   6
ENDBRANCH   4   5
ENDBRANCH   3   4
ENDBRANCH   2   3
ENDBRANCH   1   2
BRANCH   1  30
ATOM     30  C   UNL A   1      38.399  22.438  26.132  1.00  0.00     0.188 C 
BRANCH  30  31
ATOM     31  O   UNL A   1      39.473  21.583  25.775  1.00  0.00    -0.376 OA
BRANCH  31  32
ATOM     32  C   UNL A   1      40.581  21.495  26.657  1.00  0.00     0.202 C 
BRANCH  32  33
ATOM     33  C   UNL A   1      41.826  22.263  26.215  1.00  0.00     0.261 C 
BRANCH  33  34
ATOM     34  O   UNL A   1      41.519  23.621  25.851  1.00  0.00    -0.460 OA
BRANCH  34  35
ATOM     35  C   UNL A   1      42.470  24.545  26.127  1.00  0.00     0.338 C 
ATOM     36  O   UNL A   1      43.580  24.635  25.632  1.00  0.00    -0.246 OA
BRANCH  35  37
ATOM     37  C   UNL A   1      41.917  25.566  27.041  1.00  0.00     0.060 A 
ATOM     38  C   UNL A   1      42.590  26.790  27.158  1.00  0.00     0.016 A 
ATOM     39  C   UNL A   1      40.795  25.298  27.826  1.00  0.00     0.016 A 
ATOM     40  C   UNL A   1      42.171  27.733  28.098  1.00  0.00     0.010 A 
ATOM     41  C   UNL A   1      40.386  26.236  28.777  1.00  0.00     0.010 A 
ATOM     42  C   UNL A   1      41.093  27.440  28.942  1.00  0.00    -0.014 A 
BRANCH  42  43
ATOM     43  C   UNL A   1      40.789  28.290  30.116  1.00  0.00     0.031 A 
ATOM     44  C   UNL A   1      39.680  29.299  30.003  1.00  0.00     0.074 A 
ATOM     45  C   UNL A   1      41.513  28.209  31.246  1.00  0.00     0.049 A 
ATOM     46  N   UNL A   1      39.354  30.269  30.819  1.00  0.00    -0.248 NA
ATOM     47  C   UNL A   1      38.828  29.202  28.806  1.00  0.00     0.031 C 
ATOM     48  C   UNL A   1      42.567  27.232  31.510  1.00  0.00     0.029 A 
ATOM     49  N   UNL A   1      41.479  28.989  32.374  1.00  0.00    -0.354 N 
ATOM     50  C   UNL A   1      38.274  30.909  30.224  1.00  0.00     0.074 A 
ATOM     51  C   UNL A   1      38.003  30.223  28.980  1.00  0.00     0.031 C 
ATOM     52  C   UNL A   1      43.102  27.490  32.717  1.00  0.00     0.029 A 
ATOM     53  C   UNL A   1      42.459  28.676  33.284  1.00  0.00     0.049 A 
ATOM     54  H   UNL A   1      40.817  29.704  32.518  1.00  0.00     0.167 HD
ATOM     55  C   UNL A   1      37.576  31.979  30.670  1.00  0.00     0.031 A 
ATOM     56  C   UNL A   1      42.824  29.302  34.420  1.00  0.00     0.031 A 
ATOM     57  C   UNL A   1      37.857  32.676  31.895  1.00  0.00     0.049 A 
ATOM     58  C   UNL A   1      42.102  30.555  34.843  1.00  0.00     0.074 A 
ATOM     59  C   UNL A   1      37.209  33.776  32.429  1.00  0.00     0.029 A 
ATOM     60  N   UNL A   1      38.876  32.344  32.772  1.00  0.00    -0.354 N 
ATOM     61  N   UNL A   1      41.087  31.158  34.275  1.00  0.00    -0.248 NA
ATOM     62  C   UNL A   1      42.586  31.219  36.065  1.00  0.00     0.031 C 
ATOM     63  C   UNL A   1      37.867  34.138  33.610  1.00  0.00     0.029 A 
ATOM     64  C   UNL A   1      38.891  33.231  33.833  1.00  0.00     0.049 A 
ATOM     65  H   UNL A   1      39.497  31.588  32.657  1.00  0.00     0.167 HD
ATOM     66  C   UNL A   1      40.791  32.250  35.082  1.00  0.00     0.074 A 
ATOM     67  C   UNL A   1      41.732  32.227  36.182  1.00  0.00     0.031 C 
ATOM     68  C   UNL A   1      39.824  33.186  34.928  1.00  0.00     0.031 A 
BRANCH  55  69
ATOM     69  C   UNL A   1      36.469  32.491  29.796  1.00  0.00    -0.014 A 
ATOM     70  C   UNL A   1      35.149  32.042  29.957  1.00  0.00     0.009 A 
ATOM     71  C   UNL A   1      36.748  33.454  28.815  1.00  0.00     0.009 A 
ATOM     72  C   UNL A   1      34.136  32.528  29.129  1.00  0.00     0.001 A 
ATOM     73  C   UNL A   1      35.729  33.955  28.006  1.00  0.00     0.001 A 
ATOM     74  C   UNL A   1      34.425  33.486  28.158  1.00  0.00     0.000 A 
ENDBRANCH  55  69
BRANCH  56  75
ATOM     75  C   UNL A   1      43.964  28.787  35.221  1.00  0.00    -0.014 A 
ATOM     76  C   UNL A   1      43.736  28.006  36.363  1.00  0.00     0.009 A 
ATOM     77  C   UNL A   1      45.285  29.098  34.861  1.00  0.00     0.009 A 
ATOM     78  C   UNL A   1      44.810  27.564  37.142  1.00  0.00     0.001 A 
ATOM     79  C   UNL A   1      46.356  28.632  35.627  1.00  0.00     0.001 A 
ATOM     80  C   UNL A   1      46.117  27.873  36.771  1.00  0.00     0.000 A 
ENDBRANCH  56  75
BRANCH  68  81
ATOM     81  C   UNL A   1      39.691  34.235  35.994  1.00  0.00    -0.014 A 
ATOM     82  C   UNL A   1      38.950  33.998  37.161  1.00  0.00     0.009 A 
ATOM     83  C   UNL A   1      40.386  35.447  35.860  1.00  0.00     0.009 A 
ATOM     84  C   UNL A   1      38.897  34.964  38.168  1.00  0.00     0.001 A 
ATOM     85  C   UNL A   1      40.349  36.401  36.878  1.00  0.00     0.001 A 
ATOM     86  C   UNL A   1      39.601  36.160  38.029  1.00  0.00     0.000 A 
ENDBRANCH  68  81
ENDBRANCH  42  43
ENDBRANCH  35  37
ENDBRANCH  34  35
ENDBRANCH  33  34
ENDBRANCH  32  33
ENDBRANCH  31  32
ENDBRANCH  30  31
ENDBRANCH   1  30
TORSDOF 20
ENDMDL
MODEL 3
REMARK VINA RESULT:      -9.9      5.339      9.441
REMARK SMILES Cc1nc(-c2ccc(S(=O)(=O)N3CC[NH2+][C@H](C(=O)OCCOCCOCCOC(=O)c4ccc(-c5c6nc(c(-c7ccccc7)c7ccc([nH]7)c(-c7ccccc7)c7nc(c(-c8ccccc8)c8ccc5[nH]8)C=C7)C=C6)cc4)C3)s2)cs1
REMARK SMILES IDX 23 1 22 2 21 3 20 4 19 5 17 6 18 7 16 8 12 9 13 10 79 11
REMARK SMILES IDX 14 12 15 13 9 16 10 17 11 18 8 19 5 20 6 21 80 22 7 23 4 24
REMARK SMILES IDX 1 25 2 26 3 27 82 28 81 29 24 30 25 31 26 32 27 33 28 34
REMARK SMILES IDX 29 35 30 36 31 37 32 38 78 39 33 40 77 41 34 42 35 43 36 44
REMARK SMILES IDX 71 45 37 46 76 47 70 48 72 49 38 50 75 51 69 52 68 53 39 55
REMARK SMILES IDX 61 56 46 57 60 58 47 59 50 60 59 61 73 62 48 63 49 64 58 66
REMARK SMILES IDX 74 67 51 68 40 69 41 70 45 71 42 72 44 73 43 74 62 75 63 76
REMARK SMILES IDX 67 77 64 78 66 79 65 80 52 81 53 82 57 83 54 84 56 85 55 86
REMARK H PARENT 15 14 15 15 72 54 50 65
REMARK Flexibility Score: inf
ROOT
ATOM      1  C   UNL A   1      35.482  29.423  27.724  1.00  0.00     0.188 C 
ENDROOT
BRANCH   1   2
ATOM      2  O   UNL A   1      34.498  29.562  26.707  1.00  0.00    -0.376 OA
BRANCH   2   3
ATOM      3  C   UNL A   1      33.142  29.741  27.084  1.00  0.00     0.202 C 
BRANCH   3   4
ATOM      4  C   UNL A   1      32.114  29.679  25.953  1.00  0.00     0.261 C 
BRANCH   4   5
ATOM      5  O   UNL A   1      32.649  29.090  24.751  1.00  0.00    -0.459 OA
BRANCH   5   6
ATOM      6  C   UNL A   1      31.721  28.651  23.861  1.00  0.00     0.366 C 
ATOM      7  O   UNL A   1      30.745  29.298  23.499  1.00  0.00    -0.245 OA
BRANCH   6   8
ATOM      8  C   UNL A   1      32.028  27.267  23.301  1.00  0.00     0.308 C 
ATOM      9  N   UNL A   1      33.075  25.096  23.640  1.00  0.00    -0.185 NA
ATOM     10  C   UNL A   1      33.233  24.875  22.179  1.00  0.00     0.164 C 
ATOM     11  C   UNL A   1      33.165  26.536  24.010  1.00  0.00     0.180 C 
ATOM     12  C   UNL A   1      32.397  25.851  21.316  1.00  0.00     0.278 C 
ATOM     13  N   UNL A   1      32.198  27.234  21.813  1.00  0.00    -0.332 N 
ATOM     14  H   UNL A   1      31.364  27.626  21.376  1.00  0.00     0.347 HD
ATOM     15  H   UNL A   1      33.026  27.781  21.575  1.00  0.00     0.347 HD
BRANCH   9  16
ATOM     16  S   UNL A   1      32.055  24.097  24.567  1.00  0.00     0.253 S 
ATOM     17  O   UNL A   1      30.702  24.433  24.179  1.00  0.00    -0.206 OA
ATOM     18  O   UNL A   1      32.496  24.175  25.944  1.00  0.00    -0.206 OA
BRANCH  16  19
ATOM     19  C   UNL A   1      32.255  22.359  24.146  1.00  0.00     0.135 A 
ATOM     20  C   UNL A   1      32.765  19.942  24.368  1.00  0.00     0.055 A 
ATOM     21  C   UNL A   1      32.309  20.263  23.112  1.00  0.00     0.023 A 
ATOM     22  S   UNL A   1      32.785  21.297  25.401  1.00  0.00    -0.121 S 
ATOM     23  C   UNL A   1      32.092  21.652  22.969  1.00  0.00     0.034 A 
BRANCH  20  24
ATOM     24  C   UNL A   1      33.207  18.545  24.668  1.00  0.00     0.091 A 
ATOM     25  C   UNL A   1      32.085  15.345  25.999  1.00  0.00     0.079 C 
ATOM     26  C   UNL A   1      32.830  16.496  25.424  1.00  0.00     0.090 A 
ATOM     27  N   UNL A   1      32.327  17.703  25.329  1.00  0.00    -0.241 NA
ATOM     28  S   UNL A   1      34.430  16.325  24.824  1.00  0.00    -0.127 S 
ATOM     29  C   UNL A   1      34.411  17.973  24.324  1.00  0.00     0.096 A 
ENDBRANCH  20  24
ENDBRANCH  16  19
ENDBRANCH   9  16
ENDBRANCH   6   8
ENDBRANCH   5   6
ENDBRANCH   4   5
ENDBRANCH   3   4
ENDBRANCH   2   3
ENDBRANCH   1   2
BRANCH   1  30
ATOM     30  C   UNL A   1      36.609  30.470  27.826  1.00  0.00     0.188 C 
BRANCH  30  31
ATOM     31  O   UNL A   1      36.589  31.428  28.872  1.00  0.00    -0.376 OA
BRANCH  31  32
ATOM     32  C   UNL A   1      35.913  32.654  28.644  1.00  0.00     0.202 C 
BRANCH  32  33
ATOM     33  C   UNL A   1      35.471  33.398  29.904  1.00  0.00     0.261 C 
BRANCH  33  34
ATOM     34  O   UNL A   1      35.901  32.725  31.102  1.00  0.00    -0.460 OA
BRANCH  34  35
ATOM     35  C   UNL A   1      35.050  32.776  32.155  1.00  0.00     0.338 C 
ATOM     36  O   UNL A   1      33.838  32.648  32.134  1.00  0.00    -0.246 OA
BRANCH  35  37
ATOM     37  C   UNL A   1      35.821  32.865  33.411  1.00  0.00     0.060 A 
ATOM     38  C   UNL A   1      35.489  33.871  34.329  1.00  0.00     0.016 A 
ATOM     39  C   UNL A   1      36.904  32.017  33.653  1.00  0.00     0.016 A 
ATOM     40  C   UNL A   1      36.270  34.065  35.470  1.00  0.00     0.010 A 
ATOM     41  C   UNL A   1      37.693  32.222  34.787  1.00  0.00     0.010 A 
ATOM     42  C   UNL A   1      37.401  33.269  35.680  1.00  0.00    -0.014 A 
BRANCH  42  43
ATOM     43  C   UNL A   1      38.394  33.612  36.724  1.00  0.00     0.031 A 
ATOM     44  C   UNL A   1      39.626  34.374  36.320  1.00  0.00     0.074 A 
ATOM     45  C   UNL A   1      38.236  33.214  37.998  1.00  0.00     0.049 A 
ATOM     46  N   UNL A   1      40.709  34.625  37.008  1.00  0.00    -0.248 NA
ATOM     47  C   UNL A   1      39.636  34.921  34.953  1.00  0.00     0.031 C 
ATOM     48  C   UNL A   1      37.061  32.532  38.535  1.00  0.00     0.029 A 
ATOM     49  N   UNL A   1      39.092  33.312  39.066  1.00  0.00    -0.354 N 
ATOM     50  C   UNL A   1      41.538  35.341  36.153  1.00  0.00     0.074 A 
ATOM     51  C   UNL A   1      40.836  35.480  34.896  1.00  0.00     0.031 C 
ATOM     52  C   UNL A   1      37.284  32.245  39.830  1.00  0.00     0.029 A 
ATOM     53  C   UNL A   1      38.631  32.681  40.195  1.00  0.00     0.049 A 
ATOM     54  H   UNL A   1      39.955  33.787  39.027  1.00  0.00     0.167 HD
ATOM     55  C   UNL A   1      42.777  35.830  36.390  1.00  0.00     0.031 A 
ATOM     56  C   UNL A   1      39.244  32.444  41.371  1.00  0.00     0.031 A 
ATOM     57  C   UNL A   1      43.486  35.675  37.630  1.00  0.00     0.049 A 
ATOM     58  C   UNL A   1      40.664  32.905  41.577  1.00  0.00     0.074 A 
ATOM     59  C   UNL A   1      44.749  36.131  37.964  1.00  0.00     0.029 A 
ATOM     60  N   UNL A   1      42.993  35.004  38.737  1.00  0.00    -0.354 N 
ATOM     61  N   UNL A   1      41.443  33.574  40.763  1.00  0.00    -0.248 NA
ATOM     62  C   UNL A   1      41.292  32.566  42.865  1.00  0.00     0.031 C 
ATOM     63  C   UNL A   1      45.040  35.694  39.262  1.00  0.00     0.029 A 
ATOM     64  C   UNL A   1      43.937  35.013  39.750  1.00  0.00     0.049 A 
ATOM     65  H   UNL A   1      42.105  34.585  38.795  1.00  0.00     0.167 HD
ATOM     66  C   UNL A   1      42.637  33.764  41.448  1.00  0.00     0.074 A 
ATOM     67  C   UNL A   1      42.481  33.141  42.746  1.00  0.00     0.031 C 
ATOM     68  C   UNL A   1      43.761  34.402  41.040  1.00  0.00     0.031 A 
BRANCH  55  69
ATOM     69  C   UNL A   1      43.464  36.538  35.260  1.00  0.00    -0.014 A 
ATOM     70  C   UNL A   1      44.241  35.835  34.327  1.00  0.00     0.009 A 
ATOM     71  C   UNL A   1      43.311  37.926  35.114  1.00  0.00     0.009 A 
ATOM     72  C   UNL A   1      44.876  36.515  33.286  1.00  0.00     0.001 A 
ATOM     73  C   UNL A   1      43.927  38.598  34.059  1.00  0.00     0.001 A 
ATOM     74  C   UNL A   1      44.715  37.894  33.150  1.00  0.00     0.000 A 
ENDBRANCH  55  69
BRANCH  56  75
ATOM     75  C   UNL A   1      38.540  31.688  42.439  1.00  0.00    -0.014 A 
ATOM     76  C   UNL A   1      37.675  32.346  43.326  1.00  0.00     0.009 A 
ATOM     77  C   UNL A   1      38.751  30.309  42.593  1.00  0.00     0.009 A 
ATOM     78  C   UNL A   1      37.052  31.641  44.359  1.00  0.00     0.001 A 
ATOM     79  C   UNL A   1      38.107  29.602  43.610  1.00  0.00     0.001 A 
ATOM     80  C   UNL A   1      37.264  30.270  44.498  1.00  0.00     0.000 A 
ENDBRANCH  56  75
BRANCH  68  81
ATOM     81  C   UNL A   1      44.896  34.509  42.017  1.00  0.00    -0.014 A 
ATOM     82  C   UNL A   1      45.033  35.626  42.855  1.00  0.00     0.009 A 
ATOM     83  C   UNL A   1      45.793  33.439  42.153  1.00  0.00     0.009 A 
ATOM     84  C   UNL A   1      46.057  35.672  43.802  1.00  0.00     0.001 A 
ATOM     85  C   UNL A   1      46.803  33.478  43.116  1.00  0.00     0.001 A 
ATOM     86  C   UNL A   1      46.936  34.597  43.937  1.00  0.00     0.000 A 
ENDBRANCH  68  81
ENDBRANCH  42  43
ENDBRANCH  35  37
ENDBRANCH  34  35
ENDBRANCH  33  34
ENDBRANCH  32  33
ENDBRANCH  31  32
ENDBRANCH  30  31
ENDBRANCH   1  30
TORSDOF 20
ENDMDL
