MODEL 1
REMARK VINA RESULT:     -10.5      0.000      0.000
REMARK SMILES COc1cccc(CC2(CO)CCN(c3nc(C)ccc3C(=O)OCCOCCOCCOC(=O)c3ccc(-c4c5nc(c(-c6ccccc6)c6ccc([nH]6)c(-c6ccccc6)c6nc(c(-c7ccccc7)c7ccc4[nH]7)C=C6)C=C5)cc3)CC2)c1
REMARK SMILES IDX 28 1 27 2 26 3 25 4 24 5 22 6 23 7 21 8 15 9 16 10 17 11
REMARK SMILES IDX 20 12 18 13 19 14 14 15 9 16 12 17 85 18 13 19 84 20 8 21
REMARK SMILES IDX 7 22 3 23 4 24 86 25 5 26 6 27 2 28 1 29 10 30 11 31 29 33
REMARK SMILES IDX 30 34 31 35 32 36 33 37 34 38 35 39 36 40 37 41 83 42 38 43
REMARK SMILES IDX 82 44 39 45 40 46 41 47 76 48 42 49 81 50 75 51 77 52 43 53
REMARK SMILES IDX 80 54 74 55 73 56 44 58 66 59 51 60 65 61 52 62 55 63 64 64
REMARK SMILES IDX 78 65 53 66 54 67 63 69 79 70 56 71 45 72 46 73 50 74 47 75
REMARK SMILES IDX 49 76 48 77 67 78 68 79 72 80 69 81 71 82 70 83 57 84 58 85
REMARK SMILES IDX 62 86 59 87 61 88 60 89
REMARK H PARENT 11 32 77 57 55 68
REMARK Flexibility Score: inf
ROOT
ATOM      1  C   UNL A   1      40.895  20.004  26.499  1.00  0.00     0.188 C 
ENDROOT
BRANCH   1   2
ATOM      2  O   UNL A   1      39.750  20.573  25.908  1.00  0.00    -0.376 OA
BRANCH   2   3
ATOM      3  C   UNL A   1      39.297  21.820  26.383  1.00  0.00     0.202 C 
BRANCH   3   4
ATOM      4  C   UNL A   1      38.023  22.461  25.803  1.00  0.00     0.261 C 
BRANCH   4   5
ATOM      5  O   UNL A   1      36.837  21.652  25.794  1.00  0.00    -0.460 OA
BRANCH   5   6
ATOM      6  C   UNL A   1      36.082  21.670  24.659  1.00  0.00     0.341 C 
ATOM      7  O   UNL A   1      36.135  22.505  23.782  1.00  0.00    -0.246 OA
BRANCH   6   8
ATOM      8  C   UNL A   1      35.157  20.507  24.662  1.00  0.00     0.102 A 
ATOM      9  C   UNL A   1      33.772  20.681  24.667  1.00  0.00     0.143 A 
ATOM     10  N   UNL A   1      32.923  19.638  24.818  1.00  0.00    -0.235 NA
ATOM     11  C   UNL A   1      33.421  18.392  24.935  1.00  0.00     0.040 A 
ATOM     12  C   UNL A   1      35.662  19.205  24.729  1.00  0.00     0.021 A 
ATOM     13  C   UNL A   1      32.407  17.315  25.155  1.00  0.00     0.067 C 
ATOM     14  C   UNL A   1      34.781  18.130  24.858  1.00  0.00     0.024 A 
BRANCH   9  15
ATOM     15  N   UNL A   1      33.144  21.866  24.412  1.00  0.00    -0.356 N 
ATOM     16  C   UNL A   1      32.862  24.652  23.727  1.00  0.00     0.001 C 
ATOM     17  C   UNL A   1      33.025  23.551  22.651  1.00  0.00     0.031 C 
ATOM     18  C   UNL A   1      33.418  24.186  25.083  1.00  0.00     0.031 C 
ATOM     19  C   UNL A   1      32.682  22.131  23.074  1.00  0.00     0.119 C 
ATOM     20  C   UNL A   1      32.963  22.802  25.487  1.00  0.00     0.119 C 
BRANCH  16  21
ATOM     21  C   UNL A   1      31.386  25.173  23.858  1.00  0.00     0.045 C 
BRANCH  21  22
ATOM     22  C   UNL A   1      31.051  26.649  23.840  1.00  0.00    -0.044 A 
ATOM     23  C   UNL A   1      30.274  28.665  22.695  1.00  0.00     0.119 A 
ATOM     24  C   UNL A   1      30.650  29.413  23.812  1.00  0.00     0.046 A 
ATOM     25  C   UNL A   1      30.464  27.280  22.712  1.00  0.00     0.050 A 
ATOM     26  C   UNL A   1      31.173  28.799  24.944  1.00  0.00     0.004 A 
ATOM     27  C   UNL A   1      31.339  27.420  24.967  1.00  0.00     0.004 A 
BRANCH  23  28
ATOM     28  O   UNL A   1      29.836  29.434  21.655  1.00  0.00    -0.497 OA
ATOM     29  C   UNL A   1      28.536  29.999  21.691  1.00  0.00     0.278 C 
ENDBRANCH  23  28
ENDBRANCH  21  22
ENDBRANCH  16  21
BRANCH  16  30
ATOM     30  C   UNL A   1      33.786  25.825  23.277  1.00  0.00     0.163 C 
BRANCH  30  31
ATOM     31  O   UNL A   1      33.783  25.997  21.869  1.00  0.00    -0.396 OA
ATOM     32  H   UNL A   1      32.882  26.198  21.570  1.00  0.00     0.210 HD
ENDBRANCH  30  31
ENDBRANCH  16  30
ENDBRANCH   9  15
ENDBRANCH   6   8
ENDBRANCH   5   6
ENDBRANCH   4   5
ENDBRANCH   3   4
ENDBRANCH   2   3
ENDBRANCH   1   2
BRANCH   1  33
ATOM     33  C   UNL A   1      42.136  20.905  26.337  1.00  0.00     0.188 C 
BRANCH  33  34
ATOM     34  O   UNL A   1      43.198  20.549  25.455  1.00  0.00    -0.376 OA
BRANCH  34  35
ATOM     35  C   UNL A   1      44.115  21.534  25.018  1.00  0.00     0.202 C 
BRANCH  35  36
ATOM     36  C   UNL A   1      43.575  22.937  24.703  1.00  0.00     0.261 C 
BRANCH  36  37
ATOM     37  O   UNL A   1      44.534  24.007  24.624  1.00  0.00    -0.460 OA
BRANCH  37  38
ATOM     38  C   UNL A   1      45.196  24.277  25.776  1.00  0.00     0.338 C 
ATOM     39  O   UNL A   1      46.369  24.045  26.018  1.00  0.00    -0.246 OA
BRANCH  38  40
ATOM     40  C   UNL A   1      44.309  24.982  26.735  1.00  0.00     0.060 A 
ATOM     41  C   UNL A   1      44.309  26.380  26.739  1.00  0.00     0.016 A 
ATOM     42  C   UNL A   1      43.562  24.292  27.698  1.00  0.00     0.016 A 
ATOM     43  C   UNL A   1      43.579  27.082  27.708  1.00  0.00     0.010 A 
ATOM     44  C   UNL A   1      42.846  25.000  28.682  1.00  0.00     0.010 A 
ATOM     45  C   UNL A   1      42.851  26.403  28.706  1.00  0.00    -0.014 A 
BRANCH  45  46
ATOM     46  C   UNL A   1      42.228  27.193  29.815  1.00  0.00     0.031 A 
ATOM     47  C   UNL A   1      43.047  27.500  31.035  1.00  0.00     0.074 A 
ATOM     48  C   UNL A   1      40.956  27.643  29.783  1.00  0.00     0.049 A 
ATOM     49  N   UNL A   1      42.764  28.286  32.040  1.00  0.00    -0.248 NA
ATOM     50  C   UNL A   1      44.309  26.758  31.176  1.00  0.00     0.031 C 
ATOM     51  C   UNL A   1      39.971  27.276  28.781  1.00  0.00     0.029 A 
ATOM     52  N   UNL A   1      40.290  28.569  30.565  1.00  0.00    -0.354 N 
ATOM     53  C   UNL A   1      43.761  28.060  32.978  1.00  0.00     0.074 A 
ATOM     54  C   UNL A   1      44.694  27.123  32.389  1.00  0.00     0.031 C 
ATOM     55  C   UNL A   1      38.907  28.094  28.888  1.00  0.00     0.029 A 
ATOM     56  C   UNL A   1      39.114  29.021  29.991  1.00  0.00     0.049 A 
ATOM     57  H   UNL A   1      40.620  28.876  31.440  1.00  0.00     0.167 HD
ATOM     58  C   UNL A   1      43.839  28.524  34.248  1.00  0.00     0.031 A 
ATOM     59  C   UNL A   1      38.340  30.090  30.288  1.00  0.00     0.031 A 
ATOM     60  C   UNL A   1      42.885  29.411  34.856  1.00  0.00     0.049 A 
ATOM     61  C   UNL A   1      38.591  30.791  31.600  1.00  0.00     0.074 A 
ATOM     62  C   UNL A   1      42.870  29.903  36.150  1.00  0.00     0.029 A 
ATOM     63  N   UNL A   1      41.770  29.932  34.219  1.00  0.00    -0.354 N 
ATOM     64  N   UNL A   1      39.567  30.614  32.455  1.00  0.00    -0.248 NA
ATOM     65  C   UNL A   1      37.583  31.775  32.033  1.00  0.00     0.031 C 
ATOM     66  C   UNL A   1      41.717  30.679  36.311  1.00  0.00     0.029 A 
ATOM     67  C   UNL A   1      41.055  30.728  35.097  1.00  0.00     0.049 A 
ATOM     68  H   UNL A   1      41.523  29.761  33.281  1.00  0.00     0.167 HD
ATOM     69  C   UNL A   1      39.255  31.410  33.547  1.00  0.00     0.074 A 
ATOM     70  C   UNL A   1      38.065  32.157  33.205  1.00  0.00     0.031 C 
ATOM     71  C   UNL A   1      39.863  31.460  34.756  1.00  0.00     0.031 A 
BRANCH  58  72
ATOM     72  C   UNL A   1      44.941  27.968  35.103  1.00  0.00    -0.014 A 
ATOM     73  C   UNL A   1      46.134  28.669  35.323  1.00  0.00     0.009 A 
ATOM     74  C   UNL A   1      44.765  26.709  35.702  1.00  0.00     0.009 A 
ATOM     75  C   UNL A   1      47.146  28.103  36.101  1.00  0.00     0.001 A 
ATOM     76  C   UNL A   1      45.765  26.161  36.504  1.00  0.00     0.001 A 
ATOM     77  C   UNL A   1      46.958  26.853  36.695  1.00  0.00     0.000 A 
ENDBRANCH  58  72
BRANCH  59  78
ATOM     78  C   UNL A   1      37.264  30.608  29.378  1.00  0.00    -0.014 A 
ATOM     79  C   UNL A   1      37.345  31.929  28.885  1.00  0.00     0.009 A 
ATOM     80  C   UNL A   1      36.136  29.855  29.030  1.00  0.00     0.009 A 
ATOM     81  C   UNL A   1      36.318  32.486  28.116  1.00  0.00     0.001 A 
ATOM     82  C   UNL A   1      35.134  30.394  28.213  1.00  0.00     0.001 A 
ATOM     83  C   UNL A   1      35.214  31.714  27.774  1.00  0.00     0.000 A 
ENDBRANCH  59  78
BRANCH  71  84
ATOM     84  C   UNL A   1      39.230  32.325  35.809  1.00  0.00    -0.014 A 
ATOM     85  C   UNL A   1      38.294  31.795  36.713  1.00  0.00     0.009 A 
ATOM     86  C   UNL A   1      39.606  33.670  35.932  1.00  0.00     0.009 A 
ATOM     87  C   UNL A   1      37.719  32.604  37.695  1.00  0.00     0.001 A 
ATOM     88  C   UNL A   1      39.053  34.469  36.934  1.00  0.00     0.001 A 
ATOM     89  C   UNL A   1      38.104  33.940  37.808  1.00  0.00     0.000 A 
ENDBRANCH  71  84
ENDBRANCH  45  46
ENDBRANCH  38  40
ENDBRANCH  37  38
ENDBRANCH  36  37
ENDBRANCH  35  36
ENDBRANCH  34  35
ENDBRANCH  33  34
ENDBRANCH   1  33
TORSDOF 23
ENDMDL
MODEL 2
REMARK VINA RESULT:     -10.0      4.263     10.143
REMARK SMILES COc1cccc(CC2(CO)CCN(c3nc(C)ccc3C(=O)OCCOCCOCCOC(=O)c3ccc(-c4c5nc(c(-c6ccccc6)c6ccc([nH]6)c(-c6ccccc6)c6nc(c(-c7ccccc7)c7ccc4[nH]7)C=C6)C=C5)cc3)CC2)c1
REMARK SMILES IDX 28 1 27 2 26 3 25 4 24 5 22 6 23 7 21 8 15 9 16 10 17 11
REMARK SMILES IDX 20 12 18 13 19 14 14 15 9 16 12 17 85 18 13 19 84 20 8 21
REMARK SMILES IDX 7 22 3 23 4 24 86 25 5 26 6 27 2 28 1 29 10 30 11 31 29 33
REMARK SMILES IDX 30 34 31 35 32 36 33 37 34 38 35 39 36 40 37 41 83 42 38 43
REMARK SMILES IDX 82 44 39 45 40 46 41 47 76 48 42 49 81 50 75 51 77 52 43 53
REMARK SMILES IDX 80 54 74 55 73 56 44 58 66 59 51 60 65 61 52 62 55 63 64 64
REMARK SMILES IDX 78 65 53 66 54 67 63 69 79 70 56 71 45 72 46 73 50 74 47 75
REMARK SMILES IDX 49 76 48 77 67 78 68 79 72 80 69 81 71 82 70 83 57 84 58 85
REMARK SMILES IDX 62 86 59 87 61 88 60 89
REMARK H PARENT 11 32 77 57 55 68
REMARK Flexibility Score: inf
ROOT
ATOM      1  C   UNL A   1      35.685  32.592  27.987  1.00  0.00     0.188 C 
ENDROOT
BRANCH   1   2
ATOM      2  O   UNL A   1      34.840  31.587  28.496  1.00  0.00    -0.376 OA
BRANCH   2   3
ATOM      3  C   UNL A   1      33.998  30.899  27.600  1.00  0.00     0.202 C 
BRANCH   3   4
ATOM      4  C   UNL A   1      34.311  29.449  27.189  1.00  0.00     0.261 C 
BRANCH   4   5
ATOM      5  O   UNL A   1      33.584  28.920  26.069  1.00  0.00    -0.460 OA
BRANCH   5   6
ATOM      6  C   UNL A   1      32.340  28.419  26.317  1.00  0.00     0.341 C 
ATOM      7  O   UNL A   1      32.021  27.751  27.276  1.00  0.00    -0.246 OA
BRANCH   6   8
ATOM      8  C   UNL A   1      31.424  28.802  25.211  1.00  0.00     0.102 A 
ATOM      9  C   UNL A   1      31.088  27.899  24.201  1.00  0.00     0.143 A 
ATOM     10  N   UNL A   1      30.375  28.278  23.115  1.00  0.00    -0.235 NA
ATOM     11  C   UNL A   1      29.950  29.551  23.015  1.00  0.00     0.040 A 
ATOM     12  C   UNL A   1      30.931  30.107  25.125  1.00  0.00     0.021 A 
ATOM     13  C   UNL A   1      29.221  29.886  21.752  1.00  0.00     0.067 C 
ATOM     14  C   UNL A   1      30.174  30.485  24.015  1.00  0.00     0.024 A 
BRANCH   9  15
ATOM     15  N   UNL A   1      31.333  26.557  24.256  1.00  0.00    -0.356 N 
ATOM     16  C   UNL A   1      32.088  24.018  25.395  1.00  0.00     0.001 C 
ATOM     17  C   UNL A   1      30.668  24.610  25.569  1.00  0.00     0.031 C 
ATOM     18  C   UNL A   1      33.112  25.122  25.082  1.00  0.00     0.031 C 
ATOM     19  C   UNL A   1      30.243  25.666  24.559  1.00  0.00     0.119 C 
ATOM     20  C   UNL A   1      32.666  26.083  24.004  1.00  0.00     0.119 C 
BRANCH  16  21
ATOM     21  C   UNL A   1      32.148  22.861  24.335  1.00  0.00     0.045 C 
BRANCH  21  22
ATOM     22  C   UNL A   1      32.941  21.594  24.573  1.00  0.00    -0.044 A 
ATOM     23  C   UNL A   1      35.056  20.403  24.870  1.00  0.00     0.119 A 
ATOM     24  C   UNL A   1      34.357  19.197  24.806  1.00  0.00     0.046 A 
ATOM     25  C   UNL A   1      34.347  21.604  24.765  1.00  0.00     0.050 A 
ATOM     26  C   UNL A   1      32.973  19.176  24.675  1.00  0.00     0.004 A 
ATOM     27  C   UNL A   1      32.268  20.371  24.595  1.00  0.00     0.004 A 
BRANCH  23  28
ATOM     28  O   UNL A   1      36.410  20.237  24.939  1.00  0.00    -0.497 OA
ATOM     29  C   UNL A   1      37.272  21.318  24.624  1.00  0.00     0.278 C 
ENDBRANCH  23  28
ENDBRANCH  21  22
ENDBRANCH  16  21
BRANCH  16  30
ATOM     30  C   UNL A   1      32.489  23.459  26.793  1.00  0.00     0.163 C 
BRANCH  30  31
ATOM     31  O   UNL A   1      31.361  23.240  27.624  1.00  0.00    -0.396 OA
ATOM     32  H   UNL A   1      30.794  24.027  27.613  1.00  0.00     0.210 HD
ENDBRANCH  30  31
ENDBRANCH  16  30
ENDBRANCH   9  15
ENDBRANCH   6   8
ENDBRANCH   5   6
ENDBRANCH   4   5
ENDBRANCH   3   4
ENDBRANCH   2   3
ENDBRANCH   1   2
BRANCH   1  33
ATOM     33  C   UNL A   1      35.539  33.916  28.764  1.00  0.00     0.188 C 
BRANCH  33  34
ATOM     34  O   UNL A   1      35.447  33.933  30.186  1.00  0.00    -0.376 OA
BRANCH  34  35
ATOM     35  C   UNL A   1      36.618  33.818  30.972  1.00  0.00     0.202 C 
BRANCH  35  36
ATOM     36  C   UNL A   1      36.501  33.150  32.350  1.00  0.00     0.261 C 
BRANCH  36  37
ATOM     37  O   UNL A   1      37.244  31.935  32.556  1.00  0.00    -0.460 OA
BRANCH  37  38
ATOM     38  C   UNL A   1      36.832  30.874  31.821  1.00  0.00     0.338 C 
ATOM     39  O   UNL A   1      35.692  30.450  31.720  1.00  0.00    -0.246 OA
BRANCH  38  40
ATOM     40  C   UNL A   1      37.967  30.293  31.059  1.00  0.00     0.060 A 
ATOM     41  C   UNL A   1      38.854  29.444  31.728  1.00  0.00     0.016 A 
ATOM     42  C   UNL A   1      38.231  30.654  29.733  1.00  0.00     0.016 A 
ATOM     43  C   UNL A   1      40.004  28.973  31.079  1.00  0.00     0.010 A 
ATOM     44  C   UNL A   1      39.396  30.196  29.090  1.00  0.00     0.010 A 
ATOM     45  C   UNL A   1      40.303  29.356  29.756  1.00  0.00    -0.014 A 
BRANCH  45  46
ATOM     46  C   UNL A   1      41.622  28.963  29.167  1.00  0.00     0.031 A 
ATOM     47  C   UNL A   1      42.816  29.837  29.417  1.00  0.00     0.074 A 
ATOM     48  C   UNL A   1      41.798  27.861  28.409  1.00  0.00     0.049 A 
ATOM     49  N   UNL A   1      44.073  29.615  29.133  1.00  0.00    -0.248 NA
ATOM     50  C   UNL A   1      42.543  31.166  29.984  1.00  0.00     0.031 C 
ATOM     51  C   UNL A   1      40.727  27.018  27.908  1.00  0.00     0.029 A 
ATOM     52  N   UNL A   1      42.944  27.209  27.991  1.00  0.00    -0.354 N 
ATOM     53  C   UNL A   1      44.727  30.811  29.394  1.00  0.00     0.074 A 
ATOM     54  C   UNL A   1      43.742  31.726  29.930  1.00  0.00     0.031 C 
ATOM     55  C   UNL A   1      41.253  25.878  27.422  1.00  0.00     0.029 A 
ATOM     56  C   UNL A   1      42.704  25.921  27.541  1.00  0.00     0.049 A 
ATOM     57  H   UNL A   1      43.839  27.618  28.012  1.00  0.00     0.167 HD
ATOM     58  C   UNL A   1      46.012  31.140  29.125  1.00  0.00     0.031 A 
ATOM     59  C   UNL A   1      43.552  24.892  27.315  1.00  0.00     0.031 A 
ATOM     60  C   UNL A   1      46.980  30.251  28.540  1.00  0.00     0.049 A 
ATOM     61  C   UNL A   1      45.028  25.199  27.271  1.00  0.00     0.074 A 
ATOM     62  C   UNL A   1      48.296  30.515  28.202  1.00  0.00     0.029 A 
ATOM     63  N   UNL A   1      46.737  28.931  28.197  1.00  0.00    -0.354 N 
ATOM     64  N   UNL A   1      45.646  26.313  27.574  1.00  0.00    -0.248 NA
ATOM     65  C   UNL A   1      45.915  24.137  26.766  1.00  0.00     0.031 C 
ATOM     66  C   UNL A   1      48.833  29.370  27.605  1.00  0.00     0.029 A 
ATOM     67  C   UNL A   1      47.874  28.372  27.639  1.00  0.00     0.049 A 
ATOM     68  H   UNL A   1      45.882  28.460  28.331  1.00  0.00     0.167 HD
ATOM     69  C   UNL A   1      46.975  26.107  27.235  1.00  0.00     0.074 A 
ATOM     70  C   UNL A   1      47.098  24.729  26.812  1.00  0.00     0.031 C 
ATOM     71  C   UNL A   1      47.989  27.004  27.208  1.00  0.00     0.031 A 
BRANCH  58  72
ATOM     72  C   UNL A   1      46.404  32.572  29.347  1.00  0.00    -0.014 A 
ATOM     73  C   UNL A   1      46.976  33.006  30.550  1.00  0.00     0.009 A 
ATOM     74  C   UNL A   1      46.190  33.502  28.315  1.00  0.00     0.009 A 
ATOM     75  C   UNL A   1      47.298  34.353  30.727  1.00  0.00     0.001 A 
ATOM     76  C   UNL A   1      46.542  34.841  28.484  1.00  0.00     0.001 A 
ATOM     77  C   UNL A   1      47.087  35.267  29.693  1.00  0.00     0.000 A 
ENDBRANCH  58  72
BRANCH  59  78
ATOM     78  C   UNL A   1      43.096  23.476  27.118  1.00  0.00    -0.014 A 
ATOM     79  C   UNL A   1      42.930  22.974  25.808  1.00  0.00     0.009 A 
ATOM     80  C   UNL A   1      42.767  22.626  28.182  1.00  0.00     0.009 A 
ATOM     81  C   UNL A   1      42.414  21.695  25.575  1.00  0.00     0.001 A 
ATOM     82  C   UNL A   1      42.303  21.326  27.949  1.00  0.00     0.001 A 
ATOM     83  C   UNL A   1      42.106  20.867  26.649  1.00  0.00     0.000 A 
ENDBRANCH  59  78
BRANCH  71  84
ATOM     84  C   UNL A   1      49.310  26.534  26.670  1.00  0.00    -0.014 A 
ATOM     85  C   UNL A   1      50.218  25.840  27.487  1.00  0.00     0.009 A 
ATOM     86  C   UNL A   1      49.633  26.742  25.322  1.00  0.00     0.009 A 
ATOM     87  C   UNL A   1      51.439  25.396  26.974  1.00  0.00     0.001 A 
ATOM     88  C   UNL A   1      50.841  26.272  24.803  1.00  0.00     0.001 A 
ATOM     89  C   UNL A   1      51.746  25.609  25.631  1.00  0.00     0.000 A 
ENDBRANCH  71  84
ENDBRANCH  45  46
ENDBRANCH  38  40
ENDBRANCH  37  38
ENDBRANCH  36  37
ENDBRANCH  35  36
ENDBRANCH  34  35
ENDBRANCH  33  34
ENDBRANCH   1  33
TORSDOF 23
ENDMDL
MODEL 3
REMARK VINA RESULT:      -9.5      5.874     10.728
REMARK SMILES COc1cccc(CC2(CO)CCN(c3nc(C)ccc3C(=O)OCCOCCOCCOC(=O)c3ccc(-c4c5nc(c(-c6ccccc6)c6ccc([nH]6)c(-c6ccccc6)c6nc(c(-c7ccccc7)c7ccc4[nH]7)C=C6)C=C5)cc3)CC2)c1
REMARK SMILES IDX 28 1 27 2 26 3 25 4 24 5 22 6 23 7 21 8 15 9 16 10 17 11
REMARK SMILES IDX 20 12 18 13 19 14 14 15 9 16 12 17 85 18 13 19 84 20 8 21
REMARK SMILES IDX 7 22 3 23 4 24 86 25 5 26 6 27 2 28 1 29 10 30 11 31 29 33
REMARK SMILES IDX 30 34 31 35 32 36 33 37 34 38 35 39 36 40 37 41 83 42 38 43
REMARK SMILES IDX 82 44 39 45 40 46 41 47 76 48 42 49 81 50 75 51 77 52 43 53
REMARK SMILES IDX 80 54 74 55 73 56 44 58 66 59 51 60 65 61 52 62 55 63 64 64
REMARK SMILES IDX 78 65 53 66 54 67 63 69 79 70 56 71 45 72 46 73 50 74 47 75
REMARK SMILES IDX 49 76 48 77 67 78 68 79 72 80 69 81 71 82 70 83 57 84 58 85
REMARK SMILES IDX 62 86 59 87 61 88 60 89
REMARK H PARENT 11 32 77 57 55 68
REMARK Flexibility Score: inf
ROOT
ATOM      1  C   UNL A   1      35.894  32.390  28.261  1.00  0.00     0.188 C 
ENDROOT
BRANCH   1   2
ATOM      2  O   UNL A   1      34.851  31.507  28.604  1.00  0.00    -0.376 OA
BRANCH   2   3
ATOM      3  C   UNL A   1      34.147  30.862  27.567  1.00  0.00     0.202 C 
BRANCH   3   4
ATOM      4  C   UNL A   1      34.382  29.369  27.275  1.00  0.00     0.261 C 
BRANCH   4   5
ATOM      5  O   UNL A   1      33.723  28.823  26.122  1.00  0.00    -0.460 OA
BRANCH   5   6
ATOM      6  C   UNL A   1      32.502  28.248  26.318  1.00  0.00     0.341 C 
ATOM      7  O   UNL A   1      32.209  27.491  27.217  1.00  0.00    -0.246 OA
BRANCH   6   8
ATOM      8  C   UNL A   1      31.574  28.678  25.239  1.00  0.00     0.102 A 
ATOM      9  C   UNL A   1      31.217  27.815  24.203  1.00  0.00     0.143 A 
ATOM     10  N   UNL A   1      30.493  28.238  23.141  1.00  0.00    -0.235 NA
ATOM     11  C   UNL A   1      30.077  29.517  23.092  1.00  0.00     0.040 A 
ATOM     12  C   UNL A   1      31.092  29.990  25.207  1.00  0.00     0.021 A 
ATOM     13  C   UNL A   1      29.334  29.903  21.852  1.00  0.00     0.067 C 
ATOM     14  C   UNL A   1      30.323  30.413  24.122  1.00  0.00     0.024 A 
BRANCH   9  15
ATOM     15  N   UNL A   1      31.451  26.470  24.206  1.00  0.00    -0.356 N 
ATOM     16  C   UNL A   1      32.028  23.856  25.277  1.00  0.00     0.001 C 
ATOM     17  C   UNL A   1      30.597  24.449  25.276  1.00  0.00     0.031 C 
ATOM     18  C   UNL A   1      33.087  24.968  25.192  1.00  0.00     0.031 C 
ATOM     19  C   UNL A   1      30.328  25.571  24.286  1.00  0.00     0.119 C 
ATOM     20  C   UNL A   1      32.806  26.000  24.124  1.00  0.00     0.119 C 
BRANCH  16  21
ATOM     21  C   UNL A   1      32.244  22.769  24.165  1.00  0.00     0.045 C 
BRANCH  21  22
ATOM     22  C   UNL A   1      33.005  21.487  24.433  1.00  0.00    -0.044 A 
ATOM     23  C   UNL A   1      35.079  20.265  24.862  1.00  0.00     0.119 A 
ATOM     24  C   UNL A   1      34.375  19.068  24.714  1.00  0.00     0.046 A 
ATOM     25  C   UNL A   1      34.392  21.476  24.732  1.00  0.00     0.050 A 
ATOM     26  C   UNL A   1      33.005  19.067  24.478  1.00  0.00     0.004 A 
ATOM     27  C   UNL A   1      32.320  20.272  24.373  1.00  0.00     0.004 A 
BRANCH  23  28
ATOM     28  O   UNL A   1      36.422  20.081  25.030  1.00  0.00    -0.497 OA
ATOM     29  C   UNL A   1      37.322  21.136  24.737  1.00  0.00     0.278 C 
ENDBRANCH  23  28
ENDBRANCH  21  22
ENDBRANCH  16  21
BRANCH  16  30
ATOM     30  C   UNL A   1      32.216  23.204  26.681  1.00  0.00     0.163 C 
BRANCH  30  31
ATOM     31  O   UNL A   1      31.026  23.243  27.451  1.00  0.00    -0.396 OA
ATOM     32  H   UNL A   1      30.330  23.695  26.948  1.00  0.00     0.210 HD
ENDBRANCH  30  31
ENDBRANCH  16  30
ENDBRANCH   9  15
ENDBRANCH   6   8
ENDBRANCH   5   6
ENDBRANCH   4   5
ENDBRANCH   3   4
ENDBRANCH   2   3
ENDBRANCH   1   2
BRANCH   1  33
ATOM     33  C   UNL A   1      35.846  33.689  29.090  1.00  0.00     0.188 C 
BRANCH  33  34
ATOM     34  O   UNL A   1      35.201  33.733  30.359  1.00  0.00    -0.376 OA
BRANCH  34  35
ATOM     35  C   UNL A   1      35.970  33.682  31.546  1.00  0.00     0.202 C 
BRANCH  35  36
ATOM     36  C   UNL A   1      35.694  32.542  32.538  1.00  0.00     0.261 C 
BRANCH  36  37
ATOM     37  O   UNL A   1      36.835  31.881  33.113  1.00  0.00    -0.460 OA
BRANCH  37  38
ATOM     38  C   UNL A   1      37.170  30.701  32.538  1.00  0.00     0.338 C 
ATOM     39  O   UNL A   1      36.514  29.671  32.542  1.00  0.00    -0.246 OA
BRANCH  38  40
ATOM     40  C   UNL A   1      38.458  30.820  31.809  1.00  0.00     0.060 A 
ATOM     41  C   UNL A   1      39.616  31.097  32.543  1.00  0.00     0.016 A 
ATOM     42  C   UNL A   1      38.526  30.770  30.412  1.00  0.00     0.016 A 
ATOM     43  C   UNL A   1      40.828  31.337  31.882  1.00  0.00     0.010 A 
ATOM     44  C   UNL A   1      39.741  31.032  29.751  1.00  0.00     0.010 A 
ATOM     45  C   UNL A   1      40.906  31.327  30.475  1.00  0.00    -0.014 A 
BRANCH  45  46
ATOM     46  C   UNL A   1      42.181  31.753  29.815  1.00  0.00     0.031 A 
ATOM     47  C   UNL A   1      42.435  33.218  29.608  1.00  0.00     0.074 A 
ATOM     48  C   UNL A   1      43.120  30.886  29.383  1.00  0.00     0.049 A 
ATOM     49  N   UNL A   1      43.523  33.815  29.198  1.00  0.00    -0.248 NA
ATOM     50  C   UNL A   1      41.286  34.113  29.810  1.00  0.00     0.031 C 
ATOM     51  C   UNL A   1      42.954  29.445  29.324  1.00  0.00     0.029 A 
ATOM     52  N   UNL A   1      44.432  31.076  28.986  1.00  0.00    -0.354 N 
ATOM     53  C   UNL A   1      43.165  35.140  28.998  1.00  0.00     0.074 A 
ATOM     54  C   UNL A   1      41.782  35.272  29.405  1.00  0.00     0.031 C 
ATOM     55  C   UNL A   1      44.152  28.872  29.103  1.00  0.00     0.029 A 
ATOM     56  C   UNL A   1      45.169  29.904  28.966  1.00  0.00     0.049 A 
ATOM     57  H   UNL A   1      44.803  31.955  28.745  1.00  0.00     0.167 HD
ATOM     58  C   UNL A   1      43.897  36.133  28.440  1.00  0.00     0.031 A 
ATOM     59  C   UNL A   1      46.506  29.703  28.908  1.00  0.00     0.031 A 
ATOM     60  C   UNL A   1      45.253  35.992  27.983  1.00  0.00     0.049 A 
ATOM     61  C   UNL A   1      47.374  30.880  28.539  1.00  0.00     0.074 A 
ATOM     62  C   UNL A   1      46.059  36.938  27.374  1.00  0.00     0.029 A 
ATOM     63  N   UNL A   1      46.003  34.830  28.074  1.00  0.00    -0.354 N 
ATOM     64  N   UNL A   1      47.041  32.139  28.407  1.00  0.00    -0.248 NA
ATOM     65  C   UNL A   1      48.783  30.593  28.219  1.00  0.00     0.031 C 
ATOM     66  C   UNL A   1      47.277  36.334  27.048  1.00  0.00     0.029 A 
ATOM     67  C   UNL A   1      47.255  35.033  27.520  1.00  0.00     0.049 A 
ATOM     68  H   UNL A   1      45.691  33.985  28.473  1.00  0.00     0.167 HD
ATOM     69  C   UNL A   1      48.176  32.777  27.929  1.00  0.00     0.074 A 
ATOM     70  C   UNL A   1      49.238  31.796  27.901  1.00  0.00     0.031 C 
ATOM     71  C   UNL A   1      48.305  34.050  27.483  1.00  0.00     0.031 A 
BRANCH  58  72
ATOM     72  C   UNL A   1      43.189  37.431  28.180  1.00  0.00    -0.014 A 
ATOM     73  C   UNL A   1      43.200  38.481  29.108  1.00  0.00     0.009 A 
ATOM     74  C   UNL A   1      42.497  37.595  26.968  1.00  0.00     0.009 A 
ATOM     75  C   UNL A   1      42.503  39.660  28.839  1.00  0.00     0.001 A 
ATOM     76  C   UNL A   1      41.829  38.786  26.689  1.00  0.00     0.001 A 
ATOM     77  C   UNL A   1      41.824  39.815  27.629  1.00  0.00     0.000 A 
ENDBRANCH  58  72
BRANCH  59  78
ATOM     78  C   UNL A   1      47.154  28.381  29.198  1.00  0.00    -0.014 A 
ATOM     79  C   UNL A   1      47.319  27.442  28.155  1.00  0.00     0.009 A 
ATOM     80  C   UNL A   1      47.563  27.999  30.482  1.00  0.00     0.009 A 
ATOM     81  C   UNL A   1      47.827  26.162  28.398  1.00  0.00     0.001 A 
ATOM     82  C   UNL A   1      48.123  26.736  30.715  1.00  0.00     0.001 A 
ATOM     83  C   UNL A   1      48.236  25.811  29.679  1.00  0.00     0.000 A 
ENDBRANCH  59  78
BRANCH  71  84
ATOM     84  C   UNL A   1      49.630  34.441  26.893  1.00  0.00    -0.014 A 
ATOM     85  C   UNL A   1      50.669  34.923  27.706  1.00  0.00     0.009 A 
ATOM     86  C   UNL A   1      49.861  34.283  25.519  1.00  0.00     0.009 A 
ATOM     87  C   UNL A   1      51.901  35.273  27.149  1.00  0.00     0.001 A 
ATOM     88  C   UNL A   1      51.103  34.605  24.969  1.00  0.00     0.001 A 
ATOM     89  C   UNL A   1      52.118  35.109  25.782  1.00  0.00     0.000 A 
ENDBRANCH  71  84
ENDBRANCH  45  46
ENDBRANCH  38  40
ENDBRANCH  37  38
ENDBRANCH  36  37
ENDBRANCH  35  36
ENDBRANCH  34  35
ENDBRANCH  33  34
ENDBRANCH   1  33
TORSDOF 23
ENDMDL
