MODEL 1
REMARK VINA RESULT:      -9.8      0.000      0.000
REMARK SMILES O=C(Nc1ccc(Br)cc1)Nc1ccc(CC(=O)OCCOCCOCCOC(=O)c2ccc(-c3c4nc(c(-c5ccccc5)c5ccc([nH]5)c(-c5ccccc5)c5nc(c(-c6ccccc6)c6ccc3[nH]6)C=C5)C=C4)cc2)cc1
REMARK SMILES IDX 23 1 22 2 21 3 20 4 19 5 17 6 18 7 16 8 15 9 12 10 13 11
REMARK SMILES IDX 80 12 14 13 79 14 11 15 1 16 2 17 3 18 4 21 5 22 10 23 6 24
REMARK SMILES IDX 9 25 7 26 8 27 24 28 25 29 26 30 27 31 28 32 29 33 30 34
REMARK SMILES IDX 31 35 32 36 78 37 33 38 77 39 34 40 35 41 36 42 71 43 37 44
REMARK SMILES IDX 76 45 70 46 72 47 38 48 75 49 69 50 68 51 39 53 61 54 46 55
REMARK SMILES IDX 60 56 47 57 50 58 59 59 73 60 48 61 49 62 58 64 74 65 51 66
REMARK SMILES IDX 40 67 41 68 45 69 42 70 44 71 43 72 62 73 63 74 67 75 64 76
REMARK SMILES IDX 66 77 65 78 52 79 53 80 57 81 54 82 56 83 55 84
REMARK H PARENT 3 19 11 20 72 52 50 63
REMARK Flexibility Score: inf
ROOT
ATOM      1  C   UNL A   1      35.638  21.487  24.247  1.00  0.00     0.188 C 
ENDROOT
BRANCH   1   2
ATOM      2  O   UNL A   1      34.225  21.304  24.296  1.00  0.00    -0.376 OA
BRANCH   2   3
ATOM      3  C   UNL A   1      33.647  20.827  25.500  1.00  0.00     0.202 C 
BRANCH   3   4
ATOM      4  C   UNL A   1      32.779  21.829  26.265  1.00  0.00     0.261 C 
BRANCH   4   5
ATOM      5  O   UNL A   1      32.385  22.986  25.492  1.00  0.00    -0.463 OA
BRANCH   5   6
ATOM      6  C   UNL A   1      31.792  23.987  26.187  1.00  0.00     0.310 C 
ATOM      7  O   UNL A   1      31.206  23.825  27.256  1.00  0.00    -0.252 OA
BRANCH   6   8
ATOM      8  C   UNL A   1      31.827  25.352  25.537  1.00  0.00     0.158 C 
BRANCH   8   9
ATOM      9  C   UNL A   1      32.279  26.590  26.284  1.00  0.00    -0.037 A 
ATOM     10  C   UNL A   1      33.019  29.115  27.353  1.00  0.00     0.042 A 
ATOM     11  C   UNL A   1      31.751  28.585  27.593  1.00  0.00     0.026 A 
ATOM     12  C   UNL A   1      33.931  28.361  26.613  1.00  0.00     0.026 A 
ATOM     13  C   UNL A   1      31.371  27.355  27.032  1.00  0.00     0.006 A 
ATOM     14  C   UNL A   1      33.573  27.100  26.108  1.00  0.00     0.006 A 
BRANCH  10  15
ATOM     15  N   UNL A   1      33.312  30.399  27.858  1.00  0.00    -0.308 N 
ATOM     16  O   UNL A   1      32.127  31.707  26.361  1.00  0.00    -0.248 OA
ATOM     17  C   UNL A   1      32.915  31.591  27.297  1.00  0.00     0.323 C 
ATOM     18  N   UNL A   1      33.315  32.718  27.974  1.00  0.00    -0.308 N 
ATOM     19  H   UNL A   1      32.666  33.458  27.971  1.00  0.00     0.171 HD
ATOM     20  H   UNL A   1      33.848  30.447  28.682  1.00  0.00     0.171 HD
BRANCH  18  21
ATOM     21  C   UNL A   1      34.507  32.974  28.671  1.00  0.00     0.042 A 
ATOM     22  C   UNL A   1      34.576  32.961  30.067  1.00  0.00     0.027 A 
ATOM     23  C   UNL A   1      35.683  33.139  27.928  1.00  0.00     0.027 A 
ATOM     24  C   UNL A   1      35.807  33.120  30.714  1.00  0.00     0.018 A 
ATOM     25  C   UNL A   1      36.909  33.328  28.573  1.00  0.00     0.018 A 
ATOM     26  C   UNL A   1      36.966  33.311  29.965  1.00  0.00     0.018 A 
ATOM     27  Br  UNL A   1      38.626  33.527  30.842  1.00  0.00    -0.051 Br
ENDBRANCH  18  21
ENDBRANCH  10  15
ENDBRANCH   8   9
ENDBRANCH   6   8
ENDBRANCH   5   6
ENDBRANCH   4   5
ENDBRANCH   3   4
ENDBRANCH   2   3
ENDBRANCH   1   2
BRANCH   1  28
ATOM     28  C   UNL A   1      36.518  20.874  25.347  1.00  0.00     0.188 C 
BRANCH  28  29
ATOM     29  O   UNL A   1      37.893  20.867  24.983  1.00  0.00    -0.376 OA
BRANCH  29  30
ATOM     30  C   UNL A   1      38.687  21.798  25.703  1.00  0.00     0.202 C 
BRANCH  30  31
ATOM     31  C   UNL A   1      39.710  21.029  26.541  1.00  0.00     0.261 C 
BRANCH  31  32
ATOM     32  O   UNL A   1      40.285  19.890  25.866  1.00  0.00    -0.460 OA
BRANCH  32  33
ATOM     33  C   UNL A   1      41.611  19.710  26.013  1.00  0.00     0.338 C 
ATOM     34  O   UNL A   1      42.263  18.719  25.693  1.00  0.00    -0.246 OA
BRANCH  33  35
ATOM     35  C   UNL A   1      42.227  20.963  26.488  1.00  0.00     0.060 A 
ATOM     36  C   UNL A   1      42.255  21.212  27.866  1.00  0.00     0.016 A 
ATOM     37  C   UNL A   1      42.709  21.918  25.591  1.00  0.00     0.016 A 
ATOM     38  C   UNL A   1      42.713  22.439  28.348  1.00  0.00     0.010 A 
ATOM     39  C   UNL A   1      43.158  23.151  26.074  1.00  0.00     0.010 A 
ATOM     40  C   UNL A   1      43.122  23.434  27.452  1.00  0.00    -0.014 A 
BRANCH  40  41
ATOM     41  C   UNL A   1      43.318  24.824  27.935  1.00  0.00     0.031 A 
ATOM     42  C   UNL A   1      44.721  25.305  28.199  1.00  0.00     0.074 A 
ATOM     43  C   UNL A   1      42.284  25.664  28.109  1.00  0.00     0.049 A 
ATOM     44  N   UNL A   1      45.133  26.462  28.651  1.00  0.00    -0.248 NA
ATOM     45  C   UNL A   1      45.805  24.348  27.917  1.00  0.00     0.031 C 
ATOM     46  C   UNL A   1      40.881  25.349  27.849  1.00  0.00     0.029 A 
ATOM     47  N   UNL A   1      42.262  26.963  28.553  1.00  0.00    -0.354 N 
ATOM     48  C   UNL A   1      46.518  26.366  28.725  1.00  0.00     0.074 A 
ATOM     49  C   UNL A   1      46.873  25.032  28.296  1.00  0.00     0.031 C 
ATOM     50  C   UNL A   1      40.132  26.426  28.143  1.00  0.00     0.029 A 
ATOM     51  C   UNL A   1      40.998  27.493  28.644  1.00  0.00     0.049 A 
ATOM     52  H   UNL A   1      43.075  27.467  28.785  1.00  0.00     0.167 HD
ATOM     53  C   UNL A   1      47.416  27.303  29.112  1.00  0.00     0.031 A 
ATOM     54  C   UNL A   1      40.585  28.693  29.098  1.00  0.00     0.031 A 
ATOM     55  C   UNL A   1      47.072  28.630  29.546  1.00  0.00     0.049 A 
ATOM     56  C   UNL A   1      41.597  29.696  29.584  1.00  0.00     0.074 A 
ATOM     57  C   UNL A   1      47.916  29.654  29.938  1.00  0.00     0.029 A 
ATOM     58  N   UNL A   1      45.778  29.114  29.655  1.00  0.00    -0.354 N 
ATOM     59  N   UNL A   1      42.904  29.602  29.626  1.00  0.00    -0.248 NA
ATOM     60  C   UNL A   1      41.072  30.979  30.080  1.00  0.00     0.031 C 
ATOM     61  C   UNL A   1      47.131  30.740  30.338  1.00  0.00     0.029 A 
ATOM     62  C   UNL A   1      45.800  30.413  30.136  1.00  0.00     0.049 A 
ATOM     63  H   UNL A   1      44.965  28.609  29.426  1.00  0.00     0.167 HD
ATOM     64  C   UNL A   1      43.358  30.819  30.125  1.00  0.00     0.074 A 
ATOM     65  C   UNL A   1      42.187  31.640  30.356  1.00  0.00     0.031 C 
ATOM     66  C   UNL A   1      44.629  31.221  30.365  1.00  0.00     0.031 A 
BRANCH  53  67
ATOM     67  C   UNL A   1      48.864  26.901  29.124  1.00  0.00    -0.014 A 
ATOM     68  C   UNL A   1      49.445  26.278  30.240  1.00  0.00     0.009 A 
ATOM     69  C   UNL A   1      49.656  27.136  27.989  1.00  0.00     0.009 A 
ATOM     70  C   UNL A   1      50.799  25.936  30.233  1.00  0.00     0.001 A 
ATOM     71  C   UNL A   1      51.001  26.765  27.973  1.00  0.00     0.001 A 
ATOM     72  C   UNL A   1      51.575  26.177  29.099  1.00  0.00     0.000 A 
ENDBRANCH  53  67
BRANCH  54  73
ATOM     73  C   UNL A   1      39.132  29.011  29.140  1.00  0.00    -0.014 A 
ATOM     74  C   UNL A   1      38.457  29.436  27.986  1.00  0.00     0.009 A 
ATOM     75  C   UNL A   1      38.419  28.911  30.345  1.00  0.00     0.009 A 
ATOM     76  C   UNL A   1      37.103  29.777  28.044  1.00  0.00     0.001 A 
ATOM     77  C   UNL A   1      37.060  29.225  30.394  1.00  0.00     0.001 A 
ATOM     78  C   UNL A   1      36.405  29.667  29.245  1.00  0.00     0.000 A 
ENDBRANCH  54  73
BRANCH  66  79
ATOM     79  C   UNL A   1      44.831  32.623  30.872  1.00  0.00    -0.014 A 
ATOM     80  C   UNL A   1      44.965  33.708  29.992  1.00  0.00     0.009 A 
ATOM     81  C   UNL A   1      44.847  32.865  32.255  1.00  0.00     0.009 A 
ATOM     82  C   UNL A   1      45.148  35.002  30.488  1.00  0.00     0.001 A 
ATOM     83  C   UNL A   1      44.999  34.162  32.748  1.00  0.00     0.001 A 
ATOM     84  C   UNL A   1      45.160  35.228  31.864  1.00  0.00     0.000 A 
ENDBRANCH  66  79
ENDBRANCH  40  41
ENDBRANCH  33  35
ENDBRANCH  32  33
ENDBRANCH  31  32
ENDBRANCH  30  31
ENDBRANCH  29  30
ENDBRANCH  28  29
ENDBRANCH   1  28
TORSDOF 20
ENDMDL
MODEL 2
REMARK VINA RESULT:      -9.8      4.240      7.719
REMARK SMILES O=C(Nc1ccc(Br)cc1)Nc1ccc(CC(=O)OCCOCCOCCOC(=O)c2ccc(-c3c4nc(c(-c5ccccc5)c5ccc([nH]5)c(-c5ccccc5)c5nc(c(-c6ccccc6)c6ccc3[nH]6)C=C5)C=C4)cc2)cc1
REMARK SMILES IDX 23 1 22 2 21 3 20 4 19 5 17 6 18 7 16 8 15 9 12 10 13 11
REMARK SMILES IDX 80 12 14 13 79 14 11 15 1 16 2 17 3 18 4 21 5 22 10 23 6 24
REMARK SMILES IDX 9 25 7 26 8 27 24 28 25 29 26 30 27 31 28 32 29 33 30 34
REMARK SMILES IDX 31 35 32 36 78 37 33 38 77 39 34 40 35 41 36 42 71 43 37 44
REMARK SMILES IDX 76 45 70 46 72 47 38 48 75 49 69 50 68 51 39 53 61 54 46 55
REMARK SMILES IDX 60 56 47 57 50 58 59 59 73 60 48 61 49 62 58 64 74 65 51 66
REMARK SMILES IDX 40 67 41 68 45 69 42 70 44 71 43 72 62 73 63 74 67 75 64 76
REMARK SMILES IDX 66 77 65 78 52 79 53 80 57 81 54 82 56 83 55 84
REMARK H PARENT 3 19 11 20 72 52 50 63
REMARK Flexibility Score: inf
ROOT
ATOM      1  C   UNL A   1      46.318  20.013  24.510  1.00  0.00     0.188 C 
ENDROOT
BRANCH   1   2
ATOM      2  O   UNL A   1      45.596  19.057  25.283  1.00  0.00    -0.376 OA
BRANCH   2   3
ATOM      3  C   UNL A   1      44.240  18.805  24.951  1.00  0.00     0.202 C 
BRANCH   3   4
ATOM      4  C   UNL A   1      43.213  19.179  26.023  1.00  0.00     0.261 C 
BRANCH   4   5
ATOM      5  O   UNL A   1      42.164  20.060  25.559  1.00  0.00    -0.463 OA
BRANCH   5   6
ATOM      6  C   UNL A   1      42.331  21.376  25.840  1.00  0.00     0.310 C 
ATOM      7  O   UNL A   1      42.630  22.223  25.001  1.00  0.00    -0.252 OA
BRANCH   6   8
ATOM      8  C   UNL A   1      42.191  21.762  27.296  1.00  0.00     0.158 C 
BRANCH   8   9
ATOM      9  C   UNL A   1      41.545  23.063  27.727  1.00  0.00    -0.037 A 
ATOM     10  C   UNL A   1      40.455  25.646  28.179  1.00  0.00     0.042 A 
ATOM     11  C   UNL A   1      39.666  24.622  27.650  1.00  0.00     0.026 A 
ATOM     12  C   UNL A   1      41.778  25.362  28.522  1.00  0.00     0.026 A 
ATOM     13  C   UNL A   1      40.216  23.357  27.390  1.00  0.00     0.006 A 
ATOM     14  C   UNL A   1      42.309  24.077  28.323  1.00  0.00     0.006 A 
BRANCH  10  15
ATOM     15  N   UNL A   1      39.878  26.924  28.326  1.00  0.00    -0.308 N 
ATOM     16  O   UNL A   1      40.653  27.947  26.401  1.00  0.00    -0.248 OA
ATOM     17  C   UNL A   1      40.071  27.993  27.482  1.00  0.00     0.323 C 
ATOM     18  N   UNL A   1      39.395  29.139  27.826  1.00  0.00    -0.308 N 
ATOM     19  H   UNL A   1      39.059  29.669  27.068  1.00  0.00     0.171 HD
ATOM     20  H   UNL A   1      39.287  27.065  29.101  1.00  0.00     0.171 HD
BRANCH  18  21
ATOM     21  C   UNL A   1      39.110  29.670  29.096  1.00  0.00     0.042 A 
ATOM     22  C   UNL A   1      40.039  30.424  29.817  1.00  0.00     0.027 A 
ATOM     23  C   UNL A   1      37.811  29.522  29.596  1.00  0.00     0.027 A 
ATOM     24  C   UNL A   1      39.676  31.018  31.031  1.00  0.00     0.018 A 
ATOM     25  C   UNL A   1      37.454  30.089  30.823  1.00  0.00     0.018 A 
ATOM     26  C   UNL A   1      38.388  30.841  31.532  1.00  0.00     0.018 A 
ATOM     27  Br  UNL A   1      37.901  31.643  33.173  1.00  0.00    -0.051 Br
ENDBRANCH  18  21
ENDBRANCH  10  15
ENDBRANCH   8   9
ENDBRANCH   6   8
ENDBRANCH   5   6
ENDBRANCH   4   5
ENDBRANCH   3   4
ENDBRANCH   2   3
ENDBRANCH   1   2
BRANCH   1  28
ATOM     28  C   UNL A   1      46.016  21.509  24.685  1.00  0.00     0.188 C 
BRANCH  28  29
ATOM     29  O   UNL A   1      45.967  21.883  26.055  1.00  0.00    -0.376 OA
BRANCH  29  30
ATOM     30  C   UNL A   1      45.746  23.270  26.269  1.00  0.00     0.202 C 
BRANCH  30  31
ATOM     31  C   UNL A   1      46.568  24.062  25.251  1.00  0.00     0.261 C 
BRANCH  31  32
ATOM     32  O   UNL A   1      45.838  25.130  24.610  1.00  0.00    -0.460 OA
BRANCH  32  33
ATOM     33  C   UNL A   1      46.297  26.379  24.814  1.00  0.00     0.338 C 
ATOM     34  O   UNL A   1      46.936  27.070  24.024  1.00  0.00    -0.246 OA
BRANCH  33  35
ATOM     35  C   UNL A   1      45.785  26.886  26.100  1.00  0.00     0.060 A 
ATOM     36  C   UNL A   1      44.399  26.943  26.292  1.00  0.00     0.016 A 
ATOM     37  C   UNL A   1      46.650  27.368  27.083  1.00  0.00     0.016 A 
ATOM     38  C   UNL A   1      43.872  27.532  27.441  1.00  0.00     0.010 A 
ATOM     39  C   UNL A   1      46.122  27.969  28.230  1.00  0.00     0.010 A 
ATOM     40  C   UNL A   1      44.730  28.093  28.395  1.00  0.00    -0.014 A 
BRANCH  40  41
ATOM     41  C   UNL A   1      44.178  28.976  29.453  1.00  0.00     0.031 A 
ATOM     42  C   UNL A   1      43.832  28.372  30.789  1.00  0.00     0.074 A 
ATOM     43  C   UNL A   1      44.014  30.295  29.256  1.00  0.00     0.049 A 
ATOM     44  N   UNL A   1      43.311  28.939  31.848  1.00  0.00    -0.248 NA
ATOM     45  C   UNL A   1      44.108  26.935  30.949  1.00  0.00     0.031 C 
ATOM     46  C   UNL A   1      44.349  31.020  28.033  1.00  0.00     0.029 A 
ATOM     47  N   UNL A   1      43.513  31.261  30.096  1.00  0.00    -0.354 N 
ATOM     48  C   UNL A   1      43.181  27.926  32.791  1.00  0.00     0.074 A 
ATOM     49  C   UNL A   1      43.653  26.707  32.171  1.00  0.00     0.031 C 
ATOM     50  C   UNL A   1      44.040  32.319  28.199  1.00  0.00     0.029 A 
ATOM     51  C   UNL A   1      43.456  32.509  29.526  1.00  0.00     0.049 A 
ATOM     52  H   UNL A   1      43.224  31.076  31.018  1.00  0.00     0.167 HD
ATOM     53  C   UNL A   1      42.714  28.000  34.060  1.00  0.00     0.031 A 
ATOM     54  C   UNL A   1      42.967  33.668  30.010  1.00  0.00     0.031 A 
ATOM     55  C   UNL A   1      42.237  29.205  34.683  1.00  0.00     0.049 A 
ATOM     56  C   UNL A   1      42.393  33.713  31.402  1.00  0.00     0.074 A 
ATOM     57  C   UNL A   1      41.764  29.379  35.972  1.00  0.00     0.029 A 
ATOM     58  N   UNL A   1      42.164  30.440  34.059  1.00  0.00    -0.354 N 
ATOM     59  N   UNL A   1      42.299  32.754  32.291  1.00  0.00    -0.248 NA
ATOM     60  C   UNL A   1      41.865  35.009  31.859  1.00  0.00     0.031 C 
ATOM     61  C   UNL A   1      41.352  30.708  36.110  1.00  0.00     0.029 A 
ATOM     62  C   UNL A   1      41.627  31.375  34.927  1.00  0.00     0.049 A 
ATOM     63  H   UNL A   1      42.451  30.624  33.136  1.00  0.00     0.167 HD
ATOM     64  C   UNL A   1      41.727  33.335  33.419  1.00  0.00     0.074 A 
ATOM     65  C   UNL A   1      41.512  34.733  33.106  1.00  0.00     0.031 C 
ATOM     66  C   UNL A   1      41.414  32.763  34.606  1.00  0.00     0.031 A 
BRANCH  53  67
ATOM     67  C   UNL A   1      42.656  26.719  34.845  1.00  0.00    -0.014 A 
ATOM     68  C   UNL A   1      41.434  26.159  35.249  1.00  0.00     0.009 A 
ATOM     69  C   UNL A   1      43.849  26.053  35.171  1.00  0.00     0.009 A 
ATOM     70  C   UNL A   1      41.410  24.980  35.998  1.00  0.00     0.001 A 
ATOM     71  C   UNL A   1      43.821  24.860  35.893  1.00  0.00     0.001 A 
ATOM     72  C   UNL A   1      42.603  24.330  36.316  1.00  0.00     0.000 A 
ENDBRANCH  53  67
BRANCH  54  73
ATOM     73  C   UNL A   1      42.975  34.890  29.162  1.00  0.00    -0.014 A 
ATOM     74  C   UNL A   1      41.844  35.255  28.417  1.00  0.00     0.009 A 
ATOM     75  C   UNL A   1      44.129  35.686  29.077  1.00  0.00     0.009 A 
ATOM     76  C   UNL A   1      41.875  36.378  27.588  1.00  0.00     0.001 A 
ATOM     77  C   UNL A   1      44.148  36.824  28.269  1.00  0.00     0.001 A 
ATOM     78  C   UNL A   1      43.024  37.164  27.518  1.00  0.00     0.000 A 
ENDBRANCH  54  73
BRANCH  66  79
ATOM     79  C   UNL A   1      40.838  33.652  35.675  1.00  0.00    -0.014 A 
ATOM     80  C   UNL A   1      39.460  33.683  35.939  1.00  0.00     0.009 A 
ATOM     81  C   UNL A   1      41.696  34.443  36.456  1.00  0.00     0.009 A 
ATOM     82  C   UNL A   1      38.950  34.516  36.939  1.00  0.00     0.001 A 
ATOM     83  C   UNL A   1      41.188  35.251  37.475  1.00  0.00     0.001 A 
ATOM     84  C   UNL A   1      39.814  35.294  37.709  1.00  0.00     0.000 A 
ENDBRANCH  66  79
ENDBRANCH  40  41
ENDBRANCH  33  35
ENDBRANCH  32  33
ENDBRANCH  31  32
ENDBRANCH  30  31
ENDBRANCH  29  30
ENDBRANCH  28  29
ENDBRANCH   1  28
TORSDOF 20
ENDMDL
MODEL 3
REMARK VINA RESULT:      -9.2      4.257      7.115
REMARK SMILES O=C(Nc1ccc(Br)cc1)Nc1ccc(CC(=O)OCCOCCOCCOC(=O)c2ccc(-c3c4nc(c(-c5ccccc5)c5ccc([nH]5)c(-c5ccccc5)c5nc(c(-c6ccccc6)c6ccc3[nH]6)C=C5)C=C4)cc2)cc1
REMARK SMILES IDX 23 1 22 2 21 3 20 4 19 5 17 6 18 7 16 8 15 9 12 10 13 11
REMARK SMILES IDX 80 12 14 13 79 14 11 15 1 16 2 17 3 18 4 21 5 22 10 23 6 24
REMARK SMILES IDX 9 25 7 26 8 27 24 28 25 29 26 30 27 31 28 32 29 33 30 34
REMARK SMILES IDX 31 35 32 36 78 37 33 38 77 39 34 40 35 41 36 42 71 43 37 44
REMARK SMILES IDX 76 45 70 46 72 47 38 48 75 49 69 50 68 51 39 53 61 54 46 55
REMARK SMILES IDX 60 56 47 57 50 58 59 59 73 60 48 61 49 62 58 64 74 65 51 66
REMARK SMILES IDX 40 67 41 68 45 69 42 70 44 71 43 72 62 73 63 74 67 75 64 76
REMARK SMILES IDX 66 77 65 78 52 79 53 80 57 81 54 82 56 83 55 84
REMARK H PARENT 3 19 11 20 72 52 50 63
REMARK Flexibility Score: inf
ROOT
ATOM      1  C   UNL A   1      44.106  20.670  25.402  1.00  0.00     0.188 C 
ENDROOT
BRANCH   1   2
ATOM      2  O   UNL A   1      42.740  20.976  25.675  1.00  0.00    -0.376 OA
BRANCH   2   3
ATOM      3  C   UNL A   1      42.431  21.675  26.871  1.00  0.00     0.202 C 
BRANCH   3   4
ATOM      4  C   UNL A   1      40.988  22.170  26.996  1.00  0.00     0.261 C 
BRANCH   4   5
ATOM      5  O   UNL A   1      40.858  23.475  27.606  1.00  0.00    -0.463 OA
BRANCH   5   6
ATOM      6  C   UNL A   1      39.981  24.321  27.011  1.00  0.00     0.310 C 
ATOM      7  O   UNL A   1      38.874  23.980  26.598  1.00  0.00    -0.252 OA
BRANCH   6   8
ATOM      8  C   UNL A   1      40.464  25.740  26.813  1.00  0.00     0.158 C 
BRANCH   8   9
ATOM      9  C   UNL A   1      39.922  26.898  27.625  1.00  0.00    -0.037 A 
ATOM     10  C   UNL A   1      39.255  29.056  29.347  1.00  0.00     0.042 A 
ATOM     11  C   UNL A   1      39.829  29.294  28.097  1.00  0.00     0.026 A 
ATOM     12  C   UNL A   1      38.975  27.739  29.715  1.00  0.00     0.026 A 
ATOM     13  C   UNL A   1      40.195  28.225  27.263  1.00  0.00     0.006 A 
ATOM     14  C   UNL A   1      39.280  26.674  28.852  1.00  0.00     0.006 A 
BRANCH  10  15
ATOM     15  N   UNL A   1      38.999  30.161  30.185  1.00  0.00    -0.308 N 
ATOM     16  O   UNL A   1      40.113  29.489  32.099  1.00  0.00    -0.248 OA
ATOM     17  C   UNL A   1      39.375  30.271  31.504  1.00  0.00     0.323 C 
ATOM     18  N   UNL A   1      39.021  31.449  32.116  1.00  0.00    -0.308 N 
ATOM     19  H   UNL A   1      39.674  31.793  32.767  1.00  0.00     0.171 HD
ATOM     20  H   UNL A   1      38.508  30.919  29.793  1.00  0.00     0.171 HD
BRANCH  18  21
ATOM     21  C   UNL A   1      37.869  32.237  31.955  1.00  0.00     0.042 A 
ATOM     22  C   UNL A   1      36.644  31.699  31.550  1.00  0.00     0.027 A 
ATOM     23  C   UNL A   1      37.938  33.588  32.319  1.00  0.00     0.027 A 
ATOM     24  C   UNL A   1      35.501  32.504  31.503  1.00  0.00     0.018 A 
ATOM     25  C   UNL A   1      36.804  34.401  32.243  1.00  0.00     0.018 A 
ATOM     26  C   UNL A   1      35.588  33.853  31.841  1.00  0.00     0.018 A 
ATOM     27  Br  UNL A   1      34.042  34.939  31.773  1.00  0.00    -0.051 Br
ENDBRANCH  18  21
ENDBRANCH  10  15
ENDBRANCH   8   9
ENDBRANCH   6   8
ENDBRANCH   5   6
ENDBRANCH   4   5
ENDBRANCH   3   4
ENDBRANCH   2   3
ENDBRANCH   1   2
BRANCH   1  28
ATOM     28  C   UNL A   1      44.683  20.964  24.009  1.00  0.00     0.188 C 
BRANCH  28  29
ATOM     29  O   UNL A   1      45.123  22.311  23.891  1.00  0.00    -0.376 OA
BRANCH  29  30
ATOM     30  C   UNL A   1      46.289  22.607  24.647  1.00  0.00     0.202 C 
BRANCH  30  31
ATOM     31  C   UNL A   1      46.051  23.896  25.435  1.00  0.00     0.261 C 
BRANCH  31  32
ATOM     32  O   UNL A   1      45.586  25.000  24.629  1.00  0.00    -0.460 OA
BRANCH  32  33
ATOM     33  C   UNL A   1      46.137  26.201  24.880  1.00  0.00     0.338 C 
ATOM     34  O   UNL A   1      46.855  26.858  24.129  1.00  0.00    -0.246 OA
BRANCH  33  35
ATOM     35  C   UNL A   1      45.627  26.717  26.164  1.00  0.00     0.060 A 
ATOM     36  C   UNL A   1      44.242  26.820  26.340  1.00  0.00     0.016 A 
ATOM     37  C   UNL A   1      46.497  27.162  27.161  1.00  0.00     0.016 A 
ATOM     38  C   UNL A   1      43.722  27.419  27.487  1.00  0.00     0.010 A 
ATOM     39  C   UNL A   1      45.976  27.773  28.306  1.00  0.00     0.010 A 
ATOM     40  C   UNL A   1      44.587  27.944  28.456  1.00  0.00    -0.014 A 
BRANCH  40  41
ATOM     41  C   UNL A   1      44.053  28.837  29.513  1.00  0.00     0.031 A 
ATOM     42  C   UNL A   1      43.762  28.255  30.872  1.00  0.00     0.074 A 
ATOM     43  C   UNL A   1      43.857  30.149  29.296  1.00  0.00     0.049 A 
ATOM     44  N   UNL A   1      43.265  28.833  31.936  1.00  0.00    -0.248 NA
ATOM     45  C   UNL A   1      44.071  26.827  31.051  1.00  0.00     0.031 C 
ATOM     46  C   UNL A   1      44.138  30.855  28.048  1.00  0.00     0.029 A 
ATOM     47  N   UNL A   1      43.365  31.123  30.132  1.00  0.00    -0.354 N 
ATOM     48  C   UNL A   1      43.185  27.837  32.903  1.00  0.00     0.074 A 
ATOM     49  C   UNL A   1      43.660  26.615  32.292  1.00  0.00     0.031 C 
ATOM     50  C   UNL A   1      43.810  32.151  28.198  1.00  0.00     0.029 A 
ATOM     51  C   UNL A   1      43.265  32.358  29.540  1.00  0.00     0.049 A 
ATOM     52  H   UNL A   1      43.110  30.951  31.067  1.00  0.00     0.167 HD
ATOM     53  C   UNL A   1      42.758  27.928  34.184  1.00  0.00     0.031 A 
ATOM     54  C   UNL A   1      42.770  33.517  30.017  1.00  0.00     0.031 A 
ATOM     55  C   UNL A   1      42.279  29.137  34.799  1.00  0.00     0.049 A 
ATOM     56  C   UNL A   1      42.241  33.579  31.426  1.00  0.00     0.074 A 
ATOM     57  C   UNL A   1      41.845  29.328  36.099  1.00  0.00     0.029 A 
ATOM     58  N   UNL A   1      42.162  30.357  34.153  1.00  0.00    -0.354 N 
ATOM     59  N   UNL A   1      42.194  32.637  32.336  1.00  0.00    -0.248 NA
ATOM     60  C   UNL A   1      41.703  34.874  31.874  1.00  0.00     0.031 C 
ATOM     61  C   UNL A   1      41.411  30.652  36.224  1.00  0.00     0.029 A 
ATOM     62  C   UNL A   1      41.634  31.300  35.020  1.00  0.00     0.049 A 
ATOM     63  H   UNL A   1      42.415  30.528  33.217  1.00  0.00     0.167 HD
ATOM     64  C   UNL A   1      41.648  33.231  33.470  1.00  0.00     0.074 A 
ATOM     65  C   UNL A   1      41.396  34.617  33.137  1.00  0.00     0.031 C 
ATOM     66  C   UNL A   1      41.384  32.677  34.679  1.00  0.00     0.031 A 
BRANCH  53  67
ATOM     67  C   UNL A   1      42.751  26.663  34.996  1.00  0.00    -0.014 A 
ATOM     68  C   UNL A   1      43.905  26.202  35.648  1.00  0.00     0.009 A 
ATOM     69  C   UNL A   1      41.560  25.930  35.123  1.00  0.00     0.009 A 
ATOM     70  C   UNL A   1      43.876  25.010  36.377  1.00  0.00     0.001 A 
ATOM     71  C   UNL A   1      41.527  24.756  35.876  1.00  0.00     0.001 A 
ATOM     72  C   UNL A   1      42.687  24.291  36.493  1.00  0.00     0.000 A 
ENDBRANCH  53  67
BRANCH  54  73
ATOM     73  C   UNL A   1      42.727  34.721  29.145  1.00  0.00    -0.014 A 
ATOM     74  C   UNL A   1      41.551  35.077  28.470  1.00  0.00     0.009 A 
ATOM     75  C   UNL A   1      43.876  35.508  28.966  1.00  0.00     0.009 A 
ATOM     76  C   UNL A   1      41.531  36.183  27.617  1.00  0.00     0.001 A 
ATOM     77  C   UNL A   1      43.846  36.630  28.136  1.00  0.00     0.001 A 
ATOM     78  C   UNL A   1      42.677  36.961  27.454  1.00  0.00     0.000 A 
ENDBRANCH  54  73
BRANCH  66  79
ATOM     79  C   UNL A   1      40.826  33.577  35.748  1.00  0.00    -0.014 A 
ATOM     80  C   UNL A   1      41.665  34.334  36.580  1.00  0.00     0.009 A 
ATOM     81  C   UNL A   1      39.435  33.697  35.896  1.00  0.00     0.009 A 
ATOM     82  C   UNL A   1      41.121  35.164  37.564  1.00  0.00     0.001 A 
ATOM     83  C   UNL A   1      38.894  34.550  36.859  1.00  0.00     0.001 A 
ATOM     84  C   UNL A   1      39.737  35.276  37.699  1.00  0.00     0.000 A 
ENDBRANCH  66  79
ENDBRANCH  40  41
ENDBRANCH  33  35
ENDBRANCH  32  33
ENDBRANCH  31  32
ENDBRANCH  30  31
ENDBRANCH  29  30
ENDBRANCH  28  29
ENDBRANCH   1  28
TORSDOF 20
ENDMDL
