MODEL 1
REMARK VINA RESULT:     -11.0      0.000      0.000
REMARK SMILES O=C(OCCOCCOCCOC(=O)c1nccnc1C(=O)Nc1ccc(-n2cncn2)c(Cl)c1)c1ccc(-c2c3nc(c(-c4ccccc4)c4ccc([nH]4)c(-c4ccccc4)c4nc(c(-c5ccccc5)c5ccc2[nH]5)C=C4)C=C3)cc1
REMARK SMILES IDX 8 1 7 2 6 3 5 4 4 5 3 6 2 7 1 8 36 9 37 10 83 11 38 12 82 13
REMARK SMILES IDX 39 14 40 15 41 16 76 17 42 18 81 19 75 20 77 21 43 22 80 23
REMARK SMILES IDX 74 24 73 25 44 27 66 28 51 29 65 30 52 31 55 32 64 33 78 34
REMARK SMILES IDX 53 35 54 36 63 38 79 39 56 40 45 41 46 42 50 43 47 44 49 45
REMARK SMILES IDX 48 46 67 47 68 48 72 49 69 50 71 51 70 52 57 53 58 54 62 55
REMARK SMILES IDX 59 56 61 57 60 58 9 59 10 60 11 61 12 62 13 63 14 64 15 65
REMARK SMILES IDX 16 66 20 67 17 68 19 69 18 70 21 71 22 72 23 73 24 75 25 76
REMARK SMILES IDX 35 77 26 78 33 79 27 80 34 81 28 82 29 83 32 84 30 85 31 86
REMARK H PARENT 77 26 55 37 23 74
REMARK Flexibility Score: inf
ROOT
ATOM      1  C   UNL A   1      37.984  20.405  24.812  1.00  0.00     0.188 C 
ENDROOT
BRANCH   1   2
ATOM      2  C   UNL A   1      38.605  19.207  25.527  1.00  0.00     0.188 C 
BRANCH   2   3
ATOM      3  O   UNL A   1      40.031  19.095  25.567  1.00  0.00    -0.376 OA
BRANCH   3   4
ATOM      4  C   UNL A   1      40.803  20.110  26.207  1.00  0.00     0.202 C 
BRANCH   4   5
ATOM      5  C   UNL A   1      42.296  19.841  26.399  1.00  0.00     0.261 C 
BRANCH   5   6
ATOM      6  O   UNL A   1      42.967  19.569  25.161  1.00  0.00    -0.460 OA
BRANCH   6   7
ATOM      7  C   UNL A   1      43.926  20.266  24.517  1.00  0.00     0.338 C 
ATOM      8  O   UNL A   1      44.405  19.773  23.496  1.00  0.00    -0.246 OA
BRANCH   7   9
ATOM      9  C   UNL A   1      44.464  21.586  24.976  1.00  0.00     0.060 A 
ATOM     10  C   UNL A   1      45.588  21.785  25.788  1.00  0.00     0.016 A 
ATOM     11  C   UNL A   1      43.796  22.720  24.473  1.00  0.00     0.016 A 
ATOM     12  C   UNL A   1      45.875  23.026  26.303  1.00  0.00     0.010 A 
ATOM     13  C   UNL A   1      44.093  23.980  24.956  1.00  0.00     0.010 A 
ATOM     14  C   UNL A   1      45.033  24.072  25.976  1.00  0.00    -0.014 A 
BRANCH  14  15
ATOM     15  C   UNL A   1      44.962  25.127  26.962  1.00  0.00     0.031 A 
ATOM     16  C   UNL A   1      46.150  25.996  27.100  1.00  0.00     0.074 A 
ATOM     17  C   UNL A   1      43.830  25.199  27.690  1.00  0.00     0.049 A 
ATOM     18  N   UNL A   1      46.823  26.269  28.170  1.00  0.00    -0.248 NA
ATOM     19  C   UNL A   1      46.711  26.564  25.865  1.00  0.00     0.031 C 
ATOM     20  C   UNL A   1      42.572  24.467  27.465  1.00  0.00     0.029 A 
ATOM     21  N   UNL A   1      43.508  26.051  28.692  1.00  0.00    -0.354 N 
ATOM     22  C   UNL A   1      47.792  27.186  27.776  1.00  0.00     0.074 A 
ATOM     23  C   UNL A   1      47.764  27.229  26.335  1.00  0.00     0.031 C 
ATOM     24  C   UNL A   1      41.569  25.117  28.085  1.00  0.00     0.029 A 
ATOM     25  C   UNL A   1      42.140  26.210  28.847  1.00  0.00     0.049 A 
ATOM     26  H   UNL A   1      44.176  26.508  29.253  1.00  0.00     0.167 HD
ATOM     27  C   UNL A   1      48.384  28.039  28.654  1.00  0.00     0.031 A 
ATOM     28  C   UNL A   1      41.518  27.259  29.432  1.00  0.00     0.031 A 
ATOM     29  C   UNL A   1      48.313  27.580  30.011  1.00  0.00     0.049 A 
ATOM     30  C   UNL A   1      42.519  27.948  30.282  1.00  0.00     0.074 A 
ATOM     31  C   UNL A   1      48.813  26.488  30.692  1.00  0.00     0.029 A 
ATOM     32  N   UNL A   1      47.343  28.117  30.821  1.00  0.00    -0.354 N 
ATOM     33  N   UNL A   1      43.052  27.404  31.340  1.00  0.00    -0.248 NA
ATOM     34  C   UNL A   1      43.279  29.044  29.700  1.00  0.00     0.031 C 
ATOM     35  C   UNL A   1      47.805  26.153  31.642  1.00  0.00     0.029 A 
ATOM     36  C   UNL A   1      46.770  27.080  31.511  1.00  0.00     0.049 A 
ATOM     37  H   UNL A   1      47.104  29.070  30.893  1.00  0.00     0.167 HD
ATOM     38  C   UNL A   1      44.386  27.791  31.312  1.00  0.00     0.074 A 
ATOM     39  C   UNL A   1      44.440  28.886  30.345  1.00  0.00     0.031 C 
ATOM     40  C   UNL A   1      45.365  27.005  31.849  1.00  0.00     0.031 A 
BRANCH  27  41
ATOM     41  C   UNL A   1      48.661  29.473  28.291  1.00  0.00    -0.014 A 
ATOM     42  C   UNL A   1      47.592  30.358  28.086  1.00  0.00     0.009 A 
ATOM     43  C   UNL A   1      49.938  29.906  27.876  1.00  0.00     0.009 A 
ATOM     44  C   UNL A   1      47.791  31.597  27.462  1.00  0.00     0.001 A 
ATOM     45  C   UNL A   1      50.146  31.156  27.294  1.00  0.00     0.001 A 
ATOM     46  C   UNL A   1      49.066  31.993  27.065  1.00  0.00     0.000 A 
ENDBRANCH  27  41
BRANCH  28  47
ATOM     47  C   UNL A   1      40.265  27.876  28.948  1.00  0.00    -0.014 A 
ATOM     48  C   UNL A   1      39.135  27.967  29.768  1.00  0.00     0.009 A 
ATOM     49  C   UNL A   1      40.239  28.571  27.719  1.00  0.00     0.009 A 
ATOM     50  C   UNL A   1      38.027  28.732  29.375  1.00  0.00     0.001 A 
ATOM     51  C   UNL A   1      39.133  29.324  27.322  1.00  0.00     0.001 A 
ATOM     52  C   UNL A   1      38.028  29.413  28.157  1.00  0.00     0.000 A 
ENDBRANCH  28  47
BRANCH  40  53
ATOM     53  C   UNL A   1      44.931  25.775  32.615  1.00  0.00    -0.014 A 
ATOM     54  C   UNL A   1      44.589  25.827  33.980  1.00  0.00     0.009 A 
ATOM     55  C   UNL A   1      44.689  24.586  31.916  1.00  0.00     0.009 A 
ATOM     56  C   UNL A   1      44.049  24.713  34.631  1.00  0.00     0.001 A 
ATOM     57  C   UNL A   1      44.132  23.479  32.562  1.00  0.00     0.001 A 
ATOM     58  C   UNL A   1      43.816  23.540  33.918  1.00  0.00     0.000 A 
ENDBRANCH  40  53
ENDBRANCH  14  15
ENDBRANCH   7   9
ENDBRANCH   6   7
ENDBRANCH   5   6
ENDBRANCH   4   5
ENDBRANCH   3   4
ENDBRANCH   2   3
ENDBRANCH   1   2
BRANCH   1  59
ATOM     59  O   UNL A   1      37.412  21.409  25.640  1.00  0.00    -0.376 OA
BRANCH  59  60
ATOM     60  C   UNL A   1      38.081  22.657  25.682  1.00  0.00     0.202 C 
BRANCH  60  61
ATOM     61  C   UNL A   1      37.138  23.793  26.083  1.00  0.00     0.261 C 
BRANCH  61  62
ATOM     62  O   UNL A   1      35.826  23.318  26.454  1.00  0.00    -0.458 OA
BRANCH  62  63
ATOM     63  C   UNL A   1      34.819  23.878  25.758  1.00  0.00     0.359 C 
ATOM     64  O   UNL A   1      34.734  25.072  25.505  1.00  0.00    -0.244 OA
BRANCH  63  65
ATOM     65  C   UNL A   1      33.772  22.912  25.323  1.00  0.00     0.179 A 
ATOM     66  N   UNL A   1      34.266  22.022  24.395  1.00  0.00    -0.245 NA
ATOM     67  C   UNL A   1      32.481  22.769  25.822  1.00  0.00     0.161 A 
ATOM     68  C   UNL A   1      33.440  21.049  23.961  1.00  0.00     0.132 A 
ATOM     69  N   UNL A   1      31.665  21.748  25.383  1.00  0.00    -0.247 NA
ATOM     70  C   UNL A   1      32.162  20.912  24.448  1.00  0.00     0.132 A 
BRANCH  67  71
ATOM     71  C   UNL A   1      31.704  23.720  26.649  1.00  0.00     0.276 C 
ATOM     72  O   UNL A   1      31.221  23.266  27.694  1.00  0.00    -0.267 OA
ATOM     73  N   UNL A   1      31.600  25.083  26.463  1.00  0.00    -0.321 N 
ATOM     74  H   UNL A   1      31.595  25.602  27.300  1.00  0.00     0.170 HD
BRANCH  73  75
ATOM     75  C   UNL A   1      31.502  25.868  25.304  1.00  0.00     0.043 A 
ATOM     76  C   UNL A   1      31.081  25.401  24.070  1.00  0.00     0.028 A 
ATOM     77  C   UNL A   1      31.645  27.252  25.501  1.00  0.00     0.049 A 
ATOM     78  C   UNL A   1      30.536  26.296  23.145  1.00  0.00     0.032 A 
ATOM     79  C   UNL A   1      31.070  28.155  24.602  1.00  0.00     0.068 A 
ATOM     80  C   UNL A   1      30.445  27.663  23.457  1.00  0.00     0.085 A 
ATOM     81  Cl  UNL A   1      31.175  29.839  24.973  1.00  0.00    -0.082 Cl
BRANCH  80  82
ATOM     82  N   UNL A   1      29.549  28.447  22.700  1.00  0.00    -0.220 N 
ATOM     83  C   UNL A   1      28.232  28.713  22.986  1.00  0.00     0.226 A 
ATOM     84  N   UNL A   1      30.002  29.366  21.812  1.00  0.00    -0.155 NA
ATOM     85  N   UNL A   1      27.844  29.816  22.390  1.00  0.00    -0.223 NA
ATOM     86  C   UNL A   1      28.963  30.197  21.716  1.00  0.00     0.246 A 
ENDBRANCH  80  82
ENDBRANCH  73  75
ENDBRANCH  67  71
ENDBRANCH  63  65
ENDBRANCH  62  63
ENDBRANCH  61  62
ENDBRANCH  60  61
ENDBRANCH  59  60
ENDBRANCH   1  59
TORSDOF 20
ENDMDL
MODEL 2
REMARK VINA RESULT:     -10.6      1.880      3.824
REMARK SMILES O=C(OCCOCCOCCOC(=O)c1nccnc1C(=O)Nc1ccc(-n2cncn2)c(Cl)c1)c1ccc(-c2c3nc(c(-c4ccccc4)c4ccc([nH]4)c(-c4ccccc4)c4nc(c(-c5ccccc5)c5ccc2[nH]5)C=C4)C=C3)cc1
REMARK SMILES IDX 8 1 7 2 6 3 5 4 4 5 3 6 2 7 1 8 36 9 37 10 83 11 38 12 82 13
REMARK SMILES IDX 39 14 40 15 41 16 76 17 42 18 81 19 75 20 77 21 43 22 80 23
REMARK SMILES IDX 74 24 73 25 44 27 66 28 51 29 65 30 52 31 55 32 64 33 78 34
REMARK SMILES IDX 53 35 54 36 63 38 79 39 56 40 45 41 46 42 50 43 47 44 49 45
REMARK SMILES IDX 48 46 67 47 68 48 72 49 69 50 71 51 70 52 57 53 58 54 62 55
REMARK SMILES IDX 59 56 61 57 60 58 9 59 10 60 11 61 12 62 13 63 14 64 15 65
REMARK SMILES IDX 16 66 20 67 17 68 19 69 18 70 21 71 22 72 23 73 24 75 25 76
REMARK SMILES IDX 35 77 26 78 33 79 27 80 34 81 28 82 29 83 32 84 30 85 31 86
REMARK H PARENT 77 26 55 37 23 74
REMARK Flexibility Score: inf
ROOT
ATOM      1  C   UNL A   1      38.898  22.166  25.989  1.00  0.00     0.188 C 
ENDROOT
BRANCH   1   2
ATOM      2  C   UNL A   1      40.186  21.990  26.791  1.00  0.00     0.188 C 
BRANCH   2   3
ATOM      3  O   UNL A   1      40.365  20.785  27.543  1.00  0.00    -0.376 OA
BRANCH   3   4
ATOM      4  C   UNL A   1      41.592  20.063  27.441  1.00  0.00     0.202 C 
BRANCH   4   5
ATOM      5  C   UNL A   1      41.857  19.309  26.137  1.00  0.00     0.261 C 
BRANCH   5   6
ATOM      6  O   UNL A   1      43.248  19.291  25.788  1.00  0.00    -0.460 OA
BRANCH   6   7
ATOM      7  C   UNL A   1      43.935  20.043  24.904  1.00  0.00     0.338 C 
ATOM      8  O   UNL A   1      44.235  19.531  23.826  1.00  0.00    -0.246 OA
BRANCH   7   9
ATOM      9  C   UNL A   1      44.380  21.452  25.156  1.00  0.00     0.060 A 
ATOM     10  C   UNL A   1      45.589  21.845  25.742  1.00  0.00     0.016 A 
ATOM     11  C   UNL A   1      43.508  22.455  24.689  1.00  0.00     0.016 A 
ATOM     12  C   UNL A   1      45.806  23.154  26.100  1.00  0.00     0.010 A 
ATOM     13  C   UNL A   1      43.727  23.780  25.011  1.00  0.00     0.010 A 
ATOM     14  C   UNL A   1      44.803  24.069  25.843  1.00  0.00    -0.014 A 
BRANCH  14  15
ATOM     15  C   UNL A   1      44.770  25.203  26.739  1.00  0.00     0.031 A 
ATOM     16  C   UNL A   1      45.930  26.117  26.707  1.00  0.00     0.074 A 
ATOM     17  C   UNL A   1      43.696  25.302  27.547  1.00  0.00     0.049 A 
ATOM     18  N   UNL A   1      46.674  26.503  27.693  1.00  0.00    -0.248 NA
ATOM     19  C   UNL A   1      46.372  26.593  25.388  1.00  0.00     0.031 C 
ATOM     20  C   UNL A   1      42.452  24.514  27.486  1.00  0.00     0.029 A 
ATOM     21  N   UNL A   1      43.420  26.227  28.498  1.00  0.00    -0.354 N 
ATOM     22  C   UNL A   1      47.574  27.411  27.146  1.00  0.00     0.074 A 
ATOM     23  C   UNL A   1      47.432  27.329  25.714  1.00  0.00     0.031 C 
ATOM     24  C   UNL A   1      41.477  25.183  28.129  1.00  0.00     0.029 A 
ATOM     25  C   UNL A   1      42.063  26.356  28.748  1.00  0.00     0.049 A 
ATOM     26  H   UNL A   1      44.111  26.751  28.962  1.00  0.00     0.167 HD
ATOM     27  C   UNL A   1      48.199  28.356  27.900  1.00  0.00     0.031 A 
ATOM     28  C   UNL A   1      41.449  27.431  29.292  1.00  0.00     0.031 A 
ATOM     29  C   UNL A   1      48.252  28.014  29.291  1.00  0.00     0.049 A 
ATOM     30  C   UNL A   1      42.486  28.222  29.998  1.00  0.00     0.074 A 
ATOM     31  C   UNL A   1      48.844  27.001  30.019  1.00  0.00     0.029 A 
ATOM     32  N   UNL A   1      47.328  28.589  30.129  1.00  0.00    -0.354 N 
ATOM     33  N   UNL A   1      43.120  27.789  31.051  1.00  0.00    -0.248 NA
ATOM     34  C   UNL A   1      43.157  29.287  29.266  1.00  0.00     0.031 C 
ATOM     35  C   UNL A   1      47.927  26.718  31.072  1.00  0.00     0.029 A 
ATOM     36  C   UNL A   1      46.850  27.598  30.948  1.00  0.00     0.049 A 
ATOM     37  H   UNL A   1      47.059  29.536  30.140  1.00  0.00     0.167 HD
ATOM     38  C   UNL A   1      44.432  28.214  30.883  1.00  0.00     0.074 A 
ATOM     39  C   UNL A   1      44.369  29.222  29.826  1.00  0.00     0.031 C 
ATOM     40  C   UNL A   1      45.480  27.508  31.404  1.00  0.00     0.031 A 
BRANCH  27  41
ATOM     41  C   UNL A   1      48.392  29.760  27.397  1.00  0.00    -0.014 A 
ATOM     42  C   UNL A   1      49.673  30.333  27.402  1.00  0.00     0.009 A 
ATOM     43  C   UNL A   1      47.305  30.632  27.175  1.00  0.00     0.009 A 
ATOM     44  C   UNL A   1      49.847  31.712  27.231  1.00  0.00     0.001 A 
ATOM     45  C   UNL A   1      47.478  31.999  26.963  1.00  0.00     0.001 A 
ATOM     46  C   UNL A   1      48.751  32.544  27.015  1.00  0.00     0.000 A 
ENDBRANCH  27  41
BRANCH  28  47
ATOM     47  C   UNL A   1      40.139  27.965  28.860  1.00  0.00    -0.014 A 
ATOM     48  C   UNL A   1      39.042  27.987  29.728  1.00  0.00     0.009 A 
ATOM     49  C   UNL A   1      40.017  28.650  27.633  1.00  0.00     0.009 A 
ATOM     50  C   UNL A   1      37.872  28.678  29.381  1.00  0.00     0.001 A 
ATOM     51  C   UNL A   1      38.849  29.329  27.281  1.00  0.00     0.001 A 
ATOM     52  C   UNL A   1      37.777  29.351  28.163  1.00  0.00     0.000 A 
ENDBRANCH  28  47
BRANCH  40  53
ATOM     53  C   UNL A   1      45.154  26.336  32.302  1.00  0.00    -0.014 A 
ATOM     54  C   UNL A   1      44.772  25.083  31.786  1.00  0.00     0.009 A 
ATOM     55  C   UNL A   1      45.407  26.438  33.675  1.00  0.00     0.009 A 
ATOM     56  C   UNL A   1      44.620  23.974  32.625  1.00  0.00     0.001 A 
ATOM     57  C   UNL A   1      45.274  25.325  34.511  1.00  0.00     0.001 A 
ATOM     58  C   UNL A   1      44.876  24.096  33.987  1.00  0.00     0.000 A 
ENDBRANCH  40  53
ENDBRANCH  14  15
ENDBRANCH   7   9
ENDBRANCH   6   7
ENDBRANCH   5   6
ENDBRANCH   4   5
ENDBRANCH   3   4
ENDBRANCH   2   3
ENDBRANCH   1   2
BRANCH   1  59
ATOM     59  O   UNL A   1      38.239  23.419  26.120  1.00  0.00    -0.376 OA
BRANCH  59  60
ATOM     60  C   UNL A   1      36.834  23.383  26.299  1.00  0.00     0.202 C 
BRANCH  60  61
ATOM     61  C   UNL A   1      36.092  23.342  24.961  1.00  0.00     0.261 C 
BRANCH  61  62
ATOM     62  O   UNL A   1      35.211  24.472  24.784  1.00  0.00    -0.458 OA
BRANCH  62  63
ATOM     63  C   UNL A   1      34.284  24.302  23.822  1.00  0.00     0.359 C 
ATOM     64  O   UNL A   1      34.037  23.233  23.280  1.00  0.00    -0.244 OA
BRANCH  63  65
ATOM     65  C   UNL A   1      33.572  25.553  23.439  1.00  0.00     0.179 A 
ATOM     66  N   UNL A   1      33.699  25.810  22.092  1.00  0.00    -0.245 NA
ATOM     67  C   UNL A   1      32.759  26.352  24.237  1.00  0.00     0.161 A 
ATOM     68  C   UNL A   1      33.050  26.881  21.595  1.00  0.00     0.132 A 
ATOM     69  N   UNL A   1      32.081  27.426  23.700  1.00  0.00    -0.247 NA
ATOM     70  C   UNL A   1      32.251  27.675  22.385  1.00  0.00     0.132 A 
BRANCH  67  71
ATOM     71  C   UNL A   1      32.653  26.372  25.713  1.00  0.00     0.276 C 
ATOM     72  O   UNL A   1      33.088  27.384  26.279  1.00  0.00    -0.267 OA
ATOM     73  N   UNL A   1      31.981  25.464  26.505  1.00  0.00    -0.321 N 
ATOM     74  H   UNL A   1      31.516  25.870  27.273  1.00  0.00     0.170 HD
BRANCH  73  75
ATOM     75  C   UNL A   1      31.835  24.071  26.422  1.00  0.00     0.043 A 
ATOM     76  C   UNL A   1      30.991  23.419  25.537  1.00  0.00     0.028 A 
ATOM     77  C   UNL A   1      32.776  23.323  27.148  1.00  0.00     0.049 A 
ATOM     78  C   UNL A   1      31.267  22.101  25.167  1.00  0.00     0.032 A 
ATOM     79  C   UNL A   1      33.087  22.015  26.762  1.00  0.00     0.068 A 
ATOM     80  C   UNL A   1      32.377  21.433  25.713  1.00  0.00     0.085 A 
ATOM     81  Cl  UNL A   1      34.343  21.199  27.622  1.00  0.00    -0.082 Cl
BRANCH  80  82
ATOM     82  N   UNL A   1      32.849  20.290  25.036  1.00  0.00    -0.220 N 
ATOM     83  C   UNL A   1      34.136  20.038  24.628  1.00  0.00     0.226 A 
ATOM     84  N   UNL A   1      32.161  19.122  25.072  1.00  0.00    -0.155 NA
ATOM     85  N   UNL A   1      34.332  18.748  24.487  1.00  0.00    -0.223 NA
ATOM     86  C   UNL A   1      33.114  18.228  24.801  1.00  0.00     0.246 A 
ENDBRANCH  80  82
ENDBRANCH  73  75
ENDBRANCH  67  71
ENDBRANCH  63  65
ENDBRANCH  62  63
ENDBRANCH  61  62
ENDBRANCH  60  61
ENDBRANCH  59  60
ENDBRANCH   1  59
TORSDOF 20
ENDMDL
MODEL 3
REMARK VINA RESULT:     -10.6      3.286      8.324
REMARK SMILES O=C(OCCOCCOCCOC(=O)c1nccnc1C(=O)Nc1ccc(-n2cncn2)c(Cl)c1)c1ccc(-c2c3nc(c(-c4ccccc4)c4ccc([nH]4)c(-c4ccccc4)c4nc(c(-c5ccccc5)c5ccc2[nH]5)C=C4)C=C3)cc1
REMARK SMILES IDX 8 1 7 2 6 3 5 4 4 5 3 6 2 7 1 8 36 9 37 10 83 11 38 12 82 13
REMARK SMILES IDX 39 14 40 15 41 16 76 17 42 18 81 19 75 20 77 21 43 22 80 23
REMARK SMILES IDX 74 24 73 25 44 27 66 28 51 29 65 30 52 31 55 32 64 33 78 34
REMARK SMILES IDX 53 35 54 36 63 38 79 39 56 40 45 41 46 42 50 43 47 44 49 45
REMARK SMILES IDX 48 46 67 47 68 48 72 49 69 50 71 51 70 52 57 53 58 54 62 55
REMARK SMILES IDX 59 56 61 57 60 58 9 59 10 60 11 61 12 62 13 63 14 64 15 65
REMARK SMILES IDX 16 66 20 67 17 68 19 69 18 70 21 71 22 72 23 73 24 75 25 76
REMARK SMILES IDX 35 77 26 78 33 79 27 80 34 81 28 82 29 83 32 84 30 85 31 86
REMARK H PARENT 77 26 55 37 23 74
REMARK Flexibility Score: inf
ROOT
ATOM      1  C   UNL A   1      34.017  31.215  27.466  1.00  0.00     0.188 C 
ENDROOT
BRANCH   1   2
ATOM      2  C   UNL A   1      35.438  30.882  27.916  1.00  0.00     0.188 C 
BRANCH   2   3
ATOM      3  O   UNL A   1      36.385  31.948  28.041  1.00  0.00    -0.376 OA
BRANCH   3   4
ATOM      4  C   UNL A   1      36.115  33.033  28.927  1.00  0.00     0.202 C 
BRANCH   4   5
ATOM      5  C   UNL A   1      37.317  33.789  29.499  1.00  0.00     0.261 C 
BRANCH   5   6
ATOM      6  O   UNL A   1      37.599  33.421  30.856  1.00  0.00    -0.460 OA
BRANCH   6   7
ATOM      7  C   UNL A   1      38.525  32.578  31.356  1.00  0.00     0.338 C 
ATOM      8  O   UNL A   1      38.888  32.749  32.520  1.00  0.00    -0.246 OA
BRANCH   7   9
ATOM      9  C   UNL A   1      39.161  31.463  30.583  1.00  0.00     0.060 A 
ATOM     10  C   UNL A   1      38.519  30.311  30.113  1.00  0.00     0.016 A 
ATOM     11  C   UNL A   1      40.518  31.651  30.254  1.00  0.00     0.016 A 
ATOM     12  C   UNL A   1      39.240  29.267  29.585  1.00  0.00     0.010 A 
ATOM     13  C   UNL A   1      41.252  30.624  29.693  1.00  0.00     0.010 A 
ATOM     14  C   UNL A   1      40.613  29.402  29.514  1.00  0.00    -0.014 A 
BRANCH  14  15
ATOM     15  C   UNL A   1      41.351  28.160  29.572  1.00  0.00     0.031 A 
ATOM     16  C   UNL A   1      42.091  27.877  30.819  1.00  0.00     0.074 A 
ATOM     17  C   UNL A   1      41.323  27.389  28.467  1.00  0.00     0.049 A 
ATOM     18  N   UNL A   1      43.342  27.584  30.960  1.00  0.00    -0.248 NA
ATOM     19  C   UNL A   1      41.355  28.029  32.083  1.00  0.00     0.031 C 
ATOM     20  C   UNL A   1      40.466  27.554  27.280  1.00  0.00     0.029 A 
ATOM     21  N   UNL A   1      41.943  26.209  28.229  1.00  0.00    -0.354 N 
ATOM     22  C   UNL A   1      43.517  27.340  32.318  1.00  0.00     0.074 A 
ATOM     23  C   UNL A   1      42.304  27.755  32.976  1.00  0.00     0.031 C 
ATOM     24  C   UNL A   1      40.397  26.382  26.621  1.00  0.00     0.029 A 
ATOM     25  C   UNL A   1      41.304  25.449  27.261  1.00  0.00     0.049 A 
ATOM     26  H   UNL A   1      42.761  25.921  28.694  1.00  0.00     0.167 HD
ATOM     27  C   UNL A   1      44.542  26.582  32.793  1.00  0.00     0.031 A 
ATOM     28  C   UNL A   1      41.403  24.109  27.102  1.00  0.00     0.031 A 
ATOM     29  C   UNL A   1      45.648  26.505  31.883  1.00  0.00     0.049 A 
ATOM     30  C   UNL A   1      42.637  23.672  27.797  1.00  0.00     0.074 A 
ATOM     31  C   UNL A   1      46.534  27.422  31.355  1.00  0.00     0.029 A 
ATOM     32  N   UNL A   1      45.759  25.381  31.102  1.00  0.00    -0.354 N 
ATOM     33  N   UNL A   1      43.834  24.016  27.411  1.00  0.00    -0.248 NA
ATOM     34  C   UNL A   1      42.533  23.248  29.186  1.00  0.00     0.031 C 
ATOM     35  C   UNL A   1      46.776  26.978  30.023  1.00  0.00     0.029 A 
ATOM     36  C   UNL A   1      46.055  25.798  29.829  1.00  0.00     0.049 A 
ATOM     37  H   UNL A   1      45.649  24.449  31.401  1.00  0.00     0.167 HD
ATOM     38  C   UNL A   1      44.536  24.257  28.585  1.00  0.00     0.074 A 
ATOM     39  C   UNL A   1      43.720  23.662  29.641  1.00  0.00     0.031 C 
ATOM     40  C   UNL A   1      45.558  25.163  28.628  1.00  0.00     0.031 A 
BRANCH  27  41
ATOM     41  C   UNL A   1      44.337  25.599  33.913  1.00  0.00    -0.014 A 
ATOM     42  C   UNL A   1      44.801  25.904  35.202  1.00  0.00     0.009 A 
ATOM     43  C   UNL A   1      43.946  24.264  33.675  1.00  0.00     0.009 A 
ATOM     44  C   UNL A   1      44.901  24.912  36.186  1.00  0.00     0.001 A 
ATOM     45  C   UNL A   1      44.005  23.284  34.665  1.00  0.00     0.001 A 
ATOM     46  C   UNL A   1      44.506  23.604  35.916  1.00  0.00     0.000 A 
ENDBRANCH  27  41
BRANCH  28  47
ATOM     47  C   UNL A   1      40.280  23.215  26.749  1.00  0.00    -0.014 A 
ATOM     48  C   UNL A   1      38.997  23.720  26.511  1.00  0.00     0.009 A 
ATOM     49  C   UNL A   1      40.516  21.858  26.443  1.00  0.00     0.009 A 
ATOM     50  C   UNL A   1      37.993  22.897  25.979  1.00  0.00     0.001 A 
ATOM     51  C   UNL A   1      39.515  21.034  25.923  1.00  0.00     0.001 A 
ATOM     52  C   UNL A   1      38.253  21.559  25.681  1.00  0.00     0.000 A 
ENDBRANCH  28  47
BRANCH  40  53
ATOM     53  C   UNL A   1      46.002  25.778  27.320  1.00  0.00    -0.014 A 
ATOM     54  C   UNL A   1      45.678  27.102  26.969  1.00  0.00     0.009 A 
ATOM     55  C   UNL A   1      46.907  25.080  26.510  1.00  0.00     0.009 A 
ATOM     56  C   UNL A   1      46.222  27.699  25.827  1.00  0.00     0.001 A 
ATOM     57  C   UNL A   1      47.464  25.683  25.379  1.00  0.00     0.001 A 
ATOM     58  C   UNL A   1      47.119  26.989  25.035  1.00  0.00     0.000 A 
ENDBRANCH  40  53
ENDBRANCH  14  15
ENDBRANCH   7   9
ENDBRANCH   6   7
ENDBRANCH   5   6
ENDBRANCH   4   5
ENDBRANCH   3   4
ENDBRANCH   2   3
ENDBRANCH   1   2
BRANCH   1  59
ATOM     59  O   UNL A   1      33.373  30.252  26.641  1.00  0.00    -0.376 OA
BRANCH  59  60
ATOM     60  C   UNL A   1      32.266  29.570  27.204  1.00  0.00     0.202 C 
BRANCH  60  61
ATOM     61  C   UNL A   1      32.516  28.064  27.298  1.00  0.00     0.261 C 
BRANCH  61  62
ATOM     62  O   UNL A   1      33.675  27.648  26.545  1.00  0.00    -0.458 OA
BRANCH  62  63
ATOM     63  C   UNL A   1      33.455  26.599  25.728  1.00  0.00     0.359 C 
ATOM     64  O   UNL A   1      34.108  25.565  25.739  1.00  0.00    -0.244 OA
BRANCH  63  65
ATOM     65  C   UNL A   1      32.336  26.806  24.766  1.00  0.00     0.179 A 
ATOM     66  N   UNL A   1      32.663  27.746  23.814  1.00  0.00    -0.245 NA
ATOM     67  C   UNL A   1      31.139  26.102  24.684  1.00  0.00     0.161 A 
ATOM     68  C   UNL A   1      31.763  27.986  22.839  1.00  0.00     0.132 A 
ATOM     69  N   UNL A   1      30.247  26.346  23.661  1.00  0.00    -0.247 NA
ATOM     70  C   UNL A   1      30.576  27.296  22.762  1.00  0.00     0.132 A 
BRANCH  67  71
ATOM     71  C   UNL A   1      30.519  25.220  25.698  1.00  0.00     0.276 C 
ATOM     72  O   UNL A   1      29.776  25.771  26.521  1.00  0.00    -0.267 OA
ATOM     73  N   UNL A   1      30.553  23.841  25.724  1.00  0.00    -0.321 N 
ATOM     74  H   UNL A   1      29.711  23.426  26.022  1.00  0.00     0.170 HD
BRANCH  73  75
ATOM     75  C   UNL A   1      31.561  22.919  25.405  1.00  0.00     0.043 A 
ATOM     76  C   UNL A   1      32.352  22.264  26.334  1.00  0.00     0.028 A 
ATOM     77  C   UNL A   1      31.595  22.505  24.063  1.00  0.00     0.049 A 
ATOM     78  C   UNL A   1      32.940  21.042  25.997  1.00  0.00     0.032 A 
ATOM     79  C   UNL A   1      32.147  21.267  23.720  1.00  0.00     0.068 A 
ATOM     80  C   UNL A   1      32.755  20.500  24.714  1.00  0.00     0.085 A 
ATOM     81  Cl  UNL A   1      32.042  20.766  22.071  1.00  0.00    -0.082 Cl
BRANCH  80  82
ATOM     82  N   UNL A   1      33.009  19.124  24.544  1.00  0.00    -0.220 N 
ATOM     83  C   UNL A   1      34.234  18.516  24.409  1.00  0.00     0.226 A 
ATOM     84  N   UNL A   1      32.092  18.193  24.906  1.00  0.00    -0.155 NA
ATOM     85  N   UNL A   1      34.162  17.252  24.756  1.00  0.00    -0.223 NA
ATOM     86  C   UNL A   1      32.849  17.109  25.083  1.00  0.00     0.246 A 
ENDBRANCH  80  82
ENDBRANCH  73  75
ENDBRANCH  67  71
ENDBRANCH  63  65
ENDBRANCH  62  63
ENDBRANCH  61  62
ENDBRANCH  60  61
ENDBRANCH  59  60
ENDBRANCH   1  59
TORSDOF 20
ENDMDL
