MODEL 1
REMARK VINA RESULT:     -11.4      0.000      0.000
REMARK SMILES O=C(OCCOCCOCCOC(=O)c1ccc(-c2c3nc(c(-c4ccccc4)c4ccc([nH]4)c(-c4ccccc4)c4nc(c(-c5ccccc5)c5ccc2[nH]5)C=C4)C=C3)cc1)C1=Cc2cc(Cl)ccc2O[C@@H]1C(F)(F)F
REMARK SMILES IDX 8 1 7 2 6 3 5 4 4 5 3 6 2 7 1 8 63 9 64 10 73 11 65 12 72 13
REMARK SMILES IDX 66 14 71 15 67 16 70 17 68 18 69 19 74 20 75 21 76 22 77 23
REMARK SMILES IDX 9 24 10 25 11 26 12 27 13 28 14 29 15 30 16 31 62 32 17 33
REMARK SMILES IDX 61 34 18 35 19 36 20 37 55 38 21 39 60 40 54 41 56 42 22 43
REMARK SMILES IDX 59 44 53 45 52 46 23 48 45 49 30 50 44 51 31 52 34 53 43 54
REMARK SMILES IDX 57 55 32 56 33 57 42 59 58 60 35 61 24 62 25 63 29 64 26 65
REMARK SMILES IDX 28 66 27 67 46 68 47 69 51 70 48 71 50 72 49 73 36 74 37 75
REMARK SMILES IDX 41 76 38 77 40 78 39 79
REMARK H PARENT 56 47 34 58
REMARK Flexibility Score: inf
ROOT
ATOM      1  C   UNL A   1      34.265  29.925  27.148  1.00  0.00     0.188 C 
ENDROOT
BRANCH   1   2
ATOM      2  C   UNL A   1      33.931  28.472  26.775  1.00  0.00     0.188 C 
BRANCH   2   3
ATOM      3  O   UNL A   1      32.536  27.924  26.876  1.00  0.00    -0.376 OA
BRANCH   3   4
ATOM      4  C   UNL A   1      31.980  26.342  26.409  1.00  0.00     0.202 C 
BRANCH   4   5
ATOM      5  C   UNL A   1      33.311  24.737  25.794  1.00  0.00     0.261 C 
BRANCH   5   6
ATOM      6  O   UNL A   1      33.252  23.295  26.262  1.00  0.00    -0.460 OA
BRANCH   6   7
ATOM      7  C   UNL A   1      32.501  22.542  25.445  1.00  0.00     0.338 C 
ATOM      8  O   UNL A   1      31.408  22.080  25.667  1.00  0.00    -0.246 OA
BRANCH   7   9
ATOM      9  C   UNL A   1      33.584  22.044  24.607  1.00  0.00     0.087 C 
ATOM     10  C   UNL A   1      34.330  20.893  25.096  1.00  0.00     0.027 C 
ATOM     11  C   UNL A   1      32.463  22.035  23.054  1.00  0.00     0.316 C 
ATOM     12  C   UNL A   1      34.091  19.211  24.520  1.00  0.00     0.019 A 
ATOM     13  O   UNL A   1      32.028  20.202  22.527  1.00  0.00    -0.475 OA
ATOM     14  C   UNL A   1      34.817  18.198  25.079  1.00  0.00     0.032 A 
ATOM     15  C   UNL A   1      32.929  18.811  23.305  1.00  0.00     0.128 A 
ATOM     16  C   UNL A   1      34.562  16.924  24.538  1.00  0.00     0.041 A 
ATOM     17  C   UNL A   1      32.748  17.546  22.824  1.00  0.00     0.048 A 
ATOM     18  Cl  UNL A   1      35.487  15.609  25.193  1.00  0.00    -0.084 Cl
ATOM     19  C   UNL A   1      33.603  16.619  23.474  1.00  0.00     0.024 A 
BRANCH  11  20
ATOM     20  C   UNL A   1      33.389  23.234  22.288  1.00  0.00     0.430 C 
ATOM     21  F   UNL A   1      33.176  24.535  22.518  1.00  0.00    -0.167 F 
ATOM     22  F   UNL A   1      34.704  23.001  22.512  1.00  0.00    -0.167 F 
ATOM     23  F   UNL A   1      33.248  23.154  20.925  1.00  0.00    -0.167 F 
ENDBRANCH  11  20
ENDBRANCH   7   9
ENDBRANCH   6   7
ENDBRANCH   5   6
ENDBRANCH   4   5
ENDBRANCH   3   4
ENDBRANCH   2   3
ENDBRANCH   1   2
BRANCH   1  24
ATOM     24  O   UNL A   1      33.276  30.690  27.790  1.00  0.00    -0.376 OA
BRANCH  24  25
ATOM     25  C   UNL A   1      32.369  31.347  26.916  1.00  0.00     0.202 C 
BRANCH  25  26
ATOM     26  C   UNL A   1      31.824  32.724  27.347  1.00  0.00     0.261 C 
BRANCH  26  27
ATOM     27  O   UNL A   1      32.780  33.813  27.269  1.00  0.00    -0.460 OA
BRANCH  27  28
ATOM     28  C   UNL A   1      33.149  34.425  28.425  1.00  0.00     0.338 C 
ATOM     29  O   UNL A   1      32.518  35.257  29.053  1.00  0.00    -0.246 OA
BRANCH  28  30
ATOM     30  C   UNL A   1      34.416  33.838  28.920  1.00  0.00     0.060 A 
ATOM     31  C   UNL A   1      35.558  33.803  28.103  1.00  0.00     0.016 A 
ATOM     32  C   UNL A   1      34.459  33.281  30.196  1.00  0.00     0.016 A 
ATOM     33  C   UNL A   1      36.766  33.286  28.592  1.00  0.00     0.010 A 
ATOM     34  C   UNL A   1      35.650  32.713  30.663  1.00  0.00     0.010 A 
ATOM     35  C   UNL A   1      36.815  32.721  29.874  1.00  0.00    -0.014 A 
BRANCH  35  36
ATOM     36  C   UNL A   1      38.020  31.990  30.352  1.00  0.00     0.031 A 
ATOM     37  C   UNL A   1      38.934  32.685  31.321  1.00  0.00     0.074 A 
ATOM     38  C   UNL A   1      38.341  30.768  29.885  1.00  0.00     0.049 A 
ATOM     39  N   UNL A   1      40.112  32.319  31.755  1.00  0.00    -0.248 NA
ATOM     40  C   UNL A   1      38.464  33.971  31.859  1.00  0.00     0.031 C 
ATOM     41  C   UNL A   1      37.526  29.975  28.972  1.00  0.00     0.029 A 
ATOM     42  N   UNL A   1      39.454  29.987  30.101  1.00  0.00    -0.354 N 
ATOM     43  C   UNL A   1      40.536  33.342  32.594  1.00  0.00     0.074 A 
ATOM     44  C   UNL A   1      39.491  34.341  32.608  1.00  0.00     0.031 C 
ATOM     45  C   UNL A   1      38.168  28.825  28.693  1.00  0.00     0.029 A 
ATOM     46  C   UNL A   1      39.467  28.826  29.362  1.00  0.00     0.049 A 
ATOM     47  H   UNL A   1      40.173  30.237  30.726  1.00  0.00     0.167 HD
ATOM     48  C   UNL A   1      41.700  33.445  33.274  1.00  0.00     0.031 A 
ATOM     49  C   UNL A   1      40.434  27.896  29.207  1.00  0.00     0.031 A 
ATOM     50  C   UNL A   1      42.748  32.460  33.240  1.00  0.00     0.049 A 
ATOM     51  C   UNL A   1      41.753  28.081  29.922  1.00  0.00     0.074 A 
ATOM     52  C   UNL A   1      43.950  32.466  33.926  1.00  0.00     0.029 A 
ATOM     53  N   UNL A   1      42.730  31.311  32.468  1.00  0.00    -0.354 N 
ATOM     54  N   UNL A   1      42.119  29.023  30.757  1.00  0.00    -0.248 NA
ATOM     55  C   UNL A   1      42.800  27.077  29.663  1.00  0.00     0.031 C 
ATOM     56  C   UNL A   1      44.697  31.366  33.501  1.00  0.00     0.029 A 
ATOM     57  C   UNL A   1      43.924  30.628  32.620  1.00  0.00     0.049 A 
ATOM     58  H   UNL A   1      41.982  31.023  31.897  1.00  0.00     0.167 HD
ATOM     59  C   UNL A   1      43.421  28.714  31.136  1.00  0.00     0.074 A 
ATOM     60  C   UNL A   1      43.772  27.479  30.469  1.00  0.00     0.031 C 
ATOM     61  C   UNL A   1      44.259  29.397  31.953  1.00  0.00     0.031 A 
BRANCH  48  62
ATOM     62  C   UNL A   1      41.941  34.693  34.074  1.00  0.00    -0.014 A 
ATOM     63  C   UNL A   1      41.628  34.765  35.438  1.00  0.00     0.009 A 
ATOM     64  C   UNL A   1      42.578  35.786  33.463  1.00  0.00     0.009 A 
ATOM     65  C   UNL A   1      41.936  35.913  36.172  1.00  0.00     0.001 A 
ATOM     66  C   UNL A   1      42.913  36.919  34.205  1.00  0.00     0.001 A 
ATOM     67  C   UNL A   1      42.587  36.983  35.558  1.00  0.00     0.000 A 
ENDBRANCH  48  62
BRANCH  49  68
ATOM     68  C   UNL A   1      40.251  26.740  28.278  1.00  0.00    -0.014 A 
ATOM     69  C   UNL A   1      40.696  26.802  26.947  1.00  0.00     0.009 A 
ATOM     70  C   UNL A   1      39.547  25.599  28.695  1.00  0.00     0.009 A 
ATOM     71  C   UNL A   1      40.396  25.774  26.047  1.00  0.00     0.001 A 
ATOM     72  C   UNL A   1      39.290  24.552  27.806  1.00  0.00     0.001 A 
ATOM     73  C   UNL A   1      39.697  24.648  26.477  1.00  0.00     0.000 A 
ENDBRANCH  49  68
BRANCH  61  74
ATOM     74  C   UNL A   1      45.625  28.815  32.201  1.00  0.00    -0.014 A 
ATOM     75  C   UNL A   1      46.730  29.182  31.417  1.00  0.00     0.009 A 
ATOM     76  C   UNL A   1      45.820  27.935  33.278  1.00  0.00     0.009 A 
ATOM     77  C   UNL A   1      47.994  28.655  31.688  1.00  0.00     0.001 A 
ATOM     78  C   UNL A   1      47.091  27.440  33.570  1.00  0.00     0.001 A 
ATOM     79  C   UNL A   1      48.175  27.793  32.768  1.00  0.00     0.000 A 
ENDBRANCH  61  74
ENDBRANCH  35  36
ENDBRANCH  28  30
ENDBRANCH  27  28
ENDBRANCH  26  27
ENDBRANCH  25  26
ENDBRANCH  24  25
ENDBRANCH   1  24
TORSDOF 18
ENDMDL
MODEL 2
REMARK VINA RESULT:     -11.3      3.924      8.614
REMARK SMILES O=C(OCCOCCOCCOC(=O)c1ccc(-c2c3nc(c(-c4ccccc4)c4ccc([nH]4)c(-c4ccccc4)c4nc(c(-c5ccccc5)c5ccc2[nH]5)C=C4)C=C3)cc1)C1=Cc2cc(Cl)ccc2O[C@@H]1C(F)(F)F
REMARK SMILES IDX 8 1 7 2 6 3 5 4 4 5 3 6 2 7 1 8 63 9 64 10 73 11 65 12 72 13
REMARK SMILES IDX 66 14 71 15 67 16 70 17 68 18 69 19 74 20 75 21 76 22 77 23
REMARK SMILES IDX 9 24 10 25 11 26 12 27 13 28 14 29 15 30 16 31 62 32 17 33
REMARK SMILES IDX 61 34 18 35 19 36 20 37 55 38 21 39 60 40 54 41 56 42 22 43
REMARK SMILES IDX 59 44 53 45 52 46 23 48 45 49 30 50 44 51 31 52 34 53 43 54
REMARK SMILES IDX 57 55 32 56 33 57 42 59 58 60 35 61 24 62 25 63 29 64 26 65
REMARK SMILES IDX 28 66 27 67 46 68 47 69 51 70 48 71 50 72 49 73 36 74 37 75
REMARK SMILES IDX 41 76 38 77 40 78 39 79
REMARK H PARENT 56 47 34 58
REMARK Flexibility Score: inf
ROOT
ATOM      1  C   UNL A   1      41.490  20.385  26.784  1.00  0.00     0.188 C 
ENDROOT
BRANCH   1   2
ATOM      2  C   UNL A   1      40.610  21.431  27.488  1.00  0.00     0.188 C 
BRANCH   2   3
ATOM      3  O   UNL A   1      40.199  22.708  26.814  1.00  0.00    -0.376 OA
BRANCH   3   4
ATOM      4  C   UNL A   1      38.638  23.105  26.152  1.00  0.00     0.202 C 
BRANCH   4   5
ATOM      5  C   UNL A   1      37.336  21.650  25.198  1.00  0.00     0.261 C 
BRANCH   5   6
ATOM      6  O   UNL A   1      35.866  21.840  24.872  1.00  0.00    -0.460 OA
BRANCH   6   7
ATOM      7  C   UNL A   1      35.691  22.731  23.885  1.00  0.00     0.338 C 
ATOM      8  O   UNL A   1      36.543  23.283  23.231  1.00  0.00    -0.246 OA
BRANCH   7   9
ATOM      9  C   UNL A   1      34.362  23.181  24.278  1.00  0.00     0.087 C 
ATOM     10  C   UNL A   1      34.279  24.410  25.055  1.00  0.00     0.027 C 
ATOM     11  C   UNL A   1      33.695  22.973  22.495  1.00  0.00     0.316 C 
ATOM     12  C   UNL A   1      33.821  26.007  24.379  1.00  0.00     0.019 A 
ATOM     13  O   UNL A   1      33.377  24.717  21.668  1.00  0.00    -0.475 OA
ATOM     14  C   UNL A   1      33.815  27.106  25.190  1.00  0.00     0.032 A 
ATOM     15  C   UNL A   1      33.431  26.222  22.710  1.00  0.00     0.128 A 
ATOM     16  C   UNL A   1      33.423  28.301  24.560  1.00  0.00     0.041 A 
ATOM     17  C   UNL A   1      33.048  27.418  22.174  1.00  0.00     0.048 A 
ATOM     18  Cl  UNL A   1      33.366  29.719  25.562  1.00  0.00    -0.084 Cl
ATOM     19  C   UNL A   1      33.052  28.447  23.151  1.00  0.00     0.024 A 
BRANCH  11  20
ATOM     20  C   UNL A   1      32.626  21.739  22.960  1.00  0.00     0.430 C 
ATOM     21  F   UNL A   1      31.666  21.951  23.867  1.00  0.00    -0.167 F 
ATOM     22  F   UNL A   1      32.028  21.221  21.861  1.00  0.00    -0.167 F 
ATOM     23  F   UNL A   1      33.316  20.687  23.511  1.00  0.00    -0.167 F 
ENDBRANCH  11  20
ENDBRANCH   7   9
ENDBRANCH   6   7
ENDBRANCH   5   6
ENDBRANCH   4   5
ENDBRANCH   3   4
ENDBRANCH   2   3
ENDBRANCH   1   2
BRANCH   1  24
ATOM     24  O   UNL A   1      42.106  20.742  25.572  1.00  0.00    -0.376 OA
BRANCH  24  25
ATOM     25  C   UNL A   1      43.515  20.557  25.543  1.00  0.00     0.202 C 
BRANCH  25  26
ATOM     26  C   UNL A   1      44.395  21.785  25.234  1.00  0.00     0.261 C 
BRANCH  26  27
ATOM     27  O   UNL A   1      43.698  23.058  25.252  1.00  0.00    -0.460 OA
BRANCH  27  28
ATOM     28  C   UNL A   1      44.443  24.195  25.269  1.00  0.00     0.338 C 
ATOM     29  O   UNL A   1      45.285  24.537  24.456  1.00  0.00    -0.246 OA
BRANCH  28  30
ATOM     30  C   UNL A   1      43.997  25.069  26.379  1.00  0.00     0.060 A 
ATOM     31  C   UNL A   1      42.950  24.673  27.227  1.00  0.00     0.016 A 
ATOM     32  C   UNL A   1      44.600  26.313  26.554  1.00  0.00     0.016 A 
ATOM     33  C   UNL A   1      42.562  25.486  28.302  1.00  0.00     0.010 A 
ATOM     34  C   UNL A   1      44.172  27.148  27.592  1.00  0.00     0.010 A 
ATOM     35  C   UNL A   1      43.162  26.740  28.481  1.00  0.00    -0.014 A 
BRANCH  35  36
ATOM     36  C   UNL A   1      42.645  27.708  29.487  1.00  0.00     0.031 A 
ATOM     37  C   UNL A   1      43.325  27.773  30.825  1.00  0.00     0.074 A 
ATOM     38  C   UNL A   1      41.555  28.462  29.252  1.00  0.00     0.049 A 
ATOM     39  N   UNL A   1      42.965  28.416  31.905  1.00  0.00    -0.248 NA
ATOM     40  C   UNL A   1      44.565  26.995  30.969  1.00  0.00     0.031 C 
ATOM     41  C   UNL A   1      40.826  28.518  27.988  1.00  0.00     0.029 A 
ATOM     42  N   UNL A   1      40.855  29.313  30.077  1.00  0.00    -0.354 N 
ATOM     43  C   UNL A   1      43.919  28.098  32.865  1.00  0.00     0.074 A 
ATOM     44  C   UNL A   1      44.871  27.207  32.241  1.00  0.00     0.031 C 
ATOM     45  C   UNL A   1      39.775  29.347  28.122  1.00  0.00     0.029 A 
ATOM     46  C   UNL A   1      39.721  29.837  29.498  1.00  0.00     0.049 A 
ATOM     47  H   UNL A   1      41.139  29.527  30.994  1.00  0.00     0.167 HD
ATOM     48  C   UNL A   1      43.981  28.501  34.154  1.00  0.00     0.031 A 
ATOM     49  C   UNL A   1      38.730  30.584  30.030  1.00  0.00     0.031 A 
ATOM     50  C   UNL A   1      43.020  29.369  34.780  1.00  0.00     0.049 A 
ATOM     51  C   UNL A   1      38.792  30.952  31.495  1.00  0.00     0.074 A 
ATOM     52  C   UNL A   1      43.023  29.856  36.076  1.00  0.00     0.029 A 
ATOM     53  N   UNL A   1      41.880  29.861  34.167  1.00  0.00    -0.354 N 
ATOM     54  N   UNL A   1      39.728  30.693  32.376  1.00  0.00    -0.248 NA
ATOM     55  C   UNL A   1      37.652  31.707  32.043  1.00  0.00     0.031 C 
ATOM     56  C   UNL A   1      41.840  30.570  36.273  1.00  0.00     0.029 A 
ATOM     57  C   UNL A   1      41.145  30.603  35.076  1.00  0.00     0.049 A 
ATOM     58  H   UNL A   1      41.630  29.706  33.228  1.00  0.00     0.167 HD
ATOM     59  C   UNL A   1      39.301  31.269  33.568  1.00  0.00     0.074 A 
ATOM     60  C   UNL A   1      38.039  31.921  33.292  1.00  0.00     0.031 C 
ATOM     61  C   UNL A   1      39.892  31.250  34.787  1.00  0.00     0.031 A 
BRANCH  48  62
ATOM     62  C   UNL A   1      45.094  27.962  35.008  1.00  0.00    -0.014 A 
ATOM     63  C   UNL A   1      46.309  28.647  35.150  1.00  0.00     0.009 A 
ATOM     64  C   UNL A   1      44.882  26.790  35.751  1.00  0.00     0.009 A 
ATOM     65  C   UNL A   1      47.295  28.159  36.011  1.00  0.00     0.001 A 
ATOM     66  C   UNL A   1      45.855  26.322  36.634  1.00  0.00     0.001 A 
ATOM     67  C   UNL A   1      47.063  27.005  36.760  1.00  0.00     0.000 A 
ENDBRANCH  48  62
BRANCH  49  68
ATOM     68  C   UNL A   1      37.539  30.978  29.217  1.00  0.00    -0.014 A 
ATOM     69  C   UNL A   1      37.406  32.281  28.709  1.00  0.00     0.009 A 
ATOM     70  C   UNL A   1      36.483  30.073  29.021  1.00  0.00     0.009 A 
ATOM     71  C   UNL A   1      36.227  32.680  28.071  1.00  0.00     0.001 A 
ATOM     72  C   UNL A   1      35.325  30.461  28.342  1.00  0.00     0.001 A 
ATOM     73  C   UNL A   1      35.189  31.769  27.884  1.00  0.00     0.000 A 
ENDBRANCH  49  68
BRANCH  61  74
ATOM     74  C   UNL A   1      39.205  31.978  35.911  1.00  0.00    -0.014 A 
ATOM     75  C   UNL A   1      39.449  33.337  36.160  1.00  0.00     0.009 A 
ATOM     76  C   UNL A   1      38.249  31.306  36.691  1.00  0.00     0.009 A 
ATOM     77  C   UNL A   1      38.773  33.999  37.188  1.00  0.00     0.001 A 
ATOM     78  C   UNL A   1      37.548  31.979  37.691  1.00  0.00     0.001 A 
ATOM     79  C   UNL A   1      37.818  33.323  37.945  1.00  0.00     0.000 A 
ENDBRANCH  61  74
ENDBRANCH  35  36
ENDBRANCH  28  30
ENDBRANCH  27  28
ENDBRANCH  26  27
ENDBRANCH  25  26
ENDBRANCH  24  25
ENDBRANCH   1  24
TORSDOF 18
ENDMDL
MODEL 3
REMARK VINA RESULT:     -11.3      2.608      3.930
REMARK SMILES O=C(OCCOCCOCCOC(=O)c1ccc(-c2c3nc(c(-c4ccccc4)c4ccc([nH]4)c(-c4ccccc4)c4nc(c(-c5ccccc5)c5ccc2[nH]5)C=C4)C=C3)cc1)C1=Cc2cc(Cl)ccc2O[C@@H]1C(F)(F)F
REMARK SMILES IDX 8 1 7 2 6 3 5 4 4 5 3 6 2 7 1 8 63 9 64 10 73 11 65 12 72 13
REMARK SMILES IDX 66 14 71 15 67 16 70 17 68 18 69 19 74 20 75 21 76 22 77 23
REMARK SMILES IDX 9 24 10 25 11 26 12 27 13 28 14 29 15 30 16 31 62 32 17 33
REMARK SMILES IDX 61 34 18 35 19 36 20 37 55 38 21 39 60 40 54 41 56 42 22 43
REMARK SMILES IDX 59 44 53 45 52 46 23 48 45 49 30 50 44 51 31 52 34 53 43 54
REMARK SMILES IDX 57 55 32 56 33 57 42 59 58 60 35 61 24 62 25 63 29 64 26 65
REMARK SMILES IDX 28 66 27 67 46 68 47 69 51 70 48 71 50 72 49 73 36 74 37 75
REMARK SMILES IDX 41 76 38 77 40 78 39 79
REMARK H PARENT 56 47 34 58
REMARK Flexibility Score: inf
ROOT
ATOM      1  C   UNL A   1      32.788  27.299  24.690  1.00  0.00     0.188 C 
ENDROOT
BRANCH   1   2
ATOM      2  C   UNL A   1      31.906  27.806  23.537  1.00  0.00     0.188 C 
BRANCH   2   3
ATOM      3  O   UNL A   1      30.432  27.522  23.478  1.00  0.00    -0.376 OA
BRANCH   3   4
ATOM      4  C   UNL A   1      29.638  25.987  23.691  1.00  0.00     0.202 C 
BRANCH   4   5
ATOM      5  C   UNL A   1      30.697  24.091  23.775  1.00  0.00     0.261 C 
BRANCH   5   6
ATOM      6  O   UNL A   1      32.109  23.875  24.286  1.00  0.00    -0.460 OA
BRANCH   6   7
ATOM      7  C   UNL A   1      32.648  22.753  23.786  1.00  0.00     0.338 C 
ATOM      8  O   UNL A   1      32.492  22.289  22.682  1.00  0.00    -0.246 OA
BRANCH   7   9
ATOM      9  C   UNL A   1      32.914  22.094  25.058  1.00  0.00     0.087 C 
ATOM     10  C   UNL A   1      32.264  20.812  25.292  1.00  0.00     0.027 C 
ATOM     11  C   UNL A   1      34.803  22.338  24.862  1.00  0.00     0.316 C 
ATOM     12  C   UNL A   1      33.075  19.221  25.133  1.00  0.00     0.019 A 
ATOM     13  O   UNL A   1      35.684  20.631  24.489  1.00  0.00    -0.475 OA
ATOM     14  C   UNL A   1      32.359  18.076  25.336  1.00  0.00     0.032 A 
ATOM     15  C   UNL A   1      34.736  19.076  24.680  1.00  0.00     0.128 A 
ATOM     16  C   UNL A   1      33.099  16.887  25.204  1.00  0.00     0.041 A 
ATOM     17  C   UNL A   1      35.389  17.881  24.582  1.00  0.00     0.048 A 
ATOM     18  Cl  UNL A   1      32.238  15.406  25.487  1.00  0.00    -0.084 Cl
ATOM     19  C   UNL A   1      34.521  16.794  24.863  1.00  0.00     0.024 A 
BRANCH  11  20
ATOM     20  C   UNL A   1      34.884  23.373  26.205  1.00  0.00     0.430 C 
ATOM     21  F   UNL A   1      34.010  24.372  26.370  1.00  0.00    -0.167 F 
ATOM     22  F   UNL A   1      34.868  22.639  27.343  1.00  0.00    -0.167 F 
ATOM     23  F   UNL A   1      36.087  24.033  26.233  1.00  0.00    -0.167 F 
ENDBRANCH  11  20
ENDBRANCH   7   9
ENDBRANCH   6   7
ENDBRANCH   5   6
ENDBRANCH   4   5
ENDBRANCH   3   4
ENDBRANCH   2   3
ENDBRANCH   1   2
BRANCH   1  24
ATOM     24  O   UNL A   1      32.504  27.749  25.991  1.00  0.00    -0.376 OA
BRANCH  24  25
ATOM     25  C   UNL A   1      32.089  29.106  26.075  1.00  0.00     0.202 C 
BRANCH  25  26
ATOM     26  C   UNL A   1      32.746  29.992  27.153  1.00  0.00     0.261 C 
BRANCH  26  27
ATOM     27  O   UNL A   1      34.194  30.058  27.093  1.00  0.00    -0.460 OA
BRANCH  27  28
ATOM     28  C   UNL A   1      34.842  30.783  28.043  1.00  0.00     0.338 C 
ATOM     29  O   UNL A   1      34.414  31.746  28.655  1.00  0.00    -0.246 OA
BRANCH  28  30
ATOM     30  C   UNL A   1      36.148  30.154  28.349  1.00  0.00     0.060 A 
ATOM     31  C   UNL A   1      36.391  29.583  29.609  1.00  0.00     0.016 A 
ATOM     32  C   UNL A   1      37.155  30.167  27.387  1.00  0.00     0.016 A 
ATOM     33  C   UNL A   1      37.613  28.950  29.878  1.00  0.00     0.010 A 
ATOM     34  C   UNL A   1      38.396  29.587  27.677  1.00  0.00     0.010 A 
ATOM     35  C   UNL A   1      38.632  28.964  28.916  1.00  0.00    -0.014 A 
BRANCH  35  36
ATOM     36  C   UNL A   1      40.002  28.478  29.233  1.00  0.00     0.031 A 
ATOM     37  C   UNL A   1      40.966  29.435  29.874  1.00  0.00     0.074 A 
ATOM     38  C   UNL A   1      40.412  27.240  28.896  1.00  0.00     0.049 A 
ATOM     39  N   UNL A   1      42.246  29.294  30.101  1.00  0.00    -0.248 NA
ATOM     40  C   UNL A   1      40.415  30.731  30.302  1.00  0.00     0.031 C 
ATOM     41  C   UNL A   1      39.570  26.207  28.302  1.00  0.00     0.029 A 
ATOM     42  N   UNL A   1      41.651  26.647  28.987  1.00  0.00    -0.354 N 
ATOM     43  C   UNL A   1      42.660  30.492  30.671  1.00  0.00     0.074 A 
ATOM     44  C   UNL A   1      41.497  31.347  30.756  1.00  0.00     0.031 C 
ATOM     45  C   UNL A   1      40.315  25.111  28.069  1.00  0.00     0.029 A 
ATOM     46  C   UNL A   1      41.702  25.384  28.442  1.00  0.00     0.049 A 
ATOM     47  H   UNL A   1      42.428  27.086  29.402  1.00  0.00     0.167 HD
ATOM     48  C   UNL A   1      43.901  30.850  31.068  1.00  0.00     0.031 A 
ATOM     49  C   UNL A   1      42.752  24.562  28.226  1.00  0.00     0.031 A 
ATOM     50  C   UNL A   1      45.062  30.006  30.961  1.00  0.00     0.049 A 
ATOM     51  C   UNL A   1      44.138  25.025  28.613  1.00  0.00     0.074 A 
ATOM     52  C   UNL A   1      46.356  30.275  31.370  1.00  0.00     0.029 A 
ATOM     53  N   UNL A   1      45.074  28.746  30.389  1.00  0.00    -0.354 N 
ATOM     54  N   UNL A   1      44.507  26.136  29.203  1.00  0.00    -0.248 NA
ATOM     55  C   UNL A   1      45.258  24.123  28.292  1.00  0.00     0.031 C 
ATOM     56  C   UNL A   1      47.168  29.214  30.966  1.00  0.00     0.029 A 
ATOM     57  C   UNL A   1      46.365  28.247  30.387  1.00  0.00     0.049 A 
ATOM     58  H   UNL A   1      44.284  28.275  30.037  1.00  0.00     0.167 HD
ATOM     59  C   UNL A   1      45.888  26.056  29.342  1.00  0.00     0.074 A 
ATOM     60  C   UNL A   1      46.291  24.773  28.807  1.00  0.00     0.031 C 
ATOM     61  C   UNL A   1      46.751  26.966  29.854  1.00  0.00     0.031 A 
BRANCH  48  62
ATOM     62  C   UNL A   1      44.096  32.239  31.605  1.00  0.00    -0.014 A 
ATOM     63  C   UNL A   1      44.032  32.513  32.979  1.00  0.00     0.009 A 
ATOM     64  C   UNL A   1      44.439  33.275  30.720  1.00  0.00     0.009 A 
ATOM     65  C   UNL A   1      44.294  33.800  33.453  1.00  0.00     0.001 A 
ATOM     66  C   UNL A   1      44.731  34.551  31.199  1.00  0.00     0.001 A 
ATOM     67  C   UNL A   1      44.654  34.814  32.565  1.00  0.00     0.000 A 
ENDBRANCH  48  62
BRANCH  49  68
ATOM     68  C   UNL A   1      42.575  23.248  27.538  1.00  0.00    -0.014 A 
ATOM     69  C   UNL A   1      42.643  23.146  26.139  1.00  0.00     0.009 A 
ATOM     70  C   UNL A   1      42.248  22.099  28.276  1.00  0.00     0.009 A 
ATOM     71  C   UNL A   1      42.338  21.942  25.496  1.00  0.00     0.001 A 
ATOM     72  C   UNL A   1      41.989  20.885  27.634  1.00  0.00     0.001 A 
ATOM     73  C   UNL A   1      42.015  20.811  26.243  1.00  0.00     0.000 A 
ENDBRANCH  49  68
BRANCH  61  74
ATOM     74  C   UNL A   1      48.211  26.604  29.893  1.00  0.00    -0.014 A 
ATOM     75  C   UNL A   1      49.082  26.959  28.851  1.00  0.00     0.009 A 
ATOM     76  C   UNL A   1      48.736  25.953  31.022  1.00  0.00     0.009 A 
ATOM     77  C   UNL A   1      50.440  26.642  28.925  1.00  0.00     0.001 A 
ATOM     78  C   UNL A   1      50.099  25.671  31.111  1.00  0.00     0.001 A 
ATOM     79  C   UNL A   1      50.948  26.007  30.058  1.00  0.00     0.000 A 
ENDBRANCH  61  74
ENDBRANCH  35  36
ENDBRANCH  28  30
ENDBRANCH  27  28
ENDBRANCH  26  27
ENDBRANCH  25  26
ENDBRANCH  24  25
ENDBRANCH   1  24
TORSDOF 18
ENDMDL
