MODEL 1
REMARK VINA RESULT:     -11.8      0.000      0.000
REMARK SMILES Cc1c[nH]c(C(=O)N2CCC3(CC2)NC(=O)C[C@@H]3C(=O)OCCOCCOCCOC(=O)c2ccc(-c3c4nc(c(-c5ccccc5)c5ccc([nH]5)c(-c5ccccc5)c5nc(c(-c6ccccc6)c6ccc3[nH]6)C=C5)C=C4)cc2)c1
REMARK SMILES IDX 26 1 25 2 24 3 23 4 22 5 21 6 19 7 20 8 18 9 6 10 7 11 8 12
REMARK SMILES IDX 9 13 13 14 10 15 12 16 11 17 14 18 15 19 17 21 16 22 5 23
REMARK SMILES IDX 1 24 2 25 3 26 81 27 4 28 27 30 28 31 29 32 30 33 31 34
REMARK SMILES IDX 32 35 33 36 34 37 80 38 35 39 79 40 36 41 37 42 38 43 73 44
REMARK SMILES IDX 39 45 78 46 72 47 74 48 40 49 77 50 71 51 70 52 41 54 63 55
REMARK SMILES IDX 48 56 62 57 49 58 52 59 61 60 75 61 50 62 51 63 60 65 76 66
REMARK SMILES IDX 53 67 42 68 43 69 47 70 44 71 46 72 45 73 64 74 65 75 69 76
REMARK SMILES IDX 66 77 68 78 67 79 54 80 55 81 59 82 56 83 58 84 57 85
REMARK H PARENT 14 20 4 29 74 53 52 64
REMARK Flexibility Score: inf
ROOT
ATOM      1  C   UNL A   1      34.238  32.273  27.690  1.00  0.00     0.188 C 
ENDROOT
BRANCH   1   2
ATOM      2  C   UNL A   1      33.310  31.056  27.618  1.00  0.00     0.188 C 
BRANCH   2   3
ATOM      3  O   UNL A   1      33.265  30.373  26.372  1.00  0.00    -0.376 OA
BRANCH   3   4
ATOM      4  C   UNL A   1      32.062  29.671  26.091  1.00  0.00     0.202 C 
BRANCH   4   5
ATOM      5  C   UNL A   1      32.016  28.814  24.811  1.00  0.00     0.261 C 
BRANCH   5   6
ATOM      6  O   UNL A   1      31.829  27.386  24.972  1.00  0.00    -0.463 OA
BRANCH   6   7
ATOM      7  C   UNL A   1      32.790  26.627  24.405  1.00  0.00     0.311 C 
ATOM      8  O   UNL A   1      33.970  26.665  24.754  1.00  0.00    -0.252 OA
BRANCH   7   9
ATOM      9  C   UNL A   1      32.375  25.723  23.254  1.00  0.00     0.134 C 
ATOM     10  C   UNL A   1      33.232  21.212  26.076  1.00  0.00     0.270 C 
ATOM     11  O   UNL A   1      33.484  21.570  27.223  1.00  0.00    -0.267 OA
ATOM     12  N   UNL A   1      33.029  22.129  25.043  1.00  0.00    -0.337 N 
ATOM     13  C   UNL A   1      34.087  23.090  24.854  1.00  0.00     0.122 C 
ATOM     14  C   UNL A   1      31.702  22.690  24.881  1.00  0.00     0.122 C 
ATOM     15  C   UNL A   1      34.054  23.679  23.455  1.00  0.00     0.051 C 
ATOM     16  C   UNL A   1      31.543  23.249  23.475  1.00  0.00     0.051 C 
ATOM     17  C   UNL A   1      32.678  24.209  23.023  1.00  0.00     0.057 C 
ATOM     18  N   UNL A   1      32.668  24.166  21.549  1.00  0.00    -0.350 N 
ATOM     19  C   UNL A   1      32.859  25.373  20.937  1.00  0.00     0.221 C 
ATOM     20  H   UNL A   1      32.535  23.331  21.045  1.00  0.00     0.164 HD
ATOM     21  C   UNL A   1      32.949  26.415  21.994  1.00  0.00     0.117 C 
ATOM     22  O   UNL A   1      32.980  25.537  19.734  1.00  0.00    -0.275 OA
BRANCH  10  23
ATOM     23  C   UNL A   1      33.192  19.832  25.644  1.00  0.00     0.104 A 
ATOM     24  C   UNL A   1      33.479  16.944  23.317  1.00  0.00     0.046 C 
ATOM     25  C   UNL A   1      33.282  17.899  24.437  1.00  0.00    -0.033 A 
ATOM     26  C   UNL A   1      32.840  17.607  25.711  1.00  0.00     0.086 A 
ATOM     27  C   UNL A   1      33.499  19.305  24.400  1.00  0.00     0.036 A 
ATOM     28  N   UNL A   1      32.773  18.776  26.419  1.00  0.00    -0.357 N 
ATOM     29  H   UNL A   1      32.468  18.850  27.352  1.00  0.00     0.166 HD
ENDBRANCH  10  23
ENDBRANCH   7   9
ENDBRANCH   6   7
ENDBRANCH   5   6
ENDBRANCH   4   5
ENDBRANCH   3   4
ENDBRANCH   2   3
ENDBRANCH   1   2
BRANCH   1  30
ATOM     30  O   UNL A   1      33.596  33.398  28.266  1.00  0.00    -0.376 OA
BRANCH  30  31
ATOM     31  C   UNL A   1      34.315  34.219  29.186  1.00  0.00     0.202 C 
BRANCH  31  32
ATOM     32  C   UNL A   1      34.310  33.935  30.701  1.00  0.00     0.261 C 
BRANCH  32  33
ATOM     33  O   UNL A   1      34.492  32.569  31.085  1.00  0.00    -0.460 OA
BRANCH  33  34
ATOM     34  C   UNL A   1      35.402  32.333  32.061  1.00  0.00     0.338 C 
ATOM     35  O   UNL A   1      35.249  32.482  33.256  1.00  0.00    -0.246 OA
BRANCH  34  36
ATOM     36  C   UNL A   1      36.556  31.626  31.443  1.00  0.00     0.060 A 
ATOM     37  C   UNL A   1      37.561  31.152  32.296  1.00  0.00     0.016 A 
ATOM     38  C   UNL A   1      36.613  31.340  30.075  1.00  0.00     0.016 A 
ATOM     39  C   UNL A   1      38.632  30.414  31.789  1.00  0.00     0.010 A 
ATOM     40  C   UNL A   1      37.697  30.619  29.562  1.00  0.00     0.010 A 
ATOM     41  C   UNL A   1      38.727  30.174  30.413  1.00  0.00    -0.014 A 
BRANCH  41  42
ATOM     42  C   UNL A   1      39.986  29.639  29.836  1.00  0.00     0.031 A 
ATOM     43  C   UNL A   1      41.155  30.578  29.697  1.00  0.00     0.074 A 
ATOM     44  C   UNL A   1      40.115  28.353  29.465  1.00  0.00     0.049 A 
ATOM     45  N   UNL A   1      42.323  30.379  29.140  1.00  0.00    -0.248 NA
ATOM     46  C   UNL A   1      40.980  31.923  30.267  1.00  0.00     0.031 C 
ATOM     47  C   UNL A   1      39.099  27.315  29.622  1.00  0.00     0.029 A 
ATOM     48  N   UNL A   1      41.171  27.705  28.870  1.00  0.00    -0.354 N 
ATOM     49  C   UNL A   1      43.012  31.576  29.278  1.00  0.00     0.074 A 
ATOM     50  C   UNL A   1      42.128  32.502  29.950  1.00  0.00     0.031 C 
ATOM     51  C   UNL A   1      39.578  26.160  29.127  1.00  0.00     0.029 A 
ATOM     52  C   UNL A   1      40.912  26.389  28.572  1.00  0.00     0.049 A 
ATOM     53  H   UNL A   1      42.032  28.141  28.674  1.00  0.00     0.167 HD
ATOM     54  C   UNL A   1      44.271  31.882  28.880  1.00  0.00     0.031 A 
ATOM     55  C   UNL A   1      41.651  25.483  27.900  1.00  0.00     0.031 A 
ATOM     56  C   UNL A   1      45.147  30.970  28.195  1.00  0.00     0.049 A 
ATOM     57  C   UNL A   1      43.003  25.883  27.360  1.00  0.00     0.074 A 
ATOM     58  C   UNL A   1      46.437  31.190  27.745  1.00  0.00     0.029 A 
ATOM     59  N   UNL A   1      44.820  29.667  27.855  1.00  0.00    -0.354 N 
ATOM     60  N   UNL A   1      43.645  27.020  27.487  1.00  0.00    -0.248 NA
ATOM     61  C   UNL A   1      43.731  24.870  26.580  1.00  0.00     0.031 C 
ATOM     62  C   UNL A   1      46.865  30.042  27.071  1.00  0.00     0.029 A 
ATOM     63  C   UNL A   1      45.871  29.082  27.167  1.00  0.00     0.049 A 
ATOM     64  H   UNL A   1      43.968  29.223  28.070  1.00  0.00     0.167 HD
ATOM     65  C   UNL A   1      44.859  26.848  26.829  1.00  0.00     0.074 A 
ATOM     66  C   UNL A   1      44.872  25.492  26.322  1.00  0.00     0.031 C 
ATOM     67  C   UNL A   1      45.872  27.733  26.662  1.00  0.00     0.031 A 
BRANCH  54  68
ATOM     68  C   UNL A   1      44.748  33.287  29.124  1.00  0.00    -0.014 A 
ATOM     69  C   UNL A   1      45.446  33.636  30.291  1.00  0.00     0.009 A 
ATOM     70  C   UNL A   1      44.510  34.273  28.154  1.00  0.00     0.009 A 
ATOM     71  C   UNL A   1      45.862  34.954  30.497  1.00  0.00     0.001 A 
ATOM     72  C   UNL A   1      44.957  35.582  28.347  1.00  0.00     0.001 A 
ATOM     73  C   UNL A   1      45.621  35.923  29.523  1.00  0.00     0.000 A 
ENDBRANCH  54  68
BRANCH  55  74
ATOM     74  C   UNL A   1      41.117  24.118  27.642  1.00  0.00    -0.014 A 
ATOM     75  C   UNL A   1      41.664  22.995  28.284  1.00  0.00     0.009 A 
ATOM     76  C   UNL A   1      40.081  23.923  26.713  1.00  0.00     0.009 A 
ATOM     77  C   UNL A   1      41.206  21.710  27.982  1.00  0.00     0.001 A 
ATOM     78  C   UNL A   1      39.600  22.640  26.440  1.00  0.00     0.001 A 
ATOM     79  C   UNL A   1      40.170  21.534  27.066  1.00  0.00     0.000 A 
ENDBRANCH  55  74
BRANCH  67  80
ATOM     80  C   UNL A   1      47.099  27.258  25.931  1.00  0.00    -0.014 A 
ATOM     81  C   UNL A   1      47.253  27.457  24.550  1.00  0.00     0.009 A 
ATOM     82  C   UNL A   1      48.137  26.638  26.646  1.00  0.00     0.009 A 
ATOM     83  C   UNL A   1      48.407  27.014  23.897  1.00  0.00     0.001 A 
ATOM     84  C   UNL A   1      49.303  26.229  25.996  1.00  0.00     0.001 A 
ATOM     85  C   UNL A   1      49.432  26.407  24.619  1.00  0.00     0.000 A 
ENDBRANCH  67  80
ENDBRANCH  41  42
ENDBRANCH  34  36
ENDBRANCH  33  34
ENDBRANCH  32  33
ENDBRANCH  31  32
ENDBRANCH  30  31
ENDBRANCH   1  30
TORSDOF 18
ENDMDL
MODEL 2
REMARK VINA RESULT:     -11.4      4.045      9.641
REMARK SMILES Cc1c[nH]c(C(=O)N2CCC3(CC2)NC(=O)C[C@@H]3C(=O)OCCOCCOCCOC(=O)c2ccc(-c3c4nc(c(-c5ccccc5)c5ccc([nH]5)c(-c5ccccc5)c5nc(c(-c6ccccc6)c6ccc3[nH]6)C=C5)C=C4)cc2)c1
REMARK SMILES IDX 26 1 25 2 24 3 23 4 22 5 21 6 19 7 20 8 18 9 6 10 7 11 8 12
REMARK SMILES IDX 9 13 13 14 10 15 12 16 11 17 14 18 15 19 17 21 16 22 5 23
REMARK SMILES IDX 1 24 2 25 3 26 81 27 4 28 27 30 28 31 29 32 30 33 31 34
REMARK SMILES IDX 32 35 33 36 34 37 80 38 35 39 79 40 36 41 37 42 38 43 73 44
REMARK SMILES IDX 39 45 78 46 72 47 74 48 40 49 77 50 71 51 70 52 41 54 63 55
REMARK SMILES IDX 48 56 62 57 49 58 52 59 61 60 75 61 50 62 51 63 60 65 76 66
REMARK SMILES IDX 53 67 42 68 43 69 47 70 44 71 46 72 45 73 64 74 65 75 69 76
REMARK SMILES IDX 66 77 68 78 67 79 54 80 55 81 59 82 56 83 58 84 57 85
REMARK H PARENT 14 20 4 29 74 53 52 64
REMARK Flexibility Score: inf
ROOT
ATOM      1  C   UNL A   1      39.718  21.899  25.988  1.00  0.00     0.188 C 
ENDROOT
BRANCH   1   2
ATOM      2  C   UNL A   1      38.209  22.137  25.880  1.00  0.00     0.188 C 
BRANCH   2   3
ATOM      3  O   UNL A   1      37.571  21.613  24.723  1.00  0.00    -0.376 OA
BRANCH   3   4
ATOM      4  C   UNL A   1      36.741  22.516  24.007  1.00  0.00     0.202 C 
BRANCH   4   5
ATOM      5  C   UNL A   1      35.220  22.271  24.041  1.00  0.00     0.261 C 
BRANCH   5   6
ATOM      6  O   UNL A   1      34.359  23.436  24.096  1.00  0.00    -0.463 OA
BRANCH   6   7
ATOM      7  C   UNL A   1      33.764  23.638  25.290  1.00  0.00     0.311 C 
ATOM      8  O   UNL A   1      34.393  23.765  26.341  1.00  0.00    -0.252 OA
BRANCH   7   9
ATOM      9  C   UNL A   1      32.243  23.661  25.316  1.00  0.00     0.134 C 
ATOM     10  C   UNL A   1      31.967  28.514  22.987  1.00  0.00     0.270 C 
ATOM     11  O   UNL A   1      33.117  28.803  22.664  1.00  0.00    -0.267 OA
ATOM     12  N   UNL A   1      31.669  27.346  23.691  1.00  0.00    -0.337 N 
ATOM     13  C   UNL A   1      32.404  27.161  24.918  1.00  0.00     0.122 C 
ATOM     14  C   UNL A   1      31.486  26.124  22.935  1.00  0.00     0.122 C 
ATOM     15  C   UNL A   1      31.687  26.200  25.850  1.00  0.00     0.051 C 
ATOM     16  C   UNL A   1      30.710  25.112  23.765  1.00  0.00     0.051 C 
ATOM     17  C   UNL A   1      31.268  24.875  25.195  1.00  0.00     0.057 C 
ATOM     18  N   UNL A   1      30.130  24.371  25.985  1.00  0.00    -0.350 N 
ATOM     19  C   UNL A   1      30.435  23.360  26.854  1.00  0.00     0.221 C 
ATOM     20  H   UNL A   1      29.220  24.735  25.894  1.00  0.00     0.164 HD
ATOM     21  C   UNL A   1      31.871  23.017  26.673  1.00  0.00     0.117 C 
ATOM     22  O   UNL A   1      29.662  22.873  27.663  1.00  0.00    -0.275 OA
BRANCH  10  23
ATOM     23  C   UNL A   1      30.818  29.362  22.755  1.00  0.00     0.104 A 
ATOM     24  C   UNL A   1      27.659  31.166  23.530  1.00  0.00     0.046 C 
ATOM     25  C   UNL A   1      28.885  30.555  22.958  1.00  0.00    -0.033 A 
ATOM     26  C   UNL A   1      29.332  30.650  21.656  1.00  0.00     0.086 A 
ATOM     27  C   UNL A   1      29.826  29.738  23.646  1.00  0.00     0.036 A 
ATOM     28  N   UNL A   1      30.481  29.917  21.543  1.00  0.00    -0.357 N 
ATOM     29  H   UNL A   1      30.994  29.802  20.711  1.00  0.00     0.166 HD
ENDBRANCH  10  23
ENDBRANCH   7   9
ENDBRANCH   6   7
ENDBRANCH   5   6
ENDBRANCH   4   5
ENDBRANCH   3   4
ENDBRANCH   2   3
ENDBRANCH   1   2
BRANCH   1  30
ATOM     30  O   UNL A   1      40.018  20.612  26.499  1.00  0.00    -0.376 OA
BRANCH  30  31
ATOM     31  C   UNL A   1      41.382  20.240  26.702  1.00  0.00     0.202 C 
BRANCH  31  32
ATOM     32  C   UNL A   1      42.519  20.834  25.846  1.00  0.00     0.261 C 
BRANCH  32  33
ATOM     33  O   UNL A   1      43.263  21.900  26.442  1.00  0.00    -0.460 OA
BRANCH  33  34
ATOM     34  C   UNL A   1      43.317  23.061  25.745  1.00  0.00     0.338 C 
ATOM     35  O   UNL A   1      43.531  23.192  24.557  1.00  0.00    -0.246 OA
BRANCH  34  36
ATOM     36  C   UNL A   1      42.830  24.148  26.636  1.00  0.00     0.060 A 
ATOM     37  C   UNL A   1      43.222  25.459  26.337  1.00  0.00     0.016 A 
ATOM     38  C   UNL A   1      41.927  23.912  27.679  1.00  0.00     0.016 A 
ATOM     39  C   UNL A   1      42.738  26.532  27.088  1.00  0.00     0.010 A 
ATOM     40  C   UNL A   1      41.459  24.985  28.445  1.00  0.00     0.010 A 
ATOM     41  C   UNL A   1      41.882  26.299  28.171  1.00  0.00    -0.014 A 
BRANCH  41  42
ATOM     42  C   UNL A   1      41.587  27.390  29.134  1.00  0.00     0.031 A 
ATOM     43  C   UNL A   1      42.489  27.541  30.330  1.00  0.00     0.074 A 
ATOM     44  C   UNL A   1      40.567  28.248  28.955  1.00  0.00     0.049 A 
ATOM     45  N   UNL A   1      42.387  28.349  31.355  1.00  0.00    -0.248 NA
ATOM     46  C   UNL A   1      43.669  26.662  30.369  1.00  0.00     0.031 C 
ATOM     47  C   UNL A   1      39.668  28.275  27.803  1.00  0.00     0.029 A 
ATOM     48  N   UNL A   1      40.116  29.268  29.758  1.00  0.00    -0.354 N 
ATOM     49  C   UNL A   1      43.477  28.062  32.167  1.00  0.00     0.074 A 
ATOM     50  C   UNL A   1      44.215  26.995  31.529  1.00  0.00     0.031 C 
ATOM     51  C   UNL A   1      38.766  29.257  27.978  1.00  0.00     0.029 A 
ATOM     52  C   UNL A   1      38.992  29.894  29.276  1.00  0.00     0.049 A 
ATOM     53  H   UNL A   1      40.556  29.526  30.601  1.00  0.00     0.167 HD
ATOM     54  C   UNL A   1      43.833  28.634  33.342  1.00  0.00     0.031 A 
ATOM     55  C   UNL A   1      38.216  30.846  29.832  1.00  0.00     0.031 A 
ATOM     56  C   UNL A   1      43.092  29.683  33.989  1.00  0.00     0.049 A 
ATOM     57  C   UNL A   1      38.566  31.385  31.198  1.00  0.00     0.074 A 
ATOM     58  C   UNL A   1      43.370  30.322  35.185  1.00  0.00     0.029 A 
ATOM     59  N   UNL A   1      41.923  30.242  33.498  1.00  0.00    -0.354 N 
ATOM     60  N   UNL A   1      39.593  31.103  31.963  1.00  0.00    -0.248 NA
ATOM     61  C   UNL A   1      37.643  32.374  31.777  1.00  0.00     0.031 C 
ATOM     62  C   UNL A   1      42.330  31.219  35.452  1.00  0.00     0.029 A 
ATOM     63  C   UNL A   1      41.446  31.192  34.386  1.00  0.00     0.049 A 
ATOM     64  H   UNL A   1      41.495  30.000  32.645  1.00  0.00     0.167 HD
ATOM     65  C   UNL A   1      39.453  31.898  33.096  1.00  0.00     0.074 A 
ATOM     66  C   UNL A   1      38.255  32.687  32.909  1.00  0.00     0.031 C 
ATOM     67  C   UNL A   1      40.248  31.969  34.193  1.00  0.00     0.031 A 
BRANCH  54  68
ATOM     68  C   UNL A   1      45.052  28.087  34.032  1.00  0.00    -0.014 A 
ATOM     69  C   UNL A   1      46.328  28.632  33.817  1.00  0.00     0.009 A 
ATOM     70  C   UNL A   1      44.913  27.018  34.931  1.00  0.00     0.009 A 
ATOM     71  C   UNL A   1      47.444  28.092  34.460  1.00  0.00     0.001 A 
ATOM     72  C   UNL A   1      46.025  26.502  35.598  1.00  0.00     0.001 A 
ATOM     73  C   UNL A   1      47.291  27.031  35.353  1.00  0.00     0.000 A 
ENDBRANCH  54  68
BRANCH  55  74
ATOM     74  C   UNL A   1      36.992  31.323  29.131  1.00  0.00    -0.014 A 
ATOM     75  C   UNL A   1      35.971  30.429  28.772  1.00  0.00     0.009 A 
ATOM     76  C   UNL A   1      36.858  32.676  28.776  1.00  0.00     0.009 A 
ATOM     77  C   UNL A   1      34.859  30.873  28.051  1.00  0.00     0.001 A 
ATOM     78  C   UNL A   1      35.728  33.123  28.086  1.00  0.00     0.001 A 
ATOM     79  C   UNL A   1      34.735  32.219  27.714  1.00  0.00     0.000 A 
ENDBRANCH  55  74
BRANCH  67  80
ATOM     80  C   UNL A   1      39.872  32.959  35.263  1.00  0.00    -0.014 A 
ATOM     81  C   UNL A   1      40.339  34.282  35.237  1.00  0.00     0.009 A 
ATOM     82  C   UNL A   1      38.998  32.569  36.292  1.00  0.00     0.009 A 
ATOM     83  C   UNL A   1      39.966  35.183  36.237  1.00  0.00     0.001 A 
ATOM     84  C   UNL A   1      38.600  33.482  37.270  1.00  0.00     0.001 A 
ATOM     85  C   UNL A   1      39.094  34.786  37.249  1.00  0.00     0.000 A 
ENDBRANCH  67  80
ENDBRANCH  41  42
ENDBRANCH  34  36
ENDBRANCH  33  34
ENDBRANCH  32  33
ENDBRANCH  31  32
ENDBRANCH  30  31
ENDBRANCH   1  30
TORSDOF 18
ENDMDL
MODEL 3
REMARK VINA RESULT:     -11.3      3.386      9.257
REMARK SMILES Cc1c[nH]c(C(=O)N2CCC3(CC2)NC(=O)C[C@@H]3C(=O)OCCOCCOCCOC(=O)c2ccc(-c3c4nc(c(-c5ccccc5)c5ccc([nH]5)c(-c5ccccc5)c5nc(c(-c6ccccc6)c6ccc3[nH]6)C=C5)C=C4)cc2)c1
REMARK SMILES IDX 26 1 25 2 24 3 23 4 22 5 21 6 19 7 20 8 18 9 6 10 7 11 8 12
REMARK SMILES IDX 9 13 13 14 10 15 12 16 11 17 14 18 15 19 17 21 16 22 5 23
REMARK SMILES IDX 1 24 2 25 3 26 81 27 4 28 27 30 28 31 29 32 30 33 31 34
REMARK SMILES IDX 32 35 33 36 34 37 80 38 35 39 79 40 36 41 37 42 38 43 73 44
REMARK SMILES IDX 39 45 78 46 72 47 74 48 40 49 77 50 71 51 70 52 41 54 63 55
REMARK SMILES IDX 48 56 62 57 49 58 52 59 61 60 75 61 50 62 51 63 60 65 76 66
REMARK SMILES IDX 53 67 42 68 43 69 47 70 44 71 46 72 45 73 64 74 65 75 69 76
REMARK SMILES IDX 66 77 68 78 67 79 54 80 55 81 59 82 56 83 58 84 57 85
REMARK H PARENT 14 20 4 29 74 53 52 64
REMARK Flexibility Score: inf
ROOT
ATOM      1  C   UNL A   1      39.929  21.124  26.831  1.00  0.00     0.188 C 
ENDROOT
BRANCH   1   2
ATOM      2  C   UNL A   1      39.180  22.247  26.109  1.00  0.00     0.188 C 
BRANCH   2   3
ATOM      3  O   UNL A   1      38.151  21.843  25.215  1.00  0.00    -0.376 OA
BRANCH   3   4
ATOM      4  C   UNL A   1      36.869  21.639  25.792  1.00  0.00     0.202 C 
BRANCH   4   5
ATOM      5  C   UNL A   1      35.934  22.858  25.907  1.00  0.00     0.261 C 
BRANCH   5   6
ATOM      6  O   UNL A   1      34.519  22.635  25.685  1.00  0.00    -0.463 OA
BRANCH   6   7
ATOM      7  C   UNL A   1      33.880  23.655  25.074  1.00  0.00     0.311 C 
ATOM      8  O   UNL A   1      34.470  24.564  24.490  1.00  0.00    -0.252 OA
BRANCH   7   9
ATOM      9  C   UNL A   1      32.362  23.680  25.165  1.00  0.00     0.134 C 
ATOM     10  C   UNL A   1      31.993  28.544  22.872  1.00  0.00     0.270 C 
ATOM     11  O   UNL A   1      33.128  28.833  22.501  1.00  0.00    -0.267 OA
ATOM     12  N   UNL A   1      31.724  27.373  23.582  1.00  0.00    -0.337 N 
ATOM     13  C   UNL A   1      32.509  27.181  24.776  1.00  0.00     0.122 C 
ATOM     14  C   UNL A   1      31.507  26.154  22.829  1.00  0.00     0.122 C 
ATOM     15  C   UNL A   1      31.832  26.217  25.734  1.00  0.00     0.051 C 
ATOM     16  C   UNL A   1      30.766  25.139  23.687  1.00  0.00     0.051 C 
ATOM     17  C   UNL A   1      31.384  24.895  25.091  1.00  0.00     0.057 C 
ATOM     18  N   UNL A   1      30.280  24.389  25.926  1.00  0.00    -0.350 N 
ATOM     19  C   UNL A   1      30.620  23.374  26.777  1.00  0.00     0.221 C 
ATOM     20  H   UNL A   1      29.367  24.755  25.876  1.00  0.00     0.164 HD
ATOM     21  C   UNL A   1      32.046  23.030  26.533  1.00  0.00     0.117 C 
ATOM     22  O   UNL A   1      29.881  22.884  27.615  1.00  0.00    -0.275 OA
BRANCH  10  23
ATOM     23  C   UNL A   1      30.836  29.394  22.693  1.00  0.00     0.104 A 
ATOM     24  C   UNL A   1      27.677  31.142  23.588  1.00  0.00     0.046 C 
ATOM     25  C   UNL A   1      28.899  30.564  22.973  1.00  0.00    -0.033 A 
ATOM     26  C   UNL A   1      29.327  30.719  21.671  1.00  0.00     0.086 A 
ATOM     27  C   UNL A   1      29.854  29.724  23.612  1.00  0.00     0.036 A 
ATOM     28  N   UNL A   1      30.479  29.999  21.510  1.00  0.00    -0.357 N 
ATOM     29  H   UNL A   1      30.982  29.924  20.667  1.00  0.00     0.166 HD
ENDBRANCH  10  23
ENDBRANCH   7   9
ENDBRANCH   6   7
ENDBRANCH   5   6
ENDBRANCH   4   5
ENDBRANCH   3   4
ENDBRANCH   2   3
ENDBRANCH   1   2
BRANCH   1  30
ATOM     30  O   UNL A   1      41.028  20.645  26.074  1.00  0.00    -0.376 OA
BRANCH  30  31
ATOM     31  C   UNL A   1      41.485  19.307  26.273  1.00  0.00     0.202 C 
BRANCH  31  32
ATOM     32  C   UNL A   1      42.853  18.832  25.746  1.00  0.00     0.261 C 
BRANCH  32  33
ATOM     33  O   UNL A   1      43.304  19.439  24.531  1.00  0.00    -0.460 OA
BRANCH  33  34
ATOM     34  C   UNL A   1      44.633  19.686  24.438  1.00  0.00     0.338 C 
ATOM     35  O   UNL A   1      45.482  18.954  23.970  1.00  0.00    -0.246 OA
BRANCH  34  36
ATOM     36  C   UNL A   1      44.855  21.114  24.787  1.00  0.00     0.060 A 
ATOM     37  C   UNL A   1      45.275  21.407  26.091  1.00  0.00     0.016 A 
ATOM     38  C   UNL A   1      44.757  22.140  23.841  1.00  0.00     0.016 A 
ATOM     39  C   UNL A   1      45.574  22.720  26.462  1.00  0.00     0.010 A 
ATOM     40  C   UNL A   1      45.035  23.458  24.217  1.00  0.00     0.010 A 
ATOM     41  C   UNL A   1      45.420  23.760  25.537  1.00  0.00    -0.014 A 
BRANCH  41  42
ATOM     42  C   UNL A   1      45.466  25.172  25.993  1.00  0.00     0.031 A 
ATOM     43  C   UNL A   1      46.789  25.890  25.942  1.00  0.00     0.074 A 
ATOM     44  C   UNL A   1      44.370  25.824  26.419  1.00  0.00     0.049 A 
ATOM     45  N   UNL A   1      47.106  27.086  26.370  1.00  0.00    -0.248 NA
ATOM     46  C   UNL A   1      47.903  25.156  25.322  1.00  0.00     0.031 C 
ATOM     47  C   UNL A   1      43.012  25.284  26.440  1.00  0.00     0.029 A 
ATOM     48  N   UNL A   1      44.234  27.095  26.923  1.00  0.00    -0.354 N 
ATOM     49  C   UNL A   1      48.457  27.239  26.085  1.00  0.00     0.074 A 
ATOM     50  C   UNL A   1      48.904  26.010  25.469  1.00  0.00     0.031 C 
ATOM     51  C   UNL A   1      42.181  26.215  26.941  1.00  0.00     0.029 A 
ATOM     52  C   UNL A   1      42.955  27.397  27.323  1.00  0.00     0.049 A 
ATOM     53  H   UNL A   1      44.984  27.731  26.992  1.00  0.00     0.167 HD
ATOM     54  C   UNL A   1      49.257  28.307  26.317  1.00  0.00     0.031 A 
ATOM     55  C   UNL A   1      42.471  28.485  27.955  1.00  0.00     0.031 A 
ATOM     56  C   UNL A   1      48.819  29.525  26.945  1.00  0.00     0.049 A 
ATOM     57  C   UNL A   1      43.407  29.615  28.311  1.00  0.00     0.074 A 
ATOM     58  C   UNL A   1      49.559  30.660  27.229  1.00  0.00     0.029 A 
ATOM     59  N   UNL A   1      47.530  29.762  27.394  1.00  0.00    -0.354 N 
ATOM     60  N   UNL A   1      44.684  29.749  28.046  1.00  0.00    -0.248 NA
ATOM     61  C   UNL A   1      42.829  30.744  29.057  1.00  0.00     0.031 C 
ATOM     62  C   UNL A   1      48.732  31.558  27.913  1.00  0.00     0.029 A 
ATOM     63  C   UNL A   1      47.461  31.012  27.988  1.00  0.00     0.049 A 
ATOM     64  H   UNL A   1      46.776  29.136  27.305  1.00  0.00     0.167 HD
ATOM     65  C   UNL A   1      45.054  30.985  28.566  1.00  0.00     0.074 A 
ATOM     66  C   UNL A   1      43.862  31.569  29.144  1.00  0.00     0.031 C 
ATOM     67  C   UNL A   1      46.271  31.583  28.565  1.00  0.00     0.031 A 
BRANCH  54  68
ATOM     68  C   UNL A   1      50.707  28.176  25.940  1.00  0.00    -0.014 A 
ATOM     69  C   UNL A   1      51.178  28.565  24.676  1.00  0.00     0.009 A 
ATOM     70  C   UNL A   1      51.619  27.671  26.879  1.00  0.00     0.009 A 
ATOM     71  C   UNL A   1      52.528  28.415  24.349  1.00  0.00     0.001 A 
ATOM     72  C   UNL A   1      52.974  27.554  26.562  1.00  0.00     0.001 A 
ATOM     73  C   UNL A   1      53.424  27.915  25.293  1.00  0.00     0.000 A 
ENDBRANCH  54  68
BRANCH  55  74
ATOM     74  C   UNL A   1      41.037  28.550  28.350  1.00  0.00    -0.014 A 
ATOM     75  C   UNL A   1      40.599  28.009  29.569  1.00  0.00     0.009 A 
ATOM     76  C   UNL A   1      40.086  29.117  27.485  1.00  0.00     0.009 A 
ATOM     77  C   UNL A   1      39.241  28.009  29.900  1.00  0.00     0.001 A 
ATOM     78  C   UNL A   1      38.733  29.148  27.834  1.00  0.00     0.001 A 
ATOM     79  C   UNL A   1      38.311  28.584  29.036  1.00  0.00     0.000 A 
ENDBRANCH  55  74
BRANCH  67  80
ATOM     80  C   UNL A   1      46.373  32.955  29.174  1.00  0.00    -0.014 A 
ATOM     81  C   UNL A   1      46.134  34.113  28.419  1.00  0.00     0.009 A 
ATOM     82  C   UNL A   1      46.672  33.088  30.540  1.00  0.00     0.009 A 
ATOM     83  C   UNL A   1      46.226  35.376  29.011  1.00  0.00     0.001 A 
ATOM     84  C   UNL A   1      46.729  34.348  31.137  1.00  0.00     0.001 A 
ATOM     85  C   UNL A   1      46.517  35.492  30.369  1.00  0.00     0.000 A 
ENDBRANCH  67  80
ENDBRANCH  41  42
ENDBRANCH  34  36
ENDBRANCH  33  34
ENDBRANCH  32  33
ENDBRANCH  31  32
ENDBRANCH  30  31
ENDBRANCH   1  30
TORSDOF 18
ENDMDL
