MODEL 1
REMARK VINA RESULT:      -9.3      0.000      0.000
REMARK SMILES CSCc1ccc(C(=O)Nc2cc(C)c(C(=O)OCCOCCOCCOC(=O)c3ccc(-c4c5nc(c(-c6ccccc6)c6ccc([nH]6)c(-c6ccccc6)c6nc(c(-c7ccccc7)c7ccc4[nH]7)C=C6)C=C5)cc3)s2)cc1
REMARK SMILES IDX 22 1 21 2 20 3 19 4 18 5 16 6 17 7 15 8 11 9 12 10 78 11
REMARK SMILES IDX 13 12 14 13 10 14 8 15 9 16 7 18 4 19 5 20 80 21 6 22 79 23
REMARK SMILES IDX 3 24 2 25 1 26 23 27 24 28 25 29 26 30 27 31 28 32 29 33
REMARK SMILES IDX 30 34 31 35 77 36 32 37 76 38 33 39 34 40 35 41 70 42 36 43
REMARK SMILES IDX 75 44 69 45 71 46 37 47 74 48 68 49 67 50 38 52 60 53 45 54
REMARK SMILES IDX 59 55 46 56 49 57 58 58 72 59 47 60 48 61 57 63 73 64 50 65
REMARK SMILES IDX 39 66 40 67 44 68 41 69 43 70 42 71 61 72 62 73 66 74 63 75
REMARK SMILES IDX 65 76 64 77 51 78 52 79 56 80 53 81 55 82 54 83
REMARK H PARENT 10 17 71 51 49 62
REMARK Flexibility Score: inf
ROOT
ATOM      1  C   UNL A   1      32.163  30.914  26.369  1.00  0.00     0.188 C 
ENDROOT
BRANCH   1   2
ATOM      2  O   UNL A   1      31.874  29.944  25.398  1.00  0.00    -0.376 OA
BRANCH   2   3
ATOM      3  C   UNL A   1      30.682  30.049  24.648  1.00  0.00     0.202 C 
BRANCH   3   4
ATOM      4  C   UNL A   1      30.364  29.205  23.395  1.00  0.00     0.261 C 
BRANCH   4   5
ATOM      5  O   UNL A   1      31.460  28.571  22.716  1.00  0.00    -0.459 OA
BRANCH   5   6
ATOM      6  C   UNL A   1      31.430  27.204  22.608  1.00  0.00     0.348 C 
ATOM      7  O   UNL A   1      30.974  26.612  21.637  1.00  0.00    -0.245 OA
BRANCH   6   8
ATOM      8  C   UNL A   1      32.145  26.583  23.725  1.00  0.00     0.117 A 
ATOM      9  C   UNL A   1      33.990  25.685  25.115  1.00  0.00     0.096 A 
ATOM     10  C   UNL A   1      32.761  25.464  25.677  1.00  0.00     0.042 A 
ATOM     11  S   UNL A   1      33.881  26.480  23.627  1.00  0.00    -0.111 S 
ATOM     12  C   UNL A   1      31.693  26.090  24.949  1.00  0.00    -0.023 A 
ATOM     13  C   UNL A   1      30.297  26.118  25.484  1.00  0.00     0.046 C 
BRANCH   9  14
ATOM     14  N   UNL A   1      35.174  25.109  25.492  1.00  0.00    -0.314 N 
ATOM     15  C   UNL A   1      35.479  23.795  25.765  1.00  0.00     0.256 C 
ATOM     16  O   UNL A   1      36.608  23.558  26.205  1.00  0.00    -0.269 OA
ATOM     17  H   UNL A   1      35.928  25.736  25.580  1.00  0.00     0.171 HD
BRANCH  15  18
ATOM     18  C   UNL A   1      34.578  22.638  25.500  1.00  0.00     0.040 A 
ATOM     19  C   UNL A   1      33.018  20.383  24.800  1.00  0.00    -0.038 A 
ATOM     20  C   UNL A   1      33.497  21.259  23.814  1.00  0.00     0.005 A 
ATOM     21  C   UNL A   1      33.122  20.791  26.134  1.00  0.00     0.005 A 
ATOM     22  C   UNL A   1      34.266  22.372  24.159  1.00  0.00     0.014 A 
ATOM     23  C   UNL A   1      33.938  21.882  26.486  1.00  0.00     0.014 A 
BRANCH  19  24
ATOM     24  C   UNL A   1      32.464  19.043  24.345  1.00  0.00     0.104 C 
BRANCH  24  25
ATOM     25  S   UNL A   1      32.687  17.453  25.358  1.00  0.00    -0.161 SA
ATOM     26  C   UNL A   1      34.770  15.952  25.167  1.00  0.00     0.085 C 
ENDBRANCH  24  25
ENDBRANCH  19  24
ENDBRANCH  15  18
ENDBRANCH   9  14
ENDBRANCH   6   8
ENDBRANCH   5   6
ENDBRANCH   4   5
ENDBRANCH   3   4
ENDBRANCH   2   3
ENDBRANCH   1   2
BRANCH   1  27
ATOM     27  C   UNL A   1      31.231  32.137  26.522  1.00  0.00     0.188 C 
BRANCH  27  28
ATOM     28  O   UNL A   1      31.757  33.355  26.997  1.00  0.00    -0.376 OA
BRANCH  28  29
ATOM     29  C   UNL A   1      32.945  33.356  27.776  1.00  0.00     0.202 C 
BRANCH  29  30
ATOM     30  C   UNL A   1      33.402  34.505  28.695  1.00  0.00     0.261 C 
BRANCH  30  31
ATOM     31  O   UNL A   1      33.021  34.421  30.069  1.00  0.00    -0.460 OA
BRANCH  31  32
ATOM     32  C   UNL A   1      33.964  34.856  30.935  1.00  0.00     0.338 C 
ATOM     33  O   UNL A   1      33.918  35.822  31.674  1.00  0.00    -0.246 OA
BRANCH  32  34
ATOM     34  C   UNL A   1      35.028  33.857  30.984  1.00  0.00     0.060 A 
ATOM     35  C   UNL A   1      34.988  32.523  32.202  1.00  0.00     0.016 A 
ATOM     36  C   UNL A   1      36.525  34.168  30.038  1.00  0.00     0.016 A 
ATOM     37  C   UNL A   1      36.457  31.491  32.470  1.00  0.00     0.010 A 
ATOM     38  C   UNL A   1      37.980  33.166  30.322  1.00  0.00     0.010 A 
ATOM     39  C   UNL A   1      37.967  31.842  31.555  1.00  0.00    -0.014 A 
BRANCH  39  40
ATOM     40  C   UNL A   1      39.195  31.087  31.850  1.00  0.00     0.031 A 
ATOM     41  C   UNL A   1      39.553  29.918  30.977  1.00  0.00     0.074 A 
ATOM     42  C   UNL A   1      40.008  31.506  32.836  1.00  0.00     0.049 A 
ATOM     43  N   UNL A   1      40.657  29.219  30.957  1.00  0.00    -0.248 NA
ATOM     44  C   UNL A   1      38.589  29.520  29.939  1.00  0.00     0.031 C 
ATOM     45  C   UNL A   1      39.788  32.668  33.703  1.00  0.00     0.029 A 
ATOM     46  N   UNL A   1      41.191  30.982  33.287  1.00  0.00    -0.354 N 
ATOM     47  C   UNL A   1      40.532  28.360  29.873  1.00  0.00     0.074 A 
ATOM     48  C   UNL A   1      39.259  28.612  29.256  1.00  0.00     0.031 C 
ATOM     49  C   UNL A   1      40.795  32.759  34.586  1.00  0.00     0.029 A 
ATOM     50  C   UNL A   1      41.694  31.629  34.389  1.00  0.00     0.049 A 
ATOM     51  H   UNL A   1      41.637  30.213  32.862  1.00  0.00     0.167 HD
ATOM     52  C   UNL A   1      41.386  27.408  29.445  1.00  0.00     0.031 A 
ATOM     53  C   UNL A   1      42.735  31.309  35.179  1.00  0.00     0.031 A 
ATOM     54  C   UNL A   1      42.552  27.027  30.180  1.00  0.00     0.049 A 
ATOM     55  C   UNL A   1      43.538  30.087  34.824  1.00  0.00     0.074 A 
ATOM     56  C   UNL A   1      43.431  25.993  29.926  1.00  0.00     0.029 A 
ATOM     57  N   UNL A   1      42.956  27.631  31.362  1.00  0.00    -0.354 N 
ATOM     58  N   UNL A   1      43.416  29.293  33.787  1.00  0.00    -0.248 NA
ATOM     59  C   UNL A   1      44.618  29.716  35.746  1.00  0.00     0.031 C 
ATOM     60  C   UNL A   1      44.309  25.911  31.009  1.00  0.00     0.029 A 
ATOM     61  C   UNL A   1      44.042  26.958  31.881  1.00  0.00     0.049 A 
ATOM     62  H   UNL A   1      42.532  28.422  31.768  1.00  0.00     0.167 HD
ATOM     63  C   UNL A   1      44.424  28.349  33.911  1.00  0.00     0.074 A 
ATOM     64  C   UNL A   1      45.152  28.676  35.122  1.00  0.00     0.031 C 
ATOM     65  C   UNL A   1      44.731  27.309  33.096  1.00  0.00     0.031 A 
BRANCH  52  66
ATOM     66  C   UNL A   1      40.993  26.639  28.216  1.00  0.00    -0.014 A 
ATOM     67  C   UNL A   1      40.129  25.534  28.289  1.00  0.00     0.009 A 
ATOM     68  C   UNL A   1      41.522  27.010  26.971  1.00  0.00     0.009 A 
ATOM     69  C   UNL A   1      39.815  24.809  27.136  1.00  0.00     0.001 A 
ATOM     70  C   UNL A   1      41.185  26.299  25.819  1.00  0.00     0.001 A 
ATOM     71  C   UNL A   1      40.338  25.196  25.904  1.00  0.00     0.000 A 
ENDBRANCH  52  66
BRANCH  53  72
ATOM     72  C   UNL A   1      43.021  32.100  36.407  1.00  0.00    -0.014 A 
ATOM     73  C   UNL A   1      43.826  33.247  36.364  1.00  0.00     0.009 A 
ATOM     74  C   UNL A   1      42.491  31.697  37.646  1.00  0.00     0.009 A 
ATOM     75  C   UNL A   1      44.113  33.957  37.535  1.00  0.00     0.001 A 
ATOM     76  C   UNL A   1      42.750  32.427  38.808  1.00  0.00     0.001 A 
ATOM     77  C   UNL A   1      43.570  33.550  38.754  1.00  0.00     0.000 A 
ENDBRANCH  53  72
BRANCH  65  78
ATOM     78  C   UNL A   1      45.931  26.485  33.458  1.00  0.00    -0.014 A 
ATOM     79  C   UNL A   1      47.209  26.787  32.966  1.00  0.00     0.009 A 
ATOM     80  C   UNL A   1      45.779  25.424  34.367  1.00  0.00     0.009 A 
ATOM     81  C   UNL A   1      48.307  26.017  33.350  1.00  0.00     0.001 A 
ATOM     82  C   UNL A   1      46.883  24.684  34.780  1.00  0.00     0.001 A 
ATOM     83  C   UNL A   1      48.144  24.973  34.262  1.00  0.00     0.000 A 
ENDBRANCH  65  78
ENDBRANCH  39  40
ENDBRANCH  32  34
ENDBRANCH  31  32
ENDBRANCH  30  31
ENDBRANCH  29  30
ENDBRANCH  28  29
ENDBRANCH  27  28
ENDBRANCH   1  27
TORSDOF 21
ENDMDL
MODEL 2
REMARK VINA RESULT:      -9.2      2.809      4.943
REMARK SMILES CSCc1ccc(C(=O)Nc2cc(C)c(C(=O)OCCOCCOCCOC(=O)c3ccc(-c4c5nc(c(-c6ccccc6)c6ccc([nH]6)c(-c6ccccc6)c6nc(c(-c7ccccc7)c7ccc4[nH]7)C=C6)C=C5)cc3)s2)cc1
REMARK SMILES IDX 22 1 21 2 20 3 19 4 18 5 16 6 17 7 15 8 11 9 12 10 78 11
REMARK SMILES IDX 13 12 14 13 10 14 8 15 9 16 7 18 4 19 5 20 80 21 6 22 79 23
REMARK SMILES IDX 3 24 2 25 1 26 23 27 24 28 25 29 26 30 27 31 28 32 29 33
REMARK SMILES IDX 30 34 31 35 77 36 32 37 76 38 33 39 34 40 35 41 70 42 36 43
REMARK SMILES IDX 75 44 69 45 71 46 37 47 74 48 68 49 67 50 38 52 60 53 45 54
REMARK SMILES IDX 59 55 46 56 49 57 58 58 72 59 47 60 48 61 57 63 73 64 50 65
REMARK SMILES IDX 39 66 40 67 44 68 41 69 43 70 42 71 61 72 62 73 66 74 63 75
REMARK SMILES IDX 65 76 64 77 51 78 52 79 56 80 53 81 55 82 54 83
REMARK H PARENT 10 17 71 51 49 62
REMARK Flexibility Score: inf
ROOT
ATOM      1  C   UNL A   1      32.977  33.155  27.878  1.00  0.00     0.188 C 
ENDROOT
BRANCH   1   2
ATOM      2  O   UNL A   1      31.778  33.053  27.159  1.00  0.00    -0.376 OA
BRANCH   2   3
ATOM      3  C   UNL A   1      31.408  31.809  26.603  1.00  0.00     0.202 C 
BRANCH   3   4
ATOM      4  C   UNL A   1      32.203  30.499  26.793  1.00  0.00     0.261 C 
BRANCH   4   5
ATOM      5  O   UNL A   1      31.833  29.366  25.990  1.00  0.00    -0.459 OA
BRANCH   5   6
ATOM      6  C   UNL A   1      31.771  28.145  26.611  1.00  0.00     0.348 C 
ATOM      7  O   UNL A   1      31.412  27.994  27.773  1.00  0.00    -0.245 OA
BRANCH   6   8
ATOM      8  C   UNL A   1      32.042  27.068  25.657  1.00  0.00     0.117 A 
ATOM      9  C   UNL A   1      33.270  25.440  24.248  1.00  0.00     0.096 A 
ATOM     10  C   UNL A   1      31.921  25.409  24.021  1.00  0.00     0.042 A 
ATOM     11  S   UNL A   1      33.700  26.599  25.403  1.00  0.00    -0.111 S 
ATOM     12  C   UNL A   1      31.183  26.253  24.919  1.00  0.00    -0.023 A 
ATOM     13  C   UNL A   1      29.689  26.235  24.955  1.00  0.00     0.046 C 
BRANCH   9  14
ATOM     14  N   UNL A   1      34.241  24.860  23.476  1.00  0.00    -0.314 N 
ATOM     15  C   UNL A   1      34.766  23.588  23.510  1.00  0.00     0.256 C 
ATOM     16  O   UNL A   1      35.729  23.355  22.774  1.00  0.00    -0.269 OA
ATOM     17  H   UNL A   1      34.625  25.448  22.785  1.00  0.00     0.171 HD
BRANCH  15  18
ATOM     18  C   UNL A   1      34.212  22.459  24.310  1.00  0.00     0.040 A 
ATOM     19  C   UNL A   1      33.171  20.176  25.618  1.00  0.00    -0.038 A 
ATOM     20  C   UNL A   1      32.722  20.537  24.338  1.00  0.00     0.005 A 
ATOM     21  C   UNL A   1      33.951  21.103  26.316  1.00  0.00     0.005 A 
ATOM     22  C   UNL A   1      33.235  21.665  23.694  1.00  0.00     0.014 A 
ATOM     23  C   UNL A   1      34.508  22.211  25.653  1.00  0.00     0.014 A 
BRANCH  19  24
ATOM     24  C   UNL A   1      32.812  18.789  26.125  1.00  0.00     0.104 C 
BRANCH  24  25
ATOM     25  S   UNL A   1      32.552  17.313  24.960  1.00  0.00    -0.161 SA
ATOM     26  C   UNL A   1      34.026  16.886  22.893  1.00  0.00     0.085 C 
ENDBRANCH  24  25
ENDBRANCH  19  24
ENDBRANCH  15  18
ENDBRANCH   9  14
ENDBRANCH   6   8
ENDBRANCH   5   6
ENDBRANCH   4   5
ENDBRANCH   3   4
ENDBRANCH   2   3
ENDBRANCH   1   2
BRANCH   1  27
ATOM     27  C   UNL A   1      33.291  34.456  28.651  1.00  0.00     0.188 C 
BRANCH  27  28
ATOM     28  O   UNL A   1      33.364  34.425  30.058  1.00  0.00    -0.376 OA
BRANCH  28  29
ATOM     29  C   UNL A   1      34.421  33.724  30.697  1.00  0.00     0.202 C 
BRANCH  29  30
ATOM     30  C   UNL A   1      35.878  33.667  30.196  1.00  0.00     0.261 C 
BRANCH  30  31
ATOM     31  O   UNL A   1      36.193  32.643  29.250  1.00  0.00    -0.460 OA
BRANCH  31  32
ATOM     32  C   UNL A   1      36.371  31.419  29.795  1.00  0.00     0.338 C 
ATOM     33  O   UNL A   1      35.943  30.350  29.401  1.00  0.00    -0.246 OA
BRANCH  32  34
ATOM     34  C   UNL A   1      37.338  31.544  30.883  1.00  0.00     0.060 A 
ATOM     35  C   UNL A   1      39.092  31.800  30.534  1.00  0.00     0.016 A 
ATOM     36  C   UNL A   1      36.803  31.115  32.544  1.00  0.00     0.016 A 
ATOM     37  C   UNL A   1      40.318  31.628  31.862  1.00  0.00     0.010 A 
ATOM     38  C   UNL A   1      38.015  30.921  33.846  1.00  0.00     0.010 A 
ATOM     39  C   UNL A   1      39.778  31.148  33.512  1.00  0.00    -0.014 A 
BRANCH  39  40
ATOM     40  C   UNL A   1      40.775  30.893  34.564  1.00  0.00     0.031 A 
ATOM     41  C   UNL A   1      41.407  29.533  34.647  1.00  0.00     0.074 A 
ATOM     42  C   UNL A   1      41.156  31.899  35.371  1.00  0.00     0.049 A 
ATOM     43  N   UNL A   1      42.412  29.141  35.384  1.00  0.00    -0.248 NA
ATOM     44  C   UNL A   1      40.906  28.491  33.737  1.00  0.00     0.031 C 
ATOM     45  C   UNL A   1      40.654  33.276  35.334  1.00  0.00     0.029 A 
ATOM     46  N   UNL A   1      42.058  31.908  36.402  1.00  0.00    -0.354 N 
ATOM     47  C   UNL A   1      42.689  27.843  34.973  1.00  0.00     0.074 A 
ATOM     48  C   UNL A   1      41.761  27.504  33.930  1.00  0.00     0.031 C 
ATOM     49  C   UNL A   1      41.245  33.989  36.305  1.00  0.00     0.029 A 
ATOM     50  C   UNL A   1      42.116  33.107  37.070  1.00  0.00     0.049 A 
ATOM     51  H   UNL A   1      42.611  31.129  36.643  1.00  0.00     0.167 HD
ATOM     52  C   UNL A   1      43.614  26.985  35.449  1.00  0.00     0.031 A 
ATOM     53  C   UNL A   1      42.762  33.434  38.204  1.00  0.00     0.031 A 
ATOM     54  C   UNL A   1      44.395  27.256  36.615  1.00  0.00     0.049 A 
ATOM     55  C   UNL A   1      43.604  32.377  38.865  1.00  0.00     0.074 A 
ATOM     56  C   UNL A   1      45.272  26.422  37.278  1.00  0.00     0.029 A 
ATOM     57  N   UNL A   1      44.329  28.441  37.334  1.00  0.00    -0.354 N 
ATOM     58  N   UNL A   1      43.868  31.158  38.456  1.00  0.00    -0.248 NA
ATOM     59  C   UNL A   1      44.233  32.735  40.142  1.00  0.00     0.031 C 
ATOM     60  C   UNL A   1      45.663  27.068  38.453  1.00  0.00     0.029 A 
ATOM     61  C   UNL A   1      45.111  28.342  38.466  1.00  0.00     0.049 A 
ATOM     62  H   UNL A   1      43.805  29.233  37.075  1.00  0.00     0.167 HD
ATOM     63  C   UNL A   1      44.722  30.616  39.404  1.00  0.00     0.074 A 
ATOM     64  C   UNL A   1      44.936  31.643  40.405  1.00  0.00     0.031 C 
ATOM     65  C   UNL A   1      45.289  29.385  39.445  1.00  0.00     0.031 A 
BRANCH  52  66
ATOM     66  C   UNL A   1      43.703  25.640  34.787  1.00  0.00    -0.014 A 
ATOM     67  C   UNL A   1      42.887  24.570  35.190  1.00  0.00     0.009 A 
ATOM     68  C   UNL A   1      44.640  25.434  33.764  1.00  0.00     0.009 A 
ATOM     69  C   UNL A   1      43.020  23.316  34.587  1.00  0.00     0.001 A 
ATOM     70  C   UNL A   1      44.753  24.188  33.147  1.00  0.00     0.001 A 
ATOM     71  C   UNL A   1      43.948  23.129  33.563  1.00  0.00     0.000 A 
ENDBRANCH  52  66
BRANCH  53  72
ATOM     72  C   UNL A   1      42.576  34.778  38.818  1.00  0.00    -0.014 A 
ATOM     73  C   UNL A   1      41.477  35.056  39.644  1.00  0.00     0.009 A 
ATOM     74  C   UNL A   1      43.503  35.804  38.565  1.00  0.00     0.009 A 
ATOM     75  C   UNL A   1      41.300  36.335  40.182  1.00  0.00     0.001 A 
ATOM     76  C   UNL A   1      43.342  37.071  39.131  1.00  0.00     0.001 A 
ATOM     77  C   UNL A   1      42.235  37.339  39.930  1.00  0.00     0.000 A 
ENDBRANCH  53  72
BRANCH  65  78
ATOM     78  C   UNL A   1      46.231  29.100  40.576  1.00  0.00    -0.014 A 
ATOM     79  C   UNL A   1      47.570  29.516  40.543  1.00  0.00     0.009 A 
ATOM     80  C   UNL A   1      45.741  28.458  41.726  1.00  0.00     0.009 A 
ATOM     81  C   UNL A   1      48.409  29.261  41.628  1.00  0.00     0.001 A 
ATOM     82  C   UNL A   1      46.570  28.242  42.823  1.00  0.00     0.001 A 
ATOM     83  C   UNL A   1      47.907  28.633  42.768  1.00  0.00     0.000 A 
ENDBRANCH  65  78
ENDBRANCH  39  40
ENDBRANCH  32  34
ENDBRANCH  31  32
ENDBRANCH  30  31
ENDBRANCH  29  30
ENDBRANCH  28  29
ENDBRANCH  27  28
ENDBRANCH   1  27
TORSDOF 21
ENDMDL
MODEL 3
REMARK VINA RESULT:      -8.8      4.834      9.892
REMARK SMILES CSCc1ccc(C(=O)Nc2cc(C)c(C(=O)OCCOCCOCCOC(=O)c3ccc(-c4c5nc(c(-c6ccccc6)c6ccc([nH]6)c(-c6ccccc6)c6nc(c(-c7ccccc7)c7ccc4[nH]7)C=C6)C=C5)cc3)s2)cc1
REMARK SMILES IDX 22 1 21 2 20 3 19 4 18 5 16 6 17 7 15 8 11 9 12 10 78 11
REMARK SMILES IDX 13 12 14 13 10 14 8 15 9 16 7 18 4 19 5 20 80 21 6 22 79 23
REMARK SMILES IDX 3 24 2 25 1 26 23 27 24 28 25 29 26 30 27 31 28 32 29 33
REMARK SMILES IDX 30 34 31 35 77 36 32 37 76 38 33 39 34 40 35 41 70 42 36 43
REMARK SMILES IDX 75 44 69 45 71 46 37 47 74 48 68 49 67 50 38 52 60 53 45 54
REMARK SMILES IDX 59 55 46 56 49 57 58 58 72 59 47 60 48 61 57 63 73 64 50 65
REMARK SMILES IDX 39 66 40 67 44 68 41 69 43 70 42 71 61 72 62 73 66 74 63 75
REMARK SMILES IDX 65 76 64 77 51 78 52 79 56 80 53 81 55 82 54 83
REMARK H PARENT 10 17 71 51 49 62
REMARK Flexibility Score: inf
ROOT
ATOM      1  C   UNL A   1      33.055  36.360  31.335  1.00  0.00     0.188 C 
ENDROOT
BRANCH   1   2
ATOM      2  O   UNL A   1      32.871  35.505  32.431  1.00  0.00    -0.376 OA
BRANCH   2   3
ATOM      3  C   UNL A   1      33.898  34.603  32.786  1.00  0.00     0.202 C 
BRANCH   3   4
ATOM      4  C   UNL A   1      35.292  35.028  33.297  1.00  0.00     0.261 C 
BRANCH   4   5
ATOM      5  O   UNL A   1      36.350  34.058  33.247  1.00  0.00    -0.459 OA
BRANCH   5   6
ATOM      6  C   UNL A   1      36.616  33.475  32.034  1.00  0.00     0.348 C 
ATOM      7  O   UNL A   1      35.755  32.971  31.323  1.00  0.00    -0.245 OA
BRANCH   6   8
ATOM      8  C   UNL A   1      38.017  33.681  31.661  1.00  0.00     0.117 A 
ATOM      9  C   UNL A   1      40.437  34.186  31.832  1.00  0.00     0.096 A 
ATOM     10  C   UNL A   1      40.039  33.981  30.538  1.00  0.00     0.042 A 
ATOM     11  S   UNL A   1      39.152  34.061  32.925  1.00  0.00    -0.111 S 
ATOM     12  C   UNL A   1      38.670  33.561  30.434  1.00  0.00    -0.023 A 
ATOM     13  C   UNL A   1      38.088  33.118  29.130  1.00  0.00     0.046 C 
BRANCH   9  14
ATOM     14  N   UNL A   1      41.628  34.721  32.244  1.00  0.00    -0.314 N 
ATOM     15  C   UNL A   1      42.912  34.472  31.818  1.00  0.00     0.256 C 
ATOM     16  O   UNL A   1      43.830  35.008  32.447  1.00  0.00    -0.269 OA
ATOM     17  H   UNL A   1      41.553  35.392  32.962  1.00  0.00     0.171 HD
BRANCH  15  18
ATOM     18  C   UNL A   1      43.270  33.670  30.614  1.00  0.00     0.040 A 
ATOM     19  C   UNL A   1      43.799  31.964  28.419  1.00  0.00    -0.038 A 
ATOM     20  C   UNL A   1      43.769  31.461  29.729  1.00  0.00     0.005 A 
ATOM     21  C   UNL A   1      43.808  33.353  28.260  1.00  0.00     0.005 A 
ATOM     22  C   UNL A   1      43.510  32.303  30.811  1.00  0.00     0.014 A 
ATOM     23  C   UNL A   1      43.496  34.199  29.340  1.00  0.00     0.014 A 
BRANCH  19  24
ATOM     24  C   UNL A   1      43.775  30.961  27.277  1.00  0.00     0.104 C 
BRANCH  24  25
ATOM     25  S   UNL A   1      44.201  29.128  27.522  1.00  0.00    -0.161 SA
ATOM     26  C   UNL A   1      46.620  28.260  27.666  1.00  0.00     0.085 C 
ENDBRANCH  24  25
ENDBRANCH  19  24
ENDBRANCH  15  18
ENDBRANCH   9  14
ENDBRANCH   6   8
ENDBRANCH   5   6
ENDBRANCH   4   5
ENDBRANCH   3   4
ENDBRANCH   2   3
ENDBRANCH   1   2
BRANCH   1  27
ATOM     27  C   UNL A   1      32.895  35.805  29.902  1.00  0.00     0.188 C 
BRANCH  27  28
ATOM     28  O   UNL A   1      33.958  35.932  28.987  1.00  0.00    -0.376 OA
BRANCH  28  29
ATOM     29  C   UNL A   1      34.223  34.886  28.062  1.00  0.00     0.202 C 
BRANCH  29  30
ATOM     30  C   UNL A   1      33.882  33.399  28.282  1.00  0.00     0.261 C 
BRANCH  30  31
ATOM     31  O   UNL A   1      34.877  32.448  27.900  1.00  0.00    -0.460 OA
BRANCH  31  32
ATOM     32  C   UNL A   1      34.481  31.159  28.000  1.00  0.00     0.338 C 
ATOM     33  O   UNL A   1      33.392  30.684  27.736  1.00  0.00    -0.246 OA
BRANCH  32  34
ATOM     34  C   UNL A   1      35.652  30.349  28.324  1.00  0.00     0.060 A 
ATOM     35  C   UNL A   1      35.907  29.722  29.999  1.00  0.00     0.016 A 
ATOM     36  C   UNL A   1      36.983  30.264  27.119  1.00  0.00     0.016 A 
ATOM     37  C   UNL A   1      37.506  29.003  30.468  1.00  0.00     0.010 A 
ATOM     38  C   UNL A   1      38.567  29.577  27.590  1.00  0.00     0.010 A 
ATOM     39  C   UNL A   1      38.849  28.968  29.270  1.00  0.00    -0.014 A 
BRANCH  39  40
ATOM     40  C   UNL A   1      40.182  28.495  29.677  1.00  0.00     0.031 A 
ATOM     41  C   UNL A   1      40.849  29.139  30.858  1.00  0.00     0.074 A 
ATOM     42  C   UNL A   1      40.735  27.449  29.038  1.00  0.00     0.049 A 
ATOM     43  N   UNL A   1      41.939  28.777  31.481  1.00  0.00    -0.248 NA
ATOM     44  C   UNL A   1      40.177  30.293  31.477  1.00  0.00     0.031 C 
ATOM     45  C   UNL A   1      40.144  26.708  27.918  1.00  0.00     0.029 A 
ATOM     46  N   UNL A   1      41.943  26.833  29.236  1.00  0.00    -0.354 N 
ATOM     47  C   UNL A   1      42.032  29.615  32.585  1.00  0.00     0.074 A 
ATOM     48  C   UNL A   1      40.903  30.503  32.559  1.00  0.00     0.031 C 
ATOM     49  C   UNL A   1      40.996  25.748  27.524  1.00  0.00     0.029 A 
ATOM     50  C   UNL A   1      42.214  25.848  28.317  1.00  0.00     0.049 A 
ATOM     51  H   UNL A   1      42.558  27.073  29.966  1.00  0.00     0.167 HD
ATOM     52  C   UNL A   1      42.997  29.672  33.525  1.00  0.00     0.031 A 
ATOM     53  C   UNL A   1      43.343  25.146  28.111  1.00  0.00     0.031 A 
ATOM     54  C   UNL A   1      44.214  28.926  33.432  1.00  0.00     0.049 A 
ATOM     55  C   UNL A   1      44.509  25.403  29.026  1.00  0.00     0.074 A 
ATOM     56  C   UNL A   1      45.326  28.988  34.246  1.00  0.00     0.029 A 
ATOM     57  N   UNL A   1      44.498  28.029  32.412  1.00  0.00    -0.354 N 
ATOM     58  N   UNL A   1      44.576  26.189  30.076  1.00  0.00    -0.248 NA
ATOM     59  C   UNL A   1      45.753  24.682  28.731  1.00  0.00     0.031 C 
ATOM     60  C   UNL A   1      46.321  28.201  33.661  1.00  0.00     0.029 A 
ATOM     61  C   UNL A   1      45.791  27.570  32.544  1.00  0.00     0.049 A 
ATOM     62  H   UNL A   1      43.870  27.761  31.702  1.00  0.00     0.167 HD
ATOM     63  C   UNL A   1      45.855  26.031  30.587  1.00  0.00     0.074 A 
ATOM     64  C   UNL A   1      46.527  25.068  29.735  1.00  0.00     0.031 C 
ATOM     65  C   UNL A   1      46.426  26.619  31.668  1.00  0.00     0.031 A 
BRANCH  52  66
ATOM     66  C   UNL A   1      42.819  30.676  34.627  1.00  0.00    -0.014 A 
ATOM     67  C   UNL A   1      42.190  30.332  35.836  1.00  0.00     0.009 A 
ATOM     68  C   UNL A   1      43.259  31.994  34.440  1.00  0.00     0.009 A 
ATOM     69  C   UNL A   1      41.996  31.296  36.828  1.00  0.00     0.001 A 
ATOM     70  C   UNL A   1      43.086  32.948  35.443  1.00  0.00     0.001 A 
ATOM     71  C   UNL A   1      42.450  32.600  36.633  1.00  0.00     0.000 A 
ENDBRANCH  52  66
BRANCH  53  72
ATOM     72  C   UNL A   1      43.448  24.207  26.960  1.00  0.00    -0.014 A 
ATOM     73  C   UNL A   1      43.110  22.852  27.092  1.00  0.00     0.009 A 
ATOM     74  C   UNL A   1      43.905  24.668  25.713  1.00  0.00     0.009 A 
ATOM     75  C   UNL A   1      43.250  21.979  26.008  1.00  0.00     0.001 A 
ATOM     76  C   UNL A   1      44.010  23.801  24.623  1.00  0.00     0.001 A 
ATOM     77  C   UNL A   1      43.693  22.454  24.775  1.00  0.00     0.000 A 
ENDBRANCH  53  72
BRANCH  65  78
ATOM     78  C   UNL A   1      47.823  26.200  32.019  1.00  0.00    -0.014 A 
ATOM     79  C   UNL A   1      48.944  26.821  31.451  1.00  0.00     0.009 A 
ATOM     80  C   UNL A   1      48.010  25.207  32.994  1.00  0.00     0.009 A 
ATOM     81  C   UNL A   1      50.228  26.426  31.826  1.00  0.00     0.001 A 
ATOM     82  C   UNL A   1      49.293  24.844  33.397  1.00  0.00     0.001 A 
ATOM     83  C   UNL A   1      50.401  25.446  32.803  1.00  0.00     0.000 A 
ENDBRANCH  65  78
ENDBRANCH  39  40
ENDBRANCH  32  34
ENDBRANCH  31  32
ENDBRANCH  30  31
ENDBRANCH  29  30
ENDBRANCH  28  29
ENDBRANCH  27  28
ENDBRANCH   1  27
TORSDOF 21
ENDMDL
