MODEL 1
REMARK VINA RESULT:      -8.1      0.000      0.000
REMARK SMILES Cc1ccc(-c2cc(Cl)cc3c2O[C@H](C(F)(F)F)C(C(=O)OCCOCCOCCOC(=O)c2ccc(-c4c5nc(c(-c6ccccc6)c6ccc([nH]6)c(-c6ccccc6)c6nc(c(-c7ccccc7)c7ccc4[nH]7)C=C6)C=C5)cc2)=C3)cc1F
REMARK SMILES IDX 27 1 26 2 25 3 24 4 23 5 22 6 20 7 21 8 19 9 6 10 7 11 12 12
REMARK SMILES IDX 8 13 11 14 13 15 9 16 10 17 82 18 14 19 5 20 1 21 2 22 3 23
REMARK SMILES IDX 84 24 4 25 83 26 85 27 15 28 16 29 17 30 18 31 28 32 29 33
REMARK SMILES IDX 30 34 31 35 32 36 33 37 34 38 35 39 81 40 36 41 80 42 37 43
REMARK SMILES IDX 38 44 39 45 74 46 40 47 79 48 73 49 75 50 41 51 78 52 72 53
REMARK SMILES IDX 71 54 42 56 64 57 49 58 63 59 50 60 53 61 62 62 76 63 51 64
REMARK SMILES IDX 52 65 61 67 77 68 54 69 43 70 44 71 48 72 45 73 47 74 46 75
REMARK SMILES IDX 65 76 66 77 70 78 67 79 69 80 68 81 55 82 56 83 60 84 57 85
REMARK SMILES IDX 59 86 58 87
REMARK H PARENT 75 55 53 66
REMARK Flexibility Score: inf
ROOT
ATOM      1  C   UNL A   1      33.143  36.839  31.977  1.00  0.00     0.188 C 
ENDROOT
BRANCH   1   2
ATOM      2  C   UNL A   1      32.586  35.503  32.513  1.00  0.00     0.188 C 
BRANCH   2   3
ATOM      3  O   UNL A   1      33.460  34.460  32.881  1.00  0.00    -0.376 OA
BRANCH   3   4
ATOM      4  C   UNL A   1      34.815  34.710  33.212  1.00  0.00     0.202 C 
BRANCH   4   5
ATOM      5  C   UNL A   1      35.542  34.083  34.411  1.00  0.00     0.261 C 
BRANCH   5   6
ATOM      6  O   UNL A   1      36.887  33.658  34.176  1.00  0.00    -0.460 OA
BRANCH   6   7
ATOM      7  C   UNL A   1      37.053  32.317  34.072  1.00  0.00     0.338 C 
ATOM      8  O   UNL A   1      36.241  31.508  33.656  1.00  0.00    -0.246 OA
BRANCH   7   9
ATOM      9  C   UNL A   1      38.451  31.970  34.390  1.00  0.00     0.087 C 
ATOM     10  C   UNL A   1      42.270  30.726  35.568  1.00  0.00     0.026 A 
ATOM     11  C   UNL A   1      42.772  29.522  35.040  1.00  0.00     0.033 A 
ATOM     12  C   UNL A   1      41.024  31.194  35.093  1.00  0.00     0.135 A 
ATOM     13  C   UNL A   1      42.052  28.810  34.081  1.00  0.00     0.042 A 
ATOM     14  C   UNL A   1      40.281  30.445  34.172  1.00  0.00     0.019 A 
ATOM     15  O   UNL A   1      40.598  32.411  35.557  1.00  0.00    -0.475 OA
ATOM     16  Cl  UNL A   1      42.688  27.340  33.454  1.00  0.00    -0.084 Cl
ATOM     17  C   UNL A   1      40.808  29.260  33.650  1.00  0.00     0.032 A 
ATOM     18  C   UNL A   1      38.935  30.860  33.819  1.00  0.00     0.027 C 
ATOM     19  C   UNL A   1      39.244  32.858  35.306  1.00  0.00     0.316 C 
BRANCH  10  20
ATOM     20  C   UNL A   1      43.011  31.425  36.638  1.00  0.00    -0.012 A 
ATOM     21  C   UNL A   1      45.261  33.427  39.750  1.00  0.00     0.047 C 
ATOM     22  C   UNL A   1      44.462  32.751  38.679  1.00  0.00    -0.015 A 
ATOM     23  C   UNL A   1      43.101  32.473  38.842  1.00  0.00     0.007 A 
ATOM     24  C   UNL A   1      45.080  32.373  37.488  1.00  0.00     0.126 A 
ATOM     25  C   UNL A   1      42.385  31.817  37.832  1.00  0.00     0.009 A 
ATOM     26  C   UNL A   1      44.373  31.729  36.479  1.00  0.00     0.048 A 
ATOM     27  F   UNL A   1      46.383  32.631  37.302  1.00  0.00    -0.207 F 
ENDBRANCH  10  20
BRANCH  19  28
ATOM     28  C   UNL A   1      38.550  33.076  36.658  1.00  0.00     0.430 C 
ATOM     29  F   UNL A   1      39.376  32.778  37.688  1.00  0.00    -0.167 F 
ATOM     30  F   UNL A   1      38.167  34.363  36.824  1.00  0.00    -0.167 F 
ATOM     31  F   UNL A   1      37.447  32.304  36.784  1.00  0.00    -0.167 F 
ENDBRANCH  19  28
ENDBRANCH   7   9
ENDBRANCH   6   7
ENDBRANCH   5   6
ENDBRANCH   4   5
ENDBRANCH   3   4
ENDBRANCH   2   3
ENDBRANCH   1   2
BRANCH   1  32
ATOM     32  O   UNL A   1      32.583  37.446  30.834  1.00  0.00    -0.376 OA
BRANCH  32  33
ATOM     33  C   UNL A   1      33.308  37.465  29.614  1.00  0.00     0.202 C 
BRANCH  33  34
ATOM     34  C   UNL A   1      33.329  36.289  28.623  1.00  0.00     0.261 C 
BRANCH  34  35
ATOM     35  O   UNL A   1      32.696  35.081  29.061  1.00  0.00    -0.460 OA
BRANCH  35  36
ATOM     36  C   UNL A   1      33.031  33.963  28.360  1.00  0.00     0.338 C 
ATOM     37  O   UNL A   1      32.455  33.482  27.412  1.00  0.00    -0.246 OA
BRANCH  36  38
ATOM     38  C   UNL A   1      34.367  33.518  28.813  1.00  0.00     0.060 A 
ATOM     39  C   UNL A   1      34.533  32.910  30.056  1.00  0.00     0.016 A 
ATOM     40  C   UNL A   1      35.467  33.730  27.969  1.00  0.00     0.016 A 
ATOM     41  C   UNL A   1      35.808  32.499  30.451  1.00  0.00     0.010 A 
ATOM     42  C   UNL A   1      36.744  33.335  28.375  1.00  0.00     0.010 A 
ATOM     43  C   UNL A   1      36.920  32.701  29.612  1.00  0.00    -0.014 A 
BRANCH  43  44
ATOM     44  C   UNL A   1      38.231  32.101  29.963  1.00  0.00     0.031 A 
ATOM     45  C   UNL A   1      38.640  30.746  29.476  1.00  0.00     0.074 A 
ATOM     46  C   UNL A   1      39.061  32.817  30.744  1.00  0.00     0.049 A 
ATOM     47  N   UNL A   1      39.789  30.136  29.629  1.00  0.00    -0.248 NA
ATOM     48  C   UNL A   1      37.642  29.970  28.724  1.00  0.00     0.031 C 
ATOM     49  C   UNL A   1      38.761  34.142  31.287  1.00  0.00     0.029 A 
ATOM     50  N   UNL A   1      40.326  32.543  31.201  1.00  0.00    -0.354 N 
ATOM     51  C   UNL A   1      39.667  28.920  28.972  1.00  0.00     0.074 A 
ATOM     52  C   UNL A   1      38.313  28.853  28.461  1.00  0.00     0.031 C 
ATOM     53  C   UNL A   1      39.826  34.584  31.973  1.00  0.00     0.029 A 
ATOM     54  C   UNL A   1      40.869  33.562  31.948  1.00  0.00     0.049 A 
ATOM     55  H   UNL A   1      40.799  31.701  31.014  1.00  0.00     0.167 HD
ATOM     56  C   UNL A   1      40.608  27.962  28.797  1.00  0.00     0.031 A 
ATOM     57  C   UNL A   1      42.074  33.670  32.542  1.00  0.00     0.031 A 
ATOM     58  C   UNL A   1      41.946  28.027  29.330  1.00  0.00     0.049 A 
ATOM     59  C   UNL A   1      43.075  32.560  32.388  1.00  0.00     0.074 A 
ATOM     60  C   UNL A   1      42.976  27.114  29.170  1.00  0.00     0.029 A 
ATOM     61  N   UNL A   1      42.440  29.047  30.129  1.00  0.00    -0.354 N 
ATOM     62  N   UNL A   1      42.972  31.451  31.696  1.00  0.00    -0.248 NA
ATOM     63  C   UNL A   1      44.361  32.720  33.079  1.00  0.00     0.031 C 
ATOM     64  C   UNL A   1      44.062  27.540  29.936  1.00  0.00     0.029 A 
ATOM     65  C   UNL A   1      43.744  28.764  30.502  1.00  0.00     0.049 A 
ATOM     66  H   UNL A   1      41.938  29.852  30.393  1.00  0.00     0.167 HD
ATOM     67  C   UNL A   1      44.188  30.796  31.846  1.00  0.00     0.074 A 
ATOM     68  C   UNL A   1      45.019  31.637  32.681  1.00  0.00     0.031 C 
ATOM     69  C   UNL A   1      44.573  29.603  31.330  1.00  0.00     0.031 A 
BRANCH  56  70
ATOM     70  C   UNL A   1      40.253  26.747  27.980  1.00  0.00    -0.014 A 
ATOM     71  C   UNL A   1      39.593  25.663  28.583  1.00  0.00     0.009 A 
ATOM     72  C   UNL A   1      40.702  26.615  26.657  1.00  0.00     0.009 A 
ATOM     73  C   UNL A   1      39.412  24.466  27.888  1.00  0.00     0.001 A 
ATOM     74  C   UNL A   1      40.492  25.426  25.953  1.00  0.00     0.001 A 
ATOM     75  C   UNL A   1      39.860  24.349  26.573  1.00  0.00     0.000 A 
ENDBRANCH  56  70
BRANCH  57  76
ATOM     76  C   UNL A   1      42.403  34.909  33.295  1.00  0.00    -0.014 A 
ATOM     77  C   UNL A   1      43.071  35.974  32.668  1.00  0.00     0.009 A 
ATOM     78  C   UNL A   1      42.103  35.012  34.662  1.00  0.00     0.009 A 
ATOM     79  C   UNL A   1      43.459  37.099  33.398  1.00  0.00     0.001 A 
ATOM     80  C   UNL A   1      42.460  36.154  35.382  1.00  0.00     0.001 A 
ATOM     81  C   UNL A   1      43.148  37.190  34.752  1.00  0.00     0.000 A 
ENDBRANCH  57  76
BRANCH  69  82
ATOM     82  C   UNL A   1      45.967  29.115  31.628  1.00  0.00    -0.014 A 
ATOM     83  C   UNL A   1      46.990  29.313  30.685  1.00  0.00     0.009 A 
ATOM     84  C   UNL A   1      46.239  28.345  32.768  1.00  0.00     0.009 A 
ATOM     85  C   UNL A   1      48.244  28.727  30.861  1.00  0.00     0.001 A 
ATOM     86  C   UNL A   1      47.506  27.788  32.960  1.00  0.00     0.001 A 
ATOM     87  C   UNL A   1      48.501  27.967  32.000  1.00  0.00     0.000 A 
ENDBRANCH  69  82
ENDBRANCH  43  44
ENDBRANCH  36  38
ENDBRANCH  35  36
ENDBRANCH  34  35
ENDBRANCH  33  34
ENDBRANCH  32  33
ENDBRANCH   1  32
TORSDOF 19
ENDMDL
MODEL 2
REMARK VINA RESULT:      -8.1      5.880      9.883
REMARK SMILES Cc1ccc(-c2cc(Cl)cc3c2O[C@H](C(F)(F)F)C(C(=O)OCCOCCOCCOC(=O)c2ccc(-c4c5nc(c(-c6ccccc6)c6ccc([nH]6)c(-c6ccccc6)c6nc(c(-c7ccccc7)c7ccc4[nH]7)C=C6)C=C5)cc2)=C3)cc1F
REMARK SMILES IDX 27 1 26 2 25 3 24 4 23 5 22 6 20 7 21 8 19 9 6 10 7 11 12 12
REMARK SMILES IDX 8 13 11 14 13 15 9 16 10 17 82 18 14 19 5 20 1 21 2 22 3 23
REMARK SMILES IDX 84 24 4 25 83 26 85 27 15 28 16 29 17 30 18 31 28 32 29 33
REMARK SMILES IDX 30 34 31 35 32 36 33 37 34 38 35 39 81 40 36 41 80 42 37 43
REMARK SMILES IDX 38 44 39 45 74 46 40 47 79 48 73 49 75 50 41 51 78 52 72 53
REMARK SMILES IDX 71 54 42 56 64 57 49 58 63 59 50 60 53 61 62 62 76 63 51 64
REMARK SMILES IDX 52 65 61 67 77 68 54 69 43 70 44 71 48 72 45 73 47 74 46 75
REMARK SMILES IDX 65 76 66 77 70 78 67 79 69 80 68 81 55 82 56 83 60 84 57 85
REMARK SMILES IDX 59 86 58 87
REMARK H PARENT 75 55 53 66
REMARK Flexibility Score: inf
ROOT
ATOM      1  C   UNL A   1      34.685  33.524  28.395  1.00  0.00     0.188 C 
ENDROOT
BRANCH   1   2
ATOM      2  C   UNL A   1      33.861  32.263  28.058  1.00  0.00     0.188 C 
BRANCH   2   3
ATOM      3  O   UNL A   1      32.807  32.325  27.123  1.00  0.00    -0.376 OA
BRANCH   3   4
ATOM      4  C   UNL A   1      31.925  31.234  26.928  1.00  0.00     0.202 C 
BRANCH   4   5
ATOM      5  C   UNL A   1      32.332  29.892  26.302  1.00  0.00     0.261 C 
BRANCH   5   6
ATOM      6  O   UNL A   1      31.269  28.970  26.046  1.00  0.00    -0.460 OA
BRANCH   6   7
ATOM      7  C   UNL A   1      31.306  28.378  24.828  1.00  0.00     0.338 C 
ATOM      8  O   UNL A   1      31.397  28.933  23.745  1.00  0.00    -0.246 OA
BRANCH   7   9
ATOM      9  C   UNL A   1      31.387  26.915  24.997  1.00  0.00     0.087 C 
ATOM     10  C   UNL A   1      31.740  22.834  25.860  1.00  0.00     0.026 A 
ATOM     11  C   UNL A   1      30.694  22.208  26.562  1.00  0.00     0.033 A 
ATOM     12  C   UNL A   1      31.575  24.186  25.482  1.00  0.00     0.135 A 
ATOM     13  C   UNL A   1      29.532  22.909  26.882  1.00  0.00     0.042 A 
ATOM     14  C   UNL A   1      30.429  24.899  25.858  1.00  0.00     0.019 A 
ATOM     15  O   UNL A   1      32.569  24.747  24.725  1.00  0.00    -0.475 OA
ATOM     16  Cl  UNL A   1      28.270  22.118  27.744  1.00  0.00    -0.084 Cl
ATOM     17  C   UNL A   1      29.396  24.251  26.541  1.00  0.00     0.032 A 
ATOM     18  C   UNL A   1      30.348  26.327  25.602  1.00  0.00     0.027 C 
ATOM     19  C   UNL A   1      32.593  26.177  24.490  1.00  0.00     0.316 C 
BRANCH  10  20
ATOM     20  C   UNL A   1      32.994  22.098  25.597  1.00  0.00    -0.012 A 
ATOM     21  C   UNL A   1      36.715  20.019  24.834  1.00  0.00     0.047 C 
ATOM     22  C   UNL A   1      35.416  20.713  25.100  1.00  0.00    -0.015 A 
ATOM     23  C   UNL A   1      34.215  20.267  24.539  1.00  0.00     0.007 A 
ATOM     24  C   UNL A   1      35.388  21.843  25.916  1.00  0.00     0.126 A 
ATOM     25  C   UNL A   1      33.018  20.952  24.785  1.00  0.00     0.009 A 
ATOM     26  C   UNL A   1      34.203  22.522  26.171  1.00  0.00     0.048 A 
ATOM     27  F   UNL A   1      36.524  22.292  26.471  1.00  0.00    -0.207 F 
ENDBRANCH  10  20
BRANCH  19  28
ATOM     28  C   UNL A   1      33.905  26.735  25.057  1.00  0.00     0.430 C 
ATOM     29  F   UNL A   1      33.775  27.065  26.363  1.00  0.00    -0.167 F 
ATOM     30  F   UNL A   1      34.910  25.832  24.981  1.00  0.00    -0.167 F 
ATOM     31  F   UNL A   1      34.304  27.845  24.395  1.00  0.00    -0.167 F 
ENDBRANCH  19  28
ENDBRANCH   7   9
ENDBRANCH   6   7
ENDBRANCH   5   6
ENDBRANCH   4   5
ENDBRANCH   3   4
ENDBRANCH   2   3
ENDBRANCH   1   2
BRANCH   1  32
ATOM     32  O   UNL A   1      35.269  33.683  29.669  1.00  0.00    -0.376 OA
BRANCH  32  33
ATOM     33  C   UNL A   1      34.484  34.151  30.755  1.00  0.00     0.202 C 
BRANCH  33  34
ATOM     34  C   UNL A   1      34.411  33.440  32.116  1.00  0.00     0.261 C 
BRANCH  34  35
ATOM     35  O   UNL A   1      35.054  32.163  32.198  1.00  0.00    -0.460 OA
BRANCH  35  36
ATOM     36  C   UNL A   1      36.189  32.131  32.950  1.00  0.00     0.338 C 
ATOM     37  O   UNL A   1      36.309  32.406  34.121  1.00  0.00    -0.246 OA
BRANCH  36  38
ATOM     38  C   UNL A   1      37.255  31.490  32.150  1.00  0.00     0.060 A 
ATOM     39  C   UNL A   1      37.235  31.551  30.758  1.00  0.00     0.016 A 
ATOM     40  C   UNL A   1      38.281  30.810  32.821  1.00  0.00     0.016 A 
ATOM     41  C   UNL A   1      38.259  30.937  30.032  1.00  0.00     0.010 A 
ATOM     42  C   UNL A   1      39.293  30.180  32.093  1.00  0.00     0.010 A 
ATOM     43  C   UNL A   1      39.298  30.255  30.693  1.00  0.00    -0.014 A 
BRANCH  43  44
ATOM     44  C   UNL A   1      40.469  29.766  29.924  1.00  0.00     0.031 A 
ATOM     45  C   UNL A   1      40.543  28.368  29.394  1.00  0.00     0.074 A 
ATOM     46  C   UNL A   1      41.484  30.624  29.709  1.00  0.00     0.049 A 
ATOM     47  N   UNL A   1      41.462  27.833  28.630  1.00  0.00    -0.248 NA
ATOM     48  C   UNL A   1      39.456  27.449  29.762  1.00  0.00     0.031 C 
ATOM     49  C   UNL A   1      41.525  32.006  30.191  1.00  0.00     0.029 A 
ATOM     50  N   UNL A   1      42.661  30.472  29.021  1.00  0.00    -0.354 N 
ATOM     51  C   UNL A   1      41.055  26.526  28.402  1.00  0.00     0.074 A 
ATOM     52  C   UNL A   1      39.830  26.331  29.150  1.00  0.00     0.031 C 
ATOM     53  C   UNL A   1      42.651  32.587  29.753  1.00  0.00     0.029 A 
ATOM     54  C   UNL A   1      43.427  31.612  28.990  1.00  0.00     0.049 A 
ATOM     55  H   UNL A   1      42.932  29.629  28.592  1.00  0.00     0.167 HD
ATOM     56  C   UNL A   1      41.644  25.587  27.621  1.00  0.00     0.031 A 
ATOM     57  C   UNL A   1      44.618  31.856  28.407  1.00  0.00     0.031 A 
ATOM     58  C   UNL A   1      42.876  25.784  26.899  1.00  0.00     0.049 A 
ATOM     59  C   UNL A   1      45.280  30.774  27.603  1.00  0.00     0.074 A 
ATOM     60  C   UNL A   1      43.524  24.896  26.056  1.00  0.00     0.029 A 
ATOM     61  N   UNL A   1      43.651  26.933  26.938  1.00  0.00    -0.354 N 
ATOM     62  N   UNL A   1      44.844  29.568  27.330  1.00  0.00    -0.248 NA
ATOM     63  C   UNL A   1      46.590  31.086  27.014  1.00  0.00     0.031 C 
ATOM     64  C   UNL A   1      44.727  25.475  25.651  1.00  0.00     0.029 A 
ATOM     65  C   UNL A   1      44.790  26.759  26.168  1.00  0.00     0.049 A 
ATOM     66  H   UNL A   1      43.427  27.750  27.440  1.00  0.00     0.167 HD
ATOM     67  C   UNL A   1      45.808  28.989  26.515  1.00  0.00     0.074 A 
ATOM     68  C   UNL A   1      46.847  29.980  26.325  1.00  0.00     0.031 C 
ATOM     69  C   UNL A   1      45.823  27.747  25.975  1.00  0.00     0.031 A 
BRANCH  56  70
ATOM     70  C   UNL A   1      40.968  24.249  27.476  1.00  0.00    -0.014 A 
ATOM     71  C   UNL A   1      41.513  23.115  28.100  1.00  0.00     0.009 A 
ATOM     72  C   UNL A   1      39.881  24.084  26.603  1.00  0.00     0.009 A 
ATOM     73  C   UNL A   1      41.002  21.843  27.835  1.00  0.00     0.001 A 
ATOM     74  C   UNL A   1      39.352  22.814  26.363  1.00  0.00     0.001 A 
ATOM     75  C   UNL A   1      39.921  21.694  26.968  1.00  0.00     0.000 A 
ENDBRANCH  56  70
BRANCH  57  76
ATOM     76  C   UNL A   1      45.224  33.208  28.533  1.00  0.00    -0.014 A 
ATOM     77  C   UNL A   1      45.841  33.608  29.730  1.00  0.00     0.009 A 
ATOM     78  C   UNL A   1      45.138  34.128  27.477  1.00  0.00     0.009 A 
ATOM     79  C   UNL A   1      46.331  34.907  29.878  1.00  0.00     0.001 A 
ATOM     80  C   UNL A   1      45.660  35.415  27.615  1.00  0.00     0.001 A 
ATOM     81  C   UNL A   1      46.245  35.808  28.819  1.00  0.00     0.000 A 
ENDBRANCH  57  76
BRANCH  69  82
ATOM     82  C   UNL A   1      46.988  27.362  25.101  1.00  0.00    -0.014 A 
ATOM     83  C   UNL A   1      48.082  26.681  25.661  1.00  0.00     0.009 A 
ATOM     84  C   UNL A   1      47.067  27.786  23.767  1.00  0.00     0.009 A 
ATOM     85  C   UNL A   1      49.241  26.461  24.915  1.00  0.00     0.001 A 
ATOM     86  C   UNL A   1      48.215  27.533  23.011  1.00  0.00     0.001 A 
ATOM     87  C   UNL A   1      49.305  26.885  23.590  1.00  0.00     0.000 A 
ENDBRANCH  69  82
ENDBRANCH  43  44
ENDBRANCH  36  38
ENDBRANCH  35  36
ENDBRANCH  34  35
ENDBRANCH  33  34
ENDBRANCH  32  33
ENDBRANCH   1  32
TORSDOF 19
ENDMDL
MODEL 3
REMARK VINA RESULT:      -7.8      7.544     13.627
REMARK SMILES Cc1ccc(-c2cc(Cl)cc3c2O[C@H](C(F)(F)F)C(C(=O)OCCOCCOCCOC(=O)c2ccc(-c4c5nc(c(-c6ccccc6)c6ccc([nH]6)c(-c6ccccc6)c6nc(c(-c7ccccc7)c7ccc4[nH]7)C=C6)C=C5)cc2)=C3)cc1F
REMARK SMILES IDX 27 1 26 2 25 3 24 4 23 5 22 6 20 7 21 8 19 9 6 10 7 11 12 12
REMARK SMILES IDX 8 13 11 14 13 15 9 16 10 17 82 18 14 19 5 20 1 21 2 22 3 23
REMARK SMILES IDX 84 24 4 25 83 26 85 27 15 28 16 29 17 30 18 31 28 32 29 33
REMARK SMILES IDX 30 34 31 35 32 36 33 37 34 38 35 39 81 40 36 41 80 42 37 43
REMARK SMILES IDX 38 44 39 45 74 46 40 47 79 48 73 49 75 50 41 51 78 52 72 53
REMARK SMILES IDX 71 54 42 56 64 57 49 58 63 59 50 60 53 61 62 62 76 63 51 64
REMARK SMILES IDX 52 65 61 67 77 68 54 69 43 70 44 71 48 72 45 73 47 74 46 75
REMARK SMILES IDX 65 76 66 77 70 78 67 79 69 80 68 81 55 82 56 83 60 84 57 85
REMARK SMILES IDX 59 86 58 87
REMARK H PARENT 75 55 53 66
REMARK Flexibility Score: inf
ROOT
ATOM      1  C   UNL A   1      39.259  20.135  25.575  1.00  0.00     0.188 C 
ENDROOT
BRANCH   1   2
ATOM      2  C   UNL A   1      39.363  21.569  26.136  1.00  0.00     0.188 C 
BRANCH   2   3
ATOM      3  O   UNL A   1      38.242  22.424  26.130  1.00  0.00    -0.376 OA
BRANCH   3   4
ATOM      4  C   UNL A   1      37.147  22.204  25.257  1.00  0.00     0.202 C 
BRANCH   4   5
ATOM      5  C   UNL A   1      35.840  21.509  25.666  1.00  0.00     0.261 C 
BRANCH   5   6
ATOM      6  O   UNL A   1      34.636  22.234  25.406  1.00  0.00    -0.460 OA
BRANCH   6   7
ATOM      7  C   UNL A   1      34.559  22.791  24.173  1.00  0.00     0.338 C 
ATOM      8  O   UNL A   1      34.791  22.246  23.107  1.00  0.00    -0.246 OA
BRANCH   7   9
ATOM      9  C   UNL A   1      33.981  24.144  24.282  1.00  0.00     0.087 C 
ATOM     10  C   UNL A   1      32.145  27.850  24.924  1.00  0.00     0.026 A 
ATOM     11  C   UNL A   1      32.706  28.716  25.880  1.00  0.00     0.033 A 
ATOM     12  C   UNL A   1      32.822  26.644  24.637  1.00  0.00     0.135 A 
ATOM     13  C   UNL A   1      33.895  28.385  26.530  1.00  0.00     0.042 A 
ATOM     14  C   UNL A   1      33.984  26.291  25.336  1.00  0.00     0.019 A 
ATOM     15  O   UNL A   1      32.302  25.859  23.641  1.00  0.00    -0.475 OA
ATOM     16  Cl  UNL A   1      34.558  29.461  27.696  1.00  0.00    -0.084 Cl
ATOM     17  C   UNL A   1      34.532  27.176  26.270  1.00  0.00     0.032 A 
ATOM     18  C   UNL A   1      34.575  24.978  25.144  1.00  0.00     0.027 C 
ATOM     19  C   UNL A   1      32.793  24.511  23.439  1.00  0.00     0.316 C 
BRANCH  10  20
ATOM     20  C   UNL A   1      30.847  28.184  24.302  1.00  0.00    -0.012 A 
ATOM     21  C   UNL A   1      27.032  29.074  22.455  1.00  0.00     0.047 C 
ATOM     22  C   UNL A   1      28.351  28.792  23.104  1.00  0.00    -0.015 A 
ATOM     23  C   UNL A   1      29.372  29.747  23.142  1.00  0.00     0.007 A 
ATOM     24  C   UNL A   1      28.588  27.544  23.679  1.00  0.00     0.126 A 
ATOM     25  C   UNL A   1      30.605  29.445  23.735  1.00  0.00     0.009 A 
ATOM     26  C   UNL A   1      29.806  27.242  24.276  1.00  0.00     0.048 A 
ATOM     27  F   UNL A   1      27.626  26.609  23.662  1.00  0.00    -0.207 F 
ENDBRANCH  10  20
BRANCH  19  28
ATOM     28  C   UNL A   1      31.619  23.540  23.624  1.00  0.00     0.430 C 
ATOM     29  F   UNL A   1      30.447  24.108  23.255  1.00  0.00    -0.167 F 
ATOM     30  F   UNL A   1      31.766  22.425  22.871  1.00  0.00    -0.167 F 
ATOM     31  F   UNL A   1      31.493  23.146  24.912  1.00  0.00    -0.167 F 
ENDBRANCH  19  28
ENDBRANCH   7   9
ENDBRANCH   6   7
ENDBRANCH   5   6
ENDBRANCH   4   5
ENDBRANCH   3   4
ENDBRANCH   2   3
ENDBRANCH   1   2
BRANCH   1  32
ATOM     32  O   UNL A   1      40.321  19.221  25.735  1.00  0.00    -0.376 OA
BRANCH  32  33
ATOM     33  C   UNL A   1      41.587  19.677  26.183  1.00  0.00     0.202 C 
BRANCH  33  34
ATOM     34  C   UNL A   1      42.920  19.069  25.717  1.00  0.00     0.261 C 
BRANCH  34  35
ATOM     35  O   UNL A   1      43.406  19.510  24.444  1.00  0.00    -0.460 OA
BRANCH  35  36
ATOM     36  C   UNL A   1      44.752  19.707  24.372  1.00  0.00     0.338 C 
ATOM     37  O   UNL A   1      45.587  18.956  23.924  1.00  0.00    -0.246 OA
BRANCH  36  38
ATOM     38  C   UNL A   1      45.034  21.110  24.746  1.00  0.00     0.060 A 
ATOM     39  C   UNL A   1      44.895  22.137  23.814  1.00  0.00     0.016 A 
ATOM     40  C   UNL A   1      45.453  21.385  26.055  1.00  0.00     0.016 A 
ATOM     41  C   UNL A   1      45.166  23.452  24.200  1.00  0.00     0.010 A 
ATOM     42  C   UNL A   1      45.743  22.698  26.434  1.00  0.00     0.010 A 
ATOM     43  C   UNL A   1      45.583  23.743  25.513  1.00  0.00    -0.014 A 
BRANCH  43  44
ATOM     44  C   UNL A   1      45.693  25.153  25.960  1.00  0.00     0.031 A 
ATOM     45  C   UNL A   1      44.514  25.915  26.480  1.00  0.00     0.074 A 
ATOM     46  C   UNL A   1      46.900  25.745  25.886  1.00  0.00     0.049 A 
ATOM     47  N   UNL A   1      44.483  27.122  26.988  1.00  0.00    -0.248 NA
ATOM     48  C   UNL A   1      43.204  25.250  26.426  1.00  0.00     0.031 C 
ATOM     49  C   UNL A   1      48.115  25.102  25.383  1.00  0.00     0.029 A 
ATOM     50  N   UNL A   1      47.310  27.004  26.246  1.00  0.00    -0.354 N 
ATOM     51  C   UNL A   1      43.160  27.353  27.340  1.00  0.00     0.074 A 
ATOM     52  C   UNL A   1      42.409  26.181  26.941  1.00  0.00     0.031 C 
ATOM     53  C   UNL A   1      49.142  25.957  25.502  1.00  0.00     0.029 A 
ATOM     54  C   UNL A   1      48.654  27.217  26.054  1.00  0.00     0.049 A 
ATOM     55  H   UNL A   1      46.701  27.688  26.607  1.00  0.00     0.167 HD
ATOM     56  C   UNL A   1      42.634  28.437  27.959  1.00  0.00     0.031 A 
ATOM     57  C   UNL A   1      49.415  28.301  26.303  1.00  0.00     0.031 A 
ATOM     58  C   UNL A   1      43.387  29.609  28.331  1.00  0.00     0.049 A 
ATOM     59  C   UNL A   1      48.790  29.515  26.927  1.00  0.00     0.074 A 
ATOM     60  C   UNL A   1      42.937  30.740  28.994  1.00  0.00     0.029 A 
ATOM     61  N   UNL A   1      44.733  29.811  28.069  1.00  0.00    -0.354 N 
ATOM     62  N   UNL A   1      47.554  29.689  27.328  1.00  0.00    -0.248 NA
ATOM     63  C   UNL A   1      49.661  30.677  27.149  1.00  0.00     0.031 C 
ATOM     64  C   UNL A   1      43.987  31.656  29.060  1.00  0.00     0.029 A 
ATOM     65  C   UNL A   1      45.118  31.064  28.519  1.00  0.00     0.049 A 
ATOM     66  H   UNL A   1      45.327  29.162  27.627  1.00  0.00     0.167 HD
ATOM     67  C   UNL A   1      47.506  30.965  27.875  1.00  0.00     0.074 A 
ATOM     68  C   UNL A   1      48.840  31.517  27.768  1.00  0.00     0.031 C 
ATOM     69  C   UNL A   1      46.447  31.613  28.417  1.00  0.00     0.031 A 
BRANCH  56  70
ATOM     70  C   UNL A   1      41.167  28.426  28.302  1.00  0.00    -0.014 A 
ATOM     71  C   UNL A   1      40.698  27.629  29.359  1.00  0.00     0.009 A 
ATOM     72  C   UNL A   1      40.234  29.086  27.486  1.00  0.00     0.009 A 
ATOM     73  C   UNL A   1      39.327  27.473  29.577  1.00  0.00     0.001 A 
ATOM     74  C   UNL A   1      38.865  28.952  27.726  1.00  0.00     0.001 A 
ATOM     75  C   UNL A   1      38.412  28.136  28.761  1.00  0.00     0.000 A 
ENDBRANCH  56  70
BRANCH  57  76
ATOM     76  C   UNL A   1      50.870  28.251  25.997  1.00  0.00    -0.014 A 
ATOM     77  C   UNL A   1      51.792  27.818  26.965  1.00  0.00     0.009 A 
ATOM     78  C   UNL A   1      51.352  28.691  24.755  1.00  0.00     0.009 A 
ATOM     79  C   UNL A   1      53.163  27.856  26.708  1.00  0.00     0.001 A 
ATOM     80  C   UNL A   1      52.722  28.695  24.488  1.00  0.00     0.001 A 
ATOM     81  C   UNL A   1      53.627  28.289  25.468  1.00  0.00     0.000 A 
ENDBRANCH  57  76
BRANCH  69  82
ATOM     82  C   UNL A   1      46.662  32.999  28.964  1.00  0.00    -0.014 A 
ATOM     83  C   UNL A   1      46.962  33.171  30.327  1.00  0.00     0.009 A 
ATOM     84  C   UNL A   1      46.439  34.136  28.174  1.00  0.00     0.009 A 
ATOM     85  C   UNL A   1      47.002  34.447  30.892  1.00  0.00     0.001 A 
ATOM     86  C   UNL A   1      46.514  35.414  28.734  1.00  0.00     0.001 A 
ATOM     87  C   UNL A   1      46.780  35.567  30.094  1.00  0.00     0.000 A 
ENDBRANCH  69  82
ENDBRANCH  43  44
ENDBRANCH  36  38
ENDBRANCH  35  36
ENDBRANCH  34  35
ENDBRANCH  33  34
ENDBRANCH  32  33
ENDBRANCH   1  32
TORSDOF 19
ENDMDL
