MODEL 1
REMARK VINA RESULT:      -8.0      0.000      0.000
REMARK SMILES O=C(Cc1ccc(-c2ccc(Cl)cc2)cc1)OCCOCCOCCOC(=O)c1ccc(-c2c3nc(c(-c4ccccc4)c4ccc([nH]4)c(-c4ccccc4)c4nc(c(-c5ccccc5)c5ccc2[nH]5)C=C4)C=C3)cc1
REMARK SMILES IDX 21 1 20 2 19 3 18 4 17 5 2 6 1 7 3 8 4 9 5 10 16 11 6 12
REMARK SMILES IDX 15 13 7 14 8 15 9 16 14 17 10 18 13 19 11 20 12 21 22 22
REMARK SMILES IDX 23 23 24 24 25 25 26 26 27 27 28 28 29 29 30 30 76 31 31 32
REMARK SMILES IDX 75 33 32 34 33 35 34 36 69 37 35 38 74 39 68 40 70 41 36 42
REMARK SMILES IDX 73 43 67 44 66 45 37 47 59 48 44 49 58 50 45 51 48 52 57 53
REMARK SMILES IDX 71 54 46 55 47 56 56 58 72 59 49 60 38 61 39 62 43 63 40 64
REMARK SMILES IDX 42 65 41 66 60 67 61 68 65 69 62 70 64 71 63 72 50 73 51 74
REMARK SMILES IDX 55 75 52 76 54 77 53 78
REMARK H PARENT 70 46 48 57
REMARK Flexibility Score: inf
ROOT
ATOM      1  C   UNL A   1      35.169  33.780  34.199  1.00  0.00     0.188 C 
ENDROOT
BRANCH   1   2
ATOM      2  O   UNL A   1      36.500  33.459  33.848  1.00  0.00    -0.376 OA
BRANCH   2   3
ATOM      3  C   UNL A   1      37.183  32.413  34.529  1.00  0.00     0.202 C 
BRANCH   3   4
ATOM      4  C   UNL A   1      38.020  32.662  35.789  1.00  0.00     0.261 C 
BRANCH   4   5
ATOM      5  O   UNL A   1      39.031  31.723  36.237  1.00  0.00    -0.463 OA
BRANCH   5   6
ATOM      6  C   UNL A   1      40.371  31.773  36.334  1.00  0.00     0.310 C 
ATOM      7  O   UNL A   1      40.899  31.571  37.428  1.00  0.00    -0.252 OA
BRANCH   6   8
ATOM      8  C   UNL A   1      41.216  32.020  35.113  1.00  0.00     0.158 C 
BRANCH   8   9
ATOM      9  C   UNL A   1      41.787  30.742  34.572  1.00  0.00    -0.037 A 
ATOM     10  C   UNL A   1      40.949  29.771  34.029  1.00  0.00     0.005 A 
ATOM     11  C   UNL A   1      43.145  30.453  34.727  1.00  0.00     0.005 A 
ATOM     12  C   UNL A   1      41.426  28.498  33.758  1.00  0.00     0.009 A 
ATOM     13  C   UNL A   1      43.631  29.179  34.421  1.00  0.00     0.009 A 
ATOM     14  C   UNL A   1      42.766  28.164  33.982  1.00  0.00    -0.018 A 
BRANCH  14  15
ATOM     15  C   UNL A   1      43.194  26.763  33.846  1.00  0.00    -0.018 A 
ATOM     16  C   UNL A   1      42.808  25.792  34.788  1.00  0.00     0.010 A 
ATOM     17  C   UNL A   1      44.095  26.383  32.837  1.00  0.00     0.010 A 
ATOM     18  C   UNL A   1      43.332  24.499  34.748  1.00  0.00     0.021 A 
ATOM     19  C   UNL A   1      44.612  25.087  32.785  1.00  0.00     0.021 A 
ATOM     20  C   UNL A   1      44.235  24.154  33.747  1.00  0.00     0.041 A 
ATOM     21  Cl  UNL A   1      44.903  22.570  33.712  1.00  0.00    -0.084 Cl
ENDBRANCH  14  15
ENDBRANCH   8   9
ENDBRANCH   6   8
ENDBRANCH   5   6
ENDBRANCH   4   5
ENDBRANCH   3   4
ENDBRANCH   2   3
ENDBRANCH   1   2
BRANCH   1  22
ATOM     22  C   UNL A   1      34.773  35.245  34.025  1.00  0.00     0.188 C 
BRANCH  22  23
ATOM     23  O   UNL A   1      34.824  35.771  32.709  1.00  0.00    -0.376 OA
BRANCH  23  24
ATOM     24  C   UNL A   1      33.879  36.785  32.363  1.00  0.00     0.202 C 
BRANCH  24  25
ATOM     25  C   UNL A   1      32.864  36.498  31.245  1.00  0.00     0.261 C 
BRANCH  25  26
ATOM     26  O   UNL A   1      32.796  35.107  30.858  1.00  0.00    -0.460 OA
BRANCH  26  27
ATOM     27  C   UNL A   1      33.230  34.819  29.614  1.00  0.00     0.338 C 
ATOM     28  O   UNL A   1      32.779  35.251  28.549  1.00  0.00    -0.246 OA
BRANCH  27  29
ATOM     29  C   UNL A   1      34.423  33.963  29.650  1.00  0.00     0.060 A 
ATOM     30  C   UNL A   1      34.528  32.968  30.632  1.00  0.00     0.016 A 
ATOM     31  C   UNL A   1      35.507  34.256  28.822  1.00  0.00     0.016 A 
ATOM     32  C   UNL A   1      35.728  32.270  30.797  1.00  0.00     0.010 A 
ATOM     33  C   UNL A   1      36.712  33.568  29.002  1.00  0.00     0.010 A 
ATOM     34  C   UNL A   1      36.839  32.590  30.005  1.00  0.00    -0.014 A 
BRANCH  34  35
ATOM     35  C   UNL A   1      38.174  32.001  30.281  1.00  0.00     0.031 A 
ATOM     36  C   UNL A   1      39.211  32.828  30.993  1.00  0.00     0.074 A 
ATOM     37  C   UNL A   1      38.486  30.766  29.851  1.00  0.00     0.049 A 
ATOM     38  N   UNL A   1      40.479  32.571  31.195  1.00  0.00    -0.248 NA
ATOM     39  C   UNL A   1      38.759  34.113  31.550  1.00  0.00     0.031 C 
ATOM     40  C   UNL A   1      37.567  29.843  29.187  1.00  0.00     0.029 A 
ATOM     41  N   UNL A   1      39.681  30.089  29.882  1.00  0.00    -0.354 N 
ATOM     42  C   UNL A   1      40.982  33.669  31.879  1.00  0.00     0.074 A 
ATOM     43  C   UNL A   1      39.886  34.597  32.057  1.00  0.00     0.031 C 
ATOM     44  C   UNL A   1      38.242  28.732  28.841  1.00  0.00     0.029 A 
ATOM     45  C   UNL A   1      39.646  28.887  29.219  1.00  0.00     0.049 A 
ATOM     46  H   UNL A   1      40.484  30.433  30.335  1.00  0.00     0.167 HD
ATOM     47  C   UNL A   1      42.247  33.892  32.311  1.00  0.00     0.031 A 
ATOM     48  C   UNL A   1      40.640  28.030  28.909  1.00  0.00     0.031 A 
ATOM     49  C   UNL A   1      43.342  32.976  32.133  1.00  0.00     0.049 A 
ATOM     50  C   UNL A   1      42.055  28.345  29.322  1.00  0.00     0.074 A 
ATOM     51  C   UNL A   1      44.646  33.099  32.584  1.00  0.00     0.029 A 
ATOM     52  N   UNL A   1      43.268  31.783  31.438  1.00  0.00    -0.354 N 
ATOM     53  N   UNL A   1      42.510  29.364  30.010  1.00  0.00    -0.248 NA
ATOM     54  C   UNL A   1      43.097  27.392  28.906  1.00  0.00     0.031 C 
ATOM     55  C   UNL A   1      45.378  32.009  32.104  1.00  0.00     0.029 A 
ATOM     56  C   UNL A   1      44.515  31.181  31.404  1.00  0.00     0.049 A 
ATOM     57  H   UNL A   1      42.452  31.416  31.028  1.00  0.00     0.167 HD
ATOM     58  C   UNL A   1      43.880  29.162  30.125  1.00  0.00     0.074 A 
ATOM     59  C   UNL A   1      44.183  27.917  29.454  1.00  0.00     0.031 C 
ATOM     60  C   UNL A   1      44.807  29.942  30.734  1.00  0.00     0.031 A 
BRANCH  47  61
ATOM     61  C   UNL A   1      42.537  35.201  32.985  1.00  0.00    -0.014 A 
ATOM     62  C   UNL A   1      43.220  36.231  32.321  1.00  0.00     0.009 A 
ATOM     63  C   UNL A   1      42.048  35.431  34.281  1.00  0.00     0.009 A 
ATOM     64  C   UNL A   1      43.424  37.460  32.952  1.00  0.00     0.001 A 
ATOM     65  C   UNL A   1      42.234  36.668  34.899  1.00  0.00     0.001 A 
ATOM     66  C   UNL A   1      42.926  37.680  34.237  1.00  0.00     0.000 A 
ENDBRANCH  47  61
BRANCH  48  67
ATOM     67  C   UNL A   1      40.356  26.815  28.101  1.00  0.00    -0.014 A 
ATOM     68  C   UNL A   1      39.750  25.691  28.681  1.00  0.00     0.009 A 
ATOM     69  C   UNL A   1      40.743  26.756  26.752  1.00  0.00     0.009 A 
ATOM     70  C   UNL A   1      39.566  24.523  27.935  1.00  0.00     0.001 A 
ATOM     71  C   UNL A   1      40.531  25.599  26.001  1.00  0.00     0.001 A 
ATOM     72  C   UNL A   1      39.953  24.479  26.597  1.00  0.00     0.000 A 
ENDBRANCH  48  67
BRANCH  60  73
ATOM     73  C   UNL A   1      46.232  29.467  30.726  1.00  0.00    -0.014 A 
ATOM     74  C   UNL A   1      47.116  29.839  29.700  1.00  0.00     0.009 A 
ATOM     75  C   UNL A   1      46.714  28.688  31.790  1.00  0.00     0.009 A 
ATOM     76  C   UNL A   1      48.448  29.420  29.731  1.00  0.00     0.001 A 
ATOM     77  C   UNL A   1      48.052  28.294  31.831  1.00  0.00     0.001 A 
ATOM     78  C   UNL A   1      48.917  28.656  30.798  1.00  0.00     0.000 A 
ENDBRANCH  60  73
ENDBRANCH  34  35
ENDBRANCH  27  29
ENDBRANCH  26  27
ENDBRANCH  25  26
ENDBRANCH  24  25
ENDBRANCH  23  24
ENDBRANCH  22  23
ENDBRANCH   1  22
TORSDOF 19
ENDMDL
MODEL 2
REMARK VINA RESULT:      -7.7      5.153     10.245
REMARK SMILES O=C(Cc1ccc(-c2ccc(Cl)cc2)cc1)OCCOCCOCCOC(=O)c1ccc(-c2c3nc(c(-c4ccccc4)c4ccc([nH]4)c(-c4ccccc4)c4nc(c(-c5ccccc5)c5ccc2[nH]5)C=C4)C=C3)cc1
REMARK SMILES IDX 21 1 20 2 19 3 18 4 17 5 2 6 1 7 3 8 4 9 5 10 16 11 6 12
REMARK SMILES IDX 15 13 7 14 8 15 9 16 14 17 10 18 13 19 11 20 12 21 22 22
REMARK SMILES IDX 23 23 24 24 25 25 26 26 27 27 28 28 29 29 30 30 76 31 31 32
REMARK SMILES IDX 75 33 32 34 33 35 34 36 69 37 35 38 74 39 68 40 70 41 36 42
REMARK SMILES IDX 73 43 67 44 66 45 37 47 59 48 44 49 58 50 45 51 48 52 57 53
REMARK SMILES IDX 71 54 46 55 47 56 56 58 72 59 49 60 38 61 39 62 43 63 40 64
REMARK SMILES IDX 42 65 41 66 60 67 61 68 65 69 62 70 64 71 63 72 50 73 51 74
REMARK SMILES IDX 55 75 52 76 54 77 53 78
REMARK H PARENT 70 46 48 57
REMARK Flexibility Score: inf
ROOT
ATOM      1  C   UNL A   1      31.797  28.791  27.463  1.00  0.00     0.188 C 
ENDROOT
BRANCH   1   2
ATOM      2  O   UNL A   1      31.524  27.417  27.653  1.00  0.00    -0.376 OA
BRANCH   2   3
ATOM      3  C   UNL A   1      31.146  26.608  26.547  1.00  0.00     0.202 C 
BRANCH   3   4
ATOM      4  C   UNL A   1      32.004  25.436  26.054  1.00  0.00     0.261 C 
BRANCH   4   5
ATOM      5  O   UNL A   1      32.100  25.093  24.648  1.00  0.00    -0.463 OA
BRANCH   5   6
ATOM      6  C   UNL A   1      32.968  25.407  23.670  1.00  0.00     0.310 C 
ATOM      7  O   UNL A   1      33.247  26.592  23.477  1.00  0.00    -0.252 OA
BRANCH   6   8
ATOM      8  C   UNL A   1      33.629  24.326  22.858  1.00  0.00     0.158 C 
BRANCH   8   9
ATOM      9  C   UNL A   1      33.298  22.961  23.387  1.00  0.00    -0.037 A 
ATOM     10  C   UNL A   1      33.864  22.511  24.578  1.00  0.00     0.005 A 
ATOM     11  C   UNL A   1      32.528  22.075  22.628  1.00  0.00     0.005 A 
ATOM     12  C   UNL A   1      33.769  21.178  24.946  1.00  0.00     0.009 A 
ATOM     13  C   UNL A   1      32.404  20.740  23.020  1.00  0.00     0.009 A 
ATOM     14  C   UNL A   1      33.068  20.257  24.159  1.00  0.00    -0.018 A 
BRANCH  14  15
ATOM     15  C   UNL A   1      33.133  18.827  24.491  1.00  0.00    -0.018 A 
ATOM     16  C   UNL A   1      33.425  17.865  23.506  1.00  0.00     0.010 A 
ATOM     17  C   UNL A   1      32.788  18.372  25.775  1.00  0.00     0.010 A 
ATOM     18  C   UNL A   1      33.340  16.500  23.782  1.00  0.00     0.021 A 
ATOM     19  C   UNL A   1      32.715  17.006  26.059  1.00  0.00     0.021 A 
ATOM     20  C   UNL A   1      32.981  16.077  25.057  1.00  0.00     0.041 A 
ATOM     21  Cl  UNL A   1      32.848  14.396  25.392  1.00  0.00    -0.084 Cl
ENDBRANCH  14  15
ENDBRANCH   8   9
ENDBRANCH   6   8
ENDBRANCH   5   6
ENDBRANCH   4   5
ENDBRANCH   3   4
ENDBRANCH   2   3
ENDBRANCH   1   2
BRANCH   1  22
ATOM     22  C   UNL A   1      31.797  29.273  26.013  1.00  0.00     0.188 C 
BRANCH  22  23
ATOM     23  O   UNL A   1      32.435  30.512  25.750  1.00  0.00    -0.376 OA
BRANCH  23  24
ATOM     24  C   UNL A   1      32.724  31.358  26.864  1.00  0.00     0.202 C 
BRANCH  24  25
ATOM     25  C   UNL A   1      31.824  32.578  27.119  1.00  0.00     0.261 C 
BRANCH  25  26
ATOM     26  O   UNL A   1      32.548  33.824  27.241  1.00  0.00    -0.460 OA
BRANCH  26  27
ATOM     27  C   UNL A   1      33.028  34.108  28.469  1.00  0.00     0.338 C 
ATOM     28  O   UNL A   1      32.500  34.818  29.330  1.00  0.00    -0.246 OA
BRANCH  27  29
ATOM     29  C   UNL A   1      34.270  33.373  28.739  1.00  0.00     0.060 A 
ATOM     30  C   UNL A   1      34.378  32.608  29.909  1.00  0.00     0.016 A 
ATOM     31  C   UNL A   1      35.384  33.575  27.923  1.00  0.00     0.016 A 
ATOM     32  C   UNL A   1      35.608  32.053  30.273  1.00  0.00     0.010 A 
ATOM     33  C   UNL A   1      36.617  33.034  28.300  1.00  0.00     0.010 A 
ATOM     34  C   UNL A   1      36.745  32.291  29.488  1.00  0.00    -0.014 A 
BRANCH  34  35
ATOM     35  C   UNL A   1      38.095  31.876  29.945  1.00  0.00     0.031 A 
ATOM     36  C   UNL A   1      38.666  30.569  29.465  1.00  0.00     0.074 A 
ATOM     37  C   UNL A   1      38.785  32.623  30.824  1.00  0.00     0.049 A 
ATOM     38  N   UNL A   1      39.748  29.944  29.857  1.00  0.00    -0.248 NA
ATOM     39  C   UNL A   1      37.918  29.873  28.406  1.00  0.00     0.031 C 
ATOM     40  C   UNL A   1      38.370  33.928  31.337  1.00  0.00     0.029 A 
ATOM     41  N   UNL A   1      39.972  32.368  31.468  1.00  0.00    -0.354 N 
ATOM     42  C   UNL A   1      39.799  28.774  29.112  1.00  0.00     0.074 A 
ATOM     43  C   UNL A   1      38.640  28.771  28.246  1.00  0.00     0.031 C 
ATOM     44  C   UNL A   1      39.272  34.344  32.244  1.00  0.00     0.029 A 
ATOM     45  C   UNL A   1      40.299  33.316  32.407  1.00  0.00     0.049 A 
ATOM     46  H   UNL A   1      40.533  31.583  31.275  1.00  0.00     0.167 HD
ATOM     47  C   UNL A   1      40.723  27.784  29.153  1.00  0.00     0.031 A 
ATOM     48  C   UNL A   1      41.286  33.332  33.325  1.00  0.00     0.031 A 
ATOM     49  C   UNL A   1      41.875  27.778  30.014  1.00  0.00     0.049 A 
ATOM     50  C   UNL A   1      42.247  32.174  33.412  1.00  0.00     0.074 A 
ATOM     51  C   UNL A   1      42.890  26.838  30.085  1.00  0.00     0.029 A 
ATOM     52  N   UNL A   1      42.155  28.744  30.964  1.00  0.00    -0.354 N 
ATOM     53  N   UNL A   1      42.313  31.096  32.670  1.00  0.00    -0.248 NA
ATOM     54  C   UNL A   1      43.267  32.234  34.472  1.00  0.00     0.031 C 
ATOM     55  C   UNL A   1      43.751  27.203  31.123  1.00  0.00     0.029 A 
ATOM     56  C   UNL A   1      43.301  28.399  31.660  1.00  0.00     0.049 A 
ATOM     57  H   UNL A   1      41.620  29.555  31.121  1.00  0.00     0.167 HD
ATOM     58  C   UNL A   1      43.389  30.364  33.159  1.00  0.00     0.074 A 
ATOM     59  C   UNL A   1      43.959  31.127  34.248  1.00  0.00     0.031 C 
ATOM     60  C   UNL A   1      43.862  29.164  32.742  1.00  0.00     0.031 A 
BRANCH  47  61
ATOM     61  C   UNL A   1      40.509  26.589  28.268  1.00  0.00    -0.014 A 
ATOM     62  C   UNL A   1      39.747  25.491  28.694  1.00  0.00     0.009 A 
ATOM     63  C   UNL A   1      41.016  26.603  26.959  1.00  0.00     0.009 A 
ATOM     64  C   UNL A   1      39.515  24.419  27.829  1.00  0.00     0.001 A 
ATOM     65  C   UNL A   1      40.763  25.541  26.090  1.00  0.00     0.001 A 
ATOM     66  C   UNL A   1      40.017  24.448  26.527  1.00  0.00     0.000 A 
ENDBRANCH  47  61
BRANCH  48  67
ATOM     67  C   UNL A   1      41.384  34.451  34.299  1.00  0.00    -0.014 A 
ATOM     68  C   UNL A   1      40.610  34.458  35.468  1.00  0.00     0.009 A 
ATOM     69  C   UNL A   1      42.219  35.549  34.033  1.00  0.00     0.009 A 
ATOM     70  C   UNL A   1      40.646  35.554  36.334  1.00  0.00     0.001 A 
ATOM     71  C   UNL A   1      42.276  36.629  34.915  1.00  0.00     0.001 A 
ATOM     72  C   UNL A   1      41.480  36.636  36.059  1.00  0.00     0.000 A 
ENDBRANCH  48  67
BRANCH  60  73
ATOM     73  C   UNL A   1      45.067  28.607  33.444  1.00  0.00    -0.014 A 
ATOM     74  C   UNL A   1      44.934  27.703  34.510  1.00  0.00     0.009 A 
ATOM     75  C   UNL A   1      46.355  28.943  32.995  1.00  0.00     0.009 A 
ATOM     76  C   UNL A   1      46.066  27.165  35.125  1.00  0.00     0.001 A 
ATOM     77  C   UNL A   1      47.483  28.383  33.595  1.00  0.00     0.001 A 
ATOM     78  C   UNL A   1      47.338  27.499  34.663  1.00  0.00     0.000 A 
ENDBRANCH  60  73
ENDBRANCH  34  35
ENDBRANCH  27  29
ENDBRANCH  26  27
ENDBRANCH  25  26
ENDBRANCH  24  25
ENDBRANCH  23  24
ENDBRANCH  22  23
ENDBRANCH   1  22
TORSDOF 19
ENDMDL
MODEL 3
REMARK VINA RESULT:      -7.7      4.194      9.333
REMARK SMILES O=C(Cc1ccc(-c2ccc(Cl)cc2)cc1)OCCOCCOCCOC(=O)c1ccc(-c2c3nc(c(-c4ccccc4)c4ccc([nH]4)c(-c4ccccc4)c4nc(c(-c5ccccc5)c5ccc2[nH]5)C=C4)C=C3)cc1
REMARK SMILES IDX 21 1 20 2 19 3 18 4 17 5 2 6 1 7 3 8 4 9 5 10 16 11 6 12
REMARK SMILES IDX 15 13 7 14 8 15 9 16 14 17 10 18 13 19 11 20 12 21 22 22
REMARK SMILES IDX 23 23 24 24 25 25 26 26 27 27 28 28 29 29 30 30 76 31 31 32
REMARK SMILES IDX 75 33 32 34 33 35 34 36 69 37 35 38 74 39 68 40 70 41 36 42
REMARK SMILES IDX 73 43 67 44 66 45 37 47 59 48 44 49 58 50 45 51 48 52 57 53
REMARK SMILES IDX 71 54 46 55 47 56 56 58 72 59 49 60 38 61 39 62 43 63 40 64
REMARK SMILES IDX 42 65 41 66 60 67 61 68 65 69 62 70 64 71 63 72 50 73 51 74
REMARK SMILES IDX 55 75 52 76 54 77 53 78
REMARK H PARENT 70 46 48 57
REMARK Flexibility Score: inf
ROOT
ATOM      1  C   UNL A   1      35.440  33.229  29.566  1.00  0.00     0.188 C 
ENDROOT
BRANCH   1   2
ATOM      2  O   UNL A   1      34.439  32.375  29.049  1.00  0.00    -0.376 OA
BRANCH   2   3
ATOM      3  C   UNL A   1      34.605  31.777  27.769  1.00  0.00     0.202 C 
BRANCH   3   4
ATOM      4  C   UNL A   1      34.587  30.258  27.564  1.00  0.00     0.261 C 
BRANCH   4   5
ATOM      5  O   UNL A   1      33.350  29.500  27.551  1.00  0.00    -0.463 OA
BRANCH   5   6
ATOM      6  C   UNL A   1      32.309  29.431  26.703  1.00  0.00     0.310 C 
ATOM      7  O   UNL A   1      32.077  30.389  25.963  1.00  0.00    -0.252 OA
BRANCH   6   8
ATOM      8  C   UNL A   1      31.471  28.184  26.621  1.00  0.00     0.158 C 
BRANCH   8   9
ATOM      9  C   UNL A   1      32.257  27.028  26.076  1.00  0.00    -0.037 A 
ATOM     10  C   UNL A   1      31.946  25.724  26.455  1.00  0.00     0.005 A 
ATOM     11  C   UNL A   1      33.392  27.251  25.292  1.00  0.00     0.005 A 
ATOM     12  C   UNL A   1      32.809  24.678  26.164  1.00  0.00     0.009 A 
ATOM     13  C   UNL A   1      34.243  26.190  24.970  1.00  0.00     0.009 A 
ATOM     14  C   UNL A   1      33.992  24.894  25.447  1.00  0.00    -0.018 A 
BRANCH  14  15
ATOM     15  C   UNL A   1      34.960  23.797  25.306  1.00  0.00    -0.018 A 
ATOM     16  C   UNL A   1      35.795  23.706  24.177  1.00  0.00     0.010 A 
ATOM     17  C   UNL A   1      34.995  22.746  26.238  1.00  0.00     0.010 A 
ATOM     18  C   UNL A   1      36.606  22.590  23.967  1.00  0.00     0.021 A 
ATOM     19  C   UNL A   1      35.815  21.633  26.039  1.00  0.00     0.021 A 
ATOM     20  C   UNL A   1      36.609  21.556  24.898  1.00  0.00     0.041 A 
ATOM     21  Cl  UNL A   1      37.586  20.168  24.627  1.00  0.00    -0.084 Cl
ENDBRANCH  14  15
ENDBRANCH   8   9
ENDBRANCH   6   8
ENDBRANCH   5   6
ENDBRANCH   4   5
ENDBRANCH   3   4
ENDBRANCH   2   3
ENDBRANCH   1   2
BRANCH   1  22
ATOM     22  C   UNL A   1      35.042  34.049  30.793  1.00  0.00     0.188 C 
BRANCH  22  23
ATOM     23  O   UNL A   1      33.983  33.542  31.587  1.00  0.00    -0.376 OA
BRANCH  23  24
ATOM     24  C   UNL A   1      34.187  33.476  33.000  1.00  0.00     0.202 C 
BRANCH  24  25
ATOM     25  C   UNL A   1      35.611  33.251  33.531  1.00  0.00     0.261 C 
BRANCH  25  26
ATOM     26  O   UNL A   1      36.121  31.919  33.292  1.00  0.00    -0.460 OA
BRANCH  26  27
ATOM     27  C   UNL A   1      37.299  31.625  33.880  1.00  0.00     0.338 C 
ATOM     28  O   UNL A   1      37.490  31.342  35.067  1.00  0.00    -0.246 OA
BRANCH  27  29
ATOM     29  C   UNL A   1      38.388  31.577  32.896  1.00  0.00     0.060 A 
ATOM     30  C   UNL A   1      38.124  31.904  31.559  1.00  0.00     0.016 A 
ATOM     31  C   UNL A   1      39.626  31.047  33.262  1.00  0.00     0.016 A 
ATOM     32  C   UNL A   1      39.097  31.688  30.578  1.00  0.00     0.010 A 
ATOM     33  C   UNL A   1      40.591  30.815  32.276  1.00  0.00     0.010 A 
ATOM     34  C   UNL A   1      40.326  31.110  30.926  1.00  0.00    -0.014 A 
BRANCH  34  35
ATOM     35  C   UNL A   1      41.302  30.697  29.887  1.00  0.00     0.031 A 
ATOM     36  C   UNL A   1      41.142  29.359  29.215  1.00  0.00     0.074 A 
ATOM     37  C   UNL A   1      42.356  31.475  29.583  1.00  0.00     0.049 A 
ATOM     38  N   UNL A   1      41.959  28.738  28.403  1.00  0.00    -0.248 NA
ATOM     39  C   UNL A   1      39.899  28.625  29.500  1.00  0.00     0.031 C 
ATOM     40  C   UNL A   1      42.609  32.809  30.124  1.00  0.00     0.029 A 
ATOM     41  N   UNL A   1      43.432  31.233  28.762  1.00  0.00    -0.354 N 
ATOM     42  C   UNL A   1      41.343  27.532  28.097  1.00  0.00     0.074 A 
ATOM     43  C   UNL A   1      40.084  27.506  28.812  1.00  0.00     0.031 C 
ATOM     44  C   UNL A   1      43.786  33.254  29.648  1.00  0.00     0.029 A 
ATOM     45  C   UNL A   1      44.386  32.219  28.807  1.00  0.00     0.049 A 
ATOM     46  H   UNL A   1      43.511  30.430  28.198  1.00  0.00     0.167 HD
ATOM     47  C   UNL A   1      41.789  26.531  27.301  1.00  0.00     0.031 A 
ATOM     48  C   UNL A   1      45.623  32.264  28.272  1.00  0.00     0.031 A 
ATOM     49  C   UNL A   1      43.040  26.549  26.591  1.00  0.00     0.049 A 
ATOM     50  C   UNL A   1      46.132  31.097  27.465  1.00  0.00     0.074 A 
ATOM     51  C   UNL A   1      43.548  25.598  25.722  1.00  0.00     0.029 A 
ATOM     52  N   UNL A   1      43.985  27.555  26.683  1.00  0.00    -0.354 N 
ATOM     53  N   UNL A   1      45.520  29.983  27.144  1.00  0.00    -0.248 NA
ATOM     54  C   UNL A   1      47.509  31.192  26.954  1.00  0.00     0.031 C 
ATOM     55  C   UNL A   1      44.830  25.999  25.337  1.00  0.00     0.029 A 
ATOM     56  C   UNL A   1      45.096  27.226  25.924  1.00  0.00     0.049 A 
ATOM     57  H   UNL A   1      43.883  28.381  27.209  1.00  0.00     0.167 HD
ATOM     58  C   UNL A   1      46.428  29.259  26.379  1.00  0.00     0.074 A 
ATOM     59  C   UNL A   1      47.624  30.064  26.268  1.00  0.00     0.031 C 
ATOM     60  C   UNL A   1      46.282  28.033  25.819  1.00  0.00     0.031 A 
BRANCH  47  61
ATOM     61  C   UNL A   1      40.939  25.299  27.182  1.00  0.00    -0.014 A 
ATOM     62  C   UNL A   1      41.315  24.090  27.786  1.00  0.00     0.009 A 
ATOM     63  C   UNL A   1      39.703  25.376  26.519  1.00  0.00     0.009 A 
ATOM     64  C   UNL A   1      40.476  22.975  27.709  1.00  0.00     0.001 A 
ATOM     65  C   UNL A   1      38.858  24.267  26.464  1.00  0.00     0.001 A 
ATOM     66  C   UNL A   1      39.247  23.067  27.055  1.00  0.00     0.000 A 
ENDBRANCH  47  61
BRANCH  48  67
ATOM     67  C   UNL A   1      46.511  33.427  28.534  1.00  0.00    -0.014 A 
ATOM     68  C   UNL A   1      46.532  34.527  27.664  1.00  0.00     0.009 A 
ATOM     69  C   UNL A   1      47.385  33.416  29.633  1.00  0.00     0.009 A 
ATOM     70  C   UNL A   1      47.431  35.576  27.872  1.00  0.00     0.001 A 
ATOM     71  C   UNL A   1      48.261  34.480  29.856  1.00  0.00     0.001 A 
ATOM     72  C   UNL A   1      48.292  35.553  28.967  1.00  0.00     0.000 A 
ENDBRANCH  48  67
BRANCH  60  73
ATOM     73  C   UNL A   1      47.430  27.493  25.015  1.00  0.00    -0.014 A 
ATOM     74  C   UNL A   1      47.533  27.743  23.637  1.00  0.00     0.009 A 
ATOM     75  C   UNL A   1      48.454  26.776  25.655  1.00  0.00     0.009 A 
ATOM     76  C   UNL A   1      48.628  27.267  22.914  1.00  0.00     0.001 A 
ATOM     77  C   UNL A   1      49.560  26.324  24.934  1.00  0.00     0.001 A 
ATOM     78  C   UNL A   1      49.644  26.565  23.563  1.00  0.00     0.000 A 
ENDBRANCH  60  73
ENDBRANCH  34  35
ENDBRANCH  27  29
ENDBRANCH  26  27
ENDBRANCH  25  26
ENDBRANCH  24  25
ENDBRANCH  23  24
ENDBRANCH  22  23
ENDBRANCH   1  22
TORSDOF 19
ENDMDL
