MODEL 1
REMARK VINA RESULT:     -10.5      0.000      0.000
REMARK SMILES O=C(OCCOCCOCCOC(=O)c1cn(C2CC2)c2cc(N3CC[NH2+]CC3)ccc2c1=O)c1ccc(-c2c3nc(c(-c4ccccc4)c4ccc([nH]4)c(-c4ccccc4)c4nc(c(-c5ccccc5)c5ccc2[nH]5)C=C4)C=C3)cc1
REMARK SMILES IDX 7 1 6 2 5 3 4 4 3 5 2 6 1 7 35 8 36 9 82 10 37 11 81 12
REMARK SMILES IDX 38 13 39 14 40 15 75 16 41 17 80 18 74 19 76 20 42 21 79 22
REMARK SMILES IDX 73 23 72 24 43 26 65 27 50 28 64 29 51 30 54 31 63 32 77 33
REMARK SMILES IDX 52 34 53 35 62 37 78 38 55 39 44 40 45 41 49 42 46 43 48 44
REMARK SMILES IDX 47 45 66 46 67 47 71 48 68 49 70 50 69 51 56 52 57 53 61 54
REMARK SMILES IDX 58 55 60 56 59 57 8 58 9 59 10 60 11 61 12 62 13 63 14 64
REMARK SMILES IDX 15 65 16 66 33 67 17 68 32 69 34 70 21 71 31 72 22 73 30 74
REMARK SMILES IDX 23 75 18 76 19 77 20 78 24 79 25 80 29 81 26 82 28 83 27 84
REMARK H PARENT 76 25 54 36 27 85 27 86
REMARK Flexibility Score: inf
ROOT
ATOM      1  C   UNL A   1      35.476  21.352  25.448  1.00  0.00     0.188 C 
ENDROOT
BRANCH   1   2
ATOM      2  O   UNL A   1      36.662  21.475  24.652  1.00  0.00    -0.376 OA
BRANCH   2   3
ATOM      3  C   UNL A   1      37.840  21.048  25.340  1.00  0.00     0.202 C 
BRANCH   3   4
ATOM      4  C   UNL A   1      38.444  19.712  24.882  1.00  0.00     0.261 C 
BRANCH   4   5
ATOM      5  O   UNL A   1      39.410  19.142  25.777  1.00  0.00    -0.460 OA
BRANCH   5   6
ATOM      6  C   UNL A   1      40.718  19.437  25.967  1.00  0.00     0.338 C 
ATOM      7  O   UNL A   1      41.538  18.561  25.683  1.00  0.00    -0.246 OA
BRANCH   6   8
ATOM      8  C   UNL A   1      41.250  20.727  26.526  1.00  0.00     0.060 A 
ATOM      9  C   UNL A   1      41.938  21.563  25.623  1.00  0.00     0.016 A 
ATOM     10  C   UNL A   1      41.152  21.171  27.846  1.00  0.00     0.016 A 
ATOM     11  C   UNL A   1      42.508  22.779  26.029  1.00  0.00     0.010 A 
ATOM     12  C   UNL A   1      41.714  22.387  28.257  1.00  0.00     0.010 A 
ATOM     13  C   UNL A   1      42.407  23.199  27.358  1.00  0.00    -0.014 A 
BRANCH  13  14
ATOM     14  C   UNL A   1      42.856  24.545  27.783  1.00  0.00     0.031 A 
ATOM     15  C   UNL A   1      41.929  25.717  27.926  1.00  0.00     0.074 A 
ATOM     16  C   UNL A   1      44.179  24.762  27.885  1.00  0.00     0.049 A 
ATOM     17  N   UNL A   1      42.165  26.892  28.460  1.00  0.00    -0.248 NA
ATOM     18  C   UNL A   1      40.578  25.573  27.377  1.00  0.00     0.031 C 
ATOM     19  C   UNL A   1      45.219  23.763  27.642  1.00  0.00     0.029 A 
ATOM     20  N   UNL A   1      44.867  25.918  28.143  1.00  0.00    -0.354 N 
ATOM     21  C   UNL A   1      40.952  27.570  28.435  1.00  0.00     0.074 A 
ATOM     22  C   UNL A   1      40.041  26.744  27.697  1.00  0.00     0.031 C 
ATOM     23  C   UNL A   1      46.415  24.366  27.698  1.00  0.00     0.029 A 
ATOM     24  C   UNL A   1      46.220  25.788  27.979  1.00  0.00     0.049 A 
ATOM     25  H   UNL A   1      44.433  26.758  28.418  1.00  0.00     0.167 HD
ATOM     26  C   UNL A   1      40.642  28.765  28.989  1.00  0.00     0.031 A 
ATOM     27  C   UNL A   1      47.196  26.714  28.020  1.00  0.00     0.031 A 
ATOM     28  C   UNL A   1      41.629  29.700  29.429  1.00  0.00     0.049 A 
ATOM     29  C   UNL A   1      46.860  28.126  28.408  1.00  0.00     0.074 A 
ATOM     30  C   UNL A   1      41.425  30.974  29.923  1.00  0.00     0.029 A 
ATOM     31  N   UNL A   1      42.986  29.519  29.279  1.00  0.00    -0.354 N 
ATOM     32  N   UNL A   1      45.690  28.639  28.704  1.00  0.00    -0.248 NA
ATOM     33  C   UNL A   1      47.972  29.080  28.507  1.00  0.00     0.031 C 
ATOM     34  C   UNL A   1      42.655  31.621  29.918  1.00  0.00     0.029 A 
ATOM     35  C   UNL A   1      43.630  30.702  29.559  1.00  0.00     0.049 A 
ATOM     36  H   UNL A   1      43.426  28.678  29.014  1.00  0.00     0.167 HD
ATOM     37  C   UNL A   1      45.932  29.961  29.057  1.00  0.00     0.074 A 
ATOM     38  C   UNL A   1      47.356  30.175  28.938  1.00  0.00     0.031 C 
ATOM     39  C   UNL A   1      45.047  30.906  29.451  1.00  0.00     0.031 A 
BRANCH  26  40
ATOM     40  C   UNL A   1      39.223  29.230  29.161  1.00  0.00    -0.014 A 
ATOM     41  C   UNL A   1      38.471  28.879  30.291  1.00  0.00     0.009 A 
ATOM     42  C   UNL A   1      38.549  29.760  28.047  1.00  0.00     0.009 A 
ATOM     43  C   UNL A   1      37.090  29.110  30.322  1.00  0.00     0.001 A 
ATOM     44  C   UNL A   1      37.174  30.012  28.088  1.00  0.00     0.001 A 
ATOM     45  C   UNL A   1      36.446  29.692  29.230  1.00  0.00     0.000 A 
ENDBRANCH  26  40
BRANCH  27  46
ATOM     46  C   UNL A   1      48.581  26.284  27.710  1.00  0.00    -0.014 A 
ATOM     47  C   UNL A   1      49.435  25.851  28.740  1.00  0.00     0.009 A 
ATOM     48  C   UNL A   1      49.092  26.417  26.413  1.00  0.00     0.009 A 
ATOM     49  C   UNL A   1      50.782  25.598  28.484  1.00  0.00     0.001 A 
ATOM     50  C   UNL A   1      50.434  26.131  26.154  1.00  0.00     0.001 A 
ATOM     51  C   UNL A   1      51.280  25.736  27.191  1.00  0.00     0.000 A 
ENDBRANCH  27  46
BRANCH  39  52
ATOM     52  C   UNL A   1      45.525  32.284  29.798  1.00  0.00    -0.014 A 
ATOM     53  C   UNL A   1      45.677  33.229  28.768  1.00  0.00     0.009 A 
ATOM     54  C   UNL A   1      46.075  32.548  31.059  1.00  0.00     0.009 A 
ATOM     55  C   UNL A   1      46.425  34.386  28.976  1.00  0.00     0.001 A 
ATOM     56  C   UNL A   1      46.789  33.728  31.274  1.00  0.00     0.001 A 
ATOM     57  C   UNL A   1      46.982  34.633  30.228  1.00  0.00     0.000 A 
ENDBRANCH  39  52
ENDBRANCH  13  14
ENDBRANCH   6   8
ENDBRANCH   5   6
ENDBRANCH   4   5
ENDBRANCH   3   4
ENDBRANCH   2   3
ENDBRANCH   1   2
BRANCH   1  58
ATOM     58  C   UNL A   1      34.387  20.451  24.864  1.00  0.00     0.188 C 
BRANCH  58  59
ATOM     59  O   UNL A   1      33.391  21.041  24.034  1.00  0.00    -0.376 OA
BRANCH  59  60
ATOM     60  C   UNL A   1      33.422  22.447  23.838  1.00  0.00     0.202 C 
BRANCH  60  61
ATOM     61  C   UNL A   1      33.301  23.013  22.417  1.00  0.00     0.261 C 
BRANCH  61  62
ATOM     62  O   UNL A   1      32.306  24.028  22.240  1.00  0.00    -0.459 OA
BRANCH  62  63
ATOM     63  C   UNL A   1      32.798  25.231  21.852  1.00  0.00     0.343 C 
ATOM     64  O   UNL A   1      33.460  25.451  20.842  1.00  0.00    -0.246 OA
BRANCH  63  65
ATOM     65  C   UNL A   1      32.631  26.213  22.916  1.00  0.00     0.124 A 
ATOM     66  C   UNL A   1      31.639  27.068  22.681  1.00  0.00     0.106 A 
ATOM     67  C   UNL A   1      33.425  26.387  24.137  1.00  0.00     0.203 A 
ATOM     68  N   UNL A   1      31.289  28.166  23.433  1.00  0.00    -0.343 N 
ATOM     69  C   UNL A   1      33.105  27.575  24.981  1.00  0.00     0.047 A 
ATOM     70  O   UNL A   1      34.302  25.598  24.464  1.00  0.00    -0.288 OA
ATOM     71  C   UNL A   1      32.053  28.449  24.621  1.00  0.00     0.054 A 
ATOM     72  C   UNL A   1      33.909  27.828  26.099  1.00  0.00     0.016 A 
ATOM     73  C   UNL A   1      31.866  29.585  25.440  1.00  0.00     0.053 A 
ATOM     74  C   UNL A   1      33.727  28.994  26.843  1.00  0.00     0.027 A 
ATOM     75  C   UNL A   1      32.718  29.905  26.525  1.00  0.00     0.039 A 
BRANCH  68  76
ATOM     76  C   UNL A   1      30.313  29.099  22.806  1.00  0.00     0.087 C 
ATOM     77  C   UNL A   1      28.819  28.969  23.085  1.00  0.00     0.027 C 
ATOM     78  C   UNL A   1      29.559  30.184  23.541  1.00  0.00     0.027 C 
ENDBRANCH  68  76
BRANCH  75  79
ATOM     79  N   UNL A   1      32.578  31.076  27.241  1.00  0.00    -0.360 N 
ATOM     80  C   UNL A   1      33.630  31.560  28.137  1.00  0.00     0.178 C 
ATOM     81  C   UNL A   1      31.444  31.998  27.036  1.00  0.00     0.178 C 
ATOM     82  C   UNL A   1      34.077  32.978  27.700  1.00  0.00     0.282 C 
ATOM     83  C   UNL A   1      31.944  33.421  26.680  1.00  0.00     0.282 C 
ATOM     84  N   UNL A   1      32.969  33.954  27.605  1.00  0.00    -0.343 N 
ATOM     85  H   UNL A   1      33.322  34.842  27.250  1.00  0.00     0.346 HD
ATOM     86  H   UNL A   1      32.559  34.105  28.527  1.00  0.00     0.346 HD
ENDBRANCH  75  79
ENDBRANCH  63  65
ENDBRANCH  62  63
ENDBRANCH  61  62
ENDBRANCH  60  61
ENDBRANCH  59  60
ENDBRANCH  58  59
ENDBRANCH   1  58
TORSDOF 19
ENDMDL
MODEL 2
REMARK VINA RESULT:     -10.4      1.403      2.757
REMARK SMILES O=C(OCCOCCOCCOC(=O)c1cn(C2CC2)c2cc(N3CC[NH2+]CC3)ccc2c1=O)c1ccc(-c2c3nc(c(-c4ccccc4)c4ccc([nH]4)c(-c4ccccc4)c4nc(c(-c5ccccc5)c5ccc2[nH]5)C=C4)C=C3)cc1
REMARK SMILES IDX 7 1 6 2 5 3 4 4 3 5 2 6 1 7 35 8 36 9 82 10 37 11 81 12
REMARK SMILES IDX 38 13 39 14 40 15 75 16 41 17 80 18 74 19 76 20 42 21 79 22
REMARK SMILES IDX 73 23 72 24 43 26 65 27 50 28 64 29 51 30 54 31 63 32 77 33
REMARK SMILES IDX 52 34 53 35 62 37 78 38 55 39 44 40 45 41 49 42 46 43 48 44
REMARK SMILES IDX 47 45 66 46 67 47 71 48 68 49 70 50 69 51 56 52 57 53 61 54
REMARK SMILES IDX 58 55 60 56 59 57 8 58 9 59 10 60 11 61 12 62 13 63 14 64
REMARK SMILES IDX 15 65 16 66 33 67 17 68 32 69 34 70 21 71 31 72 22 73 30 74
REMARK SMILES IDX 23 75 18 76 19 77 20 78 24 79 25 80 29 81 26 82 28 83 27 84
REMARK H PARENT 76 25 54 36 27 85 27 86
REMARK Flexibility Score: inf
ROOT
ATOM      1  C   UNL A   1      36.136  20.326  24.957  1.00  0.00     0.188 C 
ENDROOT
BRANCH   1   2
ATOM      2  O   UNL A   1      37.271  21.068  24.491  1.00  0.00    -0.376 OA
BRANCH   2   3
ATOM      3  C   UNL A   1      38.429  20.882  25.309  1.00  0.00     0.202 C 
BRANCH   3   4
ATOM      4  C   UNL A   1      38.887  19.430  25.513  1.00  0.00     0.261 C 
BRANCH   4   5
ATOM      5  O   UNL A   1      40.308  19.242  25.566  1.00  0.00    -0.460 OA
BRANCH   5   6
ATOM      6  C   UNL A   1      41.225  19.688  26.458  1.00  0.00     0.338 C 
ATOM      7  O   UNL A   1      41.793  18.841  27.149  1.00  0.00    -0.246 OA
BRANCH   6   8
ATOM      8  C   UNL A   1      41.579  21.129  26.698  1.00  0.00     0.060 A 
ATOM      9  C   UNL A   1      41.567  21.560  28.040  1.00  0.00     0.016 A 
ATOM     10  C   UNL A   1      41.898  22.085  25.732  1.00  0.00     0.016 A 
ATOM     11  C   UNL A   1      41.850  22.888  28.393  1.00  0.00     0.010 A 
ATOM     12  C   UNL A   1      42.187  23.412  26.078  1.00  0.00     0.010 A 
ATOM     13  C   UNL A   1      42.155  23.831  27.409  1.00  0.00    -0.014 A 
BRANCH  13  14
ATOM     14  C   UNL A   1      42.613  25.197  27.757  1.00  0.00     0.031 A 
ATOM     15  C   UNL A   1      41.675  26.336  28.033  1.00  0.00     0.074 A 
ATOM     16  C   UNL A   1      43.928  25.461  27.660  1.00  0.00     0.049 A 
ATOM     17  N   UNL A   1      41.945  27.523  28.521  1.00  0.00    -0.248 NA
ATOM     18  C   UNL A   1      40.264  26.139  27.692  1.00  0.00     0.031 C 
ATOM     19  C   UNL A   1      44.955  24.498  27.268  1.00  0.00     0.029 A 
ATOM     20  N   UNL A   1      44.603  26.644  27.809  1.00  0.00    -0.354 N 
ATOM     21  C   UNL A   1      40.718  28.157  28.675  1.00  0.00     0.074 A 
ATOM     22  C   UNL A   1      39.737  27.293  28.083  1.00  0.00     0.031 C 
ATOM     23  C   UNL A   1      46.123  25.144  27.143  1.00  0.00     0.029 A 
ATOM     24  C   UNL A   1      45.921  26.560  27.445  1.00  0.00     0.049 A 
ATOM     25  H   UNL A   1      44.184  27.469  28.143  1.00  0.00     0.167 HD
ATOM     26  C   UNL A   1      40.450  29.346  29.265  1.00  0.00     0.031 A 
ATOM     27  C   UNL A   1      46.857  27.521  27.338  1.00  0.00     0.031 A 
ATOM     28  C   UNL A   1      41.457  30.319  29.550  1.00  0.00     0.049 A 
ATOM     29  C   UNL A   1      46.531  28.923  27.767  1.00  0.00     0.074 A 
ATOM     30  C   UNL A   1      41.281  31.589  30.065  1.00  0.00     0.029 A 
ATOM     31  N   UNL A   1      42.782  30.185  29.200  1.00  0.00    -0.354 N 
ATOM     32  N   UNL A   1      45.400  29.396  28.232  1.00  0.00    -0.248 NA
ATOM     33  C   UNL A   1      47.610  29.918  27.696  1.00  0.00     0.031 C 
ATOM     34  C   UNL A   1      42.472  32.279  29.874  1.00  0.00     0.029 A 
ATOM     35  C   UNL A   1      43.416  31.393  29.377  1.00  0.00     0.049 A 
ATOM     36  H   UNL A   1      43.208  29.358  28.876  1.00  0.00     0.167 HD
ATOM     37  C   UNL A   1      45.644  30.730  28.540  1.00  0.00     0.074 A 
ATOM     38  C   UNL A   1      47.026  30.993  28.210  1.00  0.00     0.031 C 
ATOM     39  C   UNL A   1      44.793  31.646  29.058  1.00  0.00     0.031 A 
BRANCH  26  40
ATOM     40  C   UNL A   1      39.056  29.761  29.645  1.00  0.00    -0.014 A 
ATOM     41  C   UNL A   1      38.448  29.292  30.818  1.00  0.00     0.009 A 
ATOM     42  C   UNL A   1      38.249  30.375  28.671  1.00  0.00     0.009 A 
ATOM     43  C   UNL A   1      37.078  29.489  31.033  1.00  0.00     0.001 A 
ATOM     44  C   UNL A   1      36.885  30.591  28.897  1.00  0.00     0.001 A 
ATOM     45  C   UNL A   1      36.302  30.152  30.082  1.00  0.00     0.000 A 
ENDBRANCH  26  40
BRANCH  27  46
ATOM     46  C   UNL A   1      48.195  27.138  26.827  1.00  0.00    -0.014 A 
ATOM     47  C   UNL A   1      49.237  26.839  27.723  1.00  0.00     0.009 A 
ATOM     48  C   UNL A   1      48.472  27.186  25.455  1.00  0.00     0.009 A 
ATOM     49  C   UNL A   1      50.536  26.634  27.258  1.00  0.00     0.001 A 
ATOM     50  C   UNL A   1      49.767  26.949  24.990  1.00  0.00     0.001 A 
ATOM     51  C   UNL A   1      50.799  26.687  25.891  1.00  0.00     0.000 A 
ENDBRANCH  27  46
BRANCH  39  52
ATOM     52  C   UNL A   1      45.267  33.044  29.326  1.00  0.00    -0.014 A 
ATOM     53  C   UNL A   1      45.267  33.973  28.271  1.00  0.00     0.009 A 
ATOM     54  C   UNL A   1      45.954  33.346  30.509  1.00  0.00     0.009 A 
ATOM     55  C   UNL A   1      45.998  35.154  28.372  1.00  0.00     0.001 A 
ATOM     56  C   UNL A   1      46.652  34.549  30.620  1.00  0.00     0.001 A 
ATOM     57  C   UNL A   1      46.693  35.440  29.545  1.00  0.00     0.000 A 
ENDBRANCH  39  52
ENDBRANCH  13  14
ENDBRANCH   6   8
ENDBRANCH   5   6
ENDBRANCH   4   5
ENDBRANCH   3   4
ENDBRANCH   2   3
ENDBRANCH   1   2
BRANCH   1  58
ATOM     58  C   UNL A   1      35.130  21.123  25.789  1.00  0.00     0.188 C 
BRANCH  58  59
ATOM     59  O   UNL A   1      33.758  21.094  25.406  1.00  0.00    -0.376 OA
BRANCH  59  60
ATOM     60  C   UNL A   1      33.137  22.315  25.031  1.00  0.00     0.202 C 
BRANCH  60  61
ATOM     61  C   UNL A   1      32.534  23.218  26.115  1.00  0.00     0.261 C 
BRANCH  61  62
ATOM     62  O   UNL A   1      33.410  24.223  26.638  1.00  0.00    -0.459 OA
BRANCH  62  63
ATOM     63  C   UNL A   1      34.117  24.894  25.694  1.00  0.00     0.343 C 
ATOM     64  O   UNL A   1      35.315  24.766  25.460  1.00  0.00    -0.246 OA
BRANCH  63  65
ATOM     65  C   UNL A   1      33.312  25.970  25.129  1.00  0.00     0.124 A 
ATOM     66  C   UNL A   1      33.204  27.018  25.943  1.00  0.00     0.106 A 
ATOM     67  C   UNL A   1      32.604  26.010  23.846  1.00  0.00     0.203 A 
ATOM     68  N   UNL A   1      32.440  28.146  25.752  1.00  0.00    -0.343 N 
ATOM     69  C   UNL A   1      31.740  27.199  23.594  1.00  0.00     0.047 A 
ATOM     70  O   UNL A   1      32.715  25.122  23.010  1.00  0.00    -0.288 OA
ATOM     71  C   UNL A   1      31.662  28.244  24.544  1.00  0.00     0.054 A 
ATOM     72  C   UNL A   1      30.970  27.223  22.424  1.00  0.00     0.016 A 
ATOM     73  C   UNL A   1      30.767  29.298  24.253  1.00  0.00     0.053 A 
ATOM     74  C   UNL A   1      30.054  28.252  22.209  1.00  0.00     0.027 A 
ATOM     75  C   UNL A   1      29.918  29.301  23.120  1.00  0.00     0.039 A 
BRANCH  68  76
ATOM     76  C   UNL A   1      32.295  29.040  26.933  1.00  0.00     0.087 C 
ATOM     77  C   UNL A   1      33.389  30.040  27.293  1.00  0.00     0.027 C 
ATOM     78  C   UNL A   1      32.044  30.530  26.865  1.00  0.00     0.027 C 
ENDBRANCH  68  76
BRANCH  75  79
ATOM     79  N   UNL A   1      28.977  30.291  22.917  1.00  0.00    -0.360 N 
ATOM     80  C   UNL A   1      28.935  31.495  23.749  1.00  0.00     0.178 C 
ATOM     81  C   UNL A   1      28.062  30.287  21.760  1.00  0.00     0.178 C 
ATOM     82  C   UNL A   1      29.085  32.753  22.857  1.00  0.00     0.282 C 
ATOM     83  C   UNL A   1      28.192  31.598  20.945  1.00  0.00     0.282 C 
ATOM     84  N   UNL A   1      28.096  32.831  21.758  1.00  0.00    -0.343 N 
ATOM     85  H   UNL A   1      28.295  33.643  21.175  1.00  0.00     0.346 HD
ATOM     86  H   UNL A   1      27.156  32.921  22.144  1.00  0.00     0.346 HD
ENDBRANCH  75  79
ENDBRANCH  63  65
ENDBRANCH  62  63
ENDBRANCH  61  62
ENDBRANCH  60  61
ENDBRANCH  59  60
ENDBRANCH  58  59
ENDBRANCH   1  58
TORSDOF 19
ENDMDL
MODEL 3
REMARK VINA RESULT:     -10.2      1.761      3.009
REMARK SMILES O=C(OCCOCCOCCOC(=O)c1cn(C2CC2)c2cc(N3CC[NH2+]CC3)ccc2c1=O)c1ccc(-c2c3nc(c(-c4ccccc4)c4ccc([nH]4)c(-c4ccccc4)c4nc(c(-c5ccccc5)c5ccc2[nH]5)C=C4)C=C3)cc1
REMARK SMILES IDX 7 1 6 2 5 3 4 4 3 5 2 6 1 7 35 8 36 9 82 10 37 11 81 12
REMARK SMILES IDX 38 13 39 14 40 15 75 16 41 17 80 18 74 19 76 20 42 21 79 22
REMARK SMILES IDX 73 23 72 24 43 26 65 27 50 28 64 29 51 30 54 31 63 32 77 33
REMARK SMILES IDX 52 34 53 35 62 37 78 38 55 39 44 40 45 41 49 42 46 43 48 44
REMARK SMILES IDX 47 45 66 46 67 47 71 48 68 49 70 50 69 51 56 52 57 53 61 54
REMARK SMILES IDX 58 55 60 56 59 57 8 58 9 59 10 60 11 61 12 62 13 63 14 64
REMARK SMILES IDX 15 65 16 66 33 67 17 68 32 69 34 70 21 71 31 72 22 73 30 74
REMARK SMILES IDX 23 75 18 76 19 77 20 78 24 79 25 80 29 81 26 82 28 83 27 84
REMARK H PARENT 76 25 54 36 27 85 27 86
REMARK Flexibility Score: inf
ROOT
ATOM      1  C   UNL A   1      36.067  22.337  24.555  1.00  0.00     0.188 C 
ENDROOT
BRANCH   1   2
ATOM      2  O   UNL A   1      37.234  21.597  24.170  1.00  0.00    -0.376 OA
BRANCH   2   3
ATOM      3  C   UNL A   1      37.701  20.721  25.198  1.00  0.00     0.202 C 
BRANCH   3   4
ATOM      4  C   UNL A   1      38.576  19.545  24.738  1.00  0.00     0.261 C 
BRANCH   4   5
ATOM      5  O   UNL A   1      39.506  19.060  25.718  1.00  0.00    -0.460 OA
BRANCH   5   6
ATOM      6  C   UNL A   1      40.792  19.407  25.962  1.00  0.00     0.338 C 
ATOM      7  O   UNL A   1      41.659  18.575  25.691  1.00  0.00    -0.246 OA
BRANCH   6   8
ATOM      8  C   UNL A   1      41.245  20.707  26.567  1.00  0.00     0.060 A 
ATOM      9  C   UNL A   1      41.756  21.669  25.672  1.00  0.00     0.016 A 
ATOM     10  C   UNL A   1      41.231  21.051  27.920  1.00  0.00     0.016 A 
ATOM     11  C   UNL A   1      42.239  22.909  26.115  1.00  0.00     0.010 A 
ATOM     12  C   UNL A   1      41.706  22.290  28.369  1.00  0.00     0.010 A 
ATOM     13  C   UNL A   1      42.226  23.228  27.475  1.00  0.00    -0.014 A 
BRANCH  13  14
ATOM     14  C   UNL A   1      42.579  24.584  27.958  1.00  0.00     0.031 A 
ATOM     15  C   UNL A   1      41.599  25.719  28.014  1.00  0.00     0.074 A 
ATOM     16  C   UNL A   1      43.875  24.845  28.200  1.00  0.00     0.049 A 
ATOM     17  N   UNL A   1      41.735  26.894  28.581  1.00  0.00    -0.248 NA
ATOM     18  C   UNL A   1      40.320  25.535  27.325  1.00  0.00     0.031 C 
ATOM     19  C   UNL A   1      44.970  23.887  28.058  1.00  0.00     0.029 A 
ATOM     20  N   UNL A   1      44.489  26.022  28.540  1.00  0.00    -0.354 N 
ATOM     21  C   UNL A   1      40.507  27.529  28.435  1.00  0.00     0.074 A 
ATOM     22  C   UNL A   1      39.709  26.682  27.597  1.00  0.00     0.031 C 
ATOM     23  C   UNL A   1      46.131  24.532  28.245  1.00  0.00     0.029 A 
ATOM     24  C   UNL A   1      45.856  25.942  28.518  1.00  0.00     0.049 A 
ATOM     25  H   UNL A   1      43.998  26.842  28.777  1.00  0.00     0.167 HD
ATOM     26  C   UNL A   1      40.097  28.706  28.965  1.00  0.00     0.031 A 
ATOM     27  C   UNL A   1      46.787  26.901  28.671  1.00  0.00     0.031 A 
ATOM     28  C   UNL A   1      40.998  29.669  29.515  1.00  0.00     0.049 A 
ATOM     29  C   UNL A   1      46.361  28.295  29.035  1.00  0.00     0.074 A 
ATOM     30  C   UNL A   1      40.696  30.928  29.998  1.00  0.00     0.029 A 
ATOM     31  N   UNL A   1      42.369  29.538  29.507  1.00  0.00    -0.354 N 
ATOM     32  N   UNL A   1      45.148  28.762  29.211  1.00  0.00    -0.248 NA
ATOM     33  C   UNL A   1      47.421  29.287  29.260  1.00  0.00     0.031 C 
ATOM     34  C   UNL A   1      41.895  31.618  30.128  1.00  0.00     0.029 A 
ATOM     35  C   UNL A   1      42.935  30.739  29.865  1.00  0.00     0.049 A 
ATOM     36  H   UNL A   1      42.864  28.717  29.282  1.00  0.00     0.167 HD
ATOM     37  C   UNL A   1      45.303  30.087  29.600  1.00  0.00     0.074 A 
ATOM     38  C   UNL A   1      46.723  30.353  29.634  1.00  0.00     0.031 C 
ATOM     39  C   UNL A   1      44.348  30.995  29.908  1.00  0.00     0.031 A 
BRANCH  26  40
ATOM     40  C   UNL A   1      38.652  29.118  28.992  1.00  0.00    -0.014 A 
ATOM     41  C   UNL A   1      38.122  29.986  28.026  1.00  0.00     0.009 A 
ATOM     42  C   UNL A   1      37.906  28.880  30.159  1.00  0.00     0.009 A 
ATOM     43  C   UNL A   1      36.852  30.550  28.202  1.00  0.00     0.001 A 
ATOM     44  C   UNL A   1      36.628  29.425  30.323  1.00  0.00     0.001 A 
ATOM     45  C   UNL A   1      36.099  30.256  29.339  1.00  0.00     0.000 A 
ENDBRANCH  26  40
BRANCH  27  46
ATOM     46  C   UNL A   1      48.211  26.525  28.504  1.00  0.00    -0.014 A 
ATOM     47  C   UNL A   1      48.824  26.610  27.242  1.00  0.00     0.009 A 
ATOM     48  C   UNL A   1      48.928  25.967  29.571  1.00  0.00     0.009 A 
ATOM     49  C   UNL A   1      50.110  26.109  27.042  1.00  0.00     0.001 A 
ATOM     50  C   UNL A   1      50.227  25.496  29.375  1.00  0.00     0.001 A 
ATOM     51  C   UNL A   1      50.811  25.555  28.110  1.00  0.00     0.000 A 
ENDBRANCH  27  46
BRANCH  39  52
ATOM     52  C   UNL A   1      44.736  32.385  30.317  1.00  0.00    -0.014 A 
ATOM     53  C   UNL A   1      44.766  32.706  31.685  1.00  0.00     0.009 A 
ATOM     54  C   UNL A   1      44.795  33.413  29.368  1.00  0.00     0.009 A 
ATOM     55  C   UNL A   1      44.783  34.036  32.098  1.00  0.00     0.001 A 
ATOM     56  C   UNL A   1      44.854  34.744  29.786  1.00  0.00     0.001 A 
ATOM     57  C   UNL A   1      44.824  35.054  31.147  1.00  0.00     0.000 A 
ENDBRANCH  39  52
ENDBRANCH  13  14
ENDBRANCH   6   8
ENDBRANCH   5   6
ENDBRANCH   4   5
ENDBRANCH   3   4
ENDBRANCH   2   3
ENDBRANCH   1   2
BRANCH   1  58
ATOM     58  C   UNL A   1      34.734  21.628  24.316  1.00  0.00     0.188 C 
BRANCH  58  59
ATOM     59  O   UNL A   1      34.333  20.610  25.229  1.00  0.00    -0.376 OA
BRANCH  59  60
ATOM     60  C   UNL A   1      33.195  20.844  26.045  1.00  0.00     0.202 C 
BRANCH  60  61
ATOM     61  C   UNL A   1      33.248  21.943  27.115  1.00  0.00     0.261 C 
BRANCH  61  62
ATOM     62  O   UNL A   1      32.535  23.144  26.800  1.00  0.00    -0.459 OA
BRANCH  62  63
ATOM     63  C   UNL A   1      33.314  24.152  26.334  1.00  0.00     0.343 C 
ATOM     64  O   UNL A   1      34.468  24.392  26.675  1.00  0.00    -0.246 OA
BRANCH  63  65
ATOM     65  C   UNL A   1      32.522  25.071  25.525  1.00  0.00     0.124 A 
ATOM     66  C   UNL A   1      33.128  26.238  25.324  1.00  0.00     0.106 A 
ATOM     67  C   UNL A   1      31.177  24.881  24.972  1.00  0.00     0.203 A 
ATOM     68  N   UNL A   1      32.614  27.347  24.693  1.00  0.00    -0.343 N 
ATOM     69  C   UNL A   1      30.558  26.058  24.297  1.00  0.00     0.047 A 
ATOM     70  O   UNL A   1      30.585  23.812  25.045  1.00  0.00    -0.288 OA
ATOM     71  C   UNL A   1      31.273  27.272  24.170  1.00  0.00     0.054 A 
ATOM     72  C   UNL A   1      29.237  25.945  23.846  1.00  0.00     0.016 A 
ATOM     73  C   UNL A   1      30.585  28.354  23.578  1.00  0.00     0.053 A 
ATOM     74  C   UNL A   1      28.576  27.056  23.325  1.00  0.00     0.027 A 
ATOM     75  C   UNL A   1      29.224  28.286  23.193  1.00  0.00     0.039 A 
BRANCH  68  76
ATOM     76  C   UNL A   1      33.401  28.602  24.839  1.00  0.00     0.087 C 
ATOM     77  C   UNL A   1      32.923  29.721  25.758  1.00  0.00     0.027 C 
ATOM     78  C   UNL A   1      34.189  28.991  26.070  1.00  0.00     0.027 C 
ENDBRANCH  68  76
BRANCH  75  79
ATOM     79  N   UNL A   1      28.545  29.390  22.716  1.00  0.00    -0.360 N 
ATOM     80  C   UNL A   1      27.346  29.902  23.382  1.00  0.00     0.178 C 
ATOM     81  C   UNL A   1      29.064  30.222  21.614  1.00  0.00     0.178 C 
ATOM     82  C   UNL A   1      27.566  31.379  23.794  1.00  0.00     0.282 C 
ATOM     83  C   UNL A   1      29.191  31.704  22.050  1.00  0.00     0.282 C 
ATOM     84  N   UNL A   1      27.970  32.260  22.675  1.00  0.00    -0.343 N 
ATOM     85  H   UNL A   1      28.163  33.197  23.028  1.00  0.00     0.346 HD
ATOM     86  H   UNL A   1      27.220  32.312  21.986  1.00  0.00     0.346 HD
ENDBRANCH  75  79
ENDBRANCH  63  65
ENDBRANCH  62  63
ENDBRANCH  61  62
ENDBRANCH  60  61
ENDBRANCH  59  60
ENDBRANCH  58  59
ENDBRANCH   1  58
TORSDOF 19
ENDMDL
