MODEL 1
REMARK VINA RESULT:      -9.9      0.000      0.000
REMARK SMILES CO[C@@H]1C[C@H](C(=O)OCCOCCOCCOC(=O)c2ccc(-c3c4nc(c(-c5ccccc5)c5ccc([nH]5)c(-c5ccccc5)c5nc(c(-c6ccccc6)c6ccc3[nH]6)C=C5)C=C4)cc2)N(C(=O)c2ncc(Cl)c(Cl)c2Cl)C1
REMARK SMILES IDX 12 1 11 2 10 3 9 4 8 5 6 6 7 7 5 8 3 9 4 10 80 11 68 12 2 13
REMARK SMILES IDX 1 14 69 15 70 16 71 17 72 18 78 19 73 20 76 21 79 22 74 23
REMARK SMILES IDX 77 24 75 25 13 26 14 27 15 28 16 29 17 30 18 31 19 32 20 33
REMARK SMILES IDX 21 34 67 35 22 36 66 37 23 38 24 39 25 40 60 41 26 42 65 43
REMARK SMILES IDX 59 44 61 45 27 46 64 47 58 48 57 49 28 51 50 52 35 53 49 54
REMARK SMILES IDX 36 55 39 56 48 57 62 58 37 59 38 60 47 62 63 63 40 64 29 65
REMARK SMILES IDX 30 66 34 67 31 68 33 69 32 70 51 71 52 72 56 73 53 74 55 75
REMARK SMILES IDX 54 76 41 77 42 78 46 79 43 80 45 81 44 82
REMARK H PARENT 61 50 39 61
REMARK Flexibility Score: inf
ROOT
ATOM      1  C   UNL A   1      34.747  31.820  28.354  1.00  0.00     0.188 C 
ENDROOT
BRANCH   1   2
ATOM      2  O   UNL A   1      33.551  31.497  27.662  1.00  0.00    -0.376 OA
BRANCH   2   3
ATOM      3  C   UNL A   1      33.491  30.232  27.006  1.00  0.00     0.202 C 
BRANCH   3   4
ATOM      4  C   UNL A   1      32.185  29.847  26.288  1.00  0.00     0.261 C 
BRANCH   4   5
ATOM      5  O   UNL A   1      32.287  29.740  24.854  1.00  0.00    -0.462 OA
BRANCH   5   6
ATOM      6  C   UNL A   1      32.852  28.586  24.412  1.00  0.00     0.329 C 
ATOM      7  O   UNL A   1      34.051  28.451  24.187  1.00  0.00    -0.250 OA
BRANCH   6   8
ATOM      8  C   UNL A   1      31.875  27.401  24.323  1.00  0.00     0.198 C 
ATOM      9  C   UNL A   1      30.229  27.836  22.606  1.00  0.00     0.140 C 
ATOM     10  C   UNL A   1      30.390  27.642  24.121  1.00  0.00     0.071 C 
ATOM     11  C   UNL A   1      31.481  27.162  21.994  1.00  0.00     0.153 C 
ATOM     12  N   UNL A   1      32.217  26.634  23.134  1.00  0.00    -0.321 N 
BRANCH   9  13
ATOM     13  O   UNL A   1      30.156  29.220  22.263  1.00  0.00    -0.380 OA
ATOM     14  C   UNL A   1      28.814  29.702  22.211  1.00  0.00     0.195 C 
ENDBRANCH   9  13
BRANCH  12  15
ATOM     15  C   UNL A   1      33.132  25.596  23.041  1.00  0.00     0.274 C 
ATOM     16  O   UNL A   1      33.861  25.422  22.071  1.00  0.00    -0.267 OA
BRANCH  15  17
ATOM     17  C   UNL A   1      33.153  24.609  24.162  1.00  0.00     0.148 A 
ATOM     18  N   UNL A   1      34.260  24.648  24.949  1.00  0.00    -0.248 NA
ATOM     19  C   UNL A   1      32.028  23.836  24.444  1.00  0.00     0.092 A 
ATOM     20  C   UNL A   1      34.230  23.924  26.089  1.00  0.00     0.134 A 
ATOM     21  C   UNL A   1      32.028  23.110  25.645  1.00  0.00     0.082 A 
ATOM     22  Cl  UNL A   1      30.653  23.838  23.385  1.00  0.00    -0.080 Cl
ATOM     23  C   UNL A   1      33.146  23.158  26.487  1.00  0.00     0.079 A 
ATOM     24  Cl  UNL A   1      30.623  22.204  26.123  1.00  0.00    -0.081 Cl
ATOM     25  Cl  UNL A   1      33.226  22.338  28.003  1.00  0.00    -0.081 Cl
ENDBRANCH  15  17
ENDBRANCH  12  15
ENDBRANCH   6   8
ENDBRANCH   5   6
ENDBRANCH   4   5
ENDBRANCH   3   4
ENDBRANCH   2   3
ENDBRANCH   1   2
BRANCH   1  26
ATOM     26  C   UNL A   1      34.826  33.166  29.084  1.00  0.00     0.188 C 
BRANCH  26  27
ATOM     27  O   UNL A   1      33.613  33.899  29.165  1.00  0.00    -0.376 OA
BRANCH  27  28
ATOM     28  C   UNL A   1      33.696  35.309  28.942  1.00  0.00     0.202 C 
BRANCH  28  29
ATOM     29  C   UNL A   1      32.711  36.181  29.739  1.00  0.00     0.261 C 
BRANCH  29  30
ATOM     30  O   UNL A   1      33.125  36.476  31.089  1.00  0.00    -0.460 OA
BRANCH  30  31
ATOM     31  C   UNL A   1      32.735  35.636  32.076  1.00  0.00     0.338 C 
ATOM     32  O   UNL A   1      31.593  35.328  32.369  1.00  0.00    -0.246 OA
BRANCH  31  33
ATOM     33  C   UNL A   1      33.942  34.933  32.587  1.00  0.00     0.060 A 
ATOM     34  C   UNL A   1      35.188  35.562  32.448  1.00  0.00     0.016 A 
ATOM     35  C   UNL A   1      33.850  33.706  33.250  1.00  0.00     0.016 A 
ATOM     36  C   UNL A   1      36.347  34.932  32.906  1.00  0.00     0.010 A 
ATOM     37  C   UNL A   1      35.008  33.078  33.712  1.00  0.00     0.010 A 
ATOM     38  C   UNL A   1      36.267  33.663  33.493  1.00  0.00    -0.014 A 
BRANCH  38  39
ATOM     39  C   UNL A   1      37.491  32.840  33.651  1.00  0.00     0.031 A 
ATOM     40  C   UNL A   1      38.319  33.040  34.895  1.00  0.00     0.074 A 
ATOM     41  C   UNL A   1      37.863  31.924  32.738  1.00  0.00     0.049 A 
ATOM     42  N   UNL A   1      39.439  32.467  35.252  1.00  0.00    -0.248 NA
ATOM     43  C   UNL A   1      37.811  34.027  35.864  1.00  0.00     0.031 C 
ATOM     44  C   UNL A   1      37.139  31.600  31.511  1.00  0.00     0.029 A 
ATOM     45  N   UNL A   1      38.960  31.099  32.712  1.00  0.00    -0.354 N 
ATOM     46  C   UNL A   1      39.773  33.030  36.478  1.00  0.00     0.074 A 
ATOM     47  C   UNL A   1      38.762  34.016  36.785  1.00  0.00     0.031 C 
ATOM     48  C   UNL A   1      37.813  30.643  30.849  1.00  0.00     0.029 A 
ATOM     49  C   UNL A   1      39.031  30.311  31.591  1.00  0.00     0.049 A 
ATOM     50  H   UNL A   1      39.631  31.075  33.432  1.00  0.00     0.167 HD
ATOM     51  C   UNL A   1      40.819  32.747  37.288  1.00  0.00     0.031 A 
ATOM     52  C   UNL A   1      39.978  29.435  31.202  1.00  0.00     0.031 A 
ATOM     53  C   UNL A   1      41.835  31.776  36.987  1.00  0.00     0.049 A 
ATOM     54  C   UNL A   1      41.177  29.190  32.084  1.00  0.00     0.074 A 
ATOM     55  C   UNL A   1      42.928  31.409  37.752  1.00  0.00     0.029 A 
ATOM     56  N   UNL A   1      41.887  31.026  35.824  1.00  0.00    -0.354 N 
ATOM     57  N   UNL A   1      41.464  29.705  33.256  1.00  0.00    -0.248 NA
ATOM     58  C   UNL A   1      42.177  28.231  31.591  1.00  0.00     0.031 C 
ATOM     59  C   UNL A   1      43.675  30.476  37.024  1.00  0.00     0.029 A 
ATOM     60  C   UNL A   1      43.009  30.214  35.838  1.00  0.00     0.049 A 
ATOM     61  H   UNL A   1      41.226  31.064  35.096  1.00  0.00     0.167 HD
ATOM     62  C   UNL A   1      42.654  29.103  33.655  1.00  0.00     0.074 A 
ATOM     63  C   UNL A   1      43.028  28.180  32.605  1.00  0.00     0.031 C 
ATOM     64  C   UNL A   1      43.368  29.294  34.791  1.00  0.00     0.031 A 
BRANCH  51  65
ATOM     65  C   UNL A   1      40.929  33.529  38.566  1.00  0.00    -0.014 A 
ATOM     66  C   UNL A   1      40.332  33.076  39.754  1.00  0.00     0.009 A 
ATOM     67  C   UNL A   1      41.659  34.727  38.586  1.00  0.00     0.009 A 
ATOM     68  C   UNL A   1      40.431  33.829  40.926  1.00  0.00     0.001 A 
ATOM     69  C   UNL A   1      41.783  35.461  39.766  1.00  0.00     0.001 A 
ATOM     70  C   UNL A   1      41.161  35.017  40.933  1.00  0.00     0.000 A 
ENDBRANCH  51  65
BRANCH  52  71
ATOM     71  C   UNL A   1      39.848  28.720  29.903  1.00  0.00    -0.014 A 
ATOM     72  C   UNL A   1      39.330  27.417  29.849  1.00  0.00     0.009 A 
ATOM     73  C   UNL A   1      40.281  29.326  28.712  1.00  0.00     0.009 A 
ATOM     74  C   UNL A   1      39.277  26.724  28.637  1.00  0.00     0.001 A 
ATOM     75  C   UNL A   1      40.198  28.643  27.498  1.00  0.00     0.001 A 
ATOM     76  C   UNL A   1      39.707  27.339  27.462  1.00  0.00     0.000 A 
ENDBRANCH  52  71
BRANCH  64  77
ATOM     77  C   UNL A   1      44.599  28.452  34.991  1.00  0.00    -0.014 A 
ATOM     78  C   UNL A   1      45.867  28.890  34.582  1.00  0.00     0.009 A 
ATOM     79  C   UNL A   1      44.489  27.213  35.647  1.00  0.00     0.009 A 
ATOM     80  C   UNL A   1      46.994  28.091  34.792  1.00  0.00     0.001 A 
ATOM     81  C   UNL A   1      45.620  26.431  35.885  1.00  0.00     0.001 A 
ATOM     82  C   UNL A   1      46.870  26.866  35.447  1.00  0.00     0.000 A 
ENDBRANCH  64  77
ENDBRANCH  38  39
ENDBRANCH  31  33
ENDBRANCH  30  31
ENDBRANCH  29  30
ENDBRANCH  28  29
ENDBRANCH  27  28
ENDBRANCH  26  27
ENDBRANCH   1  26
TORSDOF 20
ENDMDL
MODEL 2
REMARK VINA RESULT:      -9.9      3.615      8.976
REMARK SMILES CO[C@@H]1C[C@H](C(=O)OCCOCCOCCOC(=O)c2ccc(-c3c4nc(c(-c5ccccc5)c5ccc([nH]5)c(-c5ccccc5)c5nc(c(-c6ccccc6)c6ccc3[nH]6)C=C5)C=C4)cc2)N(C(=O)c2ncc(Cl)c(Cl)c2Cl)C1
REMARK SMILES IDX 12 1 11 2 10 3 9 4 8 5 6 6 7 7 5 8 3 9 4 10 80 11 68 12 2 13
REMARK SMILES IDX 1 14 69 15 70 16 71 17 72 18 78 19 73 20 76 21 79 22 74 23
REMARK SMILES IDX 77 24 75 25 13 26 14 27 15 28 16 29 17 30 18 31 19 32 20 33
REMARK SMILES IDX 21 34 67 35 22 36 66 37 23 38 24 39 25 40 60 41 26 42 65 43
REMARK SMILES IDX 59 44 61 45 27 46 64 47 58 48 57 49 28 51 50 52 35 53 49 54
REMARK SMILES IDX 36 55 39 56 48 57 62 58 37 59 38 60 47 62 63 63 40 64 29 65
REMARK SMILES IDX 30 66 34 67 31 68 33 69 32 70 51 71 52 72 56 73 53 74 55 75
REMARK SMILES IDX 54 76 41 77 42 78 46 79 43 80 45 81 44 82
REMARK H PARENT 61 50 39 61
REMARK Flexibility Score: inf
ROOT
ATOM      1  C   UNL A   1      39.737  21.927  26.532  1.00  0.00     0.188 C 
ENDROOT
BRANCH   1   2
ATOM      2  O   UNL A   1      38.782  21.344  25.659  1.00  0.00    -0.376 OA
BRANCH   2   3
ATOM      3  C   UNL A   1      37.702  22.166  25.220  1.00  0.00     0.202 C 
BRANCH   3   4
ATOM      4  C   UNL A   1      36.298  21.883  25.783  1.00  0.00     0.261 C 
BRANCH   4   5
ATOM      5  O   UNL A   1      35.691  22.983  26.489  1.00  0.00    -0.462 OA
BRANCH   5   6
ATOM      6  C   UNL A   1      34.333  22.992  26.463  1.00  0.00     0.329 C 
ATOM      7  O   UNL A   1      33.625  22.590  27.382  1.00  0.00    -0.250 OA
BRANCH   6   8
ATOM      8  C   UNL A   1      33.732  23.664  25.216  1.00  0.00     0.198 C 
ATOM      9  C   UNL A   1      32.755  21.981  23.781  1.00  0.00     0.140 C 
ATOM     10  C   UNL A   1      33.883  23.022  23.848  1.00  0.00     0.071 C 
ATOM     11  C   UNL A   1      31.724  22.458  24.831  1.00  0.00     0.153 C 
ATOM     12  N   UNL A   1      32.286  23.685  25.378  1.00  0.00    -0.321 N 
BRANCH   9  13
ATOM     13  O   UNL A   1      33.238  20.670  24.075  1.00  0.00    -0.380 OA
ATOM     14  C   UNL A   1      32.471  20.017  25.085  1.00  0.00     0.195 C 
ENDBRANCH   9  13
BRANCH  12  15
ATOM     15  C   UNL A   1      31.527  24.667  25.996  1.00  0.00     0.274 C 
ATOM     16  O   UNL A   1      31.037  24.541  27.113  1.00  0.00    -0.267 OA
BRANCH  15  17
ATOM     17  C   UNL A   1      31.241  25.902  25.205  1.00  0.00     0.148 A 
ATOM     18  N   UNL A   1      30.142  25.841  24.408  1.00  0.00    -0.248 NA
ATOM     19  C   UNL A   1      31.977  27.065  25.422  1.00  0.00     0.092 A 
ATOM     20  C   UNL A   1      29.729  26.994  23.840  1.00  0.00     0.134 A 
ATOM     21  C   UNL A   1      31.508  28.247  24.828  1.00  0.00     0.082 A 
ATOM     22  Cl  UNL A   1      33.373  27.062  26.453  1.00  0.00    -0.080 Cl
ATOM     23  C   UNL A   1      30.361  28.214  24.026  1.00  0.00     0.079 A 
ATOM     24  Cl  UNL A   1      32.307  29.761  25.134  1.00  0.00    -0.081 Cl
ATOM     25  Cl  UNL A   1      29.680  29.617  23.288  1.00  0.00    -0.081 Cl
ENDBRANCH  15  17
ENDBRANCH  12  15
ENDBRANCH   6   8
ENDBRANCH   5   6
ENDBRANCH   4   5
ENDBRANCH   3   4
ENDBRANCH   2   3
ENDBRANCH   1   2
BRANCH   1  26
ATOM     26  C   UNL A   1      40.885  21.051  27.047  1.00  0.00     0.188 C 
BRANCH  26  27
ATOM     27  O   UNL A   1      41.520  20.231  26.078  1.00  0.00    -0.376 OA
BRANCH  27  28
ATOM     28  C   UNL A   1      42.910  20.472  25.841  1.00  0.00     0.202 C 
BRANCH  28  29
ATOM     29  C   UNL A   1      43.424  21.879  26.190  1.00  0.00     0.261 C 
BRANCH  29  30
ATOM     30  O   UNL A   1      43.109  22.894  25.213  1.00  0.00    -0.460 OA
BRANCH  30  31
ATOM     31  C   UNL A   1      43.828  24.039  25.225  1.00  0.00     0.338 C 
ATOM     32  O   UNL A   1      44.757  24.329  24.491  1.00  0.00    -0.246 OA
BRANCH  31  33
ATOM     33  C   UNL A   1      43.133  25.012  26.110  1.00  0.00     0.060 A 
ATOM     34  C   UNL A   1      43.700  26.284  26.277  1.00  0.00     0.016 A 
ATOM     35  C   UNL A   1      41.910  24.707  26.715  1.00  0.00     0.016 A 
ATOM     36  C   UNL A   1      43.084  27.223  27.107  1.00  0.00     0.010 A 
ATOM     37  C   UNL A   1      41.292  25.648  27.541  1.00  0.00     0.010 A 
ATOM     38  C   UNL A   1      41.904  26.889  27.784  1.00  0.00    -0.014 A 
BRANCH  38  39
ATOM     39  C   UNL A   1      41.442  27.720  28.922  1.00  0.00     0.031 A 
ATOM     40  C   UNL A   1      42.193  27.609  30.225  1.00  0.00     0.074 A 
ATOM     41  C   UNL A   1      40.402  28.567  28.818  1.00  0.00     0.049 A 
ATOM     42  N   UNL A   1      41.971  28.205  31.368  1.00  0.00    -0.248 NA
ATOM     43  C   UNL A   1      43.348  26.696  30.236  1.00  0.00     0.031 C 
ATOM     44  C   UNL A   1      39.612  28.802  27.611  1.00  0.00     0.029 A 
ATOM     45  N   UNL A   1      39.833  29.387  29.761  1.00  0.00    -0.354 N 
ATOM     46  C   UNL A   1      42.950  27.732  32.233  1.00  0.00     0.074 A 
ATOM     47  C   UNL A   1      43.742  26.772  31.498  1.00  0.00     0.031 C 
ATOM     48  C   UNL A   1      38.656  29.709  27.888  1.00  0.00     0.029 A 
ATOM     49  C   UNL A   1      38.750  30.092  29.298  1.00  0.00     0.049 A 
ATOM     50  H   UNL A   1      40.171  29.462  30.682  1.00  0.00     0.167 HD
ATOM     51  C   UNL A   1      43.185  28.072  33.522  1.00  0.00     0.031 A 
ATOM     52  C   UNL A   1      37.921  30.936  29.943  1.00  0.00     0.031 A 
ATOM     53  C   UNL A   1      42.398  29.017  34.264  1.00  0.00     0.049 A 
ATOM     54  C   UNL A   1      38.153  31.242  31.401  1.00  0.00     0.074 A 
ATOM     55  C   UNL A   1      42.565  29.437  35.572  1.00  0.00     0.029 A 
ATOM     56  N   UNL A   1      41.289  29.681  33.767  1.00  0.00    -0.354 N 
ATOM     57  N   UNL A   1      39.103  30.814  32.198  1.00  0.00    -0.248 NA
ATOM     58  C   UNL A   1      37.203  32.163  32.044  1.00  0.00     0.031 C 
ATOM     59  C   UNL A   1      41.521  30.314  35.884  1.00  0.00     0.029 A 
ATOM     60  C   UNL A   1      40.746  30.491  34.750  1.00  0.00     0.049 A 
ATOM     61  H   UNL A   1      40.938  29.591  32.852  1.00  0.00     0.167 HD
ATOM     62  C   UNL A   1      38.886  31.441  33.421  1.00  0.00     0.074 A 
ATOM     63  C   UNL A   1      37.722  32.286  33.257  1.00  0.00     0.031 C 
ATOM     64  C   UNL A   1      39.591  31.333  34.574  1.00  0.00     0.031 A 
BRANCH  51  65
ATOM     65  C   UNL A   1      44.326  27.385  34.217  1.00  0.00    -0.014 A 
ATOM     66  C   UNL A   1      45.626  27.914  34.187  1.00  0.00     0.009 A 
ATOM     67  C   UNL A   1      44.091  26.198  34.928  1.00  0.00     0.009 A 
ATOM     68  C   UNL A   1      46.675  27.248  34.824  1.00  0.00     0.001 A 
ATOM     69  C   UNL A   1      45.135  25.552  35.591  1.00  0.00     0.001 A 
ATOM     70  C   UNL A   1      46.428  26.072  35.530  1.00  0.00     0.000 A 
ENDBRANCH  51  65
BRANCH  52  71
ATOM     71  C   UNL A   1      36.775  31.555  29.223  1.00  0.00    -0.014 A 
ATOM     72  C   UNL A   1      35.590  30.835  29.006  1.00  0.00     0.009 A 
ATOM     73  C   UNL A   1      36.878  32.859  28.712  1.00  0.00     0.009 A 
ATOM     74  C   UNL A   1      34.545  31.396  28.268  1.00  0.00     0.001 A 
ATOM     75  C   UNL A   1      35.820  33.428  28.000  1.00  0.00     0.001 A 
ATOM     76  C   UNL A   1      34.659  32.693  27.769  1.00  0.00     0.000 A 
ENDBRANCH  52  71
BRANCH  64  77
ATOM     77  C   UNL A   1      39.162  32.185  35.737  1.00  0.00    -0.014 A 
ATOM     78  C   UNL A   1      39.641  33.493  35.909  1.00  0.00     0.009 A 
ATOM     79  C   UNL A   1      38.222  31.683  36.653  1.00  0.00     0.009 A 
ATOM     80  C   UNL A   1      39.216  34.265  36.993  1.00  0.00     0.001 A 
ATOM     81  C   UNL A   1      37.773  32.467  37.716  1.00  0.00     0.001 A 
ATOM     82  C   UNL A   1      38.280  33.754  37.892  1.00  0.00     0.000 A 
ENDBRANCH  64  77
ENDBRANCH  38  39
ENDBRANCH  31  33
ENDBRANCH  30  31
ENDBRANCH  29  30
ENDBRANCH  28  29
ENDBRANCH  27  28
ENDBRANCH  26  27
ENDBRANCH   1  26
TORSDOF 20
ENDMDL
MODEL 3
REMARK VINA RESULT:      -9.5      1.149      5.933
REMARK SMILES CO[C@@H]1C[C@H](C(=O)OCCOCCOCCOC(=O)c2ccc(-c3c4nc(c(-c5ccccc5)c5ccc([nH]5)c(-c5ccccc5)c5nc(c(-c6ccccc6)c6ccc3[nH]6)C=C5)C=C4)cc2)N(C(=O)c2ncc(Cl)c(Cl)c2Cl)C1
REMARK SMILES IDX 12 1 11 2 10 3 9 4 8 5 6 6 7 7 5 8 3 9 4 10 80 11 68 12 2 13
REMARK SMILES IDX 1 14 69 15 70 16 71 17 72 18 78 19 73 20 76 21 79 22 74 23
REMARK SMILES IDX 77 24 75 25 13 26 14 27 15 28 16 29 17 30 18 31 19 32 20 33
REMARK SMILES IDX 21 34 67 35 22 36 66 37 23 38 24 39 25 40 60 41 26 42 65 43
REMARK SMILES IDX 59 44 61 45 27 46 64 47 58 48 57 49 28 51 50 52 35 53 49 54
REMARK SMILES IDX 36 55 39 56 48 57 62 58 37 59 38 60 47 62 63 63 40 64 29 65
REMARK SMILES IDX 30 66 34 67 31 68 33 69 32 70 51 71 52 72 56 73 53 74 55 75
REMARK SMILES IDX 54 76 41 77 42 78 46 79 43 80 45 81 44 82
REMARK H PARENT 61 50 39 61
REMARK Flexibility Score: inf
ROOT
ATOM      1  C   UNL A   1      34.782  31.627  28.245  1.00  0.00     0.188 C 
ENDROOT
BRANCH   1   2
ATOM      2  O   UNL A   1      34.269  30.749  27.255  1.00  0.00    -0.376 OA
BRANCH   2   3
ATOM      3  C   UNL A   1      32.870  30.806  26.986  1.00  0.00     0.202 C 
BRANCH   3   4
ATOM      4  C   UNL A   1      32.325  29.994  25.797  1.00  0.00     0.261 C 
BRANCH   4   5
ATOM      5  O   UNL A   1      32.150  28.586  26.049  1.00  0.00    -0.462 OA
BRANCH   5   6
ATOM      6  C   UNL A   1      32.721  27.771  25.124  1.00  0.00     0.329 C 
ATOM      7  O   UNL A   1      33.887  27.863  24.753  1.00  0.00    -0.250 OA
BRANCH   6   8
ATOM      8  C   UNL A   1      31.812  26.624  24.650  1.00  0.00     0.198 C 
ATOM      9  C   UNL A   1      30.118  27.495  23.162  1.00  0.00     0.140 C 
ATOM     10  C   UNL A   1      30.313  26.829  24.532  1.00  0.00     0.071 C 
ATOM     11  C   UNL A   1      31.397  27.132  22.369  1.00  0.00     0.153 C 
ATOM     12  N   UNL A   1      32.179  26.306  23.278  1.00  0.00    -0.321 N 
BRANCH   9  13
ATOM     13  O   UNL A   1      29.961  28.909  23.288  1.00  0.00    -0.380 OA
ATOM     14  C   UNL A   1      28.990  29.435  22.385  1.00  0.00     0.195 C 
ENDBRANCH   9  13
BRANCH  12  15
ATOM     15  C   UNL A   1      33.150  25.411  22.856  1.00  0.00     0.274 C 
ATOM     16  O   UNL A   1      34.016  25.689  22.034  1.00  0.00    -0.267 OA
BRANCH  15  17
ATOM     17  C   UNL A   1      33.064  24.018  23.388  1.00  0.00     0.148 A 
ATOM     18  N   UNL A   1      32.149  23.218  22.781  1.00  0.00    -0.248 NA
ATOM     19  C   UNL A   1      33.988  23.563  24.328  1.00  0.00     0.092 A 
ATOM     20  C   UNL A   1      32.183  21.902  23.085  1.00  0.00     0.134 A 
ATOM     21  C   UNL A   1      34.003  22.188  24.606  1.00  0.00     0.082 A 
ATOM     22  Cl  UNL A   1      35.125  24.649  25.063  1.00  0.00    -0.080 Cl
ATOM     23  C   UNL A   1      33.088  21.340  23.970  1.00  0.00     0.079 A 
ATOM     24  Cl  UNL A   1      35.193  21.523  25.686  1.00  0.00    -0.081 Cl
ATOM     25  Cl  UNL A   1      33.055  19.631  24.210  1.00  0.00    -0.081 Cl
ENDBRANCH  15  17
ENDBRANCH  12  15
ENDBRANCH   6   8
ENDBRANCH   5   6
ENDBRANCH   4   5
ENDBRANCH   3   4
ENDBRANCH   2   3
ENDBRANCH   1   2
BRANCH   1  26
ATOM     26  C   UNL A   1      34.676  33.138  28.007  1.00  0.00     0.188 C 
BRANCH  26  27
ATOM     27  O   UNL A   1      34.285  33.915  29.129  1.00  0.00    -0.376 OA
BRANCH  27  28
ATOM     28  C   UNL A   1      33.074  34.665  29.002  1.00  0.00     0.202 C 
BRANCH  28  29
ATOM     29  C   UNL A   1      32.901  35.845  29.974  1.00  0.00     0.261 C 
BRANCH  29  30
ATOM     30  O   UNL A   1      32.358  35.489  31.263  1.00  0.00    -0.460 OA
BRANCH  30  31
ATOM     31  C   UNL A   1      33.027  35.882  32.371  1.00  0.00     0.338 C 
ATOM     32  O   UNL A   1      32.625  36.633  33.242  1.00  0.00    -0.246 OA
BRANCH  31  33
ATOM     33  C   UNL A   1      34.245  35.038  32.497  1.00  0.00     0.060 A 
ATOM     34  C   UNL A   1      34.119  33.768  33.081  1.00  0.00     0.016 A 
ATOM     35  C   UNL A   1      35.481  35.455  31.994  1.00  0.00     0.016 A 
ATOM     36  C   UNL A   1      35.239  32.949  33.227  1.00  0.00     0.010 A 
ATOM     37  C   UNL A   1      36.601  34.633  32.137  1.00  0.00     0.010 A 
ATOM     38  C   UNL A   1      36.495  33.400  32.802  1.00  0.00    -0.014 A 
BRANCH  38  39
ATOM     39  C   UNL A   1      37.726  32.714  33.267  1.00  0.00     0.031 A 
ATOM     40  C   UNL A   1      38.299  31.628  32.393  1.00  0.00     0.074 A 
ATOM     41  C   UNL A   1      38.341  33.045  34.417  1.00  0.00     0.049 A 
ATOM     42  N   UNL A   1      39.344  30.865  32.588  1.00  0.00    -0.248 NA
ATOM     43  C   UNL A   1      37.590  31.366  31.128  1.00  0.00     0.031 C 
ATOM     44  C   UNL A   1      37.919  34.098  35.338  1.00  0.00     0.029 A 
ATOM     45  N   UNL A   1      39.462  32.510  35.003  1.00  0.00    -0.354 N 
ATOM     46  C   UNL A   1      39.410  30.030  31.480  1.00  0.00     0.074 A 
ATOM     47  C   UNL A   1      38.281  30.350  30.636  1.00  0.00     0.031 C 
ATOM     48  C   UNL A   1      38.773  34.133  36.377  1.00  0.00     0.029 A 
ATOM     49  C   UNL A   1      39.780  33.084  36.209  1.00  0.00     0.049 A 
ATOM     50  H   UNL A   1      39.987  31.785  34.596  1.00  0.00     0.167 HD
ATOM     51  C   UNL A   1      40.333  29.088  31.178  1.00  0.00     0.031 A 
ATOM     52  C   UNL A   1      40.762  32.785  37.082  1.00  0.00     0.031 A 
ATOM     53  C   UNL A   1      41.453  28.756  32.014  1.00  0.00     0.049 A 
ATOM     54  C   UNL A   1      41.735  31.678  36.762  1.00  0.00     0.074 A 
ATOM     55  C   UNL A   1      42.450  27.824  31.787  1.00  0.00     0.029 A 
ATOM     56  N   UNL A   1      41.718  29.337  33.243  1.00  0.00    -0.354 N 
ATOM     57  N   UNL A   1      41.807  30.919  35.695  1.00  0.00    -0.248 NA
ATOM     58  C   UNL A   1      42.774  31.398  37.765  1.00  0.00     0.031 C 
ATOM     59  C   UNL A   1      43.288  27.801  32.907  1.00  0.00     0.029 A 
ATOM     60  C   UNL A   1      42.850  28.766  33.799  1.00  0.00     0.049 A 
ATOM     61  H   UNL A   1      41.181  30.049  33.659  1.00  0.00     0.167 HD
ATOM     62  C   UNL A   1      42.917  30.101  35.883  1.00  0.00     0.074 A 
ATOM     63  C   UNL A   1      43.493  30.464  37.160  1.00  0.00     0.031 C 
ATOM     64  C   UNL A   1      43.418  29.140  35.068  1.00  0.00     0.031 A 
BRANCH  51  65
ATOM     65  C   UNL A   1      40.144  28.327  29.896  1.00  0.00    -0.014 A 
ATOM     66  C   UNL A   1      40.657  28.805  28.679  1.00  0.00     0.009 A 
ATOM     67  C   UNL A   1      39.458  27.103  29.910  1.00  0.00     0.009 A 
ATOM     68  C   UNL A   1      40.452  28.091  27.497  1.00  0.00     0.001 A 
ATOM     69  C   UNL A   1      39.282  26.376  28.733  1.00  0.00     0.001 A 
ATOM     70  C   UNL A   1      39.771  26.874  27.525  1.00  0.00     0.000 A 
ENDBRANCH  51  65
BRANCH  52  71
ATOM     71  C   UNL A   1      40.879  33.536  38.362  1.00  0.00    -0.014 A 
ATOM     72  C   UNL A   1      41.682  34.684  38.450  1.00  0.00     0.009 A 
ATOM     73  C   UNL A   1      40.219  33.082  39.515  1.00  0.00     0.009 A 
ATOM     74  C   UNL A   1      41.845  35.343  39.671  1.00  0.00     0.001 A 
ATOM     75  C   UNL A   1      40.360  33.760  40.727  1.00  0.00     0.001 A 
ATOM     76  C   UNL A   1      41.180  34.883  40.807  1.00  0.00     0.000 A 
ENDBRANCH  52  71
BRANCH  64  77
ATOM     77  C   UNL A   1      44.682  28.448  35.500  1.00  0.00    -0.014 A 
ATOM     78  C   UNL A   1      44.657  27.319  36.333  1.00  0.00     0.009 A 
ATOM     79  C   UNL A   1      45.920  28.911  35.024  1.00  0.00     0.009 A 
ATOM     80  C   UNL A   1      45.847  26.690  36.708  1.00  0.00     0.001 A 
ATOM     81  C   UNL A   1      47.105  28.262  35.373  1.00  0.00     0.001 A 
ATOM     82  C   UNL A   1      47.068  27.159  36.225  1.00  0.00     0.000 A 
ENDBRANCH  64  77
ENDBRANCH  38  39
ENDBRANCH  31  33
ENDBRANCH  30  31
ENDBRANCH  29  30
ENDBRANCH  28  29
ENDBRANCH  27  28
ENDBRANCH  26  27
ENDBRANCH   1  26
TORSDOF 20
ENDMDL
