MODEL 1
REMARK VINA RESULT:     -10.7      0.000      0.000
REMARK SMILES NS(=O)(=O)c1ccc(-c2cc(Cl)cc3c2O[C@H](C(F)(F)F)C(C(=O)OCCOCCOCCOC(=O)c2ccc(-c4c5nc(c(-c6ccccc6)c6ccc([nH]6)c(-c6ccccc6)c6nc(c(-c7ccccc7)c7ccc4[nH]7)C=C6)C=C5)cc2)=C3)cc1
REMARK SMILES IDX 29 1 28 2 27 3 26 4 25 5 23 6 24 7 22 8 9 9 10 10 15 11
REMARK SMILES IDX 11 12 14 13 16 14 12 15 13 16 85 17 17 18 8 19 5 20 6 21
REMARK SMILES IDX 87 22 7 23 86 24 2 25 3 26 4 27 1 28 18 31 19 32 20 33 21 34
REMARK SMILES IDX 30 35 31 36 32 37 33 38 34 39 35 40 36 41 37 42 38 43 84 44
REMARK SMILES IDX 39 45 83 46 40 47 41 48 42 49 77 50 43 51 82 52 76 53 78 54
REMARK SMILES IDX 44 55 81 56 75 57 74 58 45 60 67 61 52 62 66 63 53 64 56 65
REMARK SMILES IDX 65 66 79 67 54 68 55 69 64 71 80 72 57 73 46 74 47 75 51 76
REMARK SMILES IDX 48 77 50 78 49 79 68 80 69 81 73 82 70 83 72 84 71 85 58 86
REMARK SMILES IDX 59 87 63 88 60 89 62 90 61 91
REMARK H PARENT 1 29 1 30 78 59 56 70
REMARK Flexibility Score: inf
ROOT
ATOM      1  C   UNL A   1      34.540  21.849  26.927  1.00  0.00     0.188 C 
ENDROOT
BRANCH   1   2
ATOM      2  O   UNL A   1      34.921  23.141  26.488  1.00  0.00    -0.376 OA
BRANCH   2   3
ATOM      3  C   UNL A   1      33.935  23.893  25.786  1.00  0.00     0.202 C 
BRANCH   3   4
ATOM      4  C   UNL A   1      34.359  25.300  25.334  1.00  0.00     0.261 C 
BRANCH   4   5
ATOM      5  O   UNL A   1      33.399  26.307  25.747  1.00  0.00    -0.460 OA
BRANCH   5   6
ATOM      6  C   UNL A   1      33.657  27.552  25.293  1.00  0.00     0.338 C 
ATOM      7  O   UNL A   1      34.161  27.801  24.205  1.00  0.00    -0.246 OA
BRANCH   6   8
ATOM      8  C   UNL A   1      33.119  28.609  26.192  1.00  0.00     0.087 C 
ATOM      9  C   UNL A   1      35.187  31.806  27.869  1.00  0.00     0.026 A 
ATOM     10  C   UNL A   1      36.545  31.425  27.876  1.00  0.00     0.033 A 
ATOM     11  C   UNL A   1      34.292  30.804  27.477  1.00  0.00     0.135 A 
ATOM     12  C   UNL A   1      36.969  30.111  27.681  1.00  0.00     0.042 A 
ATOM     13  C   UNL A   1      34.694  29.456  27.553  1.00  0.00     0.019 A 
ATOM     14  O   UNL A   1      33.056  31.032  26.883  1.00  0.00    -0.475 OA
ATOM     15  Cl  UNL A   1      38.643  29.740  27.620  1.00  0.00    -0.084 Cl
ATOM     16  C   UNL A   1      36.034  29.100  27.604  1.00  0.00     0.032 A 
ATOM     17  C   UNL A   1      33.640  28.433  27.418  1.00  0.00     0.027 C 
ATOM     18  C   UNL A   1      32.830  30.046  25.757  1.00  0.00     0.316 C 
BRANCH   9  19
ATOM     19  C   UNL A   1      34.881  33.084  28.575  1.00  0.00    -0.015 A 
ATOM     20  C   UNL A   1      33.679  35.090  30.210  1.00  0.00     0.082 A 
ATOM     21  C   UNL A   1      34.725  34.311  30.707  1.00  0.00     0.022 A 
ATOM     22  C   UNL A   1      33.241  34.896  28.900  1.00  0.00     0.022 A 
ATOM     23  C   UNL A   1      35.324  33.334  29.889  1.00  0.00     0.010 A 
ATOM     24  C   UNL A   1      33.836  33.903  28.099  1.00  0.00     0.010 A 
BRANCH  20  25
ATOM     25  S   UNL A   1      32.950  36.320  31.269  1.00  0.00     0.238 S 
ATOM     26  O   UNL A   1      33.676  36.324  32.517  1.00  0.00    -0.207 OA
ATOM     27  O   UNL A   1      31.517  36.176  31.198  1.00  0.00    -0.207 OA
BRANCH  25  28
ATOM     28  N   UNL A   1      33.223  37.807  30.514  1.00  0.00    -0.225 NA
ATOM     29  H   UNL A   1      33.806  38.391  31.114  1.00  0.00     0.137 HD
ATOM     30  H   UNL A   1      32.331  38.274  30.349  1.00  0.00     0.137 HD
ENDBRANCH  25  28
ENDBRANCH  20  25
ENDBRANCH   9  19
BRANCH  18  31
ATOM     31  C   UNL A   1      31.406  30.142  25.197  1.00  0.00     0.430 C 
ATOM     32  F   UNL A   1      31.373  29.984  23.856  1.00  0.00    -0.167 F 
ATOM     33  F   UNL A   1      30.591  29.214  25.747  1.00  0.00    -0.167 F 
ATOM     34  F   UNL A   1      30.861  31.353  25.471  1.00  0.00    -0.167 F 
ENDBRANCH  18  31
ENDBRANCH   6   8
ENDBRANCH   5   6
ENDBRANCH   4   5
ENDBRANCH   3   4
ENDBRANCH   2   3
ENDBRANCH   1   2
BRANCH   1  35
ATOM     35  C   UNL A   1      33.926  20.942  25.837  1.00  0.00     0.188 C 
BRANCH  35  36
ATOM     36  O   UNL A   1      34.700  20.527  24.721  1.00  0.00    -0.376 OA
BRANCH  36  37
ATOM     37  C   UNL A   1      35.958  19.900  24.925  1.00  0.00     0.202 C 
BRANCH  37  38
ATOM     38  C   UNL A   1      37.240  20.662  24.568  1.00  0.00     0.261 C 
BRANCH  38  39
ATOM     39  O   UNL A   1      37.699  21.587  25.570  1.00  0.00    -0.460 OA
BRANCH  39  40
ATOM     40  C   UNL A   1      38.955  21.363  26.026  1.00  0.00     0.338 C 
ATOM     41  O   UNL A   1      39.643  20.373  25.841  1.00  0.00    -0.246 OA
BRANCH  40  42
ATOM     42  C   UNL A   1      39.493  22.568  26.687  1.00  0.00     0.060 A 
ATOM     43  C   UNL A   1      38.943  23.806  26.337  1.00  0.00     0.016 A 
ATOM     44  C   UNL A   1      40.605  22.504  27.531  1.00  0.00     0.016 A 
ATOM     45  C   UNL A   1      39.537  24.985  26.788  1.00  0.00     0.010 A 
ATOM     46  C   UNL A   1      41.204  23.690  27.975  1.00  0.00     0.010 A 
ATOM     47  C   UNL A   1      40.695  24.937  27.577  1.00  0.00    -0.014 A 
BRANCH  47  48
ATOM     48  C   UNL A   1      41.445  26.195  27.825  1.00  0.00     0.031 A 
ATOM     49  C   UNL A   1      40.982  27.103  28.922  1.00  0.00     0.074 A 
ATOM     50  C   UNL A   1      42.526  26.528  27.098  1.00  0.00     0.049 A 
ATOM     51  N   UNL A   1      41.592  28.123  29.464  1.00  0.00    -0.248 NA
ATOM     52  C   UNL A   1      39.633  26.848  29.446  1.00  0.00     0.031 C 
ATOM     53  C   UNL A   1      42.995  25.779  25.945  1.00  0.00     0.029 A 
ATOM     54  N   UNL A   1      43.450  27.537  27.241  1.00  0.00    -0.354 N 
ATOM     55  C   UNL A   1      40.674  28.677  30.346  1.00  0.00     0.074 A 
ATOM     56  C   UNL A   1      39.482  27.858  30.289  1.00  0.00     0.031 C 
ATOM     57  C   UNL A   1      44.190  26.262  25.565  1.00  0.00     0.029 A 
ATOM     58  C   UNL A   1      44.546  27.392  26.417  1.00  0.00     0.049 A 
ATOM     59  H   UNL A   1      43.340  28.285  27.870  1.00  0.00     0.167 HD
ATOM     60  C   UNL A   1      40.800  29.795  31.097  1.00  0.00     0.031 A 
ATOM     61  C   UNL A   1      45.718  28.063  26.395  1.00  0.00     0.031 A 
ATOM     62  C   UNL A   1      41.982  30.612  31.128  1.00  0.00     0.049 A 
ATOM     63  C   UNL A   1      45.906  29.203  27.372  1.00  0.00     0.074 A 
ATOM     64  C   UNL A   1      42.223  31.755  31.871  1.00  0.00     0.029 A 
ATOM     65  N   UNL A   1      43.120  30.380  30.370  1.00  0.00    -0.354 N 
ATOM     66  N   UNL A   1      45.094  29.634  28.309  1.00  0.00    -0.248 NA
ATOM     67  C   UNL A   1      47.174  29.944  27.292  1.00  0.00     0.031 C 
ATOM     68  C   UNL A   1      43.483  32.247  31.516  1.00  0.00     0.029 A 
ATOM     69  C   UNL A   1      44.054  31.376  30.599  1.00  0.00     0.049 A 
ATOM     70  H   UNL A   1      43.246  29.619  29.757  1.00  0.00     0.167 HD
ATOM     71  C   UNL A   1      45.777  30.652  28.969  1.00  0.00     0.074 A 
ATOM     72  C   UNL A   1      47.074  30.760  28.333  1.00  0.00     0.031 C 
ATOM     73  C   UNL A   1      45.361  31.441  29.993  1.00  0.00     0.031 A 
BRANCH  60  74
ATOM     74  C   UNL A   1      39.585  30.247  31.860  1.00  0.00    -0.014 A 
ATOM     75  C   UNL A   1      39.358  29.868  33.192  1.00  0.00     0.009 A 
ATOM     76  C   UNL A   1      38.643  31.064  31.216  1.00  0.00     0.009 A 
ATOM     77  C   UNL A   1      38.188  30.263  33.847  1.00  0.00     0.001 A 
ATOM     78  C   UNL A   1      37.490  31.482  31.882  1.00  0.00     0.001 A 
ATOM     79  C   UNL A   1      37.258  31.071  33.193  1.00  0.00     0.000 A 
ENDBRANCH  60  74
BRANCH  61  80
ATOM     80  C   UNL A   1      46.850  27.575  25.542  1.00  0.00    -0.014 A 
ATOM     81  C   UNL A   1      47.760  26.643  26.070  1.00  0.00     0.009 A 
ATOM     82  C   UNL A   1      47.018  27.959  24.204  1.00  0.00     0.009 A 
ATOM     83  C   UNL A   1      48.788  26.098  25.297  1.00  0.00     0.001 A 
ATOM     84  C   UNL A   1      48.021  27.383  23.413  1.00  0.00     0.001 A 
ATOM     85  C   UNL A   1      48.905  26.453  23.959  1.00  0.00     0.000 A 
ENDBRANCH  61  80
BRANCH  73  86
ATOM     86  C   UNL A   1      46.321  32.473  30.532  1.00  0.00    -0.014 A 
ATOM     87  C   UNL A   1      46.464  33.734  29.930  1.00  0.00     0.009 A 
ATOM     88  C   UNL A   1      47.032  32.210  31.715  1.00  0.00     0.009 A 
ATOM     89  C   UNL A   1      47.330  34.688  30.471  1.00  0.00     0.001 A 
ATOM     90  C   UNL A   1      47.866  33.179  32.277  1.00  0.00     0.001 A 
ATOM     91  C   UNL A   1      48.023  34.413  31.648  1.00  0.00     0.000 A 
ENDBRANCH  73  86
ENDBRANCH  47  48
ENDBRANCH  40  42
ENDBRANCH  39  40
ENDBRANCH  38  39
ENDBRANCH  37  38
ENDBRANCH  36  37
ENDBRANCH  35  36
ENDBRANCH   1  35
TORSDOF 21
ENDMDL
MODEL 2
REMARK VINA RESULT:     -10.0      4.397      7.867
REMARK SMILES NS(=O)(=O)c1ccc(-c2cc(Cl)cc3c2O[C@H](C(F)(F)F)C(C(=O)OCCOCCOCCOC(=O)c2ccc(-c4c5nc(c(-c6ccccc6)c6ccc([nH]6)c(-c6ccccc6)c6nc(c(-c7ccccc7)c7ccc4[nH]7)C=C6)C=C5)cc2)=C3)cc1
REMARK SMILES IDX 29 1 28 2 27 3 26 4 25 5 23 6 24 7 22 8 9 9 10 10 15 11
REMARK SMILES IDX 11 12 14 13 16 14 12 15 13 16 85 17 17 18 8 19 5 20 6 21
REMARK SMILES IDX 87 22 7 23 86 24 2 25 3 26 4 27 1 28 18 31 19 32 20 33 21 34
REMARK SMILES IDX 30 35 31 36 32 37 33 38 34 39 35 40 36 41 37 42 38 43 84 44
REMARK SMILES IDX 39 45 83 46 40 47 41 48 42 49 77 50 43 51 82 52 76 53 78 54
REMARK SMILES IDX 44 55 81 56 75 57 74 58 45 60 67 61 52 62 66 63 53 64 56 65
REMARK SMILES IDX 65 66 79 67 54 68 55 69 64 71 80 72 57 73 46 74 47 75 51 76
REMARK SMILES IDX 48 77 50 78 49 79 68 80 69 81 73 82 70 83 72 84 71 85 58 86
REMARK SMILES IDX 59 87 63 88 60 89 62 90 61 91
REMARK H PARENT 1 29 1 30 78 59 56 70
REMARK Flexibility Score: inf
ROOT
ATOM      1  C   UNL A   1      38.219  21.606  25.673  1.00  0.00     0.188 C 
ENDROOT
BRANCH   1   2
ATOM      2  O   UNL A   1      37.219  20.940  24.924  1.00  0.00    -0.376 OA
BRANCH   2   3
ATOM      3  C   UNL A   1      35.915  21.512  24.950  1.00  0.00     0.202 C 
BRANCH   3   4
ATOM      4  C   UNL A   1      34.745  20.517  25.024  1.00  0.00     0.261 C 
BRANCH   4   5
ATOM      5  O   UNL A   1      33.544  21.142  25.546  1.00  0.00    -0.460 OA
BRANCH   5   6
ATOM      6  C   UNL A   1      32.842  21.858  24.641  1.00  0.00     0.338 C 
ATOM      7  O   UNL A   1      32.526  21.449  23.531  1.00  0.00    -0.246 OA
BRANCH   6   8
ATOM      8  C   UNL A   1      32.351  23.150  25.192  1.00  0.00     0.087 C 
ATOM      9  C   UNL A   1      30.826  26.394  23.080  1.00  0.00     0.026 A 
ATOM     10  C   UNL A   1      31.335  26.274  21.770  1.00  0.00     0.033 A 
ATOM     11  C   UNL A   1      31.341  25.475  24.002  1.00  0.00     0.135 A 
ATOM     12  C   UNL A   1      32.395  25.430  21.438  1.00  0.00     0.042 A 
ATOM     13  C   UNL A   1      32.568  24.841  23.728  1.00  0.00     0.019 A 
ATOM     14  O   UNL A   1      30.669  25.025  25.133  1.00  0.00    -0.475 OA
ATOM     15  Cl  UNL A   1      32.904  25.277  19.807  1.00  0.00    -0.084 Cl
ATOM     16  C   UNL A   1      33.077  24.771  22.439  1.00  0.00     0.032 A 
ATOM     17  C   UNL A   1      33.214  24.119  24.841  1.00  0.00     0.027 C 
ATOM     18  C   UNL A   1      30.876  23.536  25.304  1.00  0.00     0.316 C 
BRANCH   9  19
ATOM     19  C   UNL A   1      30.081  27.655  23.360  1.00  0.00    -0.015 A 
ATOM     20  C   UNL A   1      28.842  30.214  23.125  1.00  0.00     0.082 A 
ATOM     21  C   UNL A   1      28.097  29.051  22.929  1.00  0.00     0.022 A 
ATOM     22  C   UNL A   1      30.193  30.116  23.460  1.00  0.00     0.022 A 
ATOM     23  C   UNL A   1      28.710  27.791  23.063  1.00  0.00     0.010 A 
ATOM     24  C   UNL A   1      30.799  28.849  23.572  1.00  0.00     0.010 A 
BRANCH  20  25
ATOM     25  S   UNL A   1      28.033  31.790  22.956  1.00  0.00     0.238 S 
ATOM     26  O   UNL A   1      26.920  31.823  23.875  1.00  0.00    -0.207 OA
ATOM     27  O   UNL A   1      27.894  32.070  21.548  1.00  0.00    -0.207 OA
BRANCH  25  28
ATOM     28  N   UNL A   1      29.152  32.948  23.468  1.00  0.00    -0.225 NA
ATOM     29  H   UNL A   1      28.869  33.317  24.375  1.00  0.00     0.137 HD
ATOM     30  H   UNL A   1      29.190  33.708  22.789  1.00  0.00     0.137 HD
ENDBRANCH  25  28
ENDBRANCH  20  25
ENDBRANCH   9  19
BRANCH  18  31
ATOM     31  C   UNL A   1      30.308  23.033  26.636  1.00  0.00     0.430 C 
ATOM     32  F   UNL A   1      29.403  23.888  27.160  1.00  0.00    -0.167 F 
ATOM     33  F   UNL A   1      29.713  21.827  26.500  1.00  0.00    -0.167 F 
ATOM     34  F   UNL A   1      31.295  22.881  27.554  1.00  0.00    -0.167 F 
ENDBRANCH  18  31
ENDBRANCH   6   8
ENDBRANCH   5   6
ENDBRANCH   4   5
ENDBRANCH   3   4
ENDBRANCH   2   3
ENDBRANCH   1   2
BRANCH   1  35
ATOM     35  C   UNL A   1      39.434  20.734  26.065  1.00  0.00     0.188 C 
BRANCH  35  36
ATOM     36  O   UNL A   1      40.308  21.138  27.109  1.00  0.00    -0.376 OA
BRANCH  36  37
ATOM     37  C   UNL A   1      40.570  22.518  27.318  1.00  0.00     0.202 C 
BRANCH  37  38
ATOM     38  C   UNL A   1      41.495  23.259  26.345  1.00  0.00     0.261 C 
BRANCH  38  39
ATOM     39  O   UNL A   1      42.079  24.470  26.861  1.00  0.00    -0.460 OA
BRANCH  39  40
ATOM     40  C   UNL A   1      41.724  25.602  26.207  1.00  0.00     0.338 C 
ATOM     41  O   UNL A   1      41.687  25.778  25.001  1.00  0.00    -0.246 OA
BRANCH  40  42
ATOM     42  C   UNL A   1      41.219  26.615  27.154  1.00  0.00     0.060 A 
ATOM     43  C   UNL A   1      41.745  27.908  27.069  1.00  0.00     0.016 A 
ATOM     44  C   UNL A   1      40.349  26.274  28.193  1.00  0.00     0.016 A 
ATOM     45  C   UNL A   1      41.444  28.849  28.054  1.00  0.00     0.010 A 
ATOM     46  C   UNL A   1      40.055  27.218  29.186  1.00  0.00     0.010 A 
ATOM     47  C   UNL A   1      40.629  28.500  29.141  1.00  0.00    -0.014 A 
BRANCH  47  48
ATOM     48  C   UNL A   1      40.537  29.431  30.295  1.00  0.00     0.031 A 
ATOM     49  C   UNL A   1      39.339  30.323  30.403  1.00  0.00     0.074 A 
ATOM     50  C   UNL A   1      41.491  29.482  31.240  1.00  0.00     0.049 A 
ATOM     51  N   UNL A   1      38.933  31.043  31.414  1.00  0.00    -0.248 NA
ATOM     52  C   UNL A   1      38.515  30.449  29.192  1.00  0.00     0.031 C 
ATOM     53  C   UNL A   1      42.741  28.744  31.177  1.00  0.00     0.029 A 
ATOM     54  N   UNL A   1      41.548  30.134  32.450  1.00  0.00    -0.354 N 
ATOM     55  C   UNL A   1      37.844  31.763  30.942  1.00  0.00     0.074 A 
ATOM     56  C   UNL A   1      37.636  31.366  29.566  1.00  0.00     0.031 C 
ATOM     57  C   UNL A   1      43.382  28.867  32.351  1.00  0.00     0.029 A 
ATOM     58  C   UNL A   1      42.613  29.739  33.232  1.00  0.00     0.049 A 
ATOM     59  H   UNL A   1      40.893  30.813  32.728  1.00  0.00     0.167 HD
ATOM     60  C   UNL A   1      37.117  32.706  31.585  1.00  0.00     0.031 A 
ATOM     61  C   UNL A   1      42.897  30.011  34.523  1.00  0.00     0.031 A 
ATOM     62  C   UNL A   1      37.349  33.107  32.946  1.00  0.00     0.049 A 
ATOM     63  C   UNL A   1      41.965  30.932  35.281  1.00  0.00     0.074 A 
ATOM     64  C   UNL A   1      36.657  34.039  33.701  1.00  0.00     0.029 A 
ATOM     65  N   UNL A   1      38.362  32.610  33.753  1.00  0.00    -0.354 N 
ATOM     66  N   UNL A   1      40.851  31.499  34.878  1.00  0.00    -0.248 NA
ATOM     67  C   UNL A   1      42.327  31.247  36.671  1.00  0.00     0.031 C 
ATOM     68  C   UNL A   1      37.290  34.148  34.943  1.00  0.00     0.029 A 
ATOM     69  C   UNL A   1      38.337  33.239  34.986  1.00  0.00     0.049 A 
ATOM     70  H   UNL A   1      39.005  31.913  33.487  1.00  0.00     0.167 HD
ATOM     71  C   UNL A   1      40.348  32.182  35.981  1.00  0.00     0.074 A 
ATOM     72  C   UNL A   1      41.272  31.944  37.071  1.00  0.00     0.031 C 
ATOM     73  C   UNL A   1      39.236  32.955  36.078  1.00  0.00     0.031 A 
BRANCH  60  74
ATOM     74  C   UNL A   1      36.076  33.434  30.781  1.00  0.00    -0.014 A 
ATOM     75  C   UNL A   1      34.771  33.633  31.256  1.00  0.00     0.009 A 
ATOM     76  C   UNL A   1      36.417  33.920  29.509  1.00  0.00     0.009 A 
ATOM     77  C   UNL A   1      33.817  34.265  30.453  1.00  0.00     0.001 A 
ATOM     78  C   UNL A   1      35.472  34.578  28.721  1.00  0.00     0.001 A 
ATOM     79  C   UNL A   1      34.169  34.739  29.189  1.00  0.00     0.000 A 
ENDBRANCH  60  74
BRANCH  61  80
ATOM     80  C   UNL A   1      44.007  29.283  35.221  1.00  0.00    -0.014 A 
ATOM     81  C   UNL A   1      45.292  29.851  35.253  1.00  0.00     0.009 A 
ATOM     82  C   UNL A   1      43.815  28.074  35.904  1.00  0.00     0.009 A 
ATOM     83  C   UNL A   1      46.344  29.254  35.952  1.00  0.00     0.001 A 
ATOM     84  C   UNL A   1      44.855  27.493  36.641  1.00  0.00     0.001 A 
ATOM     85  C   UNL A   1      46.118  28.083  36.665  1.00  0.00     0.000 A 
ENDBRANCH  61  80
BRANCH  73  86
ATOM     86  C   UNL A   1      38.915  33.578  37.415  1.00  0.00    -0.014 A 
ATOM     87  C   UNL A   1      38.114  32.919  38.362  1.00  0.00     0.009 A 
ATOM     88  C   UNL A   1      39.495  34.808  37.765  1.00  0.00     0.009 A 
ATOM     89  C   UNL A   1      37.864  33.498  39.608  1.00  0.00     0.001 A 
ATOM     90  C   UNL A   1      39.277  35.367  39.027  1.00  0.00     0.001 A 
ATOM     91  C   UNL A   1      38.452  34.717  39.943  1.00  0.00     0.000 A 
ENDBRANCH  73  86
ENDBRANCH  47  48
ENDBRANCH  40  42
ENDBRANCH  39  40
ENDBRANCH  38  39
ENDBRANCH  37  38
ENDBRANCH  36  37
ENDBRANCH  35  36
ENDBRANCH   1  35
TORSDOF 21
ENDMDL
MODEL 3
REMARK VINA RESULT:      -9.7      4.873     10.526
REMARK SMILES NS(=O)(=O)c1ccc(-c2cc(Cl)cc3c2O[C@H](C(F)(F)F)C(C(=O)OCCOCCOCCOC(=O)c2ccc(-c4c5nc(c(-c6ccccc6)c6ccc([nH]6)c(-c6ccccc6)c6nc(c(-c7ccccc7)c7ccc4[nH]7)C=C6)C=C5)cc2)=C3)cc1
REMARK SMILES IDX 29 1 28 2 27 3 26 4 25 5 23 6 24 7 22 8 9 9 10 10 15 11
REMARK SMILES IDX 11 12 14 13 16 14 12 15 13 16 85 17 17 18 8 19 5 20 6 21
REMARK SMILES IDX 87 22 7 23 86 24 2 25 3 26 4 27 1 28 18 31 19 32 20 33 21 34
REMARK SMILES IDX 30 35 31 36 32 37 33 38 34 39 35 40 36 41 37 42 38 43 84 44
REMARK SMILES IDX 39 45 83 46 40 47 41 48 42 49 77 50 43 51 82 52 76 53 78 54
REMARK SMILES IDX 44 55 81 56 75 57 74 58 45 60 67 61 52 62 66 63 53 64 56 65
REMARK SMILES IDX 65 66 79 67 54 68 55 69 64 71 80 72 57 73 46 74 47 75 51 76
REMARK SMILES IDX 48 77 50 78 49 79 68 80 69 81 73 82 70 83 72 84 71 85 58 86
REMARK SMILES IDX 59 87 63 88 60 89 62 90 61 91
REMARK H PARENT 1 29 1 30 78 59 56 70
REMARK Flexibility Score: inf
ROOT
ATOM      1  C   UNL A   1      36.022  31.406  28.366  1.00  0.00     0.188 C 
ENDROOT
BRANCH   1   2
ATOM      2  O   UNL A   1      36.836  30.497  29.085  1.00  0.00    -0.376 OA
BRANCH   2   3
ATOM      3  C   UNL A   1      37.619  29.592  28.311  1.00  0.00     0.202 C 
BRANCH   3   4
ATOM      4  C   UNL A   1      39.144  29.753  28.428  1.00  0.00     0.261 C 
BRANCH   4   5
ATOM      5  O   UNL A   1      39.818  29.365  27.203  1.00  0.00    -0.460 OA
BRANCH   5   6
ATOM      6  C   UNL A   1      40.928  28.617  27.383  1.00  0.00     0.338 C 
ATOM      7  O   UNL A   1      41.865  28.934  28.104  1.00  0.00    -0.246 OA
BRANCH   6   8
ATOM      8  C   UNL A   1      40.830  27.284  26.730  1.00  0.00     0.087 C 
ATOM      9  C   UNL A   1      43.952  24.817  25.515  1.00  0.00     0.026 A 
ATOM     10  C   UNL A   1      45.067  25.663  25.342  1.00  0.00     0.033 A 
ATOM     11  C   UNL A   1      42.744  25.473  25.782  1.00  0.00     0.135 A 
ATOM     12  C   UNL A   1      44.965  27.052  25.267  1.00  0.00     0.042 A 
ATOM     13  C   UNL A   1      42.610  26.831  25.436  1.00  0.00     0.019 A 
ATOM     14  O   UNL A   1      41.684  24.925  26.494  1.00  0.00    -0.475 OA
ATOM     15  Cl  UNL A   1      46.376  28.020  25.140  1.00  0.00    -0.084 Cl
ATOM     16  C   UNL A   1      43.718  27.641  25.226  1.00  0.00     0.032 A 
ATOM     17  C   UNL A   1      41.249  27.399  25.458  1.00  0.00     0.027 C 
ATOM     18  C   UNL A   1      41.101  25.955  27.436  1.00  0.00     0.316 C 
BRANCH   9  19
ATOM     19  C   UNL A   1      44.150  23.406  25.075  1.00  0.00    -0.015 A 
ATOM     20  C   UNL A   1      45.039  20.703  24.859  1.00  0.00     0.082 A 
ATOM     21  C   UNL A   1      43.870  21.005  25.558  1.00  0.00     0.022 A 
ATOM     22  C   UNL A   1      45.758  21.730  24.247  1.00  0.00     0.022 A 
ATOM     23  C   UNL A   1      43.428  22.339  25.647  1.00  0.00     0.010 A 
ATOM     24  C   UNL A   1      45.315  23.062  24.358  1.00  0.00     0.010 A 
BRANCH  20  25
ATOM     25  S   UNL A   1      45.565  19.006  24.761  1.00  0.00     0.238 S 
ATOM     26  O   UNL A   1      44.468  18.172  25.192  1.00  0.00    -0.207 OA
ATOM     27  O   UNL A   1      46.888  18.915  25.329  1.00  0.00    -0.207 OA
BRANCH  25  28
ATOM     28  N   UNL A   1      45.831  18.693  23.121  1.00  0.00    -0.225 NA
ATOM     29  H   UNL A   1      46.508  17.936  23.025  1.00  0.00     0.137 HD
ATOM     30  H   UNL A   1      46.193  19.533  22.669  1.00  0.00     0.137 HD
ENDBRANCH  25  28
ENDBRANCH  20  25
ENDBRANCH   9  19
BRANCH  18  31
ATOM     31  C   UNL A   1      39.817  25.451  28.104  1.00  0.00     0.430 C 
ATOM     32  F   UNL A   1      39.839  24.117  28.313  1.00  0.00    -0.167 F 
ATOM     33  F   UNL A   1      39.604  26.056  29.294  1.00  0.00    -0.167 F 
ATOM     34  F   UNL A   1      38.735  25.719  27.331  1.00  0.00    -0.167 F 
ENDBRANCH  18  31
ENDBRANCH   6   8
ENDBRANCH   5   6
ENDBRANCH   4   5
ENDBRANCH   3   4
ENDBRANCH   2   3
ENDBRANCH   1   2
BRANCH   1  35
ATOM     35  C   UNL A   1      35.472  32.589  29.196  1.00  0.00     0.188 C 
BRANCH  35  36
ATOM     36  O   UNL A   1      34.490  32.374  30.198  1.00  0.00    -0.376 OA
BRANCH  36  37
ATOM     37  C   UNL A   1      34.577  33.067  31.436  1.00  0.00     0.202 C 
BRANCH  37  38
ATOM     38  C   UNL A   1      35.027  34.533  31.441  1.00  0.00     0.261 C 
BRANCH  38  39
ATOM     39  O   UNL A   1      36.422  34.743  31.724  1.00  0.00    -0.460 OA
BRANCH  39  40
ATOM     40  C   UNL A   1      36.824  34.346  32.956  1.00  0.00     0.338 C 
ATOM     41  O   UNL A   1      36.299  34.607  34.025  1.00  0.00    -0.246 OA
BRANCH  40  42
ATOM     42  C   UNL A   1      37.945  33.391  32.856  1.00  0.00     0.060 A 
ATOM     43  C   UNL A   1      39.105  33.666  33.590  1.00  0.00     0.016 A 
ATOM     44  C   UNL A   1      37.916  32.321  31.958  1.00  0.00     0.016 A 
ATOM     45  C   UNL A   1      40.254  32.902  33.387  1.00  0.00     0.010 A 
ATOM     46  C   UNL A   1      39.075  31.562  31.749  1.00  0.00     0.010 A 
ATOM     47  C   UNL A   1      40.261  31.871  32.437  1.00  0.00    -0.014 A 
BRANCH  47  48
ATOM     48  C   UNL A   1      41.558  31.252  32.062  1.00  0.00     0.031 A 
ATOM     49  C   UNL A   1      41.961  29.971  32.726  1.00  0.00     0.074 A 
ATOM     50  C   UNL A   1      42.365  31.805  31.140  1.00  0.00     0.049 A 
ATOM     51  N   UNL A   1      42.918  29.141  32.409  1.00  0.00    -0.248 NA
ATOM     52  C   UNL A   1      41.207  29.603  33.932  1.00  0.00     0.031 C 
ATOM     53  C   UNL A   1      42.126  33.095  30.517  1.00  0.00     0.029 A 
ATOM     54  N   UNL A   1      43.510  31.346  30.532  1.00  0.00    -0.354 N 
ATOM     55  C   UNL A   1      42.929  28.187  33.417  1.00  0.00     0.074 A 
ATOM     56  C   UNL A   1      41.860  28.524  34.333  1.00  0.00     0.031 C 
ATOM     57  C   UNL A   1      43.007  33.270  29.517  1.00  0.00     0.029 A 
ATOM     58  C   UNL A   1      43.910  32.124  29.465  1.00  0.00     0.049 A 
ATOM     59  H   UNL A   1      43.994  30.542  30.828  1.00  0.00     0.167 HD
ATOM     60  C   UNL A   1      43.785  27.152  33.586  1.00  0.00     0.031 A 
ATOM     61  C   UNL A   1      44.858  31.905  28.530  1.00  0.00     0.031 A 
ATOM     62  C   UNL A   1      44.855  26.841  32.679  1.00  0.00     0.049 A 
ATOM     63  C   UNL A   1      45.688  30.644  28.637  1.00  0.00     0.074 A 
ATOM     64  C   UNL A   1      45.768  25.802  32.745  1.00  0.00     0.029 A 
ATOM     65  N   UNL A   1      45.168  27.578  31.546  1.00  0.00    -0.354 N 
ATOM     66  N   UNL A   1      45.600  29.665  29.508  1.00  0.00    -0.248 NA
ATOM     67  C   UNL A   1      46.744  30.456  27.631  1.00  0.00     0.031 C 
ATOM     68  C   UNL A   1      46.668  25.947  31.685  1.00  0.00     0.029 A 
ATOM     69  C   UNL A   1      46.280  27.038  30.922  1.00  0.00     0.049 A 
ATOM     70  H   UNL A   1      44.672  28.368  31.231  1.00  0.00     0.167 HD
ATOM     71  C   UNL A   1      46.543  28.719  29.117  1.00  0.00     0.074 A 
ATOM     72  C   UNL A   1      47.178  29.237  27.922  1.00  0.00     0.031 C 
ATOM     73  C   UNL A   1      46.870  27.539  29.705  1.00  0.00     0.031 A 
BRANCH  60  74
ATOM     74  C   UNL A   1      43.652  26.354  34.853  1.00  0.00    -0.014 A 
ATOM     75  C   UNL A   1      42.835  25.216  34.936  1.00  0.00     0.009 A 
ATOM     76  C   UNL A   1      44.358  26.768  35.994  1.00  0.00     0.009 A 
ATOM     77  C   UNL A   1      42.695  24.536  36.149  1.00  0.00     0.001 A 
ATOM     78  C   UNL A   1      44.240  26.070  37.196  1.00  0.00     0.001 A 
ATOM     79  C   UNL A   1      43.399  24.961  37.276  1.00  0.00     0.000 A 
ENDBRANCH  60  74
BRANCH  61  80
ATOM     80  C   UNL A   1      44.959  32.803  27.333  1.00  0.00    -0.014 A 
ATOM     81  C   UNL A   1      44.192  32.519  26.191  1.00  0.00     0.009 A 
ATOM     82  C   UNL A   1      45.747  33.962  27.315  1.00  0.00     0.009 A 
ATOM     83  C   UNL A   1      44.189  33.363  25.077  1.00  0.00     0.001 A 
ATOM     84  C   UNL A   1      45.715  34.834  26.217  1.00  0.00     0.001 A 
ATOM     85  C   UNL A   1      44.937  34.534  25.101  1.00  0.00     0.000 A 
ENDBRANCH  61  80
BRANCH  73  86
ATOM     86  C   UNL A   1      47.937  26.691  29.056  1.00  0.00    -0.014 A 
ATOM     87  C   UNL A   1      47.624  25.737  28.074  1.00  0.00     0.009 A 
ATOM     88  C   UNL A   1      49.288  26.911  29.372  1.00  0.00     0.009 A 
ATOM     89  C   UNL A   1      48.633  24.992  27.458  1.00  0.00     0.001 A 
ATOM     90  C   UNL A   1      50.298  26.194  28.726  1.00  0.00     0.001 A 
ATOM     91  C   UNL A   1      49.968  25.226  27.779  1.00  0.00     0.000 A 
ENDBRANCH  73  86
ENDBRANCH  47  48
ENDBRANCH  40  42
ENDBRANCH  39  40
ENDBRANCH  38  39
ENDBRANCH  37  38
ENDBRANCH  36  37
ENDBRANCH  35  36
ENDBRANCH   1  35
TORSDOF 21
ENDMDL
