MODEL 1
REMARK VINA RESULT:     -10.3      0.000      0.000
REMARK SMILES COc1ccc(-n2ccnc2C[N@@H+]2Cc3[nH]cnc3C[C@@H]2C(=O)OCCOCCOCCOC(=O)c2ccc(-c3c4nc(c(-c5ccccc5)c5ccc([nH]5)c(-c5ccccc5)c5nc(c(-c6ccccc6)c6ccc3[nH]6)C=C5)C=C4)cc2)cc1
REMARK SMILES IDX 28 1 27 2 26 3 25 4 24 5 22 6 23 7 21 8 13 9 14 10 15 12
REMARK SMILES IDX 20 13 16 14 19 15 17 16 18 18 12 19 11 20 7 21 8 22 9 23
REMARK SMILES IDX 10 24 6 25 3 26 4 27 85 28 5 29 84 30 2 31 1 32 29 33 30 34
REMARK SMILES IDX 31 35 32 36 33 37 34 38 35 39 36 40 37 41 83 42 38 43 82 44
REMARK SMILES IDX 39 45 40 46 41 47 76 48 42 49 81 50 75 51 77 52 43 53 80 54
REMARK SMILES IDX 74 55 73 56 44 58 66 59 51 60 65 61 52 62 55 63 64 64 78 65
REMARK SMILES IDX 53 66 54 67 63 69 79 70 56 71 45 72 46 73 50 74 47 75 49 76
REMARK SMILES IDX 48 77 67 78 68 79 72 80 69 81 71 82 70 83 57 84 58 85 62 86
REMARK SMILES IDX 59 87 61 88 60 89
REMARK H PARENT 13 11 16 17 77 57 55 68
REMARK Flexibility Score: inf
ROOT
ATOM      1  C   UNL A   1      34.001  31.978  28.081  1.00  0.00     0.188 C 
ENDROOT
BRANCH   1   2
ATOM      2  O   UNL A   1      34.740  31.107  27.252  1.00  0.00    -0.376 OA
BRANCH   2   3
ATOM      3  C   UNL A   1      34.798  29.725  27.567  1.00  0.00     0.202 C 
BRANCH   3   4
ATOM      4  C   UNL A   1      34.262  28.605  26.655  1.00  0.00     0.261 C 
BRANCH   4   5
ATOM      5  O   UNL A   1      33.240  28.980  25.721  1.00  0.00    -0.459 OA
BRANCH   5   6
ATOM      6  C   UNL A   1      31.963  28.616  26.047  1.00  0.00     0.365 C 
ATOM      7  O   UNL A   1      31.500  28.660  27.182  1.00  0.00    -0.245 OA
BRANCH   6   8
ATOM      8  C   UNL A   1      31.160  28.194  24.808  1.00  0.00     0.301 C 
ATOM      9  N   UNL A   1      30.600  26.768  24.914  1.00  0.00    -0.312 N 
ATOM     10  C   UNL A   1      30.216  26.269  23.569  1.00  0.00     0.320 C 
ATOM     11  H   UNL A   1      29.778  26.835  25.514  1.00  0.00     0.349 HD
ATOM     12  C   UNL A   1      31.413  26.350  22.709  1.00  0.00     0.093 A 
ATOM     13  C   UNL A   1      31.999  28.606  23.550  1.00  0.00     0.136 C 
ATOM     14  N   UNL A   1      32.060  25.368  22.023  1.00  0.00    -0.344 N 
ATOM     15  C   UNL A   1      32.265  27.424  22.707  1.00  0.00     0.074 A 
ATOM     16  C   UNL A   1      33.275  25.890  21.652  1.00  0.00     0.197 A 
ATOM     17  H   UNL A   1      31.725  24.462  21.832  1.00  0.00     0.167 HD
ATOM     18  N   UNL A   1      33.413  27.145  22.030  1.00  0.00    -0.241 NA
BRANCH   9  19
ATOM     19  C   UNL A   1      31.514  25.802  25.577  1.00  0.00     0.340 C 
BRANCH  19  20
ATOM     20  C   UNL A   1      30.786  24.655  26.255  1.00  0.00     0.168 A 
ATOM     21  N   UNL A   1      31.194  23.329  26.159  1.00  0.00    -0.299 N 
ATOM     22  C   UNL A   1      30.137  22.564  26.598  1.00  0.00     0.113 A 
ATOM     23  C   UNL A   1      29.206  23.452  27.078  1.00  0.00     0.132 A 
ATOM     24  N   UNL A   1      29.617  24.740  26.875  1.00  0.00    -0.236 NA
BRANCH  21  25
ATOM     25  C   UNL A   1      32.405  22.843  25.614  1.00  0.00     0.047 A 
ATOM     26  C   UNL A   1      34.851  22.196  24.456  1.00  0.00     0.119 A 
ATOM     27  C   UNL A   1      34.792  22.526  25.809  1.00  0.00     0.048 A 
ATOM     28  C   UNL A   1      33.679  22.106  23.702  1.00  0.00     0.048 A 
ATOM     29  C   UNL A   1      33.570  22.858  26.389  1.00  0.00     0.030 A 
ATOM     30  C   UNL A   1      32.446  22.413  24.284  1.00  0.00     0.030 A 
BRANCH  26  31
ATOM     31  O   UNL A   1      36.087  21.904  23.950  1.00  0.00    -0.497 OA
ATOM     32  C   UNL A   1      36.619  22.954  23.144  1.00  0.00     0.278 C 
ENDBRANCH  26  31
ENDBRANCH  21  25
ENDBRANCH  19  20
ENDBRANCH   9  19
ENDBRANCH   6   8
ENDBRANCH   5   6
ENDBRANCH   4   5
ENDBRANCH   3   4
ENDBRANCH   2   3
ENDBRANCH   1   2
BRANCH   1  33
ATOM     33  C   UNL A   1      34.349  33.479  28.114  1.00  0.00     0.188 C 
BRANCH  33  34
ATOM     34  O   UNL A   1      34.694  34.150  29.310  1.00  0.00    -0.376 OA
BRANCH  34  35
ATOM     35  C   UNL A   1      34.746  33.506  30.569  1.00  0.00     0.202 C 
BRANCH  35  36
ATOM     36  C   UNL A   1      35.995  32.852  31.145  1.00  0.00     0.261 C 
BRANCH  36  37
ATOM     37  O   UNL A   1      36.340  31.618  30.553  1.00  0.00    -0.460 OA
BRANCH  37  38
ATOM     38  C   UNL A   1      37.486  31.681  29.853  1.00  0.00     0.338 C 
ATOM     39  O   UNL A   1      37.658  32.160  28.735  1.00  0.00    -0.246 OA
BRANCH  38  40
ATOM     40  C   UNL A   1      38.542  31.014  30.601  1.00  0.00     0.060 A 
ATOM     41  C   UNL A   1      39.848  31.441  30.347  1.00  0.00     0.016 A 
ATOM     42  C   UNL A   1      38.240  29.779  31.185  1.00  0.00     0.016 A 
ATOM     43  C   UNL A   1      40.848  30.503  30.402  1.00  0.00     0.010 A 
ATOM     44  C   UNL A   1      39.235  28.840  31.227  1.00  0.00     0.010 A 
ATOM     45  C   UNL A   1      40.490  29.192  30.720  1.00  0.00    -0.014 A 
BRANCH  45  46
ATOM     46  C   UNL A   1      41.442  28.146  30.425  1.00  0.00     0.031 A 
ATOM     47  C   UNL A   1      42.326  27.786  31.550  1.00  0.00     0.074 A 
ATOM     48  C   UNL A   1      41.362  27.494  29.248  1.00  0.00     0.049 A 
ATOM     49  N   UNL A   1      43.611  27.673  31.551  1.00  0.00    -0.248 NA
ATOM     50  C   UNL A   1      41.699  27.625  32.875  1.00  0.00     0.031 C 
ATOM     51  C   UNL A   1      40.313  27.630  28.227  1.00  0.00     0.029 A 
ATOM     52  N   UNL A   1      42.093  26.439  28.797  1.00  0.00    -0.354 N 
ATOM     53  C   UNL A   1      43.943  27.250  32.833  1.00  0.00     0.074 A 
ATOM     54  C   UNL A   1      42.760  27.383  33.640  1.00  0.00     0.031 C 
ATOM     55  C   UNL A   1      40.311  26.525  27.453  1.00  0.00     0.029 A 
ATOM     56  C   UNL A   1      41.410  25.666  27.865  1.00  0.00     0.049 A 
ATOM     57  H   UNL A   1      43.009  26.243  29.098  1.00  0.00     0.167 HD
ATOM     58  C   UNL A   1      45.089  26.565  33.083  1.00  0.00     0.031 A 
ATOM     59  C   UNL A   1      41.642  24.363  27.572  1.00  0.00     0.031 A 
ATOM     60  C   UNL A   1      46.082  26.775  32.066  1.00  0.00     0.049 A 
ATOM     61  C   UNL A   1      42.985  24.011  28.099  1.00  0.00     0.074 A 
ATOM     62  C   UNL A   1      46.694  27.897  31.542  1.00  0.00     0.029 A 
ATOM     63  N   UNL A   1      46.310  25.764  31.164  1.00  0.00    -0.354 N 
ATOM     64  N   UNL A   1      44.102  24.471  27.612  1.00  0.00    -0.248 NA
ATOM     65  C   UNL A   1      43.066  23.501  29.462  1.00  0.00     0.031 C 
ATOM     66  C   UNL A   1      46.826  27.628  30.150  1.00  0.00     0.029 A 
ATOM     67  C   UNL A   1      46.342  26.340  29.919  1.00  0.00     0.049 A 
ATOM     68  H   UNL A   1      46.429  24.809  31.371  1.00  0.00     0.167 HD
ATOM     69  C   UNL A   1      44.902  24.713  28.722  1.00  0.00     0.074 A 
ATOM     70  C   UNL A   1      44.251  24.003  29.821  1.00  0.00     0.031 C 
ATOM     71  C   UNL A   1      45.846  25.701  28.720  1.00  0.00     0.031 A 
BRANCH  58  72
ATOM     72  C   UNL A   1      45.116  25.395  34.027  1.00  0.00    -0.014 A 
ATOM     73  C   UNL A   1      44.470  24.206  33.655  1.00  0.00     0.009 A 
ATOM     74  C   UNL A   1      45.508  25.513  35.378  1.00  0.00     0.009 A 
ATOM     75  C   UNL A   1      44.177  23.218  34.603  1.00  0.00     0.001 A 
ATOM     76  C   UNL A   1      45.260  24.510  36.314  1.00  0.00     0.001 A 
ATOM     77  C   UNL A   1      44.567  23.372  35.931  1.00  0.00     0.000 A 
ENDBRANCH  58  72
BRANCH  59  78
ATOM     78  C   UNL A   1      40.640  23.344  27.179  1.00  0.00    -0.014 A 
ATOM     79  C   UNL A   1      39.341  23.717  26.805  1.00  0.00     0.009 A 
ATOM     80  C   UNL A   1      41.017  22.004  26.959  1.00  0.00     0.009 A 
ATOM     81  C   UNL A   1      38.464  22.788  26.222  1.00  0.00     0.001 A 
ATOM     82  C   UNL A   1      40.140  21.074  26.392  1.00  0.00     0.001 A 
ATOM     83  C   UNL A   1      38.865  21.470  26.012  1.00  0.00     0.000 A 
ENDBRANCH  59  78
BRANCH  71  84
ATOM     84  C   UNL A   1      46.182  26.382  27.415  1.00  0.00    -0.014 A 
ATOM     85  C   UNL A   1      47.105  25.857  26.493  1.00  0.00     0.009 A 
ATOM     86  C   UNL A   1      45.415  27.491  27.024  1.00  0.00     0.009 A 
ATOM     87  C   UNL A   1      47.279  26.445  25.237  1.00  0.00     0.001 A 
ATOM     88  C   UNL A   1      45.571  28.063  25.759  1.00  0.00     0.001 A 
ATOM     89  C   UNL A   1      46.507  27.545  24.869  1.00  0.00     0.000 A 
ENDBRANCH  71  84
ENDBRANCH  45  46
ENDBRANCH  38  40
ENDBRANCH  37  38
ENDBRANCH  36  37
ENDBRANCH  35  36
ENDBRANCH  34  35
ENDBRANCH  33  34
ENDBRANCH   1  33
TORSDOF 21
ENDMDL
MODEL 2
REMARK VINA RESULT:      -9.9      1.263      3.620
REMARK SMILES COc1ccc(-n2ccnc2C[N@@H+]2Cc3[nH]cnc3C[C@@H]2C(=O)OCCOCCOCCOC(=O)c2ccc(-c3c4nc(c(-c5ccccc5)c5ccc([nH]5)c(-c5ccccc5)c5nc(c(-c6ccccc6)c6ccc3[nH]6)C=C5)C=C4)cc2)cc1
REMARK SMILES IDX 28 1 27 2 26 3 25 4 24 5 22 6 23 7 21 8 13 9 14 10 15 12
REMARK SMILES IDX 20 13 16 14 19 15 17 16 18 18 12 19 11 20 7 21 8 22 9 23
REMARK SMILES IDX 10 24 6 25 3 26 4 27 85 28 5 29 84 30 2 31 1 32 29 33 30 34
REMARK SMILES IDX 31 35 32 36 33 37 34 38 35 39 36 40 37 41 83 42 38 43 82 44
REMARK SMILES IDX 39 45 40 46 41 47 76 48 42 49 81 50 75 51 77 52 43 53 80 54
REMARK SMILES IDX 74 55 73 56 44 58 66 59 51 60 65 61 52 62 55 63 64 64 78 65
REMARK SMILES IDX 53 66 54 67 63 69 79 70 56 71 45 72 46 73 50 74 47 75 49 76
REMARK SMILES IDX 48 77 67 78 68 79 72 80 69 81 71 82 70 83 57 84 58 85 62 86
REMARK SMILES IDX 59 87 61 88 60 89
REMARK H PARENT 13 11 16 17 77 57 55 68
REMARK Flexibility Score: inf
ROOT
ATOM      1  C   UNL A   1      34.070  31.306  27.529  1.00  0.00     0.188 C 
ENDROOT
BRANCH   1   2
ATOM      2  O   UNL A   1      34.905  30.195  27.775  1.00  0.00    -0.376 OA
BRANCH   2   3
ATOM      3  C   UNL A   1      34.537  28.920  27.270  1.00  0.00     0.202 C 
BRANCH   3   4
ATOM      4  C   UNL A   1      33.998  28.674  25.849  1.00  0.00     0.261 C 
BRANCH   4   5
ATOM      5  O   UNL A   1      33.929  27.306  25.423  1.00  0.00    -0.459 OA
BRANCH   5   6
ATOM      6  C   UNL A   1      32.858  26.587  25.876  1.00  0.00     0.365 C 
ATOM      7  O   UNL A   1      31.744  27.059  26.080  1.00  0.00    -0.245 OA
BRANCH   6   8
ATOM      8  C   UNL A   1      33.205  25.101  26.048  1.00  0.00     0.301 C 
ATOM      9  N   UNL A   1      33.087  24.303  24.741  1.00  0.00    -0.312 N 
ATOM     10  C   UNL A   1      33.013  22.850  25.034  1.00  0.00     0.320 C 
ATOM     11  H   UNL A   1      33.931  24.514  24.208  1.00  0.00     0.349 HD
ATOM     12  C   UNL A   1      31.864  22.639  25.937  1.00  0.00     0.093 A 
ATOM     13  C   UNL A   1      32.462  24.598  27.333  1.00  0.00     0.136 C 
ATOM     14  N   UNL A   1      30.759  21.861  25.773  1.00  0.00    -0.344 N 
ATOM     15  C   UNL A   1      31.583  23.459  26.999  1.00  0.00     0.074 A 
ATOM     16  C   UNL A   1      29.860  22.257  26.732  1.00  0.00     0.197 A 
ATOM     17  H   UNL A   1      30.629  21.155  25.099  1.00  0.00     0.167 HD
ATOM     18  N   UNL A   1      30.345  23.206  27.507  1.00  0.00    -0.241 NA
BRANCH   9  19
ATOM     19  C   UNL A   1      31.947  24.710  23.879  1.00  0.00     0.340 C 
BRANCH  19  20
ATOM     20  C   UNL A   1      32.365  25.088  22.469  1.00  0.00     0.168 A 
ATOM     21  N   UNL A   1      31.952  26.256  21.837  1.00  0.00    -0.299 N 
ATOM     22  C   UNL A   1      32.235  26.097  20.500  1.00  0.00     0.113 A 
ATOM     23  C   UNL A   1      32.938  24.921  20.404  1.00  0.00     0.132 A 
ATOM     24  N   UNL A   1      33.025  24.309  21.623  1.00  0.00    -0.236 NA
BRANCH  21  25
ATOM     25  C   UNL A   1      31.270  27.349  22.421  1.00  0.00     0.047 A 
ATOM     26  C   UNL A   1      29.863  29.597  23.263  1.00  0.00     0.119 A 
ATOM     27  C   UNL A   1      29.192  28.389  23.084  1.00  0.00     0.048 A 
ATOM     28  C   UNL A   1      31.249  29.663  23.104  1.00  0.00     0.048 A 
ATOM     29  C   UNL A   1      29.892  27.264  22.655  1.00  0.00     0.030 A 
ATOM     30  C   UNL A   1      31.962  28.533  22.698  1.00  0.00     0.030 A 
BRANCH  26  31
ATOM     31  O   UNL A   1      29.106  30.664  23.663  1.00  0.00    -0.497 OA
ATOM     32  C   UNL A   1      27.897  30.797  22.918  1.00  0.00     0.278 C 
ENDBRANCH  26  31
ENDBRANCH  21  25
ENDBRANCH  19  20
ENDBRANCH   9  19
ENDBRANCH   6   8
ENDBRANCH   5   6
ENDBRANCH   4   5
ENDBRANCH   3   4
ENDBRANCH   2   3
ENDBRANCH   1   2
BRANCH   1  33
ATOM     33  C   UNL A   1      34.361  32.649  28.227  1.00  0.00     0.188 C 
BRANCH  33  34
ATOM     34  O   UNL A   1      34.246  32.814  29.627  1.00  0.00    -0.376 OA
BRANCH  34  35
ATOM     35  C   UNL A   1      34.933  33.821  30.345  1.00  0.00     0.202 C 
BRANCH  35  36
ATOM     36  C   UNL A   1      36.311  33.639  30.969  1.00  0.00     0.261 C 
BRANCH  36  37
ATOM     37  O   UNL A   1      36.863  32.349  30.814  1.00  0.00    -0.460 OA
BRANCH  37  38
ATOM     38  C   UNL A   1      37.986  32.352  30.075  1.00  0.00     0.338 C 
ATOM     39  O   UNL A   1      38.164  32.878  28.979  1.00  0.00    -0.246 OA
BRANCH  38  40
ATOM     40  C   UNL A   1      39.001  31.551  30.745  1.00  0.00     0.060 A 
ATOM     41  C   UNL A   1      40.330  31.835  30.419  1.00  0.00     0.016 A 
ATOM     42  C   UNL A   1      38.596  30.343  31.322  1.00  0.00     0.016 A 
ATOM     43  C   UNL A   1      41.218  30.789  30.395  1.00  0.00     0.010 A 
ATOM     44  C   UNL A   1      39.479  29.297  31.285  1.00  0.00     0.010 A 
ATOM     45  C   UNL A   1      40.733  29.520  30.709  1.00  0.00    -0.014 A 
BRANCH  45  46
ATOM     46  C   UNL A   1      41.541  28.382  30.336  1.00  0.00     0.031 A 
ATOM     47  C   UNL A   1      42.409  27.867  31.412  1.00  0.00     0.074 A 
ATOM     48  C   UNL A   1      41.345  27.798  29.137  1.00  0.00     0.049 A 
ATOM     49  N   UNL A   1      43.670  27.600  31.362  1.00  0.00    -0.248 NA
ATOM     50  C   UNL A   1      41.809  27.722  32.752  1.00  0.00     0.031 C 
ATOM     51  C   UNL A   1      40.290  28.105  28.162  1.00  0.00     0.029 A 
ATOM     52  N   UNL A   1      41.928  26.684  28.616  1.00  0.00    -0.354 N 
ATOM     53  C   UNL A   1      43.988  27.082  32.612  1.00  0.00     0.074 A 
ATOM     54  C   UNL A   1      42.856  27.320  33.467  1.00  0.00     0.031 C 
ATOM     55  C   UNL A   1      40.129  27.045  27.343  1.00  0.00     0.029 A 
ATOM     56  C   UNL A   1      41.127  26.042  27.679  1.00  0.00     0.049 A 
ATOM     57  H   UNL A   1      42.822  26.366  28.875  1.00  0.00     0.167 HD
ATOM     58  C   UNL A   1      45.049  26.253  32.791  1.00  0.00     0.031 A 
ATOM     59  C   UNL A   1      41.190  24.735  27.324  1.00  0.00     0.031 A 
ATOM     60  C   UNL A   1      46.029  26.389  31.748  1.00  0.00     0.049 A 
ATOM     61  C   UNL A   1      42.496  24.201  27.787  1.00  0.00     0.074 A 
ATOM     62  C   UNL A   1      46.756  27.452  31.249  1.00  0.00     0.029 A 
ATOM     63  N   UNL A   1      46.103  25.399  30.797  1.00  0.00    -0.354 N 
ATOM     64  N   UNL A   1      43.645  24.544  27.278  1.00  0.00    -0.248 NA
ATOM     65  C   UNL A   1      42.557  23.623  29.123  1.00  0.00     0.031 C 
ATOM     66  C   UNL A   1      46.811  27.232  29.844  1.00  0.00     0.029 A 
ATOM     67  C   UNL A   1      46.167  26.023  29.578  1.00  0.00     0.049 A 
ATOM     68  H   UNL A   1      46.112  24.429  30.961  1.00  0.00     0.167 HD
ATOM     69  C   UNL A   1      44.502  24.638  28.367  1.00  0.00     0.074 A 
ATOM     70  C   UNL A   1      43.805  23.962  29.459  1.00  0.00     0.031 C 
ATOM     71  C   UNL A   1      45.559  25.505  28.372  1.00  0.00     0.031 A 
BRANCH  58  72
ATOM     72  C   UNL A   1      44.964  25.047  33.685  1.00  0.00    -0.014 A 
ATOM     73  C   UNL A   1      44.260  23.919  33.237  1.00  0.00     0.009 A 
ATOM     74  C   UNL A   1      45.305  25.085  35.054  1.00  0.00     0.009 A 
ATOM     75  C   UNL A   1      43.866  22.914  34.129  1.00  0.00     0.001 A 
ATOM     76  C   UNL A   1      44.955  24.062  35.935  1.00  0.00     0.001 A 
ATOM     77  C   UNL A   1      44.209  22.988  35.477  1.00  0.00     0.000 A 
ENDBRANCH  58  72
BRANCH  59  78
ATOM     78  C   UNL A   1      40.059  23.863  26.926  1.00  0.00    -0.014 A 
ATOM     79  C   UNL A   1      38.813  24.408  26.585  1.00  0.00     0.009 A 
ATOM     80  C   UNL A   1      40.259  22.492  26.666  1.00  0.00     0.009 A 
ATOM     81  C   UNL A   1      37.815  23.615  25.998  1.00  0.00     0.001 A 
ATOM     82  C   UNL A   1      39.260  21.697  26.094  1.00  0.00     0.001 A 
ATOM     83  C   UNL A   1      38.040  22.262  25.749  1.00  0.00     0.000 A 
ENDBRANCH  59  78
BRANCH  71  84
ATOM     84  C   UNL A   1      45.935  26.199  27.084  1.00  0.00    -0.014 A 
ATOM     85  C   UNL A   1      46.927  25.713  26.215  1.00  0.00     0.009 A 
ATOM     86  C   UNL A   1      45.143  27.274  26.651  1.00  0.00     0.009 A 
ATOM     87  C   UNL A   1      47.142  26.308  24.968  1.00  0.00     0.001 A 
ATOM     88  C   UNL A   1      45.341  27.852  25.395  1.00  0.00     0.001 A 
ATOM     89  C   UNL A   1      46.344  27.373  24.556  1.00  0.00     0.000 A 
ENDBRANCH  71  84
ENDBRANCH  45  46
ENDBRANCH  38  40
ENDBRANCH  37  38
ENDBRANCH  36  37
ENDBRANCH  35  36
ENDBRANCH  34  35
ENDBRANCH  33  34
ENDBRANCH   1  33
TORSDOF 21
ENDMDL
MODEL 3
REMARK VINA RESULT:      -9.9      5.603     11.445
REMARK SMILES COc1ccc(-n2ccnc2C[N@@H+]2Cc3[nH]cnc3C[C@@H]2C(=O)OCCOCCOCCOC(=O)c2ccc(-c3c4nc(c(-c5ccccc5)c5ccc([nH]5)c(-c5ccccc5)c5nc(c(-c6ccccc6)c6ccc3[nH]6)C=C5)C=C4)cc2)cc1
REMARK SMILES IDX 28 1 27 2 26 3 25 4 24 5 22 6 23 7 21 8 13 9 14 10 15 12
REMARK SMILES IDX 20 13 16 14 19 15 17 16 18 18 12 19 11 20 7 21 8 22 9 23
REMARK SMILES IDX 10 24 6 25 3 26 4 27 85 28 5 29 84 30 2 31 1 32 29 33 30 34
REMARK SMILES IDX 31 35 32 36 33 37 34 38 35 39 36 40 37 41 83 42 38 43 82 44
REMARK SMILES IDX 39 45 40 46 41 47 76 48 42 49 81 50 75 51 77 52 43 53 80 54
REMARK SMILES IDX 74 55 73 56 44 58 66 59 51 60 65 61 52 62 55 63 64 64 78 65
REMARK SMILES IDX 53 66 54 67 63 69 79 70 56 71 45 72 46 73 50 74 47 75 49 76
REMARK SMILES IDX 48 77 67 78 68 79 72 80 69 81 71 82 70 83 57 84 58 85 62 86
REMARK SMILES IDX 59 87 61 88 60 89
REMARK H PARENT 13 11 16 17 77 57 55 68
REMARK Flexibility Score: inf
ROOT
ATOM      1  C   UNL A   1      49.582  25.193  28.222  1.00  0.00     0.188 C 
ENDROOT
BRANCH   1   2
ATOM      2  O   UNL A   1      48.656  24.464  27.445  1.00  0.00    -0.376 OA
BRANCH   2   3
ATOM      3  C   UNL A   1      47.265  24.672  27.639  1.00  0.00     0.202 C 
BRANCH   3   4
ATOM      4  C   UNL A   1      46.165  23.751  27.078  1.00  0.00     0.261 C 
BRANCH   4   5
ATOM      5  O   UNL A   1      46.406  23.192  25.779  1.00  0.00    -0.459 OA
BRANCH   5   6
ATOM      6  C   UNL A   1      45.383  23.300  24.878  1.00  0.00     0.365 C 
ATOM      7  O   UNL A   1      44.741  24.326  24.680  1.00  0.00    -0.245 OA
BRANCH   6   8
ATOM      8  C   UNL A   1      45.169  21.991  24.104  1.00  0.00     0.301 C 
ATOM      9  N   UNL A   1      43.887  21.253  24.516  1.00  0.00    -0.312 N 
ATOM     10  C   UNL A   1      43.945  19.839  24.069  1.00  0.00     0.320 C 
ATOM     11  H   UNL A   1      43.122  21.741  24.049  1.00  0.00     0.349 HD
ATOM     12  C   UNL A   1      45.161  19.240  24.655  1.00  0.00     0.093 A 
ATOM     13  C   UNL A   1      46.537  21.226  24.101  1.00  0.00     0.136 C 
ATOM     14  N   UNL A   1      45.292  18.163  25.478  1.00  0.00    -0.344 N 
ATOM     15  C   UNL A   1      46.370  19.885  24.696  1.00  0.00     0.074 A 
ATOM     16  C   UNL A   1      46.567  18.217  25.986  1.00  0.00     0.197 A 
ATOM     17  H   UNL A   1      44.608  17.481  25.671  1.00  0.00     0.167 HD
ATOM     18  N   UNL A   1      47.251  19.236  25.507  1.00  0.00    -0.241 NA
BRANCH   9  19
ATOM     19  C   UNL A   1      43.586  21.320  25.970  1.00  0.00     0.340 C 
BRANCH  19  20
ATOM     20  C   UNL A   1      42.136  21.658  26.269  1.00  0.00     0.168 A 
ATOM     21  N   UNL A   1      41.747  22.502  27.304  1.00  0.00    -0.299 N 
ATOM     22  C   UNL A   1      40.396  22.305  27.479  1.00  0.00     0.113 A 
ATOM     23  C   UNL A   1      40.003  21.478  26.457  1.00  0.00     0.132 A 
ATOM     24  N   UNL A   1      41.078  21.091  25.706  1.00  0.00    -0.236 NA
BRANCH  21  25
ATOM     25  C   UNL A   1      42.581  23.319  28.102  1.00  0.00     0.047 A 
ATOM     26  C   UNL A   1      43.959  24.979  29.859  1.00  0.00     0.119 A 
ATOM     27  C   UNL A   1      43.917  23.606  30.094  1.00  0.00     0.048 A 
ATOM     28  C   UNL A   1      43.386  25.512  28.702  1.00  0.00     0.048 A 
ATOM     29  C   UNL A   1      43.221  22.774  29.221  1.00  0.00     0.030 A 
ATOM     30  C   UNL A   1      42.709  24.680  27.808  1.00  0.00     0.030 A 
BRANCH  26  31
ATOM     31  O   UNL A   1      44.641  25.736  30.771  1.00  0.00    -0.497 OA
ATOM     32  C   UNL A   1      43.848  26.787  31.323  1.00  0.00     0.278 C 
ENDBRANCH  26  31
ENDBRANCH  21  25
ENDBRANCH  19  20
ENDBRANCH   9  19
ENDBRANCH   6   8
ENDBRANCH   5   6
ENDBRANCH   4   5
ENDBRANCH   3   4
ENDBRANCH   2   3
ENDBRANCH   1   2
BRANCH   1  33
ATOM     33  C   UNL A   1      49.982  26.619  27.795  1.00  0.00     0.188 C 
BRANCH  33  34
ATOM     34  O   UNL A   1      50.193  26.972  26.442  1.00  0.00    -0.376 OA
BRANCH  34  35
ATOM     35  C   UNL A   1      49.223  27.638  25.657  1.00  0.00     0.202 C 
BRANCH  35  36
ATOM     36  C   UNL A   1      48.328  26.951  24.635  1.00  0.00     0.261 C 
BRANCH  36  37
ATOM     37  O   UNL A   1      46.992  26.763  25.052  1.00  0.00    -0.460 OA
BRANCH  37  38
ATOM     38  C   UNL A   1      46.286  27.906  25.060  1.00  0.00     0.338 C 
ATOM     39  O   UNL A   1      46.447  28.894  24.348  1.00  0.00    -0.246 OA
BRANCH  38  40
ATOM     40  C   UNL A   1      45.292  27.847  26.122  1.00  0.00     0.060 A 
ATOM     41  C   UNL A   1      43.955  27.958  25.728  1.00  0.00     0.016 A 
ATOM     42  C   UNL A   1      45.727  28.087  27.430  1.00  0.00     0.016 A 
ATOM     43  C   UNL A   1      43.092  28.602  26.578  1.00  0.00     0.010 A 
ATOM     44  C   UNL A   1      44.869  28.742  28.271  1.00  0.00     0.010 A 
ATOM     45  C   UNL A   1      43.608  29.090  27.779  1.00  0.00    -0.014 A 
BRANCH  45  46
ATOM     46  C   UNL A   1      42.825  30.071  28.496  1.00  0.00     0.031 A 
ATOM     47  C   UNL A   1      43.425  31.417  28.548  1.00  0.00     0.074 A 
ATOM     48  C   UNL A   1      41.586  29.745  28.916  1.00  0.00     0.049 A 
ATOM     49  N   UNL A   1      43.601  32.173  29.578  1.00  0.00    -0.248 NA
ATOM     50  C   UNL A   1      43.993  31.951  27.296  1.00  0.00     0.031 C 
ATOM     51  C   UNL A   1      40.845  28.509  28.626  1.00  0.00     0.029 A 
ATOM     52  N   UNL A   1      40.654  30.522  29.532  1.00  0.00    -0.354 N 
ATOM     53  C   UNL A   1      44.139  33.354  29.081  1.00  0.00     0.074 A 
ATOM     54  C   UNL A   1      44.498  33.110  27.709  1.00  0.00     0.031 C 
ATOM     55  C   UNL A   1      39.527  28.738  28.801  1.00  0.00     0.029 A 
ATOM     56  C   UNL A   1      39.353  30.092  29.302  1.00  0.00     0.049 A 
ATOM     57  H   UNL A   1      40.878  31.307  30.083  1.00  0.00     0.167 HD
ATOM     58  C   UNL A   1      44.006  34.533  29.743  1.00  0.00     0.031 A 
ATOM     59  C   UNL A   1      38.229  30.847  29.373  1.00  0.00     0.031 A 
ATOM     60  C   UNL A   1      43.739  34.344  31.143  1.00  0.00     0.049 A 
ATOM     61  C   UNL A   1      38.560  32.086  30.121  1.00  0.00     0.074 A 
ATOM     62  C   UNL A   1      44.393  33.676  32.161  1.00  0.00     0.029 A 
ATOM     63  N   UNL A   1      42.460  34.563  31.595  1.00  0.00    -0.354 N 
ATOM     64  N   UNL A   1      38.835  32.117  31.394  1.00  0.00    -0.248 NA
ATOM     65  C   UNL A   1      39.031  33.235  29.356  1.00  0.00     0.031 C 
ATOM     66  C   UNL A   1      43.356  33.104  32.951  1.00  0.00     0.029 A 
ATOM     67  C   UNL A   1      42.136  33.504  32.403  1.00  0.00     0.049 A 
ATOM     68  H   UNL A   1      41.887  35.334  31.380  1.00  0.00     0.167 HD
ATOM     69  C   UNL A   1      39.868  33.039  31.512  1.00  0.00     0.074 A 
ATOM     70  C   UNL A   1      39.875  33.767  30.245  1.00  0.00     0.031 C 
ATOM     71  C   UNL A   1      40.809  32.935  32.497  1.00  0.00     0.031 A 
BRANCH  58  72
ATOM     72  C   UNL A   1      43.705  35.815  29.017  1.00  0.00    -0.014 A 
ATOM     73  C   UNL A   1      44.627  36.870  29.091  1.00  0.00     0.009 A 
ATOM     74  C   UNL A   1      42.427  36.120  28.504  1.00  0.00     0.009 A 
ATOM     75  C   UNL A   1      44.264  38.172  28.728  1.00  0.00     0.001 A 
ATOM     76  C   UNL A   1      42.077  37.407  28.096  1.00  0.00     0.001 A 
ATOM     77  C   UNL A   1      42.989  38.441  28.236  1.00  0.00     0.000 A 
ENDBRANCH  58  72
BRANCH  59  78
ATOM     78  C   UNL A   1      37.008  30.710  28.543  1.00  0.00    -0.014 A 
ATOM     79  C   UNL A   1      36.562  29.450  28.118  1.00  0.00     0.009 A 
ATOM     80  C   UNL A   1      36.143  31.804  28.341  1.00  0.00     0.009 A 
ATOM     81  C   UNL A   1      35.298  29.294  27.528  1.00  0.00     0.001 A 
ATOM     82  C   UNL A   1      34.889  31.653  27.740  1.00  0.00     0.001 A 
ATOM     83  C   UNL A   1      34.462  30.393  27.343  1.00  0.00     0.000 A 
ENDBRANCH  59  78
BRANCH  71  84
ATOM     84  C   UNL A   1      40.589  31.938  33.610  1.00  0.00    -0.014 A 
ATOM     85  C   UNL A   1      41.068  30.618  33.560  1.00  0.00     0.009 A 
ATOM     86  C   UNL A   1      40.037  32.397  34.816  1.00  0.00     0.009 A 
ATOM     87  C   UNL A   1      40.965  29.774  34.670  1.00  0.00     0.001 A 
ATOM     88  C   UNL A   1      39.957  31.562  35.934  1.00  0.00     0.001 A 
ATOM     89  C   UNL A   1      40.414  30.249  35.859  1.00  0.00     0.000 A 
ENDBRANCH  71  84
ENDBRANCH  45  46
ENDBRANCH  38  40
ENDBRANCH  37  38
ENDBRANCH  36  37
ENDBRANCH  35  36
ENDBRANCH  34  35
ENDBRANCH  33  34
ENDBRANCH   1  33
TORSDOF 21
ENDMDL
