MODEL 1
REMARK VINA RESULT:      -9.6      0.000      0.000
REMARK SMILES CC(=O)c1cc(C(=O)N(CC(=O)OCCOCCOCCOC(=O)c2ccc(-c3c4nc(c(-c5ccccc5)c5ccc([nH]5)c(-c5ccccc5)c5nc(c(-c6ccccc6)c6ccc3[nH]6)C=C5)C=C4)cc2)C(C)(C)C)n(C)c1
REMARK SMILES IDX 17 1 16 2 15 3 14 4 13 5 11 6 12 7 10 8 9 9 7 10 8 11 6 12
REMARK SMILES IDX 4 13 5 14 79 15 77 16 78 17 2 18 1 19 3 20 73 21 74 22 75 23
REMARK SMILES IDX 76 24 18 25 19 26 20 27 21 28 22 29 23 30 24 31 25 32 26 33
REMARK SMILES IDX 72 34 27 35 71 36 28 37 29 38 30 39 65 40 31 41 70 42 64 43
REMARK SMILES IDX 66 44 32 45 69 46 63 47 62 48 33 50 55 51 40 52 54 53 41 54
REMARK SMILES IDX 44 55 53 56 67 57 42 58 43 59 52 61 68 62 45 63 34 64 35 65
REMARK SMILES IDX 39 66 36 67 38 68 37 69 56 70 57 71 61 72 58 73 60 74 59 75
REMARK SMILES IDX 46 76 47 77 51 78 48 79 50 80 49 81
REMARK H PARENT 66 49 44 60
REMARK Flexibility Score: inf
ROOT
ATOM      1  C   UNL A   1      32.803  29.070  26.633  1.00  0.00     0.188 C 
ENDROOT
BRANCH   1   2
ATOM      2  O   UNL A   1      31.578  28.374  26.413  1.00  0.00    -0.376 OA
BRANCH   2   3
ATOM      3  C   UNL A   1      31.335  27.801  25.140  1.00  0.00     0.202 C 
BRANCH   3   4
ATOM      4  C   UNL A   1      30.556  26.480  25.171  1.00  0.00     0.261 C 
BRANCH   4   5
ATOM      5  O   UNL A   1      30.383  25.883  26.479  1.00  0.00    -0.462 OA
BRANCH   5   6
ATOM      6  C   UNL A   1      30.745  24.578  26.548  1.00  0.00     0.325 C 
ATOM      7  O   UNL A   1      30.124  23.721  27.175  1.00  0.00    -0.250 OA
BRANCH   6   8
ATOM      8  C   UNL A   1      32.164  24.277  26.063  1.00  0.00     0.243 C 
BRANCH   8   9
ATOM      9  N   UNL A   1      32.741  23.785  24.795  1.00  0.00    -0.321 N 
BRANCH   9  10
ATOM     10  C   UNL A   1      32.186  22.704  24.089  1.00  0.00     0.271 C 
ATOM     11  O   UNL A   1      31.279  22.911  23.281  1.00  0.00    -0.267 OA
BRANCH  10  12
ATOM     12  C   UNL A   1      32.650  21.325  24.259  1.00  0.00     0.107 A 
ATOM     13  C   UNL A   1      32.907  19.107  23.698  1.00  0.00     0.036 A 
ATOM     14  C   UNL A   1      32.343  20.344  23.316  1.00  0.00     0.045 A 
ATOM     15  C   UNL A   1      33.542  19.348  24.897  1.00  0.00     0.097 A 
ATOM     16  N   UNL A   1      33.290  20.646  25.286  1.00  0.00    -0.346 N 
ATOM     17  C   UNL A   1      33.632  21.090  26.623  1.00  0.00     0.150 C 
BRANCH  13  18
ATOM     18  C   UNL A   1      32.844  17.825  23.007  1.00  0.00     0.161 C 
ATOM     19  C   UNL A   1      33.487  16.639  23.683  1.00  0.00     0.093 C 
ATOM     20  O   UNL A   1      32.274  17.702  21.924  1.00  0.00    -0.294 OA
ENDBRANCH  13  18
ENDBRANCH  10  12
ENDBRANCH   9  10
BRANCH   9  21
ATOM     21  C   UNL A   1      33.937  24.467  24.181  1.00  0.00     0.036 C 
ATOM     22  C   UNL A   1      34.865  23.447  23.490  1.00  0.00     0.034 C 
ATOM     23  C   UNL A   1      33.541  25.553  23.136  1.00  0.00     0.034 C 
ATOM     24  C   UNL A   1      34.738  25.248  25.229  1.00  0.00     0.034 C 
ENDBRANCH   9  21
ENDBRANCH   8   9
ENDBRANCH   6   8
ENDBRANCH   5   6
ENDBRANCH   4   5
ENDBRANCH   3   4
ENDBRANCH   2   3
ENDBRANCH   1   2
BRANCH   1  25
ATOM     25  C   UNL A   1      32.773  30.522  27.109  1.00  0.00     0.188 C 
BRANCH  25  26
ATOM     26  O   UNL A   1      31.441  31.030  27.096  1.00  0.00    -0.376 OA
BRANCH  26  27
ATOM     27  C   UNL A   1      31.366  32.341  26.544  1.00  0.00     0.202 C 
BRANCH  27  28
ATOM     28  C   UNL A   1      32.566  33.170  27.012  1.00  0.00     0.261 C 
BRANCH  28  29
ATOM     29  O   UNL A   1      32.244  34.172  28.003  1.00  0.00    -0.460 OA
BRANCH  29  30
ATOM     30  C   UNL A   1      33.293  34.780  28.585  1.00  0.00     0.338 C 
ATOM     31  O   UNL A   1      33.334  35.935  29.001  1.00  0.00    -0.246 OA
BRANCH  30  32
ATOM     32  C   UNL A   1      34.389  33.817  28.800  1.00  0.00     0.060 A 
ATOM     33  C   UNL A   1      34.213  32.839  29.776  1.00  0.00     0.016 A 
ATOM     34  C   UNL A   1      35.626  33.959  28.182  1.00  0.00     0.016 A 
ATOM     35  C   UNL A   1      35.280  32.063  30.223  1.00  0.00     0.010 A 
ATOM     36  C   UNL A   1      36.695  33.148  28.596  1.00  0.00     0.010 A 
ATOM     37  C   UNL A   1      36.547  32.228  29.656  1.00  0.00    -0.014 A 
BRANCH  37  38
ATOM     38  C   UNL A   1      37.739  31.558  30.251  1.00  0.00     0.031 A 
ATOM     39  C   UNL A   1      38.365  32.143  31.493  1.00  0.00     0.074 A 
ATOM     40  C   UNL A   1      38.252  30.422  29.737  1.00  0.00     0.049 A 
ATOM     41  N   UNL A   1      39.519  31.875  32.050  1.00  0.00    -0.248 NA
ATOM     42  C   UNL A   1      37.584  33.174  32.195  1.00  0.00     0.031 C 
ATOM     43  C   UNL A   1      37.700  29.668  28.613  1.00  0.00     0.029 A 
ATOM     44  N   UNL A   1      39.365  29.703  30.105  1.00  0.00    -0.354 N 
ATOM     45  C   UNL A   1      39.632  32.750  33.125  1.00  0.00     0.074 A 
ATOM     46  C   UNL A   1      38.425  33.550  33.147  1.00  0.00     0.031 C 
ATOM     47  C   UNL A   1      38.467  28.587  28.390  1.00  0.00     0.029 A 
ATOM     48  C   UNL A   1      39.610  28.619  29.297  1.00  0.00     0.049 A 
ATOM     49  H   UNL A   1      39.933  29.943  30.872  1.00  0.00     0.167 HD
ATOM     50  C   UNL A   1      40.651  32.885  34.006  1.00  0.00     0.031 A 
ATOM     51  C   UNL A   1      40.661  27.775  29.255  1.00  0.00     0.031 A 
ATOM     52  C   UNL A   1      41.833  32.064  34.010  1.00  0.00     0.049 A 
ATOM     53  C   UNL A   1      41.817  27.985  30.193  1.00  0.00     0.074 A 
ATOM     54  C   UNL A   1      42.931  32.134  34.850  1.00  0.00     0.029 A 
ATOM     55  N   UNL A   1      42.059  31.008  33.142  1.00  0.00    -0.354 N 
ATOM     56  N   UNL A   1      41.959  28.877  31.144  1.00  0.00    -0.248 NA
ATOM     57  C   UNL A   1      42.969  27.083  30.039  1.00  0.00     0.031 C 
ATOM     58  C   UNL A   1      43.840  31.143  34.464  1.00  0.00     0.029 A 
ATOM     59  C   UNL A   1      43.283  30.425  33.417  1.00  0.00     0.049 A 
ATOM     60  H   UNL A   1      41.440  30.716  32.434  1.00  0.00     0.167 HD
ATOM     61  C   UNL A   1      43.205  28.633  31.709  1.00  0.00     0.074 A 
ATOM     62  C   UNL A   1      43.771  27.499  31.008  1.00  0.00     0.031 C 
ATOM     63  C   UNL A   1      43.829  29.295  32.715  1.00  0.00     0.031 A 
BRANCH  50  64
ATOM     64  C   UNL A   1      40.559  34.008  35.002  1.00  0.00    -0.014 A 
ATOM     65  C   UNL A   1      40.021  33.817  36.284  1.00  0.00     0.009 A 
ATOM     66  C   UNL A   1      41.040  35.280  34.648  1.00  0.00     0.009 A 
ATOM     67  C   UNL A   1      39.932  34.888  37.177  1.00  0.00     0.001 A 
ATOM     68  C   UNL A   1      40.975  36.340  35.552  1.00  0.00     0.001 A 
ATOM     69  C   UNL A   1      40.412  36.147  36.812  1.00  0.00     0.000 A 
ENDBRANCH  50  64
BRANCH  51  70
ATOM     70  C   UNL A   1      40.706  26.691  28.236  1.00  0.00    -0.014 A 
ATOM     71  C   UNL A   1      40.175  25.423  28.516  1.00  0.00     0.009 A 
ATOM     72  C   UNL A   1      41.299  26.916  26.983  1.00  0.00     0.009 A 
ATOM     73  C   UNL A   1      40.249  24.399  27.566  1.00  0.00     0.001 A 
ATOM     74  C   UNL A   1      41.342  25.901  26.026  1.00  0.00     0.001 A 
ATOM     75  C   UNL A   1      40.826  24.641  26.321  1.00  0.00     0.000 A 
ENDBRANCH  51  70
BRANCH  63  76
ATOM     76  C   UNL A   1      45.174  28.782  33.143  1.00  0.00    -0.014 A 
ATOM     77  C   UNL A   1      46.358  29.285  32.584  1.00  0.00     0.009 A 
ATOM     78  C   UNL A   1      45.255  27.807  34.151  1.00  0.00     0.009 A 
ATOM     79  C   UNL A   1      47.598  28.799  33.004  1.00  0.00     0.001 A 
ATOM     80  C   UNL A   1      46.496  27.342  34.586  1.00  0.00     0.001 A 
ATOM     81  C   UNL A   1      47.667  27.831  34.007  1.00  0.00     0.000 A 
ENDBRANCH  63  76
ENDBRANCH  37  38
ENDBRANCH  30  32
ENDBRANCH  29  30
ENDBRANCH  28  29
ENDBRANCH  27  28
ENDBRANCH  26  27
ENDBRANCH  25  26
ENDBRANCH   1  25
TORSDOF 22
ENDMDL
MODEL 2
REMARK VINA RESULT:      -9.6      3.243      4.712
REMARK SMILES CC(=O)c1cc(C(=O)N(CC(=O)OCCOCCOCCOC(=O)c2ccc(-c3c4nc(c(-c5ccccc5)c5ccc([nH]5)c(-c5ccccc5)c5nc(c(-c6ccccc6)c6ccc3[nH]6)C=C5)C=C4)cc2)C(C)(C)C)n(C)c1
REMARK SMILES IDX 17 1 16 2 15 3 14 4 13 5 11 6 12 7 10 8 9 9 7 10 8 11 6 12
REMARK SMILES IDX 4 13 5 14 79 15 77 16 78 17 2 18 1 19 3 20 73 21 74 22 75 23
REMARK SMILES IDX 76 24 18 25 19 26 20 27 21 28 22 29 23 30 24 31 25 32 26 33
REMARK SMILES IDX 72 34 27 35 71 36 28 37 29 38 30 39 65 40 31 41 70 42 64 43
REMARK SMILES IDX 66 44 32 45 69 46 63 47 62 48 33 50 55 51 40 52 54 53 41 54
REMARK SMILES IDX 44 55 53 56 67 57 42 58 43 59 52 61 68 62 45 63 34 64 35 65
REMARK SMILES IDX 39 66 36 67 38 68 37 69 56 70 57 71 61 72 58 73 60 74 59 75
REMARK SMILES IDX 46 76 47 77 51 78 48 79 50 80 49 81
REMARK H PARENT 66 49 44 60
REMARK Flexibility Score: inf
ROOT
ATOM      1  C   UNL A   1      31.206  27.094  24.717  1.00  0.00     0.188 C 
ENDROOT
BRANCH   1   2
ATOM      2  O   UNL A   1      32.156  27.148  23.655  1.00  0.00    -0.376 OA
BRANCH   2   3
ATOM      3  C   UNL A   1      31.801  26.614  22.391  1.00  0.00     0.202 C 
BRANCH   3   4
ATOM      4  C   UNL A   1      32.203  25.149  22.180  1.00  0.00     0.261 C 
BRANCH   4   5
ATOM      5  O   UNL A   1      31.309  24.163  22.751  1.00  0.00    -0.462 OA
BRANCH   5   6
ATOM      6  C   UNL A   1      31.930  23.053  23.222  1.00  0.00     0.325 C 
ATOM      7  O   UNL A   1      31.869  21.948  22.686  1.00  0.00    -0.250 OA
BRANCH   6   8
ATOM      8  C   UNL A   1      32.461  23.171  24.652  1.00  0.00     0.243 C 
BRANCH   8   9
ATOM      9  N   UNL A   1      33.771  22.928  25.291  1.00  0.00    -0.321 N 
BRANCH   9  10
ATOM     10  C   UNL A   1      34.042  21.760  26.024  1.00  0.00     0.271 C 
ATOM     11  O   UNL A   1      34.027  21.800  27.256  1.00  0.00    -0.267 OA
BRANCH  10  12
ATOM     12  C   UNL A   1      34.331  20.474  25.384  1.00  0.00     0.107 A 
ATOM     13  C   UNL A   1      33.860  18.363  24.596  1.00  0.00     0.036 A 
ATOM     14  C   UNL A   1      33.340  19.503  25.248  1.00  0.00     0.045 A 
ATOM     15  C   UNL A   1      35.187  18.650  24.359  1.00  0.00     0.097 A 
ATOM     16  N   UNL A   1      35.493  19.864  24.932  1.00  0.00    -0.346 N 
ATOM     17  C   UNL A   1      36.873  20.294  25.046  1.00  0.00     0.150 C 
BRANCH  13  18
ATOM     18  C   UNL A   1      33.177  17.125  24.242  1.00  0.00     0.161 C 
ATOM     19  C   UNL A   1      32.787  16.200  25.369  1.00  0.00     0.093 C 
ATOM     20  O   UNL A   1      32.908  16.846  23.075  1.00  0.00    -0.294 OA
ENDBRANCH  13  18
ENDBRANCH  10  12
ENDBRANCH   9  10
BRANCH   9  21
ATOM     21  C   UNL A   1      34.895  23.920  25.136  1.00  0.00     0.036 C 
ATOM     22  C   UNL A   1      34.415  25.355  25.437  1.00  0.00     0.034 C 
ATOM     23  C   UNL A   1      36.108  23.608  26.063  1.00  0.00     0.034 C 
ATOM     24  C   UNL A   1      35.495  23.875  23.726  1.00  0.00     0.034 C 
ENDBRANCH   9  21
ENDBRANCH   8   9
ENDBRANCH   6   8
ENDBRANCH   5   6
ENDBRANCH   4   5
ENDBRANCH   3   4
ENDBRANCH   2   3
ENDBRANCH   1   2
BRANCH   1  25
ATOM     25  C   UNL A   1      31.557  27.698  26.077  1.00  0.00     0.188 C 
BRANCH  25  26
ATOM     26  O   UNL A   1      31.864  29.084  25.949  1.00  0.00    -0.376 OA
BRANCH  26  27
ATOM     27  C   UNL A   1      33.144  29.407  26.483  1.00  0.00     0.202 C 
BRANCH  27  28
ATOM     28  C   UNL A   1      33.049  30.690  27.315  1.00  0.00     0.261 C 
BRANCH  28  29
ATOM     29  O   UNL A   1      34.298  31.407  27.444  1.00  0.00    -0.460 OA
BRANCH  29  30
ATOM     30  C   UNL A   1      34.904  31.319  28.641  1.00  0.00     0.338 C 
ATOM     31  O   UNL A   1      34.532  31.833  29.692  1.00  0.00    -0.246 OA
BRANCH  30  32
ATOM     32  C   UNL A   1      36.041  30.383  28.571  1.00  0.00     0.060 A 
ATOM     33  C   UNL A   1      36.500  29.827  29.763  1.00  0.00     0.016 A 
ATOM     34  C   UNL A   1      36.752  30.173  27.396  1.00  0.00     0.016 A 
ATOM     35  C   UNL A   1      37.714  29.148  29.826  1.00  0.00     0.010 A 
ATOM     36  C   UNL A   1      37.956  29.450  27.443  1.00  0.00     0.010 A 
ATOM     37  C   UNL A   1      38.476  28.974  28.666  1.00  0.00    -0.014 A 
BRANCH  37  38
ATOM     38  C   UNL A   1      39.863  28.433  28.741  1.00  0.00     0.031 A 
ATOM     39  C   UNL A   1      40.988  29.353  29.146  1.00  0.00     0.074 A 
ATOM     40  C   UNL A   1      40.138  27.136  28.498  1.00  0.00     0.049 A 
ATOM     41  N   UNL A   1      42.282  29.173  29.064  1.00  0.00    -0.248 NA
ATOM     42  C   UNL A   1      40.597  30.653  29.714  1.00  0.00     0.031 C 
ATOM     43  C   UNL A   1      39.155  26.094  28.207  1.00  0.00     0.029 A 
ATOM     44  N   UNL A   1      41.344  26.476  28.459  1.00  0.00    -0.354 N 
ATOM     45  C   UNL A   1      42.857  30.361  29.504  1.00  0.00     0.074 A 
ATOM     46  C   UNL A   1      41.771  31.249  29.861  1.00  0.00     0.031 C 
ATOM     47  C   UNL A   1      39.793  24.924  28.032  1.00  0.00     0.029 A 
ATOM     48  C   UNL A   1      41.233  25.150  28.112  1.00  0.00     0.049 A 
ATOM     49  H   UNL A   1      42.204  26.911  28.658  1.00  0.00     0.167 HD
ATOM     50  C   UNL A   1      44.168  30.687  29.591  1.00  0.00     0.031 A 
ATOM     51  C   UNL A   1      42.182  24.232  27.838  1.00  0.00     0.031 A 
ATOM     52  C   UNL A   1      45.249  29.791  29.275  1.00  0.00     0.049 A 
ATOM     53  C   UNL A   1      43.631  24.633  27.870  1.00  0.00     0.074 A 
ATOM     54  C   UNL A   1      46.612  30.034  29.314  1.00  0.00     0.029 A 
ATOM     55  N   UNL A   1      45.087  28.473  28.883  1.00  0.00    -0.354 N 
ATOM     56  N   UNL A   1      44.163  25.786  28.193  1.00  0.00    -0.248 NA
ATOM     57  C   UNL A   1      44.611  23.608  27.478  1.00  0.00     0.031 C 
ATOM     58  C   UNL A   1      47.274  28.870  28.907  1.00  0.00     0.029 A 
ATOM     59  C   UNL A   1      46.324  27.890  28.664  1.00  0.00     0.049 A 
ATOM     60  H   UNL A   1      44.222  28.017  28.774  1.00  0.00     0.167 HD
ATOM     61  C   UNL A   1      45.536  25.622  28.060  1.00  0.00     0.074 A 
ATOM     62  C   UNL A   1      45.757  24.251  27.644  1.00  0.00     0.031 C 
ATOM     63  C   UNL A   1      46.526  26.526  28.256  1.00  0.00     0.031 A 
BRANCH  50  64
ATOM     64  C   UNL A   1      44.504  32.098  29.988  1.00  0.00    -0.014 A 
ATOM     65  C   UNL A   1      44.677  32.468  31.329  1.00  0.00     0.009 A 
ATOM     66  C   UNL A   1      44.665  33.071  28.987  1.00  0.00     0.009 A 
ATOM     67  C   UNL A   1      44.969  33.794  31.663  1.00  0.00     0.001 A 
ATOM     68  C   UNL A   1      44.983  34.388  29.321  1.00  0.00     0.001 A 
ATOM     69  C   UNL A   1      45.124  34.751  30.659  1.00  0.00     0.000 A 
ENDBRANCH  50  64
BRANCH  51  70
ATOM     70  C   UNL A   1      41.790  22.853  27.436  1.00  0.00    -0.014 A 
ATOM     71  C   UNL A   1      41.433  22.569  26.109  1.00  0.00     0.009 A 
ATOM     72  C   UNL A   1      41.756  21.819  28.384  1.00  0.00     0.009 A 
ATOM     73  C   UNL A   1      41.036  21.279  25.745  1.00  0.00     0.001 A 
ATOM     74  C   UNL A   1      41.389  20.524  28.010  1.00  0.00     0.001 A 
ATOM     75  C   UNL A   1      41.020  20.257  26.694  1.00  0.00     0.000 A 
ENDBRANCH  51  70
BRANCH  63  76
ATOM     76  C   UNL A   1      47.938  26.051  28.066  1.00  0.00    -0.014 A 
ATOM     77  C   UNL A   1      48.558  26.094  26.808  1.00  0.00     0.009 A 
ATOM     78  C   UNL A   1      48.669  25.588  29.172  1.00  0.00     0.009 A 
ATOM     79  C   UNL A   1      49.875  25.655  26.656  1.00  0.00     0.001 A 
ATOM     80  C   UNL A   1      49.993  25.174  29.021  1.00  0.00     0.001 A 
ATOM     81  C   UNL A   1      50.593  25.199  27.763  1.00  0.00     0.000 A 
ENDBRANCH  63  76
ENDBRANCH  37  38
ENDBRANCH  30  32
ENDBRANCH  29  30
ENDBRANCH  28  29
ENDBRANCH  27  28
ENDBRANCH  26  27
ENDBRANCH  25  26
ENDBRANCH   1  25
TORSDOF 22
ENDMDL
MODEL 3
REMARK VINA RESULT:      -9.4      1.235      5.904
REMARK SMILES CC(=O)c1cc(C(=O)N(CC(=O)OCCOCCOCCOC(=O)c2ccc(-c3c4nc(c(-c5ccccc5)c5ccc([nH]5)c(-c5ccccc5)c5nc(c(-c6ccccc6)c6ccc3[nH]6)C=C5)C=C4)cc2)C(C)(C)C)n(C)c1
REMARK SMILES IDX 17 1 16 2 15 3 14 4 13 5 11 6 12 7 10 8 9 9 7 10 8 11 6 12
REMARK SMILES IDX 4 13 5 14 79 15 77 16 78 17 2 18 1 19 3 20 73 21 74 22 75 23
REMARK SMILES IDX 76 24 18 25 19 26 20 27 21 28 22 29 23 30 24 31 25 32 26 33
REMARK SMILES IDX 72 34 27 35 71 36 28 37 29 38 30 39 65 40 31 41 70 42 64 43
REMARK SMILES IDX 66 44 32 45 69 46 63 47 62 48 33 50 55 51 40 52 54 53 41 54
REMARK SMILES IDX 44 55 53 56 67 57 42 58 43 59 52 61 68 62 45 63 34 64 35 65
REMARK SMILES IDX 39 66 36 67 38 68 37 69 56 70 57 71 61 72 58 73 60 74 59 75
REMARK SMILES IDX 46 76 47 77 51 78 48 79 50 80 49 81
REMARK H PARENT 66 49 44 60
REMARK Flexibility Score: inf
ROOT
ATOM      1  C   UNL A   1      33.476  29.449  26.315  1.00  0.00     0.188 C 
ENDROOT
BRANCH   1   2
ATOM      2  O   UNL A   1      32.632  29.071  25.230  1.00  0.00    -0.376 OA
BRANCH   2   3
ATOM      3  C   UNL A   1      31.936  27.839  25.302  1.00  0.00     0.202 C 
BRANCH   3   4
ATOM      4  C   UNL A   1      31.441  27.464  26.704  1.00  0.00     0.261 C 
BRANCH   4   5
ATOM      5  O   UNL A   1      31.846  26.161  27.186  1.00  0.00    -0.462 OA
BRANCH   5   6
ATOM      6  C   UNL A   1      31.393  25.124  26.438  1.00  0.00     0.325 C 
ATOM      7  O   UNL A   1      30.210  24.795  26.359  1.00  0.00    -0.250 OA
BRANCH   6   8
ATOM      8  C   UNL A   1      32.478  24.169  25.938  1.00  0.00     0.243 C 
BRANCH   8   9
ATOM      9  N   UNL A   1      32.542  23.141  24.878  1.00  0.00    -0.321 N 
BRANCH   9  10
ATOM     10  C   UNL A   1      32.370  21.773  25.149  1.00  0.00     0.271 C 
ATOM     11  O   UNL A   1      31.265  21.361  25.507  1.00  0.00    -0.267 OA
BRANCH  10  12
ATOM     12  C   UNL A   1      33.454  20.797  25.009  1.00  0.00     0.107 A 
ATOM     13  C   UNL A   1      34.385  18.732  24.602  1.00  0.00     0.036 A 
ATOM     14  C   UNL A   1      33.183  19.468  24.685  1.00  0.00     0.045 A 
ATOM     15  C   UNL A   1      35.387  19.629  24.902  1.00  0.00     0.097 A 
ATOM     16  N   UNL A   1      34.819  20.833  25.256  1.00  0.00    -0.346 N 
ATOM     17  C   UNL A   1      35.628  21.879  25.852  1.00  0.00     0.150 C 
BRANCH  13  18
ATOM     18  C   UNL A   1      34.569  17.321  24.282  1.00  0.00     0.161 C 
ATOM     19  C   UNL A   1      34.015  16.828  22.968  1.00  0.00     0.093 C 
ATOM     20  O   UNL A   1      35.169  16.560  25.039  1.00  0.00    -0.294 OA
ENDBRANCH  13  18
ENDBRANCH  10  12
ENDBRANCH   9  10
BRANCH   9  21
ATOM     21  C   UNL A   1      32.750  23.538  23.439  1.00  0.00     0.036 C 
ATOM     22  C   UNL A   1      32.502  22.345  22.492  1.00  0.00     0.034 C 
ATOM     23  C   UNL A   1      31.826  24.711  22.996  1.00  0.00     0.034 C 
ATOM     24  C   UNL A   1      34.164  24.082  23.203  1.00  0.00     0.034 C 
ENDBRANCH   9  21
ENDBRANCH   8   9
ENDBRANCH   6   8
ENDBRANCH   5   6
ENDBRANCH   4   5
ENDBRANCH   3   4
ENDBRANCH   2   3
ENDBRANCH   1   2
BRANCH   1  25
ATOM     25  C   UNL A   1      33.144  30.697  27.134  1.00  0.00     0.188 C 
BRANCH  25  26
ATOM     26  O   UNL A   1      31.740  30.939  27.137  1.00  0.00    -0.376 OA
BRANCH  26  27
ATOM     27  C   UNL A   1      31.409  32.214  26.595  1.00  0.00     0.202 C 
BRANCH  27  28
ATOM     28  C   UNL A   1      32.427  33.258  27.067  1.00  0.00     0.261 C 
BRANCH  28  29
ATOM     29  O   UNL A   1      31.966  34.084  28.160  1.00  0.00    -0.460 OA
BRANCH  29  30
ATOM     30  C   UNL A   1      32.894  34.870  28.733  1.00  0.00     0.338 C 
ATOM     31  O   UNL A   1      32.744  36.030  29.106  1.00  0.00    -0.246 OA
BRANCH  30  32
ATOM     32  C   UNL A   1      34.123  34.101  29.000  1.00  0.00     0.060 A 
ATOM     33  C   UNL A   1      34.064  33.091  29.957  1.00  0.00     0.016 A 
ATOM     34  C   UNL A   1      35.349  34.458  28.451  1.00  0.00     0.016 A 
ATOM     35  C   UNL A   1      35.222  32.496  30.454  1.00  0.00     0.010 A 
ATOM     36  C   UNL A   1      36.517  33.831  28.916  1.00  0.00     0.010 A 
ATOM     37  C   UNL A   1      36.471  32.881  29.959  1.00  0.00    -0.014 A 
BRANCH  37  38
ATOM     38  C   UNL A   1      37.726  32.409  30.612  1.00  0.00     0.031 A 
ATOM     39  C   UNL A   1      38.496  31.273  29.986  1.00  0.00     0.074 A 
ATOM     40  C   UNL A   1      38.216  32.993  31.724  1.00  0.00     0.049 A 
ATOM     41  N   UNL A   1      39.471  30.554  30.482  1.00  0.00    -0.248 NA
ATOM     42  C   UNL A   1      38.107  30.896  28.617  1.00  0.00     0.031 C 
ATOM     43  C   UNL A   1      37.657  34.169  32.388  1.00  0.00     0.029 A 
ATOM     44  N   UNL A   1      39.308  32.665  32.492  1.00  0.00    -0.354 N 
ATOM     45  C   UNL A   1      39.764  29.597  29.516  1.00  0.00     0.074 A 
ATOM     46  C   UNL A   1      38.871  29.834  28.401  1.00  0.00     0.031 C 
ATOM     47  C   UNL A   1      38.415  34.473  33.455  1.00  0.00     0.029 A 
ATOM     48  C   UNL A   1      39.460  33.464  33.600  1.00  0.00     0.049 A 
ATOM     49  H   UNL A   1      39.922  31.927  32.271  1.00  0.00     0.167 HD
ATOM     50  C   UNL A   1      40.684  28.605  29.557  1.00  0.00     0.031 A 
ATOM     51  C   UNL A   1      40.309  33.366  34.643  1.00  0.00     0.031 A 
ATOM     52  C   UNL A   1      41.600  28.392  30.646  1.00  0.00     0.049 A 
ATOM     53  C   UNL A   1      41.275  32.215  34.706  1.00  0.00     0.074 A 
ATOM     54  C   UNL A   1      42.558  27.403  30.790  1.00  0.00     0.029 A 
ATOM     55  N   UNL A   1      41.685  29.199  31.769  1.00  0.00    -0.354 N 
ATOM     56  N   UNL A   1      41.480  31.259  33.833  1.00  0.00    -0.248 NA
ATOM     57  C   UNL A   1      42.115  32.120  35.910  1.00  0.00     0.031 C 
ATOM     58  C   UNL A   1      43.196  27.589  32.020  1.00  0.00     0.029 A 
ATOM     59  C   UNL A   1      42.670  28.724  32.617  1.00  0.00     0.049 A 
ATOM     60  H   UNL A   1      41.127  29.992  31.939  1.00  0.00     0.167 HD
ATOM     61  C   UNL A   1      42.479  30.459  34.375  1.00  0.00     0.074 A 
ATOM     62  C   UNL A   1      42.853  31.053  35.642  1.00  0.00     0.031 C 
ATOM     63  C   UNL A   1      43.033  29.329  33.871  1.00  0.00     0.031 A 
BRANCH  50  64
ATOM     64  C   UNL A   1      40.700  27.630  28.411  1.00  0.00    -0.014 A 
ATOM     65  C   UNL A   1      39.965  26.436  28.445  1.00  0.00     0.009 A 
ATOM     66  C   UNL A   1      41.459  27.930  27.267  1.00  0.00     0.009 A 
ATOM     67  C   UNL A   1      40.021  25.543  27.371  1.00  0.00     0.001 A 
ATOM     68  C   UNL A   1      41.490  27.050  26.185  1.00  0.00     0.001 A 
ATOM     69  C   UNL A   1      40.780  25.853  26.242  1.00  0.00     0.000 A 
ENDBRANCH  50  64
BRANCH  51  70
ATOM     70  C   UNL A   1      40.238  34.351  35.757  1.00  0.00    -0.014 A 
ATOM     71  C   UNL A   1      39.437  34.102  36.882  1.00  0.00     0.009 A 
ATOM     72  C   UNL A   1      40.958  35.555  35.689  1.00  0.00     0.009 A 
ATOM     73  C   UNL A   1      39.350  35.046  37.910  1.00  0.00     0.001 A 
ATOM     74  C   UNL A   1      40.892  36.481  36.732  1.00  0.00     0.001 A 
ATOM     75  C   UNL A   1      40.082  36.231  37.837  1.00  0.00     0.000 A 
ENDBRANCH  51  70
BRANCH  63  76
ATOM     76  C   UNL A   1      44.130  28.687  34.670  1.00  0.00    -0.014 A 
ATOM     77  C   UNL A   1      43.846  27.759  35.683  1.00  0.00     0.009 A 
ATOM     78  C   UNL A   1      45.469  28.988  34.377  1.00  0.00     0.009 A 
ATOM     79  C   UNL A   1      44.883  27.167  36.408  1.00  0.00     0.001 A 
ATOM     80  C   UNL A   1      46.504  28.377  35.087  1.00  0.00     0.001 A 
ATOM     81  C   UNL A   1      46.210  27.474  36.108  1.00  0.00     0.000 A 
ENDBRANCH  63  76
ENDBRANCH  37  38
ENDBRANCH  30  32
ENDBRANCH  29  30
ENDBRANCH  28  29
ENDBRANCH  27  28
ENDBRANCH  26  27
ENDBRANCH  25  26
ENDBRANCH   1  25
TORSDOF 22
ENDMDL
