MODEL 1
REMARK VINA RESULT:      -9.5      0.000      0.000
REMARK SMILES C[C@H](C(=O)OCCOCCOCCOC(=O)c1ccc(-c2c3nc(c(-c4ccccc4)c4ccc([nH]4)c(-c4ccccc4)c4nc(c(-c5ccccc5)c5ccc2[nH]5)C=C4)C=C3)cc1)c1ccc(-c2ccccc2)c(F)c1
REMARK SMILES IDX 9 1 8 2 7 3 6 4 5 5 3 6 4 7 2 8 1 9 65 10 66 11 77 12 67 13
REMARK SMILES IDX 75 14 68 15 76 16 69 17 70 18 74 19 71 20 73 21 72 22 10 23
REMARK SMILES IDX 11 24 12 25 13 26 14 27 15 28 16 29 17 30 18 31 64 32 19 33
REMARK SMILES IDX 63 34 20 35 21 36 22 37 57 38 23 39 62 40 56 41 58 42 24 43
REMARK SMILES IDX 61 44 55 45 54 46 25 48 47 49 32 50 46 51 33 52 36 53 45 54
REMARK SMILES IDX 59 55 34 56 35 57 44 59 60 60 37 61 26 62 27 63 31 64 28 65
REMARK SMILES IDX 30 66 29 67 48 68 49 69 53 70 50 71 52 72 51 73 38 74 39 75
REMARK SMILES IDX 43 76 40 77 42 78 41 79
REMARK H PARENT 58 47 36 58
REMARK Flexibility Score: inf
ROOT
ATOM      1  C   UNL A   1      31.093  27.784  25.379  1.00  0.00     0.188 C 
ENDROOT
BRANCH   1   2
ATOM      2  O   UNL A   1      31.918  27.358  24.300  1.00  0.00    -0.376 OA
BRANCH   2   3
ATOM      3  C   UNL A   1      31.601  26.135  23.646  1.00  0.00     0.202 C 
BRANCH   3   4
ATOM      4  C   UNL A   1      32.765  25.205  23.266  1.00  0.00     0.261 C 
BRANCH   4   5
ATOM      5  O   UNL A   1      34.085  25.644  23.679  1.00  0.00    -0.463 OA
BRANCH   5   6
ATOM      6  C   UNL A   1      34.556  25.099  24.826  1.00  0.00     0.313 C 
ATOM      7  O   UNL A   1      34.198  25.491  25.937  1.00  0.00    -0.252 OA
BRANCH   6   8
ATOM      8  C   UNL A   1      35.579  23.955  24.697  1.00  0.00     0.126 C 
ATOM      9  C   UNL A   1      36.613  24.205  25.817  1.00  0.00     0.025 C 
BRANCH   8  10
ATOM     10  C   UNL A   1      35.153  22.476  24.624  1.00  0.00    -0.031 A 
ATOM     11  C   UNL A   1      33.811  22.088  24.426  1.00  0.00     0.005 A 
ATOM     12  C   UNL A   1      36.065  21.436  24.879  1.00  0.00     0.044 A 
ATOM     13  C   UNL A   1      33.406  20.743  24.466  1.00  0.00     0.012 A 
ATOM     14  C   UNL A   1      35.653  20.085  24.891  1.00  0.00     0.131 A 
ATOM     15  C   UNL A   1      34.322  19.706  24.678  1.00  0.00     0.017 A 
ATOM     16  F   UNL A   1      36.587  19.146  25.112  1.00  0.00    -0.206 F 
BRANCH  15  17
ATOM     17  C   UNL A   1      33.856  18.303  24.682  1.00  0.00    -0.015 A 
ATOM     18  C   UNL A   1      32.882  17.865  25.599  1.00  0.00     0.009 A 
ATOM     19  C   UNL A   1      34.404  17.343  23.816  1.00  0.00     0.009 A 
ATOM     20  C   UNL A   1      32.476  16.528  25.658  1.00  0.00     0.001 A 
ATOM     21  C   UNL A   1      34.004  16.000  23.877  1.00  0.00     0.001 A 
ATOM     22  C   UNL A   1      33.042  15.592  24.799  1.00  0.00     0.000 A 
ENDBRANCH  15  17
ENDBRANCH   8  10
ENDBRANCH   6   8
ENDBRANCH   5   6
ENDBRANCH   4   5
ENDBRANCH   3   4
ENDBRANCH   2   3
ENDBRANCH   1   2
BRANCH   1  23
ATOM     23  C   UNL A   1      31.638  27.711  26.813  1.00  0.00     0.188 C 
BRANCH  23  24
ATOM     24  O   UNL A   1      32.585  28.714  27.113  1.00  0.00    -0.376 OA
BRANCH  24  25
ATOM     25  C   UNL A   1      32.094  30.038  27.169  1.00  0.00     0.202 C 
BRANCH  25  26
ATOM     26  C   UNL A   1      33.217  31.074  27.027  1.00  0.00     0.261 C 
BRANCH  26  27
ATOM     27  O   UNL A   1      34.023  31.268  28.210  1.00  0.00    -0.460 OA
BRANCH  27  28
ATOM     28  C   UNL A   1      35.108  32.061  28.082  1.00  0.00     0.338 C 
ATOM     29  O   UNL A   1      35.136  33.193  27.613  1.00  0.00    -0.246 OA
BRANCH  28  30
ATOM     30  C   UNL A   1      36.240  31.444  28.808  1.00  0.00     0.060 A 
ATOM     31  C   UNL A   1      37.495  32.069  28.768  1.00  0.00     0.016 A 
ATOM     32  C   UNL A   1      36.082  30.248  29.505  1.00  0.00     0.016 A 
ATOM     33  C   UNL A   1      38.600  31.498  29.400  1.00  0.00     0.010 A 
ATOM     34  C   UNL A   1      37.195  29.661  30.120  1.00  0.00     0.010 A 
ATOM     35  C   UNL A   1      38.466  30.265  30.048  1.00  0.00    -0.014 A 
BRANCH  35  36
ATOM     36  C   UNL A   1      39.670  29.512  30.483  1.00  0.00     0.031 A 
ATOM     37  C   UNL A   1      40.397  29.979  31.716  1.00  0.00     0.074 A 
ATOM     38  C   UNL A   1      40.118  28.434  29.816  1.00  0.00     0.049 A 
ATOM     39  N   UNL A   1      41.536  29.572  32.216  1.00  0.00    -0.248 NA
ATOM     40  C   UNL A   1      39.748  31.053  32.486  1.00  0.00     0.031 C 
ATOM     41  C   UNL A   1      39.476  27.822  28.655  1.00  0.00     0.029 A 
ATOM     42  N   UNL A   1      41.243  27.669  30.019  1.00  0.00    -0.354 N 
ATOM     43  C   UNL A   1      41.752  30.358  33.342  1.00  0.00     0.074 A 
ATOM     44  C   UNL A   1      40.637  31.275  33.441  1.00  0.00     0.031 C 
ATOM     45  C   UNL A   1      40.225  26.787  28.237  1.00  0.00     0.029 A 
ATOM     46  C   UNL A   1      41.424  26.694  29.070  1.00  0.00     0.049 A 
ATOM     47  H   UNL A   1      41.859  27.808  30.775  1.00  0.00     0.167 HD
ATOM     48  C   UNL A   1      42.787  30.322  34.215  1.00  0.00     0.031 A 
ATOM     49  C   UNL A   1      42.457  25.849  28.871  1.00  0.00     0.031 A 
ATOM     50  C   UNL A   1      43.901  29.420  34.116  1.00  0.00     0.049 A 
ATOM     51  C   UNL A   1      43.648  25.897  29.796  1.00  0.00     0.074 A 
ATOM     52  C   UNL A   1      44.997  29.308  34.955  1.00  0.00     0.029 A 
ATOM     53  N   UNL A   1      44.067  28.477  33.114  1.00  0.00    -0.354 N 
ATOM     54  N   UNL A   1      43.847  26.646  30.854  1.00  0.00    -0.248 NA
ATOM     55  C   UNL A   1      44.758  24.979  29.496  1.00  0.00     0.031 C 
ATOM     56  C   UNL A   1      45.857  28.340  34.425  1.00  0.00     0.029 A 
ATOM     57  C   UNL A   1      45.261  27.799  33.298  1.00  0.00     0.049 A 
ATOM     58  H   UNL A   1      43.431  28.313  32.381  1.00  0.00     0.167 HD
ATOM     59  C   UNL A   1      45.084  26.266  31.363  1.00  0.00     0.074 A 
ATOM     60  C   UNL A   1      45.584  25.211  30.507  1.00  0.00     0.031 C 
ATOM     61  C   UNL A   1      45.747  26.746  32.444  1.00  0.00     0.031 A 
BRANCH  48  62
ATOM     62  C   UNL A   1      42.782  31.329  35.333  1.00  0.00    -0.014 A 
ATOM     63  C   UNL A   1      43.294  32.624  35.158  1.00  0.00     0.009 A 
ATOM     64  C   UNL A   1      42.226  30.979  36.574  1.00  0.00     0.009 A 
ATOM     65  C   UNL A   1      43.282  33.537  36.215  1.00  0.00     0.001 A 
ATOM     66  C   UNL A   1      42.186  31.903  37.618  1.00  0.00     0.001 A 
ATOM     67  C   UNL A   1      42.722  33.178  37.442  1.00  0.00     0.000 A 
ENDBRANCH  48  62
BRANCH  49  68
ATOM     68  C   UNL A   1      42.446  24.905  27.719  1.00  0.00    -0.014 A 
ATOM     69  C   UNL A   1      42.944  25.296  26.466  1.00  0.00     0.009 A 
ATOM     70  C   UNL A   1      41.893  23.622  27.855  1.00  0.00     0.009 A 
ATOM     71  C   UNL A   1      42.863  24.433  25.370  1.00  0.00     0.001 A 
ATOM     72  C   UNL A   1      41.844  22.748  26.766  1.00  0.00     0.001 A 
ATOM     73  C   UNL A   1      42.318  23.159  25.522  1.00  0.00     0.000 A 
ENDBRANCH  49  68
BRANCH  61  74
ATOM     74  C   UNL A   1      47.061  26.103  32.800  1.00  0.00    -0.014 A 
ATOM     75  C   UNL A   1      47.132  25.018  33.688  1.00  0.00     0.009 A 
ATOM     76  C   UNL A   1      48.243  26.565  32.198  1.00  0.00     0.009 A 
ATOM     77  C   UNL A   1      48.364  24.433  33.991  1.00  0.00     0.001 A 
ATOM     78  C   UNL A   1      49.467  25.957  32.476  1.00  0.00     0.001 A 
ATOM     79  C   UNL A   1      49.529  24.898  33.381  1.00  0.00     0.000 A 
ENDBRANCH  61  74
ENDBRANCH  35  36
ENDBRANCH  28  30
ENDBRANCH  27  28
ENDBRANCH  26  27
ENDBRANCH  25  26
ENDBRANCH  24  25
ENDBRANCH  23  24
ENDBRANCH   1  23
TORSDOF 19
ENDMDL
MODEL 2
REMARK VINA RESULT:      -9.4      4.696     10.320
REMARK SMILES C[C@H](C(=O)OCCOCCOCCOC(=O)c1ccc(-c2c3nc(c(-c4ccccc4)c4ccc([nH]4)c(-c4ccccc4)c4nc(c(-c5ccccc5)c5ccc2[nH]5)C=C4)C=C3)cc1)c1ccc(-c2ccccc2)c(F)c1
REMARK SMILES IDX 9 1 8 2 7 3 6 4 5 5 3 6 4 7 2 8 1 9 65 10 66 11 77 12 67 13
REMARK SMILES IDX 75 14 68 15 76 16 69 17 70 18 74 19 71 20 73 21 72 22 10 23
REMARK SMILES IDX 11 24 12 25 13 26 14 27 15 28 16 29 17 30 18 31 64 32 19 33
REMARK SMILES IDX 63 34 20 35 21 36 22 37 57 38 23 39 62 40 56 41 58 42 24 43
REMARK SMILES IDX 61 44 55 45 54 46 25 48 47 49 32 50 46 51 33 52 36 53 45 54
REMARK SMILES IDX 59 55 34 56 35 57 44 59 60 60 37 61 26 62 27 63 31 64 28 65
REMARK SMILES IDX 30 66 29 67 48 68 49 69 53 70 50 71 52 72 51 73 38 74 39 75
REMARK SMILES IDX 43 76 40 77 42 78 41 79
REMARK H PARENT 58 47 36 58
REMARK Flexibility Score: inf
ROOT
ATOM      1  C   UNL A   1      34.661  35.387  33.997  1.00  0.00     0.188 C 
ENDROOT
BRANCH   1   2
ATOM      2  O   UNL A   1      34.454  33.996  33.775  1.00  0.00    -0.376 OA
BRANCH   2   3
ATOM      3  C   UNL A   1      35.503  33.093  34.103  1.00  0.00     0.202 C 
BRANCH   3   4
ATOM      4  C   UNL A   1      36.806  33.686  34.665  1.00  0.00     0.261 C 
BRANCH   4   5
ATOM      5  O   UNL A   1      37.179  33.243  35.996  1.00  0.00    -0.463 OA
BRANCH   5   6
ATOM      6  C   UNL A   1      37.937  32.122  36.054  1.00  0.00     0.313 C 
ATOM      7  O   UNL A   1      37.558  31.101  36.629  1.00  0.00    -0.252 OA
BRANCH   6   8
ATOM      8  C   UNL A   1      39.317  32.164  35.373  1.00  0.00     0.126 C 
ATOM      9  C   UNL A   1      40.017  33.415  35.949  1.00  0.00     0.025 C 
BRANCH   8  10
ATOM     10  C   UNL A   1      40.255  30.942  35.338  1.00  0.00    -0.031 A 
ATOM     11  C   UNL A   1      41.278  30.751  36.290  1.00  0.00     0.005 A 
ATOM     12  C   UNL A   1      40.218  30.019  34.278  1.00  0.00     0.044 A 
ATOM     13  C   UNL A   1      42.201  29.695  36.198  1.00  0.00     0.012 A 
ATOM     14  C   UNL A   1      41.134  28.946  34.207  1.00  0.00     0.131 A 
ATOM     15  C   UNL A   1      42.138  28.753  35.165  1.00  0.00     0.017 A 
ATOM     16  F   UNL A   1      41.018  28.088  33.181  1.00  0.00    -0.206 F 
BRANCH  15  17
ATOM     17  C   UNL A   1      43.111  27.641  35.124  1.00  0.00    -0.015 A 
ATOM     18  C   UNL A   1      42.855  26.482  34.368  1.00  0.00     0.009 A 
ATOM     19  C   UNL A   1      44.294  27.670  35.880  1.00  0.00     0.009 A 
ATOM     20  C   UNL A   1      43.735  25.394  34.369  1.00  0.00     0.001 A 
ATOM     21  C   UNL A   1      45.175  26.579  35.889  1.00  0.00     0.001 A 
ATOM     22  C   UNL A   1      44.894  25.441  35.135  1.00  0.00     0.000 A 
ENDBRANCH  15  17
ENDBRANCH   8  10
ENDBRANCH   6   8
ENDBRANCH   5   6
ENDBRANCH   4   5
ENDBRANCH   3   4
ENDBRANCH   2   3
ENDBRANCH   1   2
BRANCH   1  23
ATOM     23  C   UNL A   1      34.262  36.387  32.902  1.00  0.00     0.188 C 
BRANCH  23  24
ATOM     24  O   UNL A   1      33.381  35.852  31.937  1.00  0.00    -0.376 OA
BRANCH  24  25
ATOM     25  C   UNL A   1      33.116  36.668  30.814  1.00  0.00     0.202 C 
BRANCH  25  26
ATOM     26  C   UNL A   1      33.112  35.864  29.507  1.00  0.00     0.261 C 
BRANCH  26  27
ATOM     27  O   UNL A   1      33.013  34.432  29.672  1.00  0.00    -0.460 OA
BRANCH  27  28
ATOM     28  C   UNL A   1      33.648  33.670  28.757  1.00  0.00     0.338 C 
ATOM     29  O   UNL A   1      33.277  33.437  27.613  1.00  0.00    -0.246 OA
BRANCH  28  30
ATOM     30  C   UNL A   1      34.995  33.332  29.268  1.00  0.00     0.060 A 
ATOM     31  C   UNL A   1      36.122  33.829  28.597  1.00  0.00     0.016 A 
ATOM     32  C   UNL A   1      35.156  32.514  30.385  1.00  0.00     0.016 A 
ATOM     33  C   UNL A   1      37.411  33.497  29.018  1.00  0.00     0.010 A 
ATOM     34  C   UNL A   1      36.448  32.160  30.795  1.00  0.00     0.010 A 
ATOM     35  C   UNL A   1      37.582  32.624  30.098  1.00  0.00    -0.014 A 
BRANCH  35  36
ATOM     36  C   UNL A   1      38.919  32.044  30.387  1.00  0.00     0.031 A 
ATOM     37  C   UNL A   1      39.261  30.707  29.785  1.00  0.00     0.074 A 
ATOM     38  C   UNL A   1      39.820  32.676  31.158  1.00  0.00     0.049 A 
ATOM     39  N   UNL A   1      40.302  29.941  29.994  1.00  0.00    -0.248 NA
ATOM     40  C   UNL A   1      38.295  30.163  28.817  1.00  0.00     0.031 C 
ATOM     41  C   UNL A   1      39.659  34.005  31.743  1.00  0.00     0.029 A 
ATOM     42  N   UNL A   1      41.058  32.265  31.595  1.00  0.00    -0.354 N 
ATOM     43  C   UNL A   1      40.101  28.814  29.206  1.00  0.00     0.074 A 
ATOM     44  C   UNL A   1      38.834  28.989  28.528  1.00  0.00     0.031 C 
ATOM     45  C   UNL A   1      40.749  34.293  32.477  1.00  0.00     0.029 A 
ATOM     46  C   UNL A   1      41.661  33.150  32.454  1.00  0.00     0.049 A 
ATOM     47  H   UNL A   1      41.472  31.416  31.316  1.00  0.00     0.167 HD
ATOM     48  C   UNL A   1      40.898  27.729  29.059  1.00  0.00     0.031 A 
ATOM     49  C   UNL A   1      42.798  33.035  33.170  1.00  0.00     0.031 A 
ATOM     50  C   UNL A   1      42.153  27.546  29.736  1.00  0.00     0.049 A 
ATOM     51  C   UNL A   1      43.619  31.774  33.070  1.00  0.00     0.074 A 
ATOM     52  C   UNL A   1      43.032  26.480  29.650  1.00  0.00     0.029 A 
ATOM     53  N   UNL A   1      42.705  28.448  30.631  1.00  0.00    -0.354 N 
ATOM     54  N   UNL A   1      43.420  30.712  32.327  1.00  0.00    -0.248 NA
ATOM     55  C   UNL A   1      44.823  31.698  33.911  1.00  0.00     0.031 C 
ATOM     56  C   UNL A   1      44.086  26.708  30.539  1.00  0.00     0.029 A 
ATOM     57  C   UNL A   1      43.900  27.950  31.125  1.00  0.00     0.049 A 
ATOM     58  H   UNL A   1      42.309  29.314  30.879  1.00  0.00     0.167 HD
ATOM     59  C   UNL A   1      44.489  29.860  32.584  1.00  0.00     0.074 A 
ATOM     60  C   UNL A   1      45.340  30.534  33.541  1.00  0.00     0.031 C 
ATOM     61  C   UNL A   1      44.743  28.631  32.073  1.00  0.00     0.031 A 
BRANCH  48  62
ATOM     62  C   UNL A   1      40.406  26.628  28.160  1.00  0.00    -0.014 A 
ATOM     63  C   UNL A   1      40.899  26.468  26.856  1.00  0.00     0.009 A 
ATOM     64  C   UNL A   1      39.453  25.717  28.642  1.00  0.00     0.009 A 
ATOM     65  C   UNL A   1      40.421  25.439  26.041  1.00  0.00     0.001 A 
ATOM     66  C   UNL A   1      39.000  24.671  27.837  1.00  0.00     0.001 A 
ATOM     67  C   UNL A   1      39.477  24.538  26.534  1.00  0.00     0.000 A 
ENDBRANCH  48  62
BRANCH  49  68
ATOM     68  C   UNL A   1      43.220  34.128  34.090  1.00  0.00    -0.014 A 
ATOM     69  C   UNL A   1      43.924  35.242  33.606  1.00  0.00     0.009 A 
ATOM     70  C   UNL A   1      42.959  34.041  35.467  1.00  0.00     0.009 A 
ATOM     71  C   UNL A   1      44.383  36.227  34.484  1.00  0.00     0.001 A 
ATOM     72  C   UNL A   1      43.388  35.044  36.338  1.00  0.00     0.001 A 
ATOM     73  C   UNL A   1      44.111  36.131  35.848  1.00  0.00     0.000 A 
ENDBRANCH  49  68
BRANCH  61  74
ATOM     74  C   UNL A   1      46.020  27.951  32.492  1.00  0.00    -0.014 A 
ATOM     75  C   UNL A   1      46.889  28.532  33.429  1.00  0.00     0.009 A 
ATOM     76  C   UNL A   1      46.331  26.684  31.973  1.00  0.00     0.009 A 
ATOM     77  C   UNL A   1      48.061  27.872  33.808  1.00  0.00     0.001 A 
ATOM     78  C   UNL A   1      47.484  26.012  32.380  1.00  0.00     0.001 A 
ATOM     79  C   UNL A   1      48.354  26.611  33.289  1.00  0.00     0.000 A 
ENDBRANCH  61  74
ENDBRANCH  35  36
ENDBRANCH  28  30
ENDBRANCH  27  28
ENDBRANCH  26  27
ENDBRANCH  25  26
ENDBRANCH  24  25
ENDBRANCH  23  24
ENDBRANCH   1  23
TORSDOF 19
ENDMDL
MODEL 3
REMARK VINA RESULT:      -9.3      1.913      2.765
REMARK SMILES C[C@H](C(=O)OCCOCCOCCOC(=O)c1ccc(-c2c3nc(c(-c4ccccc4)c4ccc([nH]4)c(-c4ccccc4)c4nc(c(-c5ccccc5)c5ccc2[nH]5)C=C4)C=C3)cc1)c1ccc(-c2ccccc2)c(F)c1
REMARK SMILES IDX 9 1 8 2 7 3 6 4 5 5 3 6 4 7 2 8 1 9 65 10 66 11 77 12 67 13
REMARK SMILES IDX 75 14 68 15 76 16 69 17 70 18 74 19 71 20 73 21 72 22 10 23
REMARK SMILES IDX 11 24 12 25 13 26 14 27 15 28 16 29 17 30 18 31 64 32 19 33
REMARK SMILES IDX 63 34 20 35 21 36 22 37 57 38 23 39 62 40 56 41 58 42 24 43
REMARK SMILES IDX 61 44 55 45 54 46 25 48 47 49 32 50 46 51 33 52 36 53 45 54
REMARK SMILES IDX 59 55 34 56 35 57 44 59 60 60 37 61 26 62 27 63 31 64 28 65
REMARK SMILES IDX 30 66 29 67 48 68 49 69 53 70 50 71 52 72 51 73 38 74 39 75
REMARK SMILES IDX 43 76 40 77 42 78 41 79
REMARK H PARENT 58 47 36 58
REMARK Flexibility Score: inf
ROOT
ATOM      1  C   UNL A   1      31.441  28.801  25.245  1.00  0.00     0.188 C 
ENDROOT
BRANCH   1   2
ATOM      2  O   UNL A   1      31.169  28.443  23.894  1.00  0.00    -0.376 OA
BRANCH   2   3
ATOM      3  C   UNL A   1      30.395  27.276  23.645  1.00  0.00     0.202 C 
BRANCH   3   4
ATOM      4  C   UNL A   1      30.973  25.925  24.100  1.00  0.00     0.261 C 
BRANCH   4   5
ATOM      5  O   UNL A   1      31.924  25.308  23.194  1.00  0.00    -0.463 OA
BRANCH   5   6
ATOM      6  C   UNL A   1      33.222  25.651  23.377  1.00  0.00     0.313 C 
ATOM      7  O   UNL A   1      33.764  26.544  22.726  1.00  0.00    -0.252 OA
BRANCH   6   8
ATOM      8  C   UNL A   1      34.017  24.872  24.440  1.00  0.00     0.126 C 
ATOM      9  C   UNL A   1      33.758  25.616  25.770  1.00  0.00     0.025 C 
BRANCH   8  10
ATOM     10  C   UNL A   1      33.897  23.344  24.601  1.00  0.00    -0.031 A 
ATOM     11  C   UNL A   1      34.979  22.474  24.349  1.00  0.00     0.005 A 
ATOM     12  C   UNL A   1      32.665  22.730  24.884  1.00  0.00     0.044 A 
ATOM     13  C   UNL A   1      34.842  21.076  24.392  1.00  0.00     0.012 A 
ATOM     14  C   UNL A   1      32.542  21.324  24.949  1.00  0.00     0.131 A 
ATOM     15  C   UNL A   1      33.624  20.466  24.714  1.00  0.00     0.017 A 
ATOM     16  F   UNL A   1      31.339  20.812  25.255  1.00  0.00    -0.206 F 
BRANCH  15  17
ATOM     17  C   UNL A   1      33.534  18.992  24.776  1.00  0.00    -0.015 A 
ATOM     18  C   UNL A   1      32.743  18.356  25.751  1.00  0.00     0.009 A 
ATOM     19  C   UNL A   1      34.274  18.172  23.911  1.00  0.00     0.009 A 
ATOM     20  C   UNL A   1      32.696  16.962  25.865  1.00  0.00     0.001 A 
ATOM     21  C   UNL A   1      34.235  16.775  24.025  1.00  0.00     0.001 A 
ATOM     22  C   UNL A   1      33.448  16.170  25.004  1.00  0.00     0.000 A 
ENDBRANCH  15  17
ENDBRANCH   8  10
ENDBRANCH   6   8
ENDBRANCH   5   6
ENDBRANCH   4   5
ENDBRANCH   3   4
ENDBRANCH   2   3
ENDBRANCH   1   2
BRANCH   1  23
ATOM     23  C   UNL A   1      32.620  29.738  25.549  1.00  0.00     0.188 C 
BRANCH  23  24
ATOM     24  O   UNL A   1      32.386  30.613  26.631  1.00  0.00    -0.376 OA
BRANCH  24  25
ATOM     25  C   UNL A   1      31.363  31.571  26.448  1.00  0.00     0.202 C 
BRANCH  25  26
ATOM     26  C   UNL A   1      31.742  32.936  27.037  1.00  0.00     0.261 C 
BRANCH  26  27
ATOM     27  O   UNL A   1      33.137  33.289  26.913  1.00  0.00    -0.460 OA
BRANCH  27  28
ATOM     28  C   UNL A   1      33.717  33.859  27.991  1.00  0.00     0.338 C 
ATOM     29  O   UNL A   1      33.264  34.774  28.669  1.00  0.00    -0.246 OA
BRANCH  28  30
ATOM     30  C   UNL A   1      34.898  33.056  28.379  1.00  0.00     0.060 A 
ATOM     31  C   UNL A   1      34.750  31.673  28.564  1.00  0.00     0.016 A 
ATOM     32  C   UNL A   1      36.140  33.654  28.583  1.00  0.00     0.016 A 
ATOM     33  C   UNL A   1      35.826  30.886  28.974  1.00  0.00     0.010 A 
ATOM     34  C   UNL A   1      37.216  32.870  29.017  1.00  0.00     0.010 A 
ATOM     35  C   UNL A   1      37.060  31.487  29.244  1.00  0.00    -0.014 A 
BRANCH  35  36
ATOM     36  C   UNL A   1      38.130  30.725  29.939  1.00  0.00     0.031 A 
ATOM     37  C   UNL A   1      38.338  30.968  31.410  1.00  0.00     0.074 A 
ATOM     38  C   UNL A   1      38.901  29.831  29.297  1.00  0.00     0.049 A 
ATOM     39  N   UNL A   1      39.283  30.528  32.201  1.00  0.00    -0.248 NA
ATOM     40  C   UNL A   1      37.345  31.828  32.075  1.00  0.00     0.031 C 
ATOM     41  C   UNL A   1      38.764  29.436  27.897  1.00  0.00     0.029 A 
ATOM     42  N   UNL A   1      39.975  29.101  29.749  1.00  0.00    -0.354 N 
ATOM     43  C   UNL A   1      39.014  31.079  33.449  1.00  0.00     0.074 A 
ATOM     44  C   UNL A   1      37.829  31.897  33.306  1.00  0.00     0.031 C 
ATOM     45  C   UNL A   1      39.728  28.548  27.598  1.00  0.00     0.029 A 
ATOM     46  C   UNL A   1      40.580  28.350  28.771  1.00  0.00     0.049 A 
ATOM     47  H   UNL A   1      40.280  29.114  30.685  1.00  0.00     0.167 HD
ATOM     48  C   UNL A   1      39.691  30.921  34.610  1.00  0.00     0.031 A 
ATOM     49  C   UNL A   1      41.713  27.619  28.807  1.00  0.00     0.031 A 
ATOM     50  C   UNL A   1      40.874  30.117  34.756  1.00  0.00     0.049 A 
ATOM     51  C   UNL A   1      42.510  27.539  30.085  1.00  0.00     0.074 A 
ATOM     52  C   UNL A   1      41.630  29.893  35.895  1.00  0.00     0.029 A 
ATOM     53  N   UNL A   1      41.479  29.408  33.730  1.00  0.00    -0.354 N 
ATOM     54  N   UNL A   1      42.251  28.066  31.258  1.00  0.00    -0.248 NA
ATOM     55  C   UNL A   1      43.758  26.761  30.042  1.00  0.00     0.031 C 
ATOM     56  C   UNL A   1      42.727  29.100  35.544  1.00  0.00     0.029 A 
ATOM     57  C   UNL A   1      42.614  28.770  34.203  1.00  0.00     0.049 A 
ATOM     58  H   UNL A   1      41.150  29.363  32.803  1.00  0.00     0.167 HD
ATOM     59  C   UNL A   1      43.282  27.656  32.096  1.00  0.00     0.074 A 
ATOM     60  C   UNL A   1      44.162  26.825  31.303  1.00  0.00     0.031 C 
ATOM     61  C   UNL A   1      43.480  27.940  33.407  1.00  0.00     0.031 A 
BRANCH  48  62
ATOM     62  C   UNL A   1      39.191  31.677  35.811  1.00  0.00    -0.014 A 
ATOM     63  C   UNL A   1      38.177  31.163  36.633  1.00  0.00     0.009 A 
ATOM     64  C   UNL A   1      39.771  32.913  36.137  1.00  0.00     0.009 A 
ATOM     65  C   UNL A   1      37.728  31.889  37.738  1.00  0.00     0.001 A 
ATOM     66  C   UNL A   1      39.342  33.622  37.261  1.00  0.00     0.001 A 
ATOM     67  C   UNL A   1      38.315  33.114  38.055  1.00  0.00     0.000 A 
ENDBRANCH  48  62
BRANCH  49  68
ATOM     68  C   UNL A   1      42.202  26.930  27.580  1.00  0.00    -0.014 A 
ATOM     69  C   UNL A   1      42.747  27.664  26.514  1.00  0.00     0.009 A 
ATOM     70  C   UNL A   1      42.085  25.537  27.450  1.00  0.00     0.009 A 
ATOM     71  C   UNL A   1      43.135  27.021  25.336  1.00  0.00     0.001 A 
ATOM     72  C   UNL A   1      42.506  24.893  26.284  1.00  0.00     0.001 A 
ATOM     73  C   UNL A   1      43.019  25.636  25.223  1.00  0.00     0.000 A 
ENDBRANCH  49  68
BRANCH  61  74
ATOM     74  C   UNL A   1      44.666  27.307  34.087  1.00  0.00    -0.014 A 
ATOM     75  C   UNL A   1      45.816  28.049  34.400  1.00  0.00     0.009 A 
ATOM     76  C   UNL A   1      44.608  25.955  34.460  1.00  0.00     0.009 A 
ATOM     77  C   UNL A   1      46.896  27.438  35.042  1.00  0.00     0.001 A 
ATOM     78  C   UNL A   1      45.674  25.357  35.132  1.00  0.00     0.001 A 
ATOM     79  C   UNL A   1      46.823  26.095  35.413  1.00  0.00     0.000 A 
ENDBRANCH  61  74
ENDBRANCH  35  36
ENDBRANCH  28  30
ENDBRANCH  27  28
ENDBRANCH  26  27
ENDBRANCH  25  26
ENDBRANCH  24  25
ENDBRANCH  23  24
ENDBRANCH   1  23
TORSDOF 19
ENDMDL
