MODEL 1
REMARK VINA RESULT:     -11.0      0.000      0.000
REMARK SMILES O=C(OCCOCCOCCOC(=O)[C@@H]1CCCC[C@H]1C(=O)Nc1ccc(NC(=O)c2ccco2)cc1)c1ccc(-c2c3nc(c(-c4ccccc4)c4ccc([nH]4)c(-c4ccccc4)c4nc(c(-c5ccccc5)c5ccc2[nH]5)C=C4)C=C3)cc1
REMARK SMILES IDX 8 1 7 2 6 3 5 4 4 5 3 6 2 7 1 8 38 9 39 10 85 11 40 12 84 13
REMARK SMILES IDX 41 14 42 15 43 16 78 17 44 18 83 19 77 20 79 21 45 22 82 23
REMARK SMILES IDX 76 24 75 25 46 27 68 28 53 29 67 30 54 31 57 32 66 33 80 34
REMARK SMILES IDX 55 35 56 36 65 38 81 39 58 40 47 41 48 42 52 43 49 44 51 45
REMARK SMILES IDX 50 46 69 47 70 48 74 49 71 50 73 51 72 52 59 53 60 54 64 55
REMARK SMILES IDX 61 56 63 57 62 58 9 59 10 60 11 61 12 62 13 63 14 64 15 65
REMARK SMILES IDX 16 66 20 67 17 68 19 69 18 70 21 71 22 72 23 73 24 75 25 76
REMARK SMILES IDX 37 77 26 78 36 79 27 80 28 81 29 82 30 84 31 85 32 86 35 87
REMARK SMILES IDX 33 88 34 89
REMARK H PARENT 79 26 57 37 23 74 28 83
REMARK Flexibility Score: inf
ROOT
ATOM      1  C   UNL A   1      39.664  21.727  26.358  1.00  0.00     0.188 C 
ENDROOT
BRANCH   1   2
ATOM      2  C   UNL A   1      40.516  20.562  26.859  1.00  0.00     0.188 C 
BRANCH   2   3
ATOM      3  O   UNL A   1      41.598  20.254  25.967  1.00  0.00    -0.376 OA
BRANCH   3   4
ATOM      4  C   UNL A   1      42.824  20.876  26.362  1.00  0.00     0.202 C 
BRANCH   4   5
ATOM      5  C   UNL A   1      43.791  21.161  25.205  1.00  0.00     0.261 C 
BRANCH   5   6
ATOM      6  O   UNL A   1      43.559  22.426  24.561  1.00  0.00    -0.460 OA
BRANCH   6   7
ATOM      7  C   UNL A   1      44.094  23.642  24.827  1.00  0.00     0.338 C 
ATOM      8  O   UNL A   1      45.183  23.913  24.321  1.00  0.00    -0.246 OA
BRANCH   7   9
ATOM      9  C   UNL A   1      43.440  24.704  25.664  1.00  0.00     0.060 A 
ATOM     10  C   UNL A   1      43.814  26.045  25.725  1.00  0.00     0.016 A 
ATOM     11  C   UNL A   1      42.350  24.305  26.461  1.00  0.00     0.016 A 
ATOM     12  C   UNL A   1      43.223  26.934  26.619  1.00  0.00     0.010 A 
ATOM     13  C   UNL A   1      41.707  25.207  27.322  1.00  0.00     0.010 A 
ATOM     14  C   UNL A   1      42.176  26.522  27.435  1.00  0.00    -0.014 A 
BRANCH  14  15
ATOM     15  C   UNL A   1      41.721  27.412  28.526  1.00  0.00     0.031 A 
ATOM     16  C   UNL A   1      42.570  27.493  29.764  1.00  0.00     0.074 A 
ATOM     17  C   UNL A   1      40.707  28.285  28.361  1.00  0.00     0.049 A 
ATOM     18  N   UNL A   1      42.363  28.167  30.863  1.00  0.00    -0.248 NA
ATOM     19  C   UNL A   1      43.868  26.795  29.719  1.00  0.00     0.031 C 
ATOM     20  C   UNL A   1      40.031  28.584  27.100  1.00  0.00     0.029 A 
ATOM     21  N   UNL A   1      40.070  29.094  29.265  1.00  0.00    -0.354 N 
ATOM     22  C   UNL A   1      43.536  28.047  31.595  1.00  0.00     0.074 A 
ATOM     23  C   UNL A   1      44.413  27.159  30.869  1.00  0.00     0.031 C 
ATOM     24  C   UNL A   1      39.042  29.468  27.321  1.00  0.00     0.029 A 
ATOM     25  C   UNL A   1      38.967  29.739  28.747  1.00  0.00     0.049 A 
ATOM     26  H   UNL A   1      40.371  29.204  30.197  1.00  0.00     0.167 HD
ATOM     27  C   UNL A   1      43.870  28.678  32.744  1.00  0.00     0.031 A 
ATOM     28  C   UNL A   1      37.980  30.404  29.379  1.00  0.00     0.031 A 
ATOM     29  C   UNL A   1      42.960  29.513  33.476  1.00  0.00     0.049 A 
ATOM     30  C   UNL A   1      38.106  30.524  30.870  1.00  0.00     0.074 A 
ATOM     31  C   UNL A   1      43.151  30.183  34.669  1.00  0.00     0.029 A 
ATOM     32  N   UNL A   1      41.655  29.759  33.079  1.00  0.00    -0.354 N 
ATOM     33  N   UNL A   1      39.175  30.353  31.606  1.00  0.00    -0.248 NA
ATOM     34  C   UNL A   1      36.905  30.907  31.618  1.00  0.00     0.031 C 
ATOM     35  C   UNL A   1      41.933  30.780  35.027  1.00  0.00     0.029 A 
ATOM     36  C   UNL A   1      41.005  30.522  34.030  1.00  0.00     0.049 A 
ATOM     37  H   UNL A   1      41.250  29.436  32.241  1.00  0.00     0.167 HD
ATOM     38  C   UNL A   1      38.814  30.741  32.883  1.00  0.00     0.074 A 
ATOM     39  C   UNL A   1      37.400  31.064  32.839  1.00  0.00     0.031 C 
ATOM     40  C   UNL A   1      39.613  30.889  33.967  1.00  0.00     0.031 A 
BRANCH  27  41
ATOM     41  C   UNL A   1      45.262  28.454  33.255  1.00  0.00    -0.014 A 
ATOM     42  C   UNL A   1      45.526  27.466  34.218  1.00  0.00     0.009 A 
ATOM     43  C   UNL A   1      46.314  29.267  32.810  1.00  0.00     0.009 A 
ATOM     44  C   UNL A   1      46.807  27.324  34.756  1.00  0.00     0.001 A 
ATOM     45  C   UNL A   1      47.598  29.109  33.335  1.00  0.00     0.001 A 
ATOM     46  C   UNL A   1      47.842  28.146  34.315  1.00  0.00     0.000 A 
ENDBRANCH  27  41
BRANCH  28  47
ATOM     47  C   UNL A   1      36.752  30.883  28.680  1.00  0.00    -0.014 A 
ATOM     48  C   UNL A   1      36.470  32.239  28.482  1.00  0.00     0.009 A 
ATOM     49  C   UNL A   1      35.773  29.959  28.297  1.00  0.00     0.009 A 
ATOM     50  C   UNL A   1      35.239  32.640  27.937  1.00  0.00     0.001 A 
ATOM     51  C   UNL A   1      34.557  30.346  27.733  1.00  0.00     0.001 A 
ATOM     52  C   UNL A   1      34.285  31.694  27.563  1.00  0.00     0.000 A 
ENDBRANCH  28  47
BRANCH  40  53
ATOM     53  C   UNL A   1      39.029  31.631  35.127  1.00  0.00    -0.014 A 
ATOM     54  C   UNL A   1      39.079  33.025  35.229  1.00  0.00     0.009 A 
ATOM     55  C   UNL A   1      38.401  30.884  36.139  1.00  0.00     0.009 A 
ATOM     56  C   UNL A   1      38.525  33.659  36.343  1.00  0.00     0.001 A 
ATOM     57  C   UNL A   1      37.826  31.521  37.234  1.00  0.00     0.001 A 
ATOM     58  C   UNL A   1      37.895  32.909  37.338  1.00  0.00     0.000 A 
ENDBRANCH  40  53
ENDBRANCH  14  15
ENDBRANCH   7   9
ENDBRANCH   6   7
ENDBRANCH   5   6
ENDBRANCH   4   5
ENDBRANCH   3   4
ENDBRANCH   2   3
ENDBRANCH   1   2
BRANCH   1  59
ATOM     59  O   UNL A   1      38.686  21.438  25.362  1.00  0.00    -0.376 OA
BRANCH  59  60
ATOM     60  C   UNL A   1      37.341  21.831  25.600  1.00  0.00     0.202 C 
BRANCH  60  61
ATOM     61  C   UNL A   1      36.206  20.867  25.223  1.00  0.00     0.261 C 
BRANCH  61  62
ATOM     62  O   UNL A   1      35.042  21.459  24.633  1.00  0.00    -0.463 OA
BRANCH  62  63
ATOM     63  C   UNL A   1      33.896  21.249  25.345  1.00  0.00     0.309 C 
ATOM     64  O   UNL A   1      33.569  20.177  25.832  1.00  0.00    -0.252 OA
BRANCH  63  65
ATOM     65  C   UNL A   1      33.060  22.512  25.410  1.00  0.00     0.111 C 
ATOM     66  C   UNL A   1      32.524  22.835  26.808  1.00  0.00     0.016 C 
ATOM     67  C   UNL A   1      31.945  22.472  24.346  1.00  0.00     0.093 C 
ATOM     68  C   UNL A   1      31.737  24.144  26.787  1.00  0.00     0.001 C 
ATOM     69  C   UNL A   1      30.982  23.669  24.412  1.00  0.00     0.014 C 
ATOM     70  C   UNL A   1      30.556  24.049  25.828  1.00  0.00     0.001 C 
BRANCH  67  71
ATOM     71  C   UNL A   1      32.422  22.151  22.903  1.00  0.00     0.228 C 
ATOM     72  O   UNL A   1      31.947  21.175  22.309  1.00  0.00    -0.274 OA
ATOM     73  N   UNL A   1      33.296  22.927  22.175  1.00  0.00    -0.326 N 
ATOM     74  H   UNL A   1      33.789  22.494  21.442  1.00  0.00     0.169 HD
BRANCH  73  75
ATOM     75  C   UNL A   1      33.536  24.284  22.400  1.00  0.00     0.041 A 
ATOM     76  C   UNL A   1      32.813  25.222  21.672  1.00  0.00     0.028 A 
ATOM     77  C   UNL A   1      34.293  24.689  23.476  1.00  0.00     0.028 A 
ATOM     78  C   UNL A   1      32.666  26.523  22.178  1.00  0.00     0.028 A 
ATOM     79  C   UNL A   1      34.016  25.922  24.050  1.00  0.00     0.028 A 
ATOM     80  C   UNL A   1      33.206  26.860  23.415  1.00  0.00     0.041 A 
BRANCH  80  81
ATOM     81  N   UNL A   1      33.035  28.064  24.118  1.00  0.00    -0.319 N 
ATOM     82  C   UNL A   1      31.945  28.824  24.469  1.00  0.00     0.291 C 
ATOM     83  H   UNL A   1      33.887  28.450  24.428  1.00  0.00     0.170 HD
ATOM     84  O   UNL A   1      32.161  29.829  25.153  1.00  0.00    -0.265 OA
BRANCH  82  85
ATOM     85  C   UNL A   1      30.643  28.510  23.951  1.00  0.00     0.191 A 
ATOM     86  C   UNL A   1      29.835  27.395  24.066  1.00  0.00     0.056 A 
ATOM     87  O   UNL A   1      29.991  29.473  23.233  1.00  0.00    -0.459 OA
ATOM     88  C   UNL A   1      28.674  27.659  23.301  1.00  0.00     0.043 A 
ATOM     89  C   UNL A   1      28.804  28.947  22.839  1.00  0.00     0.196 A 
ENDBRANCH  82  85
ENDBRANCH  80  81
ENDBRANCH  73  75
ENDBRANCH  67  71
ENDBRANCH  63  65
ENDBRANCH  62  63
ENDBRANCH  61  62
ENDBRANCH  60  61
ENDBRANCH  59  60
ENDBRANCH   1  59
TORSDOF 21
ENDMDL
MODEL 2
REMARK VINA RESULT:     -10.4      1.465      5.982
REMARK SMILES O=C(OCCOCCOCCOC(=O)[C@@H]1CCCC[C@H]1C(=O)Nc1ccc(NC(=O)c2ccco2)cc1)c1ccc(-c2c3nc(c(-c4ccccc4)c4ccc([nH]4)c(-c4ccccc4)c4nc(c(-c5ccccc5)c5ccc2[nH]5)C=C4)C=C3)cc1
REMARK SMILES IDX 8 1 7 2 6 3 5 4 4 5 3 6 2 7 1 8 38 9 39 10 85 11 40 12 84 13
REMARK SMILES IDX 41 14 42 15 43 16 78 17 44 18 83 19 77 20 79 21 45 22 82 23
REMARK SMILES IDX 76 24 75 25 46 27 68 28 53 29 67 30 54 31 57 32 66 33 80 34
REMARK SMILES IDX 55 35 56 36 65 38 81 39 58 40 47 41 48 42 52 43 49 44 51 45
REMARK SMILES IDX 50 46 69 47 70 48 74 49 71 50 73 51 72 52 59 53 60 54 64 55
REMARK SMILES IDX 61 56 63 57 62 58 9 59 10 60 11 61 12 62 13 63 14 64 15 65
REMARK SMILES IDX 16 66 20 67 17 68 19 69 18 70 21 71 22 72 23 73 24 75 25 76
REMARK SMILES IDX 37 77 26 78 36 79 27 80 28 81 29 82 30 84 31 85 32 86 35 87
REMARK SMILES IDX 33 88 34 89
REMARK H PARENT 79 26 57 37 23 74 28 83
REMARK Flexibility Score: inf
ROOT
ATOM      1  C   UNL A   1      40.540  21.489  26.978  1.00  0.00     0.188 C 
ENDROOT
BRANCH   1   2
ATOM      2  C   UNL A   1      41.149  20.178  26.483  1.00  0.00     0.188 C 
BRANCH   2   3
ATOM      3  O   UNL A   1      42.283  20.392  25.629  1.00  0.00    -0.376 OA
BRANCH   3   4
ATOM      4  C   UNL A   1      43.151  21.416  26.122  1.00  0.00     0.202 C 
BRANCH   4   5
ATOM      5  C   UNL A   1      44.089  22.013  25.064  1.00  0.00     0.261 C 
BRANCH   5   6
ATOM      6  O   UNL A   1      43.754  23.361  24.694  1.00  0.00    -0.460 OA
BRANCH   6   7
ATOM      7  C   UNL A   1      44.309  24.531  25.093  1.00  0.00     0.338 C 
ATOM      8  O   UNL A   1      45.404  24.837  24.621  1.00  0.00    -0.246 OA
BRANCH   7   9
ATOM      9  C   UNL A   1      43.670  25.506  26.042  1.00  0.00     0.060 A 
ATOM     10  C   UNL A   1      44.089  26.815  26.275  1.00  0.00     0.016 A 
ATOM     11  C   UNL A   1      42.548  25.053  26.760  1.00  0.00     0.016 A 
ATOM     12  C   UNL A   1      43.506  27.608  27.259  1.00  0.00     0.010 A 
ATOM     13  C   UNL A   1      41.915  25.865  27.712  1.00  0.00     0.010 A 
ATOM     14  C   UNL A   1      42.426  27.138  27.997  1.00  0.00    -0.014 A 
BRANCH  14  15
ATOM     15  C   UNL A   1      41.975  27.904  29.180  1.00  0.00     0.031 A 
ATOM     16  C   UNL A   1      40.747  28.757  29.035  1.00  0.00     0.074 A 
ATOM     17  C   UNL A   1      42.498  27.700  30.406  1.00  0.00     0.049 A 
ATOM     18  N   UNL A   1      40.182  29.545  29.910  1.00  0.00    -0.248 NA
ATOM     19  C   UNL A   1      40.006  28.635  27.766  1.00  0.00     0.031 C 
ATOM     20  C   UNL A   1      43.437  26.641  30.771  1.00  0.00     0.029 A 
ATOM     21  N   UNL A   1      42.305  28.376  31.582  1.00  0.00    -0.354 N 
ATOM     22  C   UNL A   1      38.982  29.937  29.333  1.00  0.00     0.074 A 
ATOM     23  C   UNL A   1      38.941  29.386  27.999  1.00  0.00     0.031 C 
ATOM     24  C   UNL A   1      43.777  26.772  32.066  1.00  0.00     0.029 A 
ATOM     25  C   UNL A   1      43.140  27.965  32.599  1.00  0.00     0.049 A 
ATOM     26  H   UNL A   1      41.634  29.089  31.691  1.00  0.00     0.167 HD
ATOM     27  C   UNL A   1      37.976  30.643  29.898  1.00  0.00     0.031 A 
ATOM     28  C   UNL A   1      43.403  28.542  33.788  1.00  0.00     0.031 A 
ATOM     29  C   UNL A   1      38.063  31.227  31.206  1.00  0.00     0.049 A 
ATOM     30  C   UNL A   1      42.640  29.795  34.102  1.00  0.00     0.074 A 
ATOM     31  C   UNL A   1      37.139  31.996  31.887  1.00  0.00     0.029 A 
ATOM     32  N   UNL A   1      39.180  31.123  32.021  1.00  0.00    -0.354 N 
ATOM     33  N   UNL A   1      41.543  30.237  33.538  1.00  0.00    -0.248 NA
ATOM     34  C   UNL A   1      43.146  30.636  35.191  1.00  0.00     0.031 C 
ATOM     35  C   UNL A   1      37.729  32.413  33.089  1.00  0.00     0.029 A 
ATOM     36  C   UNL A   1      38.997  31.861  33.174  1.00  0.00     0.049 A 
ATOM     37  H   UNL A   1      39.987  30.599  31.807  1.00  0.00     0.167 HD
ATOM     38  C   UNL A   1      41.151  31.329  34.290  1.00  0.00     0.074 A 
ATOM     39  C   UNL A   1      42.179  31.539  35.292  1.00  0.00     0.031 C 
ATOM     40  C   UNL A   1      39.998  32.033  34.198  1.00  0.00     0.031 A 
BRANCH  27  41
ATOM     41  C   UNL A   1      36.732  30.818  29.078  1.00  0.00    -0.014 A 
ATOM     42  C   UNL A   1      35.917  29.718  28.761  1.00  0.00     0.009 A 
ATOM     43  C   UNL A   1      36.395  32.081  28.574  1.00  0.00     0.009 A 
ATOM     44  C   UNL A   1      34.812  29.873  27.921  1.00  0.00     0.001 A 
ATOM     45  C   UNL A   1      35.277  32.237  27.751  1.00  0.00     0.001 A 
ATOM     46  C   UNL A   1      34.494  31.132  27.416  1.00  0.00     0.000 A 
ENDBRANCH  27  41
BRANCH  28  47
ATOM     47  C   UNL A   1      44.483  28.061  34.698  1.00  0.00    -0.014 A 
ATOM     48  C   UNL A   1      45.831  28.387  34.518  1.00  0.00     0.009 A 
ATOM     49  C   UNL A   1      44.170  27.152  35.716  1.00  0.00     0.009 A 
ATOM     50  C   UNL A   1      46.821  27.802  35.324  1.00  0.00     0.001 A 
ATOM     51  C   UNL A   1      45.143  26.583  36.538  1.00  0.00     0.001 A 
ATOM     52  C   UNL A   1      46.476  26.901  36.332  1.00  0.00     0.000 A 
ENDBRANCH  28  47
BRANCH  40  53
ATOM     53  C   UNL A   1      39.684  32.948  35.338  1.00  0.00    -0.014 A 
ATOM     54  C   UNL A   1      40.092  34.286  35.364  1.00  0.00     0.009 A 
ATOM     55  C   UNL A   1      38.942  32.430  36.414  1.00  0.00     0.009 A 
ATOM     56  C   UNL A   1      39.777  35.086  36.464  1.00  0.00     0.001 A 
ATOM     57  C   UNL A   1      38.606  33.238  37.495  1.00  0.00     0.001 A 
ATOM     58  C   UNL A   1      39.031  34.565  37.523  1.00  0.00     0.000 A 
ENDBRANCH  40  53
ENDBRANCH  14  15
ENDBRANCH   7   9
ENDBRANCH   6   7
ENDBRANCH   5   6
ENDBRANCH   4   5
ENDBRANCH   3   4
ENDBRANCH   2   3
ENDBRANCH   1   2
BRANCH   1  59
ATOM     59  O   UNL A   1      39.782  22.250  26.042  1.00  0.00    -0.376 OA
BRANCH  59  60
ATOM     60  C   UNL A   1      38.365  22.132  26.063  1.00  0.00     0.202 C 
BRANCH  60  61
ATOM     61  C   UNL A   1      37.699  21.023  25.235  1.00  0.00     0.261 C 
BRANCH  61  62
ATOM     62  O   UNL A   1      36.750  21.452  24.250  1.00  0.00    -0.463 OA
BRANCH  62  63
ATOM     63  C   UNL A   1      35.449  21.341  24.651  1.00  0.00     0.309 C 
ATOM     64  O   UNL A   1      34.916  20.295  24.989  1.00  0.00    -0.252 OA
BRANCH  63  65
ATOM     65  C   UNL A   1      34.744  22.681  24.577  1.00  0.00     0.111 C 
ATOM     66  C   UNL A   1      35.435  23.700  23.666  1.00  0.00     0.016 C 
ATOM     67  C   UNL A   1      34.492  23.233  25.994  1.00  0.00     0.093 C 
ATOM     68  C   UNL A   1      34.631  24.999  23.615  1.00  0.00     0.001 C 
ATOM     69  C   UNL A   1      33.875  24.640  26.011  1.00  0.00     0.014 C 
ATOM     70  C   UNL A   1      34.500  25.607  25.007  1.00  0.00     0.001 C 
BRANCH  67  71
ATOM     71  C   UNL A   1      33.792  22.248  26.971  1.00  0.00     0.228 C 
ATOM     72  O   UNL A   1      34.398  21.854  27.975  1.00  0.00    -0.274 OA
ATOM     73  N   UNL A   1      32.487  21.823  26.854  1.00  0.00    -0.326 N 
ATOM     74  H   UNL A   1      32.242  20.976  27.291  1.00  0.00     0.169 HD
BRANCH  73  75
ATOM     75  C   UNL A   1      31.485  22.504  26.161  1.00  0.00     0.041 A 
ATOM     76  C   UNL A   1      30.699  23.422  26.848  1.00  0.00     0.028 A 
ATOM     77  C   UNL A   1      31.427  22.449  24.786  1.00  0.00     0.028 A 
ATOM     78  C   UNL A   1      30.042  24.437  26.137  1.00  0.00     0.028 A 
ATOM     79  C   UNL A   1      30.910  23.541  24.104  1.00  0.00     0.028 A 
ATOM     80  C   UNL A   1      30.207  24.549  24.760  1.00  0.00     0.041 A 
BRANCH  80  81
ATOM     81  N   UNL A   1      29.735  25.577  23.927  1.00  0.00    -0.319 N 
ATOM     82  C   UNL A   1      30.093  26.889  23.724  1.00  0.00     0.291 C 
ATOM     83  H   UNL A   1      28.979  25.295  23.363  1.00  0.00     0.170 HD
ATOM     84  O   UNL A   1      29.478  27.507  22.850  1.00  0.00    -0.265 OA
BRANCH  82  85
ATOM     85  C   UNL A   1      31.056  27.520  24.583  1.00  0.00     0.191 A 
ATOM     86  C   UNL A   1      31.235  27.513  25.952  1.00  0.00     0.056 A 
ATOM     87  O   UNL A   1      32.053  28.250  23.996  1.00  0.00    -0.459 OA
ATOM     88  C   UNL A   1      32.340  28.356  26.218  1.00  0.00     0.043 A 
ATOM     89  C   UNL A   1      32.820  28.756  24.994  1.00  0.00     0.196 A 
ENDBRANCH  82  85
ENDBRANCH  80  81
ENDBRANCH  73  75
ENDBRANCH  67  71
ENDBRANCH  63  65
ENDBRANCH  62  63
ENDBRANCH  61  62
ENDBRANCH  60  61
ENDBRANCH  59  60
ENDBRANCH   1  59
TORSDOF 21
ENDMDL
MODEL 3
REMARK VINA RESULT:     -10.2      1.420      2.095
REMARK SMILES O=C(OCCOCCOCCOC(=O)[C@@H]1CCCC[C@H]1C(=O)Nc1ccc(NC(=O)c2ccco2)cc1)c1ccc(-c2c3nc(c(-c4ccccc4)c4ccc([nH]4)c(-c4ccccc4)c4nc(c(-c5ccccc5)c5ccc2[nH]5)C=C4)C=C3)cc1
REMARK SMILES IDX 8 1 7 2 6 3 5 4 4 5 3 6 2 7 1 8 38 9 39 10 85 11 40 12 84 13
REMARK SMILES IDX 41 14 42 15 43 16 78 17 44 18 83 19 77 20 79 21 45 22 82 23
REMARK SMILES IDX 76 24 75 25 46 27 68 28 53 29 67 30 54 31 57 32 66 33 80 34
REMARK SMILES IDX 55 35 56 36 65 38 81 39 58 40 47 41 48 42 52 43 49 44 51 45
REMARK SMILES IDX 50 46 69 47 70 48 74 49 71 50 73 51 72 52 59 53 60 54 64 55
REMARK SMILES IDX 61 56 63 57 62 58 9 59 10 60 11 61 12 62 13 63 14 64 15 65
REMARK SMILES IDX 16 66 20 67 17 68 19 69 18 70 21 71 22 72 23 73 24 75 25 76
REMARK SMILES IDX 37 77 26 78 36 79 27 80 28 81 29 82 30 84 31 85 32 86 35 87
REMARK SMILES IDX 33 88 34 89
REMARK H PARENT 79 26 57 37 23 74 28 83
REMARK Flexibility Score: inf
ROOT
ATOM      1  C   UNL A   1      41.044  20.925  27.019  1.00  0.00     0.188 C 
ENDROOT
BRANCH   1   2
ATOM      2  C   UNL A   1      41.577  19.575  26.541  1.00  0.00     0.188 C 
BRANCH   2   3
ATOM      3  O   UNL A   1      42.560  19.714  25.503  1.00  0.00    -0.376 OA
BRANCH   3   4
ATOM      4  C   UNL A   1      43.570  20.672  25.834  1.00  0.00     0.202 C 
BRANCH   4   5
ATOM      5  C   UNL A   1      44.284  21.282  24.620  1.00  0.00     0.261 C 
BRANCH   5   6
ATOM      6  O   UNL A   1      43.873  22.629  24.329  1.00  0.00    -0.460 OA
BRANCH   6   7
ATOM      7  C   UNL A   1      44.367  23.803  24.791  1.00  0.00     0.338 C 
ATOM      8  O   UNL A   1      45.516  24.108  24.468  1.00  0.00    -0.246 OA
BRANCH   7   9
ATOM      9  C   UNL A   1      43.606  24.783  25.637  1.00  0.00     0.060 A 
ATOM     10  C   UNL A   1      43.677  26.172  25.545  1.00  0.00     0.016 A 
ATOM     11  C   UNL A   1      42.743  24.247  26.612  1.00  0.00     0.016 A 
ATOM     12  C   UNL A   1      43.022  27.002  26.451  1.00  0.00     0.010 A 
ATOM     13  C   UNL A   1      42.031  25.076  27.491  1.00  0.00     0.010 A 
ATOM     14  C   UNL A   1      42.206  26.465  27.439  1.00  0.00    -0.014 A 
BRANCH  14  15
ATOM     15  C   UNL A   1      41.708  27.346  28.519  1.00  0.00     0.031 A 
ATOM     16  C   UNL A   1      42.547  27.476  29.759  1.00  0.00     0.074 A 
ATOM     17  C   UNL A   1      40.658  28.171  28.341  1.00  0.00     0.049 A 
ATOM     18  N   UNL A   1      42.305  28.151  30.851  1.00  0.00    -0.248 NA
ATOM     19  C   UNL A   1      43.874  26.835  29.727  1.00  0.00     0.031 C 
ATOM     20  C   UNL A   1      39.975  28.428  27.074  1.00  0.00     0.029 A 
ATOM     21  N   UNL A   1      39.982  28.962  29.234  1.00  0.00    -0.354 N 
ATOM     22  C   UNL A   1      43.479  28.091  31.589  1.00  0.00     0.074 A 
ATOM     23  C   UNL A   1      44.397  27.234  30.876  1.00  0.00     0.031 C 
ATOM     24  C   UNL A   1      38.947  29.271  27.282  1.00  0.00     0.029 A 
ATOM     25  C   UNL A   1      38.854  29.552  28.705  1.00  0.00     0.049 A 
ATOM     26  H   UNL A   1      40.273  29.094  30.165  1.00  0.00     0.167 HD
ATOM     27  C   UNL A   1      43.780  28.748  32.733  1.00  0.00     0.031 A 
ATOM     28  C   UNL A   1      37.836  30.180  29.325  1.00  0.00     0.031 A 
ATOM     29  C   UNL A   1      42.831  29.549  33.452  1.00  0.00     0.049 A 
ATOM     30  C   UNL A   1      37.950  30.321  30.815  1.00  0.00     0.074 A 
ATOM     31  C   UNL A   1      42.988  30.240  34.639  1.00  0.00     0.029 A 
ATOM     32  N   UNL A   1      41.518  29.735  33.047  1.00  0.00    -0.354 N 
ATOM     33  N   UNL A   1      39.022  30.205  31.558  1.00  0.00    -0.248 NA
ATOM     34  C   UNL A   1      36.730  30.659  31.555  1.00  0.00     0.031 C 
ATOM     35  C   UNL A   1      41.743  30.786  34.985  1.00  0.00     0.029 A 
ATOM     36  C   UNL A   1      40.832  30.478  33.987  1.00  0.00     0.049 A 
ATOM     37  H   UNL A   1      41.132  29.385  32.211  1.00  0.00     0.167 HD
ATOM     38  C   UNL A   1      38.638  30.589  32.829  1.00  0.00     0.074 A 
ATOM     39  C   UNL A   1      37.212  30.850  32.776  1.00  0.00     0.031 C 
ATOM     40  C   UNL A   1      39.425  30.783  33.915  1.00  0.00     0.031 A 
BRANCH  27  41
ATOM     41  C   UNL A   1      45.178  28.590  33.251  1.00  0.00    -0.014 A 
ATOM     42  C   UNL A   1      45.431  27.876  34.435  1.00  0.00     0.009 A 
ATOM     43  C   UNL A   1      46.249  29.197  32.583  1.00  0.00     0.009 A 
ATOM     44  C   UNL A   1      46.724  27.811  34.961  1.00  0.00     0.001 A 
ATOM     45  C   UNL A   1      47.543  29.113  33.100  1.00  0.00     0.001 A 
ATOM     46  C   UNL A   1      47.778  28.430  34.294  1.00  0.00     0.000 A 
ENDBRANCH  27  41
BRANCH  28  47
ATOM     47  C   UNL A   1      36.592  30.599  28.616  1.00  0.00    -0.014 A 
ATOM     48  C   UNL A   1      36.222  31.938  28.453  1.00  0.00     0.009 A 
ATOM     49  C   UNL A   1      35.684  29.623  28.186  1.00  0.00     0.009 A 
ATOM     50  C   UNL A   1      34.978  32.273  27.896  1.00  0.00     0.001 A 
ATOM     51  C   UNL A   1      34.455  29.946  27.609  1.00  0.00     0.001 A 
ATOM     52  C   UNL A   1      34.097  31.277  27.473  1.00  0.00     0.000 A 
ENDBRANCH  28  47
BRANCH  40  53
ATOM     53  C   UNL A   1      38.805  31.511  35.064  1.00  0.00    -0.014 A 
ATOM     54  C   UNL A   1      38.308  30.851  36.193  1.00  0.00     0.009 A 
ATOM     55  C   UNL A   1      38.735  32.913  34.996  1.00  0.00     0.009 A 
ATOM     56  C   UNL A   1      37.730  31.587  37.229  1.00  0.00     0.001 A 
ATOM     57  C   UNL A   1      38.183  33.646  36.043  1.00  0.00     0.001 A 
ATOM     58  C   UNL A   1      37.674  32.980  37.156  1.00  0.00     0.000 A 
ENDBRANCH  40  53
ENDBRANCH  14  15
ENDBRANCH   7   9
ENDBRANCH   6   7
ENDBRANCH   5   6
ENDBRANCH   4   5
ENDBRANCH   3   4
ENDBRANCH   2   3
ENDBRANCH   1   2
BRANCH   1  59
ATOM     59  O   UNL A   1      40.424  21.761  26.046  1.00  0.00    -0.376 OA
BRANCH  59  60
ATOM     60  C   UNL A   1      39.013  21.930  26.097  1.00  0.00     0.202 C 
BRANCH  60  61
ATOM     61  C   UNL A   1      38.110  20.802  25.576  1.00  0.00     0.261 C 
BRANCH  61  62
ATOM     62  O   UNL A   1      37.008  21.203  24.751  1.00  0.00    -0.463 OA
BRANCH  62  63
ATOM     63  C   UNL A   1      35.943  20.351  24.800  1.00  0.00     0.309 C 
ATOM     64  O   UNL A   1      36.027  19.147  24.989  1.00  0.00    -0.252 OA
BRANCH  63  65
ATOM     65  C   UNL A   1      34.645  21.091  24.543  1.00  0.00     0.111 C 
ATOM     66  C   UNL A   1      33.442  20.176  24.298  1.00  0.00     0.016 C 
ATOM     67  C   UNL A   1      34.835  22.129  23.418  1.00  0.00     0.093 C 
ATOM     68  C   UNL A   1      32.175  21.006  24.096  1.00  0.00     0.001 C 
ATOM     69  C   UNL A   1      33.540  22.854  23.018  1.00  0.00     0.014 C 
ATOM     70  C   UNL A   1      32.324  21.936  22.898  1.00  0.00     0.001 C 
BRANCH  67  71
ATOM     71  C   UNL A   1      36.040  23.092  23.606  1.00  0.00     0.228 C 
ATOM     72  O   UNL A   1      36.887  23.187  22.709  1.00  0.00    -0.274 OA
ATOM     73  N   UNL A   1      36.211  23.933  24.682  1.00  0.00    -0.326 N 
ATOM     74  H   UNL A   1      37.125  24.238  24.882  1.00  0.00     0.169 HD
BRANCH  73  75
ATOM     75  C   UNL A   1      35.184  24.386  25.513  1.00  0.00     0.041 A 
ATOM     76  C   UNL A   1      34.609  25.625  25.254  1.00  0.00     0.028 A 
ATOM     77  C   UNL A   1      34.592  23.533  26.418  1.00  0.00     0.028 A 
ATOM     78  C   UNL A   1      33.317  25.898  25.726  1.00  0.00     0.028 A 
ATOM     79  C   UNL A   1      33.260  23.742  26.746  1.00  0.00     0.028 A 
ATOM     80  C   UNL A   1      32.600  24.923  26.414  1.00  0.00     0.041 A 
BRANCH  80  81
ATOM     81  N   UNL A   1      31.260  24.987  26.830  1.00  0.00    -0.319 N 
ATOM     82  C   UNL A   1      30.076  25.305  26.208  1.00  0.00     0.291 C 
ATOM     83  H   UNL A   1      31.143  24.752  27.779  1.00  0.00     0.170 HD
ATOM     84  O   UNL A   1      29.046  25.204  26.881  1.00  0.00    -0.265 OA
BRANCH  82  85
ATOM     85  C   UNL A   1      30.076  25.841  24.875  1.00  0.00     0.191 A 
ATOM     86  C   UNL A   1      30.462  25.317  23.657  1.00  0.00     0.056 A 
ATOM     87  O   UNL A   1      29.564  27.095  24.691  1.00  0.00    -0.459 OA
ATOM     88  C   UNL A   1      30.260  26.338  22.698  1.00  0.00     0.043 A 
ATOM     89  C   UNL A   1      29.685  27.389  23.372  1.00  0.00     0.196 A 
ENDBRANCH  82  85
ENDBRANCH  80  81
ENDBRANCH  73  75
ENDBRANCH  67  71
ENDBRANCH  63  65
ENDBRANCH  62  63
ENDBRANCH  61  62
ENDBRANCH  60  61
ENDBRANCH  59  60
ENDBRANCH   1  59
TORSDOF 21
ENDMDL
