MODEL 1
REMARK VINA RESULT:      -9.5      0.000      0.000
REMARK SMILES C[NH2+][C@@]1(C(=O)OCCOCCOCCOC(=O)c2ccc(-c3c4nc(c(-c5ccccc5)c5ccc([nH]5)c(-c5ccccc5)c5nc(c(-c6ccccc6)c6ccc3[nH]6)C=C5)C=C4)cc2)CCC[C@H](Oc2cccc(OC)c2)C1
REMARK SMILES IDX 10 1 9 2 8 3 7 4 6 5 4 6 5 7 3 8 66 9 79 10 67 11 69 12
REMARK SMILES IDX 68 13 2 14 1 15 70 18 71 19 72 20 78 21 73 22 75 23 74 24
REMARK SMILES IDX 76 25 77 26 11 27 12 28 13 29 14 30 15 31 16 32 17 33 18 34
REMARK SMILES IDX 19 35 65 36 20 37 64 38 21 39 22 40 23 41 58 42 24 43 63 44
REMARK SMILES IDX 57 45 59 46 25 47 62 48 56 49 55 50 26 52 48 53 33 54 47 55
REMARK SMILES IDX 34 56 37 57 46 58 60 59 35 60 36 61 45 63 61 64 38 65 27 66
REMARK SMILES IDX 28 67 32 68 29 69 31 70 30 71 49 72 50 73 54 74 51 75 53 76
REMARK SMILES IDX 52 77 39 78 40 79 44 80 41 81 43 82 42 83
REMARK H PARENT 2 16 2 17 59 51 37 62
REMARK Flexibility Score: inf
ROOT
ATOM      1  C   UNL A   1      35.041  31.716  28.435  1.00  0.00     0.188 C 
ENDROOT
BRANCH   1   2
ATOM      2  O   UNL A   1      34.336  30.583  27.946  1.00  0.00    -0.376 OA
BRANCH   2   3
ATOM      3  C   UNL A   1      33.200  30.798  27.116  1.00  0.00     0.202 C 
BRANCH   3   4
ATOM      4  C   UNL A   1      32.501  29.562  26.535  1.00  0.00     0.261 C 
BRANCH   4   5
ATOM      5  O   UNL A   1      32.014  29.700  25.176  1.00  0.00    -0.459 OA
BRANCH   5   6
ATOM      6  C   UNL A   1      32.644  28.976  24.225  1.00  0.00     0.368 C 
ATOM      7  O   UNL A   1      33.870  28.838  24.197  1.00  0.00    -0.245 OA
BRANCH   6   8
ATOM      8  C   UNL A   1      31.749  28.302  23.101  1.00  0.00     0.197 C 
ATOM      9  C   UNL A   1      30.420  27.937  23.806  1.00  0.00     0.081 C 
ATOM     10  C   UNL A   1      32.217  27.061  22.285  1.00  0.00     0.126 C 
ATOM     11  C   UNL A   1      30.531  26.657  24.628  1.00  0.00     0.011 C 
ATOM     12  C   UNL A   1      32.275  25.718  23.037  1.00  0.00     0.180 C 
ATOM     13  C   UNL A   1      30.944  25.477  23.757  1.00  0.00     0.046 C 
BRANCH   8  14
ATOM     14  N   UNL A   1      31.367  29.444  22.185  1.00  0.00    -0.334 N 
ATOM     15  C   UNL A   1      29.962  29.793  22.094  1.00  0.00     0.331 C 
ATOM     16  H   UNL A   1      31.866  30.273  22.508  1.00  0.00     0.347 HD
ATOM     17  H   UNL A   1      31.614  29.119  21.251  1.00  0.00     0.347 HD
ENDBRANCH   8  14
BRANCH  12  18
ATOM     18  O   UNL A   1      33.394  25.788  23.910  1.00  0.00    -0.490 OA
BRANCH  18  19
ATOM     19  C   UNL A   1      33.785  24.723  24.663  1.00  0.00     0.123 A 
ATOM     20  C   UNL A   1      33.446  24.467  25.987  1.00  0.00     0.047 A 
ATOM     21  C   UNL A   1      34.643  23.845  23.989  1.00  0.00     0.092 A 
ATOM     22  C   UNL A   1      34.032  23.389  26.655  1.00  0.00     0.008 A 
ATOM     23  C   UNL A   1      35.222  22.760  24.642  1.00  0.00     0.122 A 
ATOM     24  C   UNL A   1      34.928  22.550  25.988  1.00  0.00     0.046 A 
BRANCH  23  25
ATOM     25  O   UNL A   1      36.092  21.863  24.087  1.00  0.00    -0.497 OA
ATOM     26  C   UNL A   1      37.191  21.456  24.895  1.00  0.00     0.278 C 
ENDBRANCH  23  25
ENDBRANCH  18  19
ENDBRANCH  12  18
ENDBRANCH   6   8
ENDBRANCH   5   6
ENDBRANCH   4   5
ENDBRANCH   3   4
ENDBRANCH   2   3
ENDBRANCH   1   2
BRANCH   1  27
ATOM     27  C   UNL A   1      34.533  33.108  28.042  1.00  0.00     0.188 C 
BRANCH  27  28
ATOM     28  O   UNL A   1      34.043  33.862  29.133  1.00  0.00    -0.376 OA
BRANCH  28  29
ATOM     29  C   UNL A   1      34.003  35.267  28.944  1.00  0.00     0.202 C 
BRANCH  29  30
ATOM     30  C   UNL A   1      32.822  35.881  29.703  1.00  0.00     0.261 C 
BRANCH  30  31
ATOM     31  O   UNL A   1      33.157  36.399  31.007  1.00  0.00    -0.460 OA
BRANCH  31  32
ATOM     32  C   UNL A   1      32.763  35.666  32.072  1.00  0.00     0.338 C 
ATOM     33  O   UNL A   1      31.617  35.460  32.441  1.00  0.00    -0.246 OA
BRANCH  32  34
ATOM     34  C   UNL A   1      33.943  34.930  32.577  1.00  0.00     0.060 A 
ATOM     35  C   UNL A   1      35.200  35.552  32.519  1.00  0.00     0.016 A 
ATOM     36  C   UNL A   1      33.814  33.655  33.126  1.00  0.00     0.016 A 
ATOM     37  C   UNL A   1      36.334  34.893  32.995  1.00  0.00     0.010 A 
ATOM     38  C   UNL A   1      34.954  32.983  33.578  1.00  0.00     0.010 A 
ATOM     39  C   UNL A   1      36.223  33.587  33.489  1.00  0.00    -0.014 A 
BRANCH  39  40
ATOM     40  C   UNL A   1      37.442  32.769  33.706  1.00  0.00     0.031 A 
ATOM     41  C   UNL A   1      38.206  32.970  34.987  1.00  0.00     0.074 A 
ATOM     42  C   UNL A   1      37.861  31.856  32.811  1.00  0.00     0.049 A 
ATOM     43  N   UNL A   1      39.352  32.464  35.363  1.00  0.00    -0.248 NA
ATOM     44  C   UNL A   1      37.589  33.870  35.976  1.00  0.00     0.031 C 
ATOM     45  C   UNL A   1      37.175  31.505  31.570  1.00  0.00     0.029 A 
ATOM     46  N   UNL A   1      38.980  31.060  32.816  1.00  0.00    -0.354 N 
ATOM     47  C   UNL A   1      39.603  33.001  36.621  1.00  0.00     0.074 A 
ATOM     48  C   UNL A   1      38.505  33.888  36.932  1.00  0.00     0.031 C 
ATOM     49  C   UNL A   1      37.896  30.570  30.925  1.00  0.00     0.029 A 
ATOM     50  C   UNL A   1      39.117  30.296  31.682  1.00  0.00     0.049 A 
ATOM     51  H   UNL A   1      39.624  31.041  33.560  1.00  0.00     0.167 HD
ATOM     52  C   UNL A   1      40.653  32.776  37.444  1.00  0.00     0.031 A 
ATOM     53  C   UNL A   1      40.127  29.495  31.288  1.00  0.00     0.031 A 
ATOM     54  C   UNL A   1      41.753  31.906  37.129  1.00  0.00     0.049 A 
ATOM     55  C   UNL A   1      41.338  29.340  32.175  1.00  0.00     0.074 A 
ATOM     56  C   UNL A   1      42.871  31.618  37.892  1.00  0.00     0.029 A 
ATOM     57  N   UNL A   1      41.875  31.188  35.949  1.00  0.00    -0.354 N 
ATOM     58  N   UNL A   1      41.572  29.859  33.357  1.00  0.00    -0.248 NA
ATOM     59  C   UNL A   1      42.424  28.487  31.671  1.00  0.00     0.031 C 
ATOM     60  C   UNL A   1      43.700  30.774  37.147  1.00  0.00     0.029 A 
ATOM     61  C   UNL A   1      43.064  30.478  35.952  1.00  0.00     0.049 A 
ATOM     62  H   UNL A   1      41.215  31.184  35.219  1.00  0.00     0.167 HD
ATOM     63  C   UNL A   1      42.814  29.369  33.749  1.00  0.00     0.074 A 
ATOM     64  C   UNL A   1      43.276  28.503  32.686  1.00  0.00     0.031 C 
ATOM     65  C   UNL A   1      43.509  29.615  34.887  1.00  0.00     0.031 A 
BRANCH  52  66
ATOM     66  C   UNL A   1      40.681  33.532  38.744  1.00  0.00    -0.014 A 
ATOM     67  C   UNL A   1      40.120  32.999  39.917  1.00  0.00     0.009 A 
ATOM     68  C   UNL A   1      41.289  34.796  38.797  1.00  0.00     0.009 A 
ATOM     69  C   UNL A   1      40.131  33.737  41.103  1.00  0.00     0.001 A 
ATOM     70  C   UNL A   1      41.329  35.515  39.992  1.00  0.00     0.001 A 
ATOM     71  C   UNL A   1      40.739  34.991  41.141  1.00  0.00     0.000 A 
ENDBRANCH  52  66
BRANCH  53  72
ATOM     72  C   UNL A   1      40.070  28.808  29.969  1.00  0.00    -0.014 A 
ATOM     73  C   UNL A   1      40.568  29.426  28.810  1.00  0.00     0.009 A 
ATOM     74  C   UNL A   1      39.484  27.537  29.854  1.00  0.00     0.009 A 
ATOM     75  C   UNL A   1      40.453  28.800  27.566  1.00  0.00     0.001 A 
ATOM     76  C   UNL A   1      39.402  26.898  28.614  1.00  0.00     0.001 A 
ATOM     77  C   UNL A   1      39.877  27.535  27.471  1.00  0.00     0.000 A 
ENDBRANCH  53  72
BRANCH  65  78
ATOM     78  C   UNL A   1      44.821  28.899  35.070  1.00  0.00    -0.014 A 
ATOM     79  C   UNL A   1      46.043  29.512  34.755  1.00  0.00     0.009 A 
ATOM     80  C   UNL A   1      44.831  27.606  35.617  1.00  0.00     0.009 A 
ATOM     81  C   UNL A   1      47.246  28.828  34.950  1.00  0.00     0.001 A 
ATOM     82  C   UNL A   1      46.036  26.938  35.843  1.00  0.00     0.001 A 
ATOM     83  C   UNL A   1      47.242  27.546  35.500  1.00  0.00     0.000 A 
ENDBRANCH  65  78
ENDBRANCH  39  40
ENDBRANCH  32  34
ENDBRANCH  31  32
ENDBRANCH  30  31
ENDBRANCH  29  30
ENDBRANCH  28  29
ENDBRANCH  27  28
ENDBRANCH   1  27
TORSDOF 21
ENDMDL
MODEL 2
REMARK VINA RESULT:      -9.3      4.377      6.386
REMARK SMILES C[NH2+][C@@]1(C(=O)OCCOCCOCCOC(=O)c2ccc(-c3c4nc(c(-c5ccccc5)c5ccc([nH]5)c(-c5ccccc5)c5nc(c(-c6ccccc6)c6ccc3[nH]6)C=C5)C=C4)cc2)CCC[C@H](Oc2cccc(OC)c2)C1
REMARK SMILES IDX 10 1 9 2 8 3 7 4 6 5 4 6 5 7 3 8 66 9 79 10 67 11 69 12
REMARK SMILES IDX 68 13 2 14 1 15 70 18 71 19 72 20 78 21 73 22 75 23 74 24
REMARK SMILES IDX 76 25 77 26 11 27 12 28 13 29 14 30 15 31 16 32 17 33 18 34
REMARK SMILES IDX 19 35 65 36 20 37 64 38 21 39 22 40 23 41 58 42 24 43 63 44
REMARK SMILES IDX 57 45 59 46 25 47 62 48 56 49 55 50 26 52 48 53 33 54 47 55
REMARK SMILES IDX 34 56 37 57 46 58 60 59 35 60 36 61 45 63 61 64 38 65 27 66
REMARK SMILES IDX 28 67 32 68 29 69 31 70 30 71 49 72 50 73 54 74 51 75 53 76
REMARK SMILES IDX 52 77 39 78 40 79 44 80 41 81 43 82 42 83
REMARK H PARENT 2 16 2 17 59 51 37 62
REMARK Flexibility Score: inf
ROOT
ATOM      1  C   UNL A   1      34.689  31.036  27.773  1.00  0.00     0.188 C 
ENDROOT
BRANCH   1   2
ATOM      2  O   UNL A   1      33.952  29.991  27.152  1.00  0.00    -0.376 OA
BRANCH   2   3
ATOM      3  C   UNL A   1      32.596  30.237  26.796  1.00  0.00     0.202 C 
BRANCH   3   4
ATOM      4  C   UNL A   1      31.754  29.040  26.335  1.00  0.00     0.261 C 
BRANCH   4   5
ATOM      5  O   UNL A   1      31.121  29.184  25.039  1.00  0.00    -0.459 OA
BRANCH   5   6
ATOM      6  C   UNL A   1      31.812  28.735  23.968  1.00  0.00     0.368 C 
ATOM      7  O   UNL A   1      33.038  28.844  23.875  1.00  0.00    -0.245 OA
BRANCH   6   8
ATOM      8  C   UNL A   1      30.988  28.063  22.790  1.00  0.00     0.197 C 
ATOM      9  C   UNL A   1      29.617  27.701  23.411  1.00  0.00     0.081 C 
ATOM     10  C   UNL A   1      31.504  26.820  22.005  1.00  0.00     0.126 C 
ATOM     11  C   UNL A   1      29.674  26.420  24.238  1.00  0.00     0.011 C 
ATOM     12  C   UNL A   1      31.512  25.478  22.760  1.00  0.00     0.180 C 
ATOM     13  C   UNL A   1      30.139  25.240  23.395  1.00  0.00     0.046 C 
BRANCH   8  14
ATOM     14  N   UNL A   1      30.667  29.205  21.852  1.00  0.00    -0.334 N 
ATOM     15  C   UNL A   1      29.565  30.079  22.207  1.00  0.00     0.331 C 
ATOM     16  H   UNL A   1      31.503  29.784  21.780  1.00  0.00     0.347 HD
ATOM     17  H   UNL A   1      30.371  28.753  20.987  1.00  0.00     0.347 HD
ENDBRANCH   8  14
BRANCH  12  18
ATOM     18  O   UNL A   1      32.575  25.545  23.702  1.00  0.00    -0.490 OA
BRANCH  18  19
ATOM     19  C   UNL A   1      33.361  24.469  23.975  1.00  0.00     0.123 A 
ATOM     20  C   UNL A   1      34.491  24.061  23.275  1.00  0.00     0.047 A 
ATOM     21  C   UNL A   1      32.916  23.712  25.066  1.00  0.00     0.092 A 
ATOM     22  C   UNL A   1      35.118  22.859  23.613  1.00  0.00     0.008 A 
ATOM     23  C   UNL A   1      33.542  22.519  25.419  1.00  0.00     0.122 A 
ATOM     24  C   UNL A   1      34.634  22.085  24.670  1.00  0.00     0.046 A 
BRANCH  23  25
ATOM     25  O   UNL A   1      33.171  21.693  26.444  1.00  0.00    -0.497 OA
ATOM     26  C   UNL A   1      34.074  21.589  27.539  1.00  0.00     0.278 C 
ENDBRANCH  23  25
ENDBRANCH  18  19
ENDBRANCH  12  18
ENDBRANCH   6   8
ENDBRANCH   5   6
ENDBRANCH   4   5
ENDBRANCH   3   4
ENDBRANCH   2   3
ENDBRANCH   1   2
BRANCH   1  27
ATOM     27  C   UNL A   1      33.923  32.273  28.255  1.00  0.00     0.188 C 
BRANCH  27  28
ATOM     28  O   UNL A   1      34.589  33.491  27.989  1.00  0.00    -0.376 OA
BRANCH  28  29
ATOM     29  C   UNL A   1      34.267  34.572  28.849  1.00  0.00     0.202 C 
BRANCH  29  30
ATOM     30  C   UNL A   1      34.321  34.131  30.316  1.00  0.00     0.261 C 
BRANCH  30  31
ATOM     31  O   UNL A   1      35.652  33.904  30.821  1.00  0.00    -0.460 OA
BRANCH  31  32
ATOM     32  C   UNL A   1      35.814  32.855  31.659  1.00  0.00     0.338 C 
ATOM     33  O   UNL A   1      35.071  32.518  32.567  1.00  0.00    -0.246 OA
BRANCH  32  34
ATOM     34  C   UNL A   1      36.913  32.018  31.129  1.00  0.00     0.060 A 
ATOM     35  C   UNL A   1      37.638  31.214  32.022  1.00  0.00     0.016 A 
ATOM     36  C   UNL A   1      37.211  32.002  29.767  1.00  0.00     0.016 A 
ATOM     37  C   UNL A   1      38.675  30.404  31.557  1.00  0.00     0.010 A 
ATOM     38  C   UNL A   1      38.267  31.210  29.305  1.00  0.00     0.010 A 
ATOM     39  C   UNL A   1      39.023  30.430  30.201  1.00  0.00    -0.014 A 
BRANCH  39  40
ATOM     40  C   UNL A   1      40.299  29.823  29.750  1.00  0.00     0.031 A 
ATOM     41  C   UNL A   1      41.519  30.703  29.702  1.00  0.00     0.074 A 
ATOM     42  C   UNL A   1      40.395  28.525  29.410  1.00  0.00     0.049 A 
ATOM     43  N   UNL A   1      42.717  30.445  29.245  1.00  0.00    -0.248 NA
ATOM     44  C   UNL A   1      41.359  32.064  30.243  1.00  0.00     0.031 C 
ATOM     45  C   UNL A   1      39.315  27.544  29.485  1.00  0.00     0.029 A 
ATOM     46  N   UNL A   1      41.465  27.814  28.922  1.00  0.00    -0.354 N 
ATOM     47  C   UNL A   1      43.446  31.616  29.422  1.00  0.00     0.074 A 
ATOM     48  C   UNL A   1      42.550  32.590  30.005  1.00  0.00     0.031 C 
ATOM     49  C   UNL A   1      39.774  26.358  29.046  1.00  0.00     0.029 A 
ATOM     50  C   UNL A   1      41.162  26.509  28.614  1.00  0.00     0.049 A 
ATOM     51  H   UNL A   1      42.361  28.202  28.804  1.00  0.00     0.167 HD
ATOM     52  C   UNL A   1      44.744  31.859  29.127  1.00  0.00     0.031 A 
ATOM     53  C   UNL A   1      41.911  25.560  28.018  1.00  0.00     0.031 A 
ATOM     54  C   UNL A   1      45.630  30.896  28.533  1.00  0.00     0.049 A 
ATOM     55  C   UNL A   1      43.325  25.885  27.601  1.00  0.00     0.074 A 
ATOM     56  C   UNL A   1      46.961  31.047  28.187  1.00  0.00     0.029 A 
ATOM     57  N   UNL A   1      45.271  29.601  28.192  1.00  0.00    -0.354 N 
ATOM     58  N   UNL A   1      44.002  26.996  27.764  1.00  0.00    -0.248 NA
ATOM     59  C   UNL A   1      44.076  24.821  26.919  1.00  0.00     0.031 C 
ATOM     60  C   UNL A   1      47.389  29.864  27.578  1.00  0.00     0.029 A 
ATOM     61  C   UNL A   1      46.347  28.951  27.613  1.00  0.00     0.049 A 
ATOM     62  H   UNL A   1      44.382  29.203  28.339  1.00  0.00     0.167 HD
ATOM     63  C   UNL A   1      45.266  26.753  27.234  1.00  0.00     0.074 A 
ATOM     64  C   UNL A   1      45.264  25.386  26.760  1.00  0.00     0.031 C 
ATOM     65  C   UNL A   1      46.332  27.587  27.149  1.00  0.00     0.031 A 
BRANCH  52  66
ATOM     66  C   UNL A   1      45.261  33.246  29.396  1.00  0.00    -0.014 A 
ATOM     67  C   UNL A   1      45.859  33.583  30.621  1.00  0.00     0.009 A 
ATOM     68  C   UNL A   1      45.156  34.229  28.400  1.00  0.00     0.009 A 
ATOM     69  C   UNL A   1      46.302  34.886  30.856  1.00  0.00     0.001 A 
ATOM     70  C   UNL A   1      45.630  35.521  28.625  1.00  0.00     0.001 A 
ATOM     71  C   UNL A   1      46.191  35.853  29.857  1.00  0.00     0.000 A 
ENDBRANCH  52  66
BRANCH  53  72
ATOM     72  C   UNL A   1      41.334  24.217  27.731  1.00  0.00    -0.014 A 
ATOM     73  C   UNL A   1      41.770  23.080  28.429  1.00  0.00     0.009 A 
ATOM     74  C   UNL A   1      40.364  24.060  26.728  1.00  0.00     0.009 A 
ATOM     75  C   UNL A   1      41.269  21.815  28.110  1.00  0.00     0.001 A 
ATOM     76  C   UNL A   1      39.839  22.799  26.434  1.00  0.00     0.001 A 
ATOM     77  C   UNL A   1      40.300  21.677  27.117  1.00  0.00     0.000 A 
ENDBRANCH  53  72
BRANCH  65  78
ATOM     78  C   UNL A   1      47.605  27.032  26.567  1.00  0.00    -0.014 A 
ATOM     79  C   UNL A   1      48.558  26.384  27.368  1.00  0.00     0.009 A 
ATOM     80  C   UNL A   1      47.824  27.115  25.183  1.00  0.00     0.009 A 
ATOM     81  C   UNL A   1      49.723  25.865  26.797  1.00  0.00     0.001 A 
ATOM     82  C   UNL A   1      48.972  26.566  24.610  1.00  0.00     0.001 A 
ATOM     83  C   UNL A   1      49.926  25.950  25.419  1.00  0.00     0.000 A 
ENDBRANCH  65  78
ENDBRANCH  39  40
ENDBRANCH  32  34
ENDBRANCH  31  32
ENDBRANCH  30  31
ENDBRANCH  29  30
ENDBRANCH  28  29
ENDBRANCH  27  28
ENDBRANCH   1  27
TORSDOF 21
ENDMDL
MODEL 3
REMARK VINA RESULT:      -9.1      2.667      9.089
REMARK SMILES C[NH2+][C@@]1(C(=O)OCCOCCOCCOC(=O)c2ccc(-c3c4nc(c(-c5ccccc5)c5ccc([nH]5)c(-c5ccccc5)c5nc(c(-c6ccccc6)c6ccc3[nH]6)C=C5)C=C4)cc2)CCC[C@H](Oc2cccc(OC)c2)C1
REMARK SMILES IDX 10 1 9 2 8 3 7 4 6 5 4 6 5 7 3 8 66 9 79 10 67 11 69 12
REMARK SMILES IDX 68 13 2 14 1 15 70 18 71 19 72 20 78 21 73 22 75 23 74 24
REMARK SMILES IDX 76 25 77 26 11 27 12 28 13 29 14 30 15 31 16 32 17 33 18 34
REMARK SMILES IDX 19 35 65 36 20 37 64 38 21 39 22 40 23 41 58 42 24 43 63 44
REMARK SMILES IDX 57 45 59 46 25 47 62 48 56 49 55 50 26 52 48 53 33 54 47 55
REMARK SMILES IDX 34 56 37 57 46 58 60 59 35 60 36 61 45 63 61 64 38 65 27 66
REMARK SMILES IDX 28 67 32 68 29 69 31 70 30 71 49 72 50 73 54 74 51 75 53 76
REMARK SMILES IDX 52 77 39 78 40 79 44 80 41 81 43 82 42 83
REMARK H PARENT 2 16 2 17 59 51 37 62
REMARK Flexibility Score: inf
ROOT
ATOM      1  C   UNL A   1      38.743  22.731  26.455  1.00  0.00     0.188 C 
ENDROOT
BRANCH   1   2
ATOM      2  O   UNL A   1      38.099  22.454  25.218  1.00  0.00    -0.376 OA
BRANCH   2   3
ATOM      3  C   UNL A   1      37.599  21.140  24.994  1.00  0.00     0.202 C 
BRANCH   3   4
ATOM      4  C   UNL A   1      36.141  20.860  25.384  1.00  0.00     0.261 C 
BRANCH   4   5
ATOM      5  O   UNL A   1      35.169  21.819  24.896  1.00  0.00    -0.459 OA
BRANCH   5   6
ATOM      6  C   UNL A   1      34.152  22.135  25.728  1.00  0.00     0.368 C 
ATOM      7  O   UNL A   1      34.308  22.831  26.735  1.00  0.00    -0.245 OA
BRANCH   6   8
ATOM      8  C   UNL A   1      32.715  21.558  25.383  1.00  0.00     0.197 C 
ATOM      9  C   UNL A   1      32.745  21.277  23.862  1.00  0.00     0.081 C 
ATOM     10  C   UNL A   1      31.400  22.329  25.704  1.00  0.00     0.126 C 
ATOM     11  C   UNL A   1      32.547  22.543  23.034  1.00  0.00     0.011 C 
ATOM     12  C   UNL A   1      31.101  23.574  24.849  1.00  0.00     0.180 C 
ATOM     13  C   UNL A   1      31.222  23.216  23.365  1.00  0.00     0.046 C 
BRANCH   8  14
ATOM     14  N   UNL A   1      32.701  20.178  26.003  1.00  0.00    -0.334 N 
ATOM     15  C   UNL A   1      32.920  19.044  25.125  1.00  0.00     0.331 C 
ATOM     16  H   UNL A   1      33.431  20.156  26.715  1.00  0.00     0.347 HD
ATOM     17  H   UNL A   1      31.749  20.058  26.347  1.00  0.00     0.347 HD
ENDBRANCH   8  14
BRANCH  12  18
ATOM     18  O   UNL A   1      32.006  24.586  25.270  1.00  0.00    -0.490 OA
BRANCH  18  19
ATOM     19  C   UNL A   1      31.721  25.909  25.127  1.00  0.00     0.123 A 
ATOM     20  C   UNL A   1      31.363  26.564  23.953  1.00  0.00     0.047 A 
ATOM     21  C   UNL A   1      31.851  26.642  26.313  1.00  0.00     0.092 A 
ATOM     22  C   UNL A   1      31.222  27.954  23.952  1.00  0.00     0.008 A 
ATOM     23  C   UNL A   1      31.700  28.027  26.325  1.00  0.00     0.122 A 
ATOM     24  C   UNL A   1      31.406  28.681  25.130  1.00  0.00     0.046 A 
BRANCH  23  25
ATOM     25  O   UNL A   1      31.834  28.837  27.418  1.00  0.00    -0.497 OA
ATOM     26  C   UNL A   1      32.617  30.014  27.248  1.00  0.00     0.278 C 
ENDBRANCH  23  25
ENDBRANCH  18  19
ENDBRANCH  12  18
ENDBRANCH   6   8
ENDBRANCH   5   6
ENDBRANCH   4   5
ENDBRANCH   3   4
ENDBRANCH   2   3
ENDBRANCH   1   2
BRANCH   1  27
ATOM     27  C   UNL A   1      40.069  22.023  26.754  1.00  0.00     0.188 C 
BRANCH  27  28
ATOM     28  O   UNL A   1      41.059  22.232  25.767  1.00  0.00    -0.376 OA
BRANCH  28  29
ATOM     29  C   UNL A   1      42.390  21.933  26.153  1.00  0.00     0.202 C 
BRANCH  29  30
ATOM     30  C   UNL A   1      43.359  22.999  25.630  1.00  0.00     0.261 C 
BRANCH  30  31
ATOM     31  O   UNL A   1      43.354  24.228  26.383  1.00  0.00    -0.460 OA
BRANCH  31  32
ATOM     32  C   UNL A   1      42.748  25.292  25.807  1.00  0.00     0.338 C 
ATOM     33  O   UNL A   1      42.482  25.435  24.624  1.00  0.00    -0.246 OA
BRANCH  32  34
ATOM     34  C   UNL A   1      42.221  26.153  26.889  1.00  0.00     0.060 A 
ATOM     35  C   UNL A   1      42.732  27.453  27.024  1.00  0.00     0.016 A 
ATOM     36  C   UNL A   1      41.218  25.698  27.744  1.00  0.00     0.016 A 
ATOM     37  C   UNL A   1      42.251  28.297  28.026  1.00  0.00     0.010 A 
ATOM     38  C   UNL A   1      40.756  26.535  28.765  1.00  0.00     0.010 A 
ATOM     39  C   UNL A   1      41.289  27.827  28.929  1.00  0.00    -0.014 A 
BRANCH  39  40
ATOM     40  C   UNL A   1      41.000  28.590  30.168  1.00  0.00     0.031 A 
ATOM     41  C   UNL A   1      39.859  29.571  30.141  1.00  0.00     0.074 A 
ATOM     42  C   UNL A   1      41.706  28.412  31.300  1.00  0.00     0.049 A 
ATOM     43  N   UNL A   1      39.477  30.431  31.049  1.00  0.00    -0.248 NA
ATOM     44  C   UNL A   1      39.043  29.584  28.915  1.00  0.00     0.031 C 
ATOM     45  C   UNL A   1      42.781  27.442  31.489  1.00  0.00     0.029 A 
ATOM     46  N   UNL A   1      41.619  29.061  32.508  1.00  0.00    -0.354 N 
ATOM     47  C   UNL A   1      38.391  31.100  30.497  1.00  0.00     0.074 A 
ATOM     48  C   UNL A   1      38.192  30.565  29.169  1.00  0.00     0.031 C 
ATOM     49  C   UNL A   1      43.264  27.566  32.738  1.00  0.00     0.029 A 
ATOM     50  C   UNL A   1      42.567  28.657  33.418  1.00  0.00     0.049 A 
ATOM     51  H   UNL A   1      40.944  29.749  32.703  1.00  0.00     0.167 HD
ATOM     52  C   UNL A   1      37.626  32.074  31.045  1.00  0.00     0.031 A 
ATOM     53  C   UNL A   1      42.859  29.138  34.643  1.00  0.00     0.031 A 
ATOM     54  C   UNL A   1      37.833  32.617  32.359  1.00  0.00     0.049 A 
ATOM     55  C   UNL A   1      42.061  30.294  35.193  1.00  0.00     0.074 A 
ATOM     56  C   UNL A   1      37.119  33.612  33.003  1.00  0.00     0.029 A 
ATOM     57  N   UNL A   1      38.835  32.213  33.229  1.00  0.00    -0.354 N 
ATOM     58  N   UNL A   1      41.043  30.927  34.661  1.00  0.00    -0.248 NA
ATOM     59  C   UNL A   1      42.454  30.801  36.516  1.00  0.00     0.031 C 
ATOM     60  C   UNL A   1      37.728  33.854  34.238  1.00  0.00     0.029 A 
ATOM     61  C   UNL A   1      38.775  32.959  34.394  1.00  0.00     0.049 A 
ATOM     62  H   UNL A   1      39.491  31.503  33.045  1.00  0.00     0.167 HD
ATOM     63  C   UNL A   1      40.656  31.882  35.596  1.00  0.00     0.074 A 
ATOM     64  C   UNL A   1      41.539  31.735  36.733  1.00  0.00     0.031 C 
ATOM     65  C   UNL A   1      39.659  32.798  35.521  1.00  0.00     0.031 A 
BRANCH  52  66
ATOM     66  C   UNL A   1      36.528  32.647  30.192  1.00  0.00    -0.014 A 
ATOM     67  C   UNL A   1      35.211  32.165  30.266  1.00  0.00     0.009 A 
ATOM     68  C   UNL A   1      36.817  33.696  29.305  1.00  0.00     0.009 A 
ATOM     69  C   UNL A   1      34.218  32.694  29.439  1.00  0.00     0.001 A 
ATOM     70  C   UNL A   1      35.815  34.245  28.505  1.00  0.00     0.001 A 
ATOM     71  C   UNL A   1      34.519  33.736  28.563  1.00  0.00     0.000 A 
ENDBRANCH  52  66
BRANCH  53  72
ATOM     72  C   UNL A   1      43.988  28.565  35.426  1.00  0.00    -0.014 A 
ATOM     73  C   UNL A   1      45.294  29.057  35.274  1.00  0.00     0.009 A 
ATOM     74  C   UNL A   1      43.771  27.494  36.308  1.00  0.00     0.009 A 
ATOM     75  C   UNL A   1      46.359  28.472  35.966  1.00  0.00     0.001 A 
ATOM     76  C   UNL A   1      44.830  26.934  37.025  1.00  0.00     0.001 A 
ATOM     77  C   UNL A   1      46.124  27.415  36.845  1.00  0.00     0.000 A 
ENDBRANCH  53  72
BRANCH  65  78
ATOM     78  C   UNL A   1      39.432  33.680  36.719  1.00  0.00    -0.014 A 
ATOM     79  C   UNL A   1      39.984  34.968  36.798  1.00  0.00     0.009 A 
ATOM     80  C   UNL A   1      38.606  33.231  37.762  1.00  0.00     0.009 A 
ATOM     81  C   UNL A   1      39.743  35.771  37.916  1.00  0.00     0.001 A 
ATOM     82  C   UNL A   1      38.340  34.047  38.861  1.00  0.00     0.001 A 
ATOM     83  C   UNL A   1      38.917  35.314  38.943  1.00  0.00     0.000 A 
ENDBRANCH  65  78
ENDBRANCH  39  40
ENDBRANCH  32  34
ENDBRANCH  31  32
ENDBRANCH  30  31
ENDBRANCH  29  30
ENDBRANCH  28  29
ENDBRANCH  27  28
ENDBRANCH   1  27
TORSDOF 21
ENDMDL
