MODEL 1
REMARK VINA RESULT:      -8.0      0.000      0.000
REMARK SMILES NC(=O)[C@@H]1CCC[N@@H+]1[C@@H](C(=O)OCCOCCOCCOC(=O)c1ccc(-c2c3nc(c(-c4ccccc4)c4ccc([nH]4)c(-c4ccccc4)c4nc(c(-c5ccccc5)c5ccc2[nH]5)C=C4)C=C3)cc1)c1c[nH]c2cc(OCc3ccccc3)ccc12
REMARK SMILES IDX 16 1 15 2 14 3 13 4 12 5 10 6 11 7 9 8 8 9 4 10 5 11 6 12
REMARK SMILES IDX 7 13 2 15 1 16 3 19 72 20 73 21 88 22 74 23 75 24 87 25
REMARK SMILES IDX 76 27 86 28 77 29 78 30 79 31 80 32 81 33 85 34 82 35 84 36
REMARK SMILES IDX 83 37 17 38 18 39 19 40 20 41 21 42 22 43 23 44 24 45 25 46
REMARK SMILES IDX 71 47 26 48 70 49 27 50 28 51 29 52 64 53 30 54 69 55 63 56
REMARK SMILES IDX 65 57 31 58 68 59 62 60 61 61 32 63 54 64 39 65 53 66 40 67
REMARK SMILES IDX 43 68 52 69 66 70 41 71 42 72 51 74 67 75 44 76 33 77 34 78
REMARK SMILES IDX 38 79 35 80 37 81 36 82 55 83 56 84 60 85 57 86 59 87 58 88
REMARK SMILES IDX 45 89 46 90 50 91 47 92 49 93 48 94
REMARK H PARENT 8 14 1 17 1 18 74 26 65 62 43 73
REMARK Flexibility Score: inf
ROOT
ATOM      1  C   UNL A   1      32.917  25.502  26.136  1.00  0.00     0.188 C 
ENDROOT
BRANCH   1   2
ATOM      2  O   UNL A   1      33.004  26.847  25.696  1.00  0.00    -0.376 OA
BRANCH   2   3
ATOM      3  C   UNL A   1      32.799  27.836  26.688  1.00  0.00     0.202 C 
BRANCH   3   4
ATOM      4  C   UNL A   1      33.666  29.106  26.548  1.00  0.00     0.261 C 
BRANCH   4   5
ATOM      5  O   UNL A   1      34.061  29.737  27.798  1.00  0.00    -0.459 OA
BRANCH   5   6
ATOM      6  C   UNL A   1      35.306  30.286  27.887  1.00  0.00     0.370 C 
ATOM      7  O   UNL A   1      36.077  30.314  26.926  1.00  0.00    -0.245 OA
BRANCH   6   8
ATOM      8  C   UNL A   1      35.646  30.998  29.243  1.00  0.00     0.329 C 
BRANCH   8   9
ATOM      9  N   UNL A   1      34.718  31.962  29.987  1.00  0.00    -0.309 N 
ATOM     10  C   UNL A   1      34.464  33.338  29.517  1.00  0.00     0.275 C 
ATOM     11  C   UNL A   1      35.503  34.208  30.214  1.00  0.00     0.081 C 
ATOM     12  C   UNL A   1      35.697  33.504  31.540  1.00  0.00     0.068 C 
ATOM     13  C   UNL A   1      34.827  32.280  31.415  1.00  0.00     0.264 C 
ATOM     14  H   UNL A   1      34.024  31.252  29.755  1.00  0.00     0.349 HD
BRANCH  10  15
ATOM     15  C   UNL A   1      34.103  33.669  28.093  1.00  0.00     0.275 C 
ATOM     16  N   UNL A   1      33.031  32.922  27.654  1.00  0.00    -0.365 N 
ATOM     17  H   UNL A   1      32.690  33.041  26.738  1.00  0.00     0.159 HD
ATOM     18  H   UNL A   1      32.606  32.271  28.257  1.00  0.00     0.159 HD
ATOM     19  O   UNL A   1      34.689  34.435  27.344  1.00  0.00    -0.268 OA
ENDBRANCH  10  15
ENDBRANCH   8   9
BRANCH   8  20
ATOM     20  C   UNL A   1      37.226  30.992  29.629  1.00  0.00     0.046 A 
ATOM     21  C   UNL A   1      38.079  30.402  28.688  1.00  0.00     0.094 A 
ATOM     22  C   UNL A   1      37.978  30.592  30.818  1.00  0.00     0.009 A 
ATOM     23  N   UNL A   1      38.065  29.034  29.004  1.00  0.00    -0.361 N 
ATOM     24  C   UNL A   1      38.179  28.905  30.425  1.00  0.00     0.050 A 
ATOM     25  C   UNL A   1      38.750  31.220  32.341  1.00  0.00     0.015 A 
ATOM     26  H   UNL A   1      37.989  28.293  28.360  1.00  0.00     0.166 HD
ATOM     27  C   UNL A   1      39.015  27.723  31.570  1.00  0.00     0.073 A 
ATOM     28  C   UNL A   1      39.686  30.080  33.494  1.00  0.00     0.047 A 
ATOM     29  C   UNL A   1      39.791  28.340  33.084  1.00  0.00     0.121 A 
BRANCH  29  30
ATOM     30  O   UNL A   1      40.380  27.386  33.852  1.00  0.00    -0.489 OA
BRANCH  30  31
ATOM     31  C   UNL A   1      41.778  27.538  34.087  1.00  0.00     0.265 C 
BRANCH  31  32
ATOM     32  C   UNL A   1      42.406  26.247  34.560  1.00  0.00    -0.011 A 
ATOM     33  C   UNL A   1      41.684  25.388  35.405  1.00  0.00     0.007 A 
ATOM     34  C   UNL A   1      43.674  25.846  34.117  1.00  0.00     0.007 A 
ATOM     35  C   UNL A   1      42.236  24.180  35.830  1.00  0.00     0.000 A 
ATOM     36  C   UNL A   1      44.206  24.621  34.512  1.00  0.00     0.000 A 
ATOM     37  C   UNL A   1      43.498  23.798  35.385  1.00  0.00     0.000 A 
ENDBRANCH  31  32
ENDBRANCH  30  31
ENDBRANCH  29  30
ENDBRANCH   8  20
ENDBRANCH   6   8
ENDBRANCH   5   6
ENDBRANCH   4   5
ENDBRANCH   3   4
ENDBRANCH   2   3
ENDBRANCH   1   2
BRANCH   1  38
ATOM     38  C   UNL A   1      33.568  24.415  25.277  1.00  0.00     0.188 C 
BRANCH  38  39
ATOM     39  O   UNL A   1      34.276  23.475  26.065  1.00  0.00    -0.376 OA
BRANCH  39  40
ATOM     40  C   UNL A   1      35.409  22.967  25.375  1.00  0.00     0.202 C 
BRANCH  40  41
ATOM     41  C   UNL A   1      36.535  23.990  25.344  1.00  0.00     0.261 C 
BRANCH  41  42
ATOM     42  O   UNL A   1      37.382  24.056  26.518  1.00  0.00    -0.460 OA
BRANCH  42  43
ATOM     43  C   UNL A   1      38.897  23.803  26.576  1.00  0.00     0.338 C 
ATOM     44  O   UNL A   1      38.915  22.564  26.315  1.00  0.00    -0.246 OA
BRANCH  43  45
ATOM     45  C   UNL A   1      40.371  25.276  27.081  1.00  0.00     0.060 A 
ATOM     46  C   UNL A   1      41.124  25.500  28.405  1.00  0.00     0.016 A 
ATOM     47  C   UNL A   1      40.970  26.408  26.237  1.00  0.00     0.016 A 
ATOM     48  C   UNL A   1      42.293  26.176  28.653  1.00  0.00     0.010 A 
ATOM     49  C   UNL A   1      41.989  27.278  26.538  1.00  0.00     0.010 A 
ATOM     50  C   UNL A   1      42.659  27.087  27.716  1.00  0.00    -0.014 A 
BRANCH  50  51
ATOM     51  C   UNL A   1      43.629  28.065  28.073  1.00  0.00     0.031 A 
ATOM     52  C   UNL A   1      43.096  29.256  28.768  1.00  0.00     0.074 A 
ATOM     53  C   UNL A   1      44.850  27.795  27.621  1.00  0.00     0.049 A 
ATOM     54  N   UNL A   1      43.729  30.296  29.205  1.00  0.00    -0.248 NA
ATOM     55  C   UNL A   1      41.646  29.262  29.050  1.00  0.00     0.031 C 
ATOM     56  C   UNL A   1      45.271  26.550  26.956  1.00  0.00     0.029 A 
ATOM     57  N   UNL A   1      45.944  28.572  27.633  1.00  0.00    -0.354 N 
ATOM     58  C   UNL A   1      42.747  31.094  29.772  1.00  0.00     0.074 A 
ATOM     59  C   UNL A   1      41.516  30.370  29.749  1.00  0.00     0.031 C 
ATOM     60  C   UNL A   1      46.567  26.656  26.634  1.00  0.00     0.029 A 
ATOM     61  C   UNL A   1      47.029  27.961  27.076  1.00  0.00     0.049 A 
ATOM     62  H   UNL A   1      45.961  29.484  28.004  1.00  0.00     0.167 HD
ATOM     63  C   UNL A   1      42.881  32.369  30.182  1.00  0.00     0.031 A 
ATOM     64  C   UNL A   1      48.265  28.458  27.008  1.00  0.00     0.031 A 
ATOM     65  C   UNL A   1      44.161  33.004  30.082  1.00  0.00     0.049 A 
ATOM     66  C   UNL A   1      48.441  29.799  27.660  1.00  0.00     0.074 A 
ATOM     67  C   UNL A   1      44.557  34.260  30.475  1.00  0.00     0.029 A 
ATOM     68  N   UNL A   1      45.276  32.368  29.534  1.00  0.00    -0.354 N 
ATOM     69  N   UNL A   1      47.523  30.597  28.171  1.00  0.00    -0.248 NA
ATOM     70  C   UNL A   1      49.808  30.284  27.780  1.00  0.00     0.031 C 
ATOM     71  C   UNL A   1      45.919  34.376  30.172  1.00  0.00     0.029 A 
ATOM     72  C   UNL A   1      46.380  33.174  29.639  1.00  0.00     0.049 A 
ATOM     73  H   UNL A   1      45.270  31.470  29.131  1.00  0.00     0.167 HD
ATOM     74  C   UNL A   1      48.202  31.674  28.708  1.00  0.00     0.074 A 
ATOM     75  C   UNL A   1      49.615  31.398  28.473  1.00  0.00     0.031 C 
ATOM     76  C   UNL A   1      47.738  32.791  29.328  1.00  0.00     0.031 A 
BRANCH  63  77
ATOM     77  C   UNL A   1      41.638  33.104  30.611  1.00  0.00    -0.014 A 
ATOM     78  C   UNL A   1      40.698  33.596  29.686  1.00  0.00     0.009 A 
ATOM     79  C   UNL A   1      41.442  33.394  31.970  1.00  0.00     0.009 A 
ATOM     80  C   UNL A   1      39.638  34.409  30.100  1.00  0.00     0.001 A 
ATOM     81  C   UNL A   1      40.351  34.162  32.390  1.00  0.00     0.001 A 
ATOM     82  C   UNL A   1      39.460  34.683  31.453  1.00  0.00     0.000 A 
ENDBRANCH  63  77
BRANCH  64  83
ATOM     83  C   UNL A   1      49.346  27.610  26.472  1.00  0.00    -0.014 A 
ATOM     84  C   UNL A   1      50.009  26.700  27.307  1.00  0.00     0.009 A 
ATOM     85  C   UNL A   1      49.631  27.604  25.097  1.00  0.00     0.009 A 
ATOM     86  C   UNL A   1      50.974  25.838  26.785  1.00  0.00     0.001 A 
ATOM     87  C   UNL A   1      50.573  26.720  24.572  1.00  0.00     0.001 A 
ATOM     88  C   UNL A   1      51.256  25.849  25.419  1.00  0.00     0.000 A 
ENDBRANCH  64  83
BRANCH  76  89
ATOM     89  C   UNL A   1      48.789  33.749  29.779  1.00  0.00    -0.014 A 
ATOM     90  C   UNL A   1      49.262  34.746  28.917  1.00  0.00     0.009 A 
ATOM     91  C   UNL A   1      49.262  33.673  31.096  1.00  0.00     0.009 A 
ATOM     92  C   UNL A   1      50.249  35.622  29.353  1.00  0.00     0.001 A 
ATOM     93  C   UNL A   1      50.214  34.580  31.542  1.00  0.00     0.001 A 
ATOM     94  C   UNL A   1      50.718  35.542  30.666  1.00  0.00     0.000 A 
ENDBRANCH  76  89
ENDBRANCH  50  51
ENDBRANCH  43  45
ENDBRANCH  42  43
ENDBRANCH  41  42
ENDBRANCH  40  41
ENDBRANCH  39  40
ENDBRANCH  38  39
ENDBRANCH   1  38
TORSDOF 23
ENDMDL
MODEL 2
REMARK VINA RESULT:      -7.8      8.825     15.303
REMARK SMILES NC(=O)[C@@H]1CCC[N@@H+]1[C@@H](C(=O)OCCOCCOCCOC(=O)c1ccc(-c2c3nc(c(-c4ccccc4)c4ccc([nH]4)c(-c4ccccc4)c4nc(c(-c5ccccc5)c5ccc2[nH]5)C=C4)C=C3)cc1)c1c[nH]c2cc(OCc3ccccc3)ccc12
REMARK SMILES IDX 16 1 15 2 14 3 13 4 12 5 10 6 11 7 9 8 8 9 4 10 5 11 6 12
REMARK SMILES IDX 7 13 2 15 1 16 3 19 72 20 73 21 88 22 74 23 75 24 87 25
REMARK SMILES IDX 76 27 86 28 77 29 78 30 79 31 80 32 81 33 85 34 82 35 84 36
REMARK SMILES IDX 83 37 17 38 18 39 19 40 20 41 21 42 22 43 23 44 24 45 25 46
REMARK SMILES IDX 71 47 26 48 70 49 27 50 28 51 29 52 64 53 30 54 69 55 63 56
REMARK SMILES IDX 65 57 31 58 68 59 62 60 61 61 32 63 54 64 39 65 53 66 40 67
REMARK SMILES IDX 43 68 52 69 66 70 41 71 42 72 51 74 67 75 44 76 33 77 34 78
REMARK SMILES IDX 38 79 35 80 37 81 36 82 55 83 56 84 60 85 57 86 59 87 58 88
REMARK SMILES IDX 45 89 46 90 50 91 47 92 49 93 48 94
REMARK H PARENT 8 14 1 17 1 18 74 26 65 62 43 73
REMARK Flexibility Score: inf
ROOT
ATOM      1  C   UNL A   1      41.899  39.300  27.963  1.00  0.00     0.188 C 
ENDROOT
BRANCH   1   2
ATOM      2  O   UNL A   1      42.130  40.571  27.380  1.00  0.00    -0.376 OA
BRANCH   2   3
ATOM      3  C   UNL A   1      41.526  40.792  26.119  1.00  0.00     0.202 C 
BRANCH   3   4
ATOM      4  C   UNL A   1      42.446  41.404  25.040  1.00  0.00     0.261 C 
BRANCH   4   5
ATOM      5  O   UNL A   1      43.560  42.194  25.540  1.00  0.00    -0.459 OA
BRANCH   5   6
ATOM      6  C   UNL A   1      44.812  41.654  25.502  1.00  0.00     0.370 C 
ATOM      7  O   UNL A   1      45.020  40.518  25.072  1.00  0.00    -0.245 OA
BRANCH   6   8
ATOM      8  C   UNL A   1      45.984  42.611  25.915  1.00  0.00     0.329 C 
BRANCH   8   9
ATOM      9  N   UNL A   1      46.224  43.149  27.328  1.00  0.00    -0.309 N 
ATOM     10  C   UNL A   1      47.094  42.461  28.301  1.00  0.00     0.275 C 
ATOM     11  C   UNL A   1      46.176  41.534  29.089  1.00  0.00     0.081 C 
ATOM     12  C   UNL A   1      44.869  42.295  29.111  1.00  0.00     0.068 C 
ATOM     13  C   UNL A   1      45.158  43.510  28.269  1.00  0.00     0.264 C 
ATOM     14  H   UNL A   1      46.626  43.931  26.811  1.00  0.00     0.349 HD
BRANCH  10  15
ATOM     15  C   UNL A   1      48.478  41.970  27.966  1.00  0.00     0.275 C 
ATOM     16  N   UNL A   1      48.484  40.622  27.682  1.00  0.00    -0.365 N 
ATOM     17  H   UNL A   1      49.327  40.172  27.446  1.00  0.00     0.159 HD
ATOM     18  H   UNL A   1      47.644  40.109  27.715  1.00  0.00     0.159 HD
ATOM     19  O   UNL A   1      49.516  42.614  27.997  1.00  0.00    -0.268 OA
ENDBRANCH  10  15
ENDBRANCH   8   9
BRANCH   8  20
ATOM     20  C   UNL A   1      46.712  43.360  24.668  1.00  0.00     0.046 A 
ATOM     21  C   UNL A   1      46.729  44.759  24.726  1.00  0.00     0.094 A 
ATOM     22  C   UNL A   1      46.601  43.249  23.213  1.00  0.00     0.009 A 
ATOM     23  N   UNL A   1      45.505  45.154  24.162  1.00  0.00    -0.361 N 
ATOM     24  C   UNL A   1      45.288  44.373  22.981  1.00  0.00     0.050 A 
ATOM     25  C   UNL A   1      47.349  42.483  21.744  1.00  0.00     0.015 A 
ATOM     26  H   UNL A   1      44.901  45.845  24.516  1.00  0.00     0.166 HD
ATOM     27  C   UNL A   1      44.549  44.688  21.320  1.00  0.00     0.073 A 
ATOM     28  C   UNL A   1      46.695  42.837  20.026  1.00  0.00     0.047 A 
ATOM     29  C   UNL A   1      45.290  43.935  19.852  1.00  0.00     0.121 A 
BRANCH  29  30
ATOM     30  O   UNL A   1      44.669  44.236  18.681  1.00  0.00    -0.489 OA
BRANCH  30  31
ATOM     31  C   UNL A   1      45.113  45.415  18.014  1.00  0.00     0.265 C 
BRANCH  31  32
ATOM     32  C   UNL A   1      43.953  46.297  17.612  1.00  0.00    -0.011 A 
ATOM     33  C   UNL A   1      43.930  47.644  18.011  1.00  0.00     0.007 A 
ATOM     34  C   UNL A   1      42.927  45.823  16.784  1.00  0.00     0.007 A 
ATOM     35  C   UNL A   1      42.883  48.481  17.627  1.00  0.00     0.000 A 
ATOM     36  C   UNL A   1      41.904  46.672  16.370  1.00  0.00     0.000 A 
ATOM     37  C   UNL A   1      41.869  47.994  16.809  1.00  0.00     0.000 A 
ENDBRANCH  31  32
ENDBRANCH  30  31
ENDBRANCH  29  30
ENDBRANCH   8  20
ENDBRANCH   6   8
ENDBRANCH   5   6
ENDBRANCH   4   5
ENDBRANCH   3   4
ENDBRANCH   2   3
ENDBRANCH   1   2
BRANCH   1  38
ATOM     38  C   UNL A   1      42.070  38.058  27.085  1.00  0.00     0.188 C 
BRANCH  38  39
ATOM     39  O   UNL A   1      43.357  37.999  26.501  1.00  0.00    -0.376 OA
BRANCH  39  40
ATOM     40  C   UNL A   1      44.379  38.136  27.478  1.00  0.00     0.202 C 
BRANCH  40  41
ATOM     41  C   UNL A   1      45.643  37.402  27.054  1.00  0.00     0.261 C 
BRANCH  41  42
ATOM     42  O   UNL A   1      45.464  36.245  26.199  1.00  0.00    -0.460 OA
BRANCH  42  43
ATOM     43  C   UNL A   1      44.874  34.884  26.602  1.00  0.00     0.338 C 
ATOM     44  O   UNL A   1      45.136  34.222  25.556  1.00  0.00    -0.246 OA
BRANCH  43  45
ATOM     45  C   UNL A   1      43.847  34.486  28.442  1.00  0.00     0.060 A 
ATOM     46  C   UNL A   1      43.613  35.405  29.656  1.00  0.00     0.016 A 
ATOM     47  C   UNL A   1      43.146  33.213  28.929  1.00  0.00     0.016 A 
ATOM     48  C   UNL A   1      42.686  35.315  30.665  1.00  0.00     0.010 A 
ATOM     49  C   UNL A   1      42.402  33.005  30.064  1.00  0.00     0.010 A 
ATOM     50  C   UNL A   1      42.145  34.086  30.862  1.00  0.00    -0.014 A 
BRANCH  50  51
ATOM     51  C   UNL A   1      41.478  33.836  32.094  1.00  0.00     0.031 A 
ATOM     52  C   UNL A   1      40.004  33.932  32.044  1.00  0.00     0.074 A 
ATOM     53  C   UNL A   1      42.305  33.664  33.122  1.00  0.00     0.049 A 
ATOM     54  N   UNL A   1      39.143  33.762  32.994  1.00  0.00    -0.248 NA
ATOM     55  C   UNL A   1      39.406  34.221  30.725  1.00  0.00     0.031 C 
ATOM     56  C   UNL A   1      43.772  33.561  33.045  1.00  0.00     0.029 A 
ATOM     57  N   UNL A   1      42.016  33.576  34.429  1.00  0.00    -0.354 N 
ATOM     58  C   UNL A   1      37.910  33.966  32.394  1.00  0.00     0.074 A 
ATOM     59  C   UNL A   1      38.120  34.135  30.991  1.00  0.00     0.031 C 
ATOM     60  C   UNL A   1      44.254  33.407  34.285  1.00  0.00     0.029 A 
ATOM     61  C   UNL A   1      43.126  33.403  35.202  1.00  0.00     0.049 A 
ATOM     62  H   UNL A   1      41.103  33.632  34.791  1.00  0.00     0.167 HD
ATOM     63  C   UNL A   1      36.722  34.095  33.014  1.00  0.00     0.031 A 
ATOM     64  C   UNL A   1      43.147  33.217  36.523  1.00  0.00     0.031 A 
ATOM     65  C   UNL A   1      36.663  33.977  34.440  1.00  0.00     0.049 A 
ATOM     66  C   UNL A   1      41.794  33.155  37.170  1.00  0.00     0.074 A 
ATOM     67  C   UNL A   1      35.580  34.017  35.285  1.00  0.00     0.029 A 
ATOM     68  N   UNL A   1      37.798  33.774  35.227  1.00  0.00    -0.354 N 
ATOM     69  N   UNL A   1      40.610  33.383  36.635  1.00  0.00    -0.248 NA
ATOM     70  C   UNL A   1      41.766  32.759  38.571  1.00  0.00     0.031 C 
ATOM     71  C   UNL A   1      36.064  33.827  36.585  1.00  0.00     0.029 A 
ATOM     72  C   UNL A   1      37.442  33.616  36.541  1.00  0.00     0.049 A 
ATOM     73  H   UNL A   1      38.721  33.748  34.887  1.00  0.00     0.167 HD
ATOM     74  C   UNL A   1      39.681  33.127  37.626  1.00  0.00     0.074 A 
ATOM     75  C   UNL A   1      40.458  32.702  38.785  1.00  0.00     0.031 C 
ATOM     76  C   UNL A   1      38.326  33.231  37.616  1.00  0.00     0.031 A 
BRANCH  63  77
ATOM     77  C   UNL A   1      35.531  34.484  32.178  1.00  0.00    -0.014 A 
ATOM     78  C   UNL A   1      35.123  33.736  31.057  1.00  0.00     0.009 A 
ATOM     79  C   UNL A   1      34.852  35.679  32.458  1.00  0.00     0.009 A 
ATOM     80  C   UNL A   1      34.115  34.205  30.208  1.00  0.00     0.001 A 
ATOM     81  C   UNL A   1      33.807  36.120  31.639  1.00  0.00     0.001 A 
ATOM     82  C   UNL A   1      33.452  35.391  30.505  1.00  0.00     0.000 A 
ENDBRANCH  63  77
BRANCH  64  83
ATOM     83  C   UNL A   1      44.434  32.930  37.183  1.00  0.00    -0.014 A 
ATOM     84  C   UNL A   1      45.196  33.972  37.728  1.00  0.00     0.009 A 
ATOM     85  C   UNL A   1      44.845  31.603  37.396  1.00  0.00     0.009 A 
ATOM     86  C   UNL A   1      46.371  33.696  38.427  1.00  0.00     0.001 A 
ATOM     87  C   UNL A   1      46.004  31.329  38.122  1.00  0.00     0.001 A 
ATOM     88  C   UNL A   1      46.775  32.375  38.622  1.00  0.00     0.000 A 
ENDBRANCH  64  83
BRANCH  76  89
ATOM     89  C   UNL A   1      37.652  32.865  38.895  1.00  0.00    -0.014 A 
ATOM     90  C   UNL A   1      37.591  33.778  39.956  1.00  0.00     0.009 A 
ATOM     91  C   UNL A   1      37.034  31.612  39.007  1.00  0.00     0.009 A 
ATOM     92  C   UNL A   1      36.967  33.413  41.143  1.00  0.00     0.001 A 
ATOM     93  C   UNL A   1      36.371  31.271  40.178  1.00  0.00     0.001 A 
ATOM     94  C   UNL A   1      36.353  32.164  41.250  1.00  0.00     0.000 A 
ENDBRANCH  76  89
ENDBRANCH  50  51
ENDBRANCH  43  45
ENDBRANCH  42  43
ENDBRANCH  41  42
ENDBRANCH  40  41
ENDBRANCH  39  40
ENDBRANCH  38  39
ENDBRANCH   1  38
TORSDOF 23
ENDMDL
MODEL 3
REMARK VINA RESULT:      -7.5      5.691     12.045
REMARK SMILES NC(=O)[C@@H]1CCC[N@@H+]1[C@@H](C(=O)OCCOCCOCCOC(=O)c1ccc(-c2c3nc(c(-c4ccccc4)c4ccc([nH]4)c(-c4ccccc4)c4nc(c(-c5ccccc5)c5ccc2[nH]5)C=C4)C=C3)cc1)c1c[nH]c2cc(OCc3ccccc3)ccc12
REMARK SMILES IDX 16 1 15 2 14 3 13 4 12 5 10 6 11 7 9 8 8 9 4 10 5 11 6 12
REMARK SMILES IDX 7 13 2 15 1 16 3 19 72 20 73 21 88 22 74 23 75 24 87 25
REMARK SMILES IDX 76 27 86 28 77 29 78 30 79 31 80 32 81 33 85 34 82 35 84 36
REMARK SMILES IDX 83 37 17 38 18 39 19 40 20 41 21 42 22 43 23 44 24 45 25 46
REMARK SMILES IDX 71 47 26 48 70 49 27 50 28 51 29 52 64 53 30 54 69 55 63 56
REMARK SMILES IDX 65 57 31 58 68 59 62 60 61 61 32 63 54 64 39 65 53 66 40 67
REMARK SMILES IDX 43 68 52 69 66 70 41 71 42 72 51 74 67 75 44 76 33 77 34 78
REMARK SMILES IDX 38 79 35 80 37 81 36 82 55 83 56 84 60 85 57 86 59 87 58 88
REMARK SMILES IDX 45 89 46 90 50 91 47 92 49 93 48 94
REMARK H PARENT 8 14 1 17 1 18 74 26 65 62 43 73
REMARK Flexibility Score: inf
ROOT
ATOM      1  C   UNL A   1      42.387  34.807  30.386  1.00  0.00     0.188 C 
ENDROOT
BRANCH   1   2
ATOM      2  O   UNL A   1      43.338  34.762  31.437  1.00  0.00    -0.376 OA
BRANCH   2   3
ATOM      3  C   UNL A   1      42.915  34.121  32.627  1.00  0.00     0.202 C 
BRANCH   3   4
ATOM      4  C   UNL A   1      42.346  35.054  33.717  1.00  0.00     0.261 C 
BRANCH   4   5
ATOM      5  O   UNL A   1      41.590  34.397  34.773  1.00  0.00    -0.459 OA
BRANCH   5   6
ATOM      6  C   UNL A   1      40.238  34.577  34.815  1.00  0.00     0.370 C 
ATOM      7  O   UNL A   1      39.629  35.161  33.917  1.00  0.00    -0.245 OA
BRANCH   6   8
ATOM      8  C   UNL A   1      39.492  33.880  36.005  1.00  0.00     0.329 C 
BRANCH   8   9
ATOM      9  N   UNL A   1      38.085  33.282  35.933  1.00  0.00    -0.309 N 
ATOM     10  C   UNL A   1      37.841  31.871  35.573  1.00  0.00     0.275 C 
ATOM     11  C   UNL A   1      37.643  31.862  34.062  1.00  0.00     0.081 C 
ATOM     12  C   UNL A   1      36.995  33.204  33.799  1.00  0.00     0.068 C 
ATOM     13  C   UNL A   1      36.979  33.855  35.157  1.00  0.00     0.264 C 
ATOM     14  H   UNL A   1      38.084  33.519  36.925  1.00  0.00     0.349 HD
BRANCH  10  15
ATOM     15  C   UNL A   1      38.586  30.720  36.197  1.00  0.00     0.275 C 
ATOM     16  N   UNL A   1      37.785  30.008  37.063  1.00  0.00    -0.365 N 
ATOM     17  H   UNL A   1      38.148  29.227  37.540  1.00  0.00     0.159 HD
ATOM     18  H   UNL A   1      36.849  30.280  37.204  1.00  0.00     0.159 HD
ATOM     19  O   UNL A   1      39.767  30.444  36.055  1.00  0.00    -0.268 OA
ENDBRANCH  10  15
ENDBRANCH   8   9
BRANCH   8  20
ATOM     20  C   UNL A   1      40.125  34.193  37.471  1.00  0.00     0.046 A 
ATOM     21  C   UNL A   1      39.436  33.644  38.560  1.00  0.00     0.094 A 
ATOM     22  C   UNL A   1      40.567  35.414  38.145  1.00  0.00     0.009 A 
ATOM     23  N   UNL A   1      38.439  34.585  38.863  1.00  0.00    -0.361 N 
ATOM     24  C   UNL A   1      39.033  35.887  38.826  1.00  0.00     0.050 A 
ATOM     25  C   UNL A   1      42.029  36.425  38.529  1.00  0.00     0.015 A 
ATOM     26  H   UNL A   1      37.497  34.385  39.064  1.00  0.00     0.166 HD
ATOM     27  C   UNL A   1      38.827  37.448  39.789  1.00  0.00     0.073 A 
ATOM     28  C   UNL A   1      41.891  37.971  39.576  1.00  0.00     0.047 A 
ATOM     29  C   UNL A   1      40.276  38.458  40.180  1.00  0.00     0.121 A 
BRANCH  29  30
ATOM     30  O   UNL A   1      40.012  39.582  40.895  1.00  0.00    -0.489 OA
BRANCH  30  31
ATOM     31  C   UNL A   1      40.199  40.822  40.217  1.00  0.00     0.265 C 
BRANCH  31  32
ATOM     32  C   UNL A   1      39.735  41.992  41.055  1.00  0.00    -0.011 A 
ATOM     33  C   UNL A   1      39.677  43.276  40.489  1.00  0.00     0.007 A 
ATOM     34  C   UNL A   1      39.290  41.816  42.372  1.00  0.00     0.007 A 
ATOM     35  C   UNL A   1      39.226  44.363  41.237  1.00  0.00     0.000 A 
ATOM     36  C   UNL A   1      38.803  42.896  43.103  1.00  0.00     0.000 A 
ATOM     37  C   UNL A   1      38.792  44.172  42.545  1.00  0.00     0.000 A 
ENDBRANCH  31  32
ENDBRANCH  30  31
ENDBRANCH  29  30
ENDBRANCH   8  20
ENDBRANCH   6   8
ENDBRANCH   5   6
ENDBRANCH   4   5
ENDBRANCH   3   4
ENDBRANCH   2   3
ENDBRANCH   1   2
BRANCH   1  38
ATOM     38  C   UNL A   1      42.684  35.699  29.178  1.00  0.00     0.188 C 
BRANCH  38  39
ATOM     39  O   UNL A   1      43.661  36.679  29.475  1.00  0.00    -0.376 OA
BRANCH  39  40
ATOM     40  C   UNL A   1      44.490  36.943  28.352  1.00  0.00     0.202 C 
BRANCH  40  41
ATOM     41  C   UNL A   1      45.686  37.799  28.745  1.00  0.00     0.261 C 
BRANCH  41  42
ATOM     42  O   UNL A   1      46.384  37.419  29.958  1.00  0.00    -0.460 OA
BRANCH  42  43
ATOM     43  C   UNL A   1      47.139  36.105  30.212  1.00  0.00     0.338 C 
ATOM     44  O   UNL A   1      48.237  36.571  30.638  1.00  0.00    -0.246 OA
BRANCH  43  45
ATOM     45  C   UNL A   1      46.377  34.146  29.789  1.00  0.00     0.060 A 
ATOM     46  C   UNL A   1      46.377  32.881  30.666  1.00  0.00     0.016 A 
ATOM     47  C   UNL A   1      45.687  33.602  28.532  1.00  0.00     0.016 A 
ATOM     48  C   UNL A   1      45.607  31.747  30.581  1.00  0.00     0.010 A 
ATOM     49  C   UNL A   1      45.110  32.375  28.314  1.00  0.00     0.010 A 
ATOM     50  C   UNL A   1      45.034  31.512  29.373  1.00  0.00    -0.014 A 
BRANCH  50  51
ATOM     51  C   UNL A   1      44.546  30.202  29.105  1.00  0.00     0.031 A 
ATOM     52  C   UNL A   1      45.553  29.245  28.600  1.00  0.00     0.074 A 
ATOM     53  C   UNL A   1      43.228  30.085  29.249  1.00  0.00     0.049 A 
ATOM     54  N   UNL A   1      45.405  28.003  28.272  1.00  0.00    -0.248 NA
ATOM     55  C   UNL A   1      46.938  29.744  28.486  1.00  0.00     0.031 C 
ATOM     56  C   UNL A   1      42.322  31.112  29.789  1.00  0.00     0.029 A 
ATOM     57  N   UNL A   1      42.434  29.054  28.922  1.00  0.00    -0.354 N 
ATOM     58  C   UNL A   1      46.667  27.590  27.873  1.00  0.00     0.074 A 
ATOM     59  C   UNL A   1      47.585  28.655  28.127  1.00  0.00     0.031 C 
ATOM     60  C   UNL A   1      41.072  30.632  29.764  1.00  0.00     0.029 A 
ATOM     61  C   UNL A   1      41.123  29.288  29.213  1.00  0.00     0.049 A 
ATOM     62  H   UNL A   1      42.763  28.220  28.516  1.00  0.00     0.167 HD
ATOM     63  C   UNL A   1      46.981  26.436  27.256  1.00  0.00     0.031 A 
ATOM     64  C   UNL A   1      40.115  28.426  29.064  1.00  0.00     0.031 A 
ATOM     65  C   UNL A   1      45.946  25.481  26.994  1.00  0.00     0.049 A 
ATOM     66  C   UNL A   1      40.519  27.068  28.567  1.00  0.00     0.074 A 
ATOM     67  C   UNL A   1      46.022  24.229  26.433  1.00  0.00     0.029 A 
ATOM     68  N   UNL A   1      44.608  25.712  27.317  1.00  0.00    -0.354 N 
ATOM     69  N   UNL A   1      41.699  26.658  28.146  1.00  0.00    -0.248 NA
ATOM     70  C   UNL A   1      39.484  26.044  28.578  1.00  0.00     0.031 C 
ATOM     71  C   UNL A   1      44.726  23.700  26.427  1.00  0.00     0.029 A 
ATOM     72  C   UNL A   1      43.853  24.604  27.033  1.00  0.00     0.049 A 
ATOM     73  H   UNL A   1      44.257  26.551  27.693  1.00  0.00     0.167 HD
ATOM     74  C   UNL A   1      41.565  25.312  27.866  1.00  0.00     0.074 A 
ATOM     75  C   UNL A   1      40.183  24.983  28.198  1.00  0.00     0.031 C 
ATOM     76  C   UNL A   1      42.464  24.416  27.379  1.00  0.00     0.031 A 
BRANCH  63  77
ATOM     77  C   UNL A   1      48.392  26.267  26.758  1.00  0.00    -0.014 A 
ATOM     78  C   UNL A   1      48.799  26.710  25.485  1.00  0.00     0.009 A 
ATOM     79  C   UNL A   1      49.321  25.564  27.541  1.00  0.00     0.009 A 
ATOM     80  C   UNL A   1      50.068  26.400  24.987  1.00  0.00     0.001 A 
ATOM     81  C   UNL A   1      50.609  25.302  27.064  1.00  0.00     0.001 A 
ATOM     82  C   UNL A   1      50.975  25.704  25.781  1.00  0.00     0.000 A 
ENDBRANCH  63  77
BRANCH  64  83
ATOM     83  C   UNL A   1      38.773  28.809  29.539  1.00  0.00    -0.014 A 
ATOM     84  C   UNL A   1      38.479  28.796  30.909  1.00  0.00     0.009 A 
ATOM     85  C   UNL A   1      37.819  29.318  28.643  1.00  0.00     0.009 A 
ATOM     86  C   UNL A   1      37.238  29.237  31.369  1.00  0.00     0.001 A 
ATOM     87  C   UNL A   1      36.590  29.788  29.108  1.00  0.00     0.001 A 
ATOM     88  C   UNL A   1      36.294  29.732  30.468  1.00  0.00     0.000 A 
ENDBRANCH  64  83
BRANCH  76  89
ATOM     89  C   UNL A   1      41.946  23.028  27.205  1.00  0.00    -0.014 A 
ATOM     90  C   UNL A   1      41.221  22.677  26.059  1.00  0.00     0.009 A 
ATOM     91  C   UNL A   1      42.236  22.063  28.179  1.00  0.00     0.009 A 
ATOM     92  C   UNL A   1      40.738  21.380  25.920  1.00  0.00     0.001 A 
ATOM     93  C   UNL A   1      41.792  20.758  28.013  1.00  0.00     0.001 A 
ATOM     94  C   UNL A   1      41.030  20.423  26.893  1.00  0.00     0.000 A 
ENDBRANCH  76  89
ENDBRANCH  50  51
ENDBRANCH  43  45
ENDBRANCH  42  43
ENDBRANCH  41  42
ENDBRANCH  40  41
ENDBRANCH  39  40
ENDBRANCH  38  39
ENDBRANCH   1  38
TORSDOF 23
ENDMDL
