MODEL 1
REMARK VINA RESULT:     -10.2      0.000      0.000
REMARK SMILES CCc1cc(OC(F)(F)F)cc2c1O[C@@H](C(F)(F)F)C(C(=O)OCCOCCOCCOC(=O)c1ccc(-c3c4nc(c(-c5ccccc5)c5ccc([nH]5)c(-c5ccccc5)c5nc(c(-c6ccccc6)c6ccc3[nH]6)C=C5)C=C4)cc1)=C2
REMARK SMILES IDX 27 1 26 2 25 3 24 4 23 5 21 6 22 7 20 8 3 9 4 10 13 11 5 12
REMARK SMILES IDX 12 13 14 14 11 15 83 16 15 17 2 18 1 19 6 20 7 21 8 22 9 23
REMARK SMILES IDX 10 24 16 25 17 26 18 27 19 28 28 29 29 30 30 31 31 32 32 33
REMARK SMILES IDX 33 34 34 35 35 36 36 37 82 38 37 39 81 40 38 41 39 42 40 43
REMARK SMILES IDX 75 44 41 45 80 46 74 47 76 48 42 49 79 50 73 51 72 52 43 54
REMARK SMILES IDX 65 55 50 56 64 57 51 58 54 59 63 60 77 61 52 62 53 63 62 65
REMARK SMILES IDX 78 66 55 67 44 68 45 69 49 70 46 71 48 72 47 73 66 74 67 75
REMARK SMILES IDX 71 76 68 77 70 78 69 79 56 80 57 81 61 82 58 83 60 84 59 85
REMARK H PARENT 76 53 54 64
REMARK Flexibility Score: inf
ROOT
ATOM      1  C   UNL A   1      34.589  31.721  28.463  1.00  0.00     0.188 C 
ENDROOT
BRANCH   1   2
ATOM      2  O   UNL A   1      34.814  30.812  27.416  1.00  0.00    -0.376 OA
BRANCH   2   3
ATOM      3  C   UNL A   1      33.886  29.774  27.155  1.00  0.00     0.202 C 
BRANCH   3   4
ATOM      4  C   UNL A   1      32.414  29.974  26.738  1.00  0.00     0.261 C 
BRANCH   4   5
ATOM      5  O   UNL A   1      31.771  28.918  26.017  1.00  0.00    -0.460 OA
BRANCH   5   6
ATOM      6  C   UNL A   1      31.793  27.692  26.595  1.00  0.00     0.338 C 
ATOM      7  O   UNL A   1      31.262  27.379  27.642  1.00  0.00    -0.246 OA
BRANCH   6   8
ATOM      8  C   UNL A   1      32.443  26.721  25.693  1.00  0.00     0.087 C 
ATOM      9  C   UNL A   1      33.774  23.453  23.444  1.00  0.00    -0.002 A 
ATOM     10  C   UNL A   1      35.090  22.998  23.620  1.00  0.00     0.054 A 
ATOM     11  C   UNL A   1      33.350  24.560  24.200  1.00  0.00     0.131 A 
ATOM     12  C   UNL A   1      35.953  23.615  24.532  1.00  0.00     0.130 A 
ATOM     13  C   UNL A   1      34.198  25.184  25.126  1.00  0.00     0.021 A 
ATOM     14  O   UNL A   1      32.043  24.950  24.049  1.00  0.00    -0.475 OA
ATOM     15  C   UNL A   1      35.506  24.720  25.269  1.00  0.00     0.058 A 
ATOM     16  C   UNL A   1      33.653  26.222  26.003  1.00  0.00     0.027 C 
ATOM     17  C   UNL A   1      31.759  26.325  24.405  1.00  0.00     0.316 C 
BRANCH   9  18
ATOM     18  C   UNL A   1      32.800  22.813  22.475  1.00  0.00     0.036 C 
ATOM     19  C   UNL A   1      32.122  21.523  22.915  1.00  0.00     0.009 C 
ENDBRANCH   9  18
BRANCH  12  20
ATOM     20  O   UNL A   1      37.240  23.235  24.798  1.00  0.00    -0.406 OA
BRANCH  20  21
ATOM     21  C   UNL A   1      37.450  21.908  25.256  1.00  0.00     0.573 C 
ATOM     22  F   UNL A   1      37.430  21.027  24.233  1.00  0.00    -0.132 F 
ATOM     23  F   UNL A   1      38.621  21.804  25.919  1.00  0.00    -0.132 F 
ATOM     24  F   UNL A   1      36.454  21.580  26.109  1.00  0.00    -0.132 F 
ENDBRANCH  20  21
ENDBRANCH  12  20
BRANCH  17  25
ATOM     25  C   UNL A   1      30.243  26.539  24.274  1.00  0.00     0.430 C 
ATOM     26  F   UNL A   1      29.715  25.758  23.302  1.00  0.00    -0.167 F 
ATOM     27  F   UNL A   1      29.621  26.162  25.424  1.00  0.00    -0.167 F 
ATOM     28  F   UNL A   1      29.902  27.821  24.039  1.00  0.00    -0.167 F 
ENDBRANCH  17  25
ENDBRANCH   6   8
ENDBRANCH   5   6
ENDBRANCH   4   5
ENDBRANCH   3   4
ENDBRANCH   2   3
ENDBRANCH   1   2
BRANCH   1  29
ATOM     29  C   UNL A   1      33.969  33.067  28.029  1.00  0.00     0.188 C 
BRANCH  29  30
ATOM     30  O   UNL A   1      34.608  34.288  28.358  1.00  0.00    -0.376 OA
BRANCH  30  31
ATOM     31  C   UNL A   1      33.865  35.500  28.319  1.00  0.00     0.202 C 
BRANCH  31  32
ATOM     32  C   UNL A   1      32.957  35.925  29.489  1.00  0.00     0.261 C 
BRANCH  32  33
ATOM     33  O   UNL A   1      32.793  34.969  30.548  1.00  0.00    -0.460 OA
BRANCH  33  34
ATOM     34  C   UNL A   1      32.883  35.478  31.801  1.00  0.00     0.338 C 
ATOM     35  O   UNL A   1      32.079  36.194  32.370  1.00  0.00    -0.246 OA
BRANCH  34  36
ATOM     36  C   UNL A   1      34.047  34.898  32.499  1.00  0.00     0.060 A 
ATOM     37  C   UNL A   1      35.304  35.485  32.289  1.00  0.00     0.016 A 
ATOM     38  C   UNL A   1      33.926  33.733  33.257  1.00  0.00     0.016 A 
ATOM     39  C   UNL A   1      36.452  34.879  32.792  1.00  0.00     0.010 A 
ATOM     40  C   UNL A   1      35.083  33.112  33.740  1.00  0.00     0.010 A 
ATOM     41  C   UNL A   1      36.352  33.656  33.467  1.00  0.00    -0.014 A 
BRANCH  41  42
ATOM     42  C   UNL A   1      37.573  32.838  33.660  1.00  0.00     0.031 A 
ATOM     43  C   UNL A   1      38.378  33.044  34.918  1.00  0.00     0.074 A 
ATOM     44  C   UNL A   1      37.945  31.901  32.771  1.00  0.00     0.049 A 
ATOM     45  N   UNL A   1      39.490  32.471  35.299  1.00  0.00    -0.248 NA
ATOM     46  C   UNL A   1      37.852  34.034  35.875  1.00  0.00     0.031 C 
ATOM     47  C   UNL A   1      37.224  31.557  31.548  1.00  0.00     0.029 A 
ATOM     48  N   UNL A   1      39.034  31.065  32.769  1.00  0.00    -0.354 N 
ATOM     49  C   UNL A   1      39.802  33.037  36.529  1.00  0.00     0.074 A 
ATOM     50  C   UNL A   1      38.782  34.021  36.817  1.00  0.00     0.031 C 
ATOM     51  C   UNL A   1      37.897  30.585  30.906  1.00  0.00     0.029 A 
ATOM     52  C   UNL A   1      39.109  30.263  31.657  1.00  0.00     0.049 A 
ATOM     53  H   UNL A   1      39.697  31.043  33.497  1.00  0.00     0.167 HD
ATOM     54  C   UNL A   1      40.843  32.762  37.351  1.00  0.00     0.031 A 
ATOM     55  C   UNL A   1      40.060  29.385  31.283  1.00  0.00     0.031 A 
ATOM     56  C   UNL A   1      41.867  31.796  37.063  1.00  0.00     0.049 A 
ATOM     57  C   UNL A   1      41.253  29.156  32.175  1.00  0.00     0.074 A 
ATOM     58  C   UNL A   1      42.961  31.442  37.835  1.00  0.00     0.029 A 
ATOM     59  N   UNL A   1      41.928  31.035  35.906  1.00  0.00    -0.354 N 
ATOM     60  N   UNL A   1      41.530  29.685  33.343  1.00  0.00    -0.248 NA
ATOM     61  C   UNL A   1      42.260  28.196  31.699  1.00  0.00     0.031 C 
ATOM     62  C   UNL A   1      43.715  30.508  37.118  1.00  0.00     0.029 A 
ATOM     63  C   UNL A   1      43.054  30.228  35.932  1.00  0.00     0.049 A 
ATOM     64  H   UNL A   1      41.270  31.063  35.174  1.00  0.00     0.167 HD
ATOM     65  C   UNL A   1      42.717  29.091  33.758  1.00  0.00     0.074 A 
ATOM     66  C   UNL A   1      43.103  28.157  32.721  1.00  0.00     0.031 C 
ATOM     67  C   UNL A   1      43.421  29.296  34.899  1.00  0.00     0.031 A 
BRANCH  54  68
ATOM     68  C   UNL A   1      40.942  33.553  38.626  1.00  0.00    -0.014 A 
ATOM     69  C   UNL A   1      40.365  33.093  39.821  1.00  0.00     0.009 A 
ATOM     70  C   UNL A   1      41.642  34.769  38.636  1.00  0.00     0.009 A 
ATOM     71  C   UNL A   1      40.457  33.852  40.989  1.00  0.00     0.001 A 
ATOM     72  C   UNL A   1      41.760  35.511  39.813  1.00  0.00     0.001 A 
ATOM     73  C   UNL A   1      41.158  35.058  40.985  1.00  0.00     0.000 A 
ENDBRANCH  54  68
BRANCH  55  74
ATOM     74  C   UNL A   1      39.940  28.659  29.990  1.00  0.00    -0.014 A 
ATOM     75  C   UNL A   1      39.412  27.359  29.943  1.00  0.00     0.009 A 
ATOM     76  C   UNL A   1      40.385  29.252  28.798  1.00  0.00     0.009 A 
ATOM     77  C   UNL A   1      39.364  26.657  28.736  1.00  0.00     0.001 A 
ATOM     78  C   UNL A   1      40.306  28.560  27.587  1.00  0.00     0.001 A 
ATOM     79  C   UNL A   1      39.806  27.259  27.559  1.00  0.00     0.000 A 
ENDBRANCH  55  74
BRANCH  67  80
ATOM     80  C   UNL A   1      44.648  28.452  35.119  1.00  0.00    -0.014 A 
ATOM     81  C   UNL A   1      45.921  28.878  34.714  1.00  0.00     0.009 A 
ATOM     82  C   UNL A   1      44.525  27.223  35.788  1.00  0.00     0.009 A 
ATOM     83  C   UNL A   1      47.040  28.073  34.939  1.00  0.00     0.001 A 
ATOM     84  C   UNL A   1      45.649  26.436  36.042  1.00  0.00     0.001 A 
ATOM     85  C   UNL A   1      46.904  26.856  35.607  1.00  0.00     0.000 A 
ENDBRANCH  67  80
ENDBRANCH  41  42
ENDBRANCH  34  36
ENDBRANCH  33  34
ENDBRANCH  32  33
ENDBRANCH  31  32
ENDBRANCH  30  31
ENDBRANCH  29  30
ENDBRANCH   1  29
TORSDOF 21
ENDMDL
MODEL 2
REMARK VINA RESULT:      -8.8      3.769      4.264
REMARK SMILES CCc1cc(OC(F)(F)F)cc2c1O[C@@H](C(F)(F)F)C(C(=O)OCCOCCOCCOC(=O)c1ccc(-c3c4nc(c(-c5ccccc5)c5ccc([nH]5)c(-c5ccccc5)c5nc(c(-c6ccccc6)c6ccc3[nH]6)C=C5)C=C4)cc1)=C2
REMARK SMILES IDX 27 1 26 2 25 3 24 4 23 5 21 6 22 7 20 8 3 9 4 10 13 11 5 12
REMARK SMILES IDX 12 13 14 14 11 15 83 16 15 17 2 18 1 19 6 20 7 21 8 22 9 23
REMARK SMILES IDX 10 24 16 25 17 26 18 27 19 28 28 29 29 30 30 31 31 32 32 33
REMARK SMILES IDX 33 34 34 35 35 36 36 37 82 38 37 39 81 40 38 41 39 42 40 43
REMARK SMILES IDX 75 44 41 45 80 46 74 47 76 48 42 49 79 50 73 51 72 52 43 54
REMARK SMILES IDX 65 55 50 56 64 57 51 58 54 59 63 60 77 61 52 62 53 63 62 65
REMARK SMILES IDX 78 66 55 67 44 68 45 69 49 70 46 71 48 72 47 73 66 74 67 75
REMARK SMILES IDX 71 76 68 77 70 78 69 79 56 80 57 81 61 82 58 83 60 84 59 85
REMARK H PARENT 76 53 54 64
REMARK Flexibility Score: inf
ROOT
ATOM      1  C   UNL A   1      35.000  31.001  28.348  1.00  0.00     0.188 C 
ENDROOT
BRANCH   1   2
ATOM      2  O   UNL A   1      35.276  30.153  27.263  1.00  0.00    -0.376 OA
BRANCH   2   3
ATOM      3  C   UNL A   1      34.325  29.189  26.845  1.00  0.00     0.202 C 
BRANCH   3   4
ATOM      4  C   UNL A   1      33.052  29.488  26.027  1.00  0.00     0.261 C 
BRANCH   4   5
ATOM      5  O   UNL A   1      32.369  28.386  25.422  1.00  0.00    -0.460 OA
BRANCH   5   6
ATOM      6  C   UNL A   1      32.002  27.375  26.248  1.00  0.00     0.338 C 
ATOM      7  O   UNL A   1      31.294  27.468  27.231  1.00  0.00    -0.246 OA
BRANCH   6   8
ATOM      8  C   UNL A   1      32.471  26.084  25.705  1.00  0.00     0.087 C 
ATOM      9  C   UNL A   1      33.232  22.117  24.620  1.00  0.00    -0.002 A 
ATOM     10  C   UNL A   1      34.479  21.552  24.935  1.00  0.00     0.054 A 
ATOM     11  C   UNL A   1      33.001  23.454  24.982  1.00  0.00     0.131 A 
ATOM     12  C   UNL A   1      35.459  22.294  25.605  1.00  0.00     0.130 A 
ATOM     13  C   UNL A   1      33.967  24.208  25.663  1.00  0.00     0.021 A 
ATOM     14  O   UNL A   1      31.755  23.964  24.710  1.00  0.00    -0.475 OA
ATOM     15  C   UNL A   1      35.203  23.627  25.950  1.00  0.00     0.058 A 
ATOM     16  C   UNL A   1      33.612  25.538  26.161  1.00  0.00     0.027 C 
ATOM     17  C   UNL A   1      31.682  25.407  24.608  1.00  0.00     0.316 C 
BRANCH   9  18
ATOM     18  C   UNL A   1      32.137  21.352  23.902  1.00  0.00     0.036 C 
ATOM     19  C   UNL A   1      32.157  21.367  22.380  1.00  0.00     0.009 C 
ENDBRANCH   9  18
BRANCH  12  20
ATOM     20  O   UNL A   1      36.691  21.833  25.983  1.00  0.00    -0.406 OA
BRANCH  20  21
ATOM     21  C   UNL A   1      37.588  21.447  24.954  1.00  0.00     0.573 C 
ATOM     22  F   UNL A   1      37.399  22.180  23.835  1.00  0.00    -0.132 F 
ATOM     23  F   UNL A   1      38.870  21.566  25.359  1.00  0.00    -0.132 F 
ATOM     24  F   UNL A   1      37.365  20.150  24.645  1.00  0.00    -0.132 F 
ENDBRANCH  20  21
ENDBRANCH  12  20
BRANCH  17  25
ATOM     25  C   UNL A   1      30.206  25.788  24.412  1.00  0.00     0.430 C 
ATOM     26  F   UNL A   1      30.081  27.035  23.899  1.00  0.00    -0.167 F 
ATOM     27  F   UNL A   1      29.631  24.958  23.499  1.00  0.00    -0.167 F 
ATOM     28  F   UNL A   1      29.477  25.704  25.541  1.00  0.00    -0.167 F 
ENDBRANCH  17  25
ENDBRANCH   6   8
ENDBRANCH   5   6
ENDBRANCH   4   5
ENDBRANCH   3   4
ENDBRANCH   2   3
ENDBRANCH   1   2
BRANCH   1  29
ATOM     29  C   UNL A   1      34.270  32.309  27.977  1.00  0.00     0.188 C 
BRANCH  29  30
ATOM     30  O   UNL A   1      34.843  33.564  28.300  1.00  0.00    -0.376 OA
BRANCH  30  31
ATOM     31  C   UNL A   1      34.063  34.534  28.988  1.00  0.00     0.202 C 
BRANCH  31  32
ATOM     32  C   UNL A   1      33.779  34.414  30.498  1.00  0.00     0.261 C 
BRANCH  32  33
ATOM     33  O   UNL A   1      34.162  33.179  31.123  1.00  0.00    -0.460 OA
BRANCH  33  34
ATOM     34  C   UNL A   1      34.204  33.208  32.477  1.00  0.00     0.338 C 
ATOM     35  O   UNL A   1      33.273  33.078  33.251  1.00  0.00    -0.246 OA
BRANCH  34  36
ATOM     36  C   UNL A   1      35.606  33.247  32.937  1.00  0.00     0.060 A 
ATOM     37  C   UNL A   1      36.151  34.490  33.292  1.00  0.00     0.016 A 
ATOM     38  C   UNL A   1      36.404  32.104  32.915  1.00  0.00     0.016 A 
ATOM     39  C   UNL A   1      37.510  34.605  33.575  1.00  0.00     0.010 A 
ATOM     40  C   UNL A   1      37.774  32.224  33.174  1.00  0.00     0.010 A 
ATOM     41  C   UNL A   1      38.338  33.482  33.456  1.00  0.00    -0.014 A 
BRANCH  41  42
ATOM     42  C   UNL A   1      39.807  33.676  33.381  1.00  0.00     0.031 A 
ATOM     43  C   UNL A   1      40.594  33.663  34.666  1.00  0.00     0.074 A 
ATOM     44  C   UNL A   1      40.442  33.817  32.205  1.00  0.00     0.049 A 
ATOM     45  N   UNL A   1      41.876  33.835  34.859  1.00  0.00    -0.248 NA
ATOM     46  C   UNL A   1      39.826  33.422  35.900  1.00  0.00     0.031 C 
ATOM     47  C   UNL A   1      39.810  33.785  30.888  1.00  0.00     0.029 A 
ATOM     48  N   UNL A   1      41.774  34.016  31.937  1.00  0.00    -0.354 N 
ATOM     49  C   UNL A   1      42.066  33.736  36.232  1.00  0.00     0.074 A 
ATOM     50  C   UNL A   1      40.766  33.520  36.827  1.00  0.00     0.031 C 
ATOM     51  C   UNL A   1      40.754  33.969  29.949  1.00  0.00     0.029 A 
ATOM     52  C   UNL A   1      42.049  34.163  30.600  1.00  0.00     0.049 A 
ATOM     53  H   UNL A   1      42.465  34.051  32.637  1.00  0.00     0.167 HD
ATOM     54  C   UNL A   1      43.219  33.813  36.938  1.00  0.00     0.031 A 
ATOM     55  C   UNL A   1      43.212  34.440  29.978  1.00  0.00     0.031 A 
ATOM     56  C   UNL A   1      44.511  34.041  36.353  1.00  0.00     0.049 A 
ATOM     57  C   UNL A   1      44.470  34.604  30.792  1.00  0.00     0.074 A 
ATOM     58  C   UNL A   1      45.741  34.131  36.983  1.00  0.00     0.029 A 
ATOM     59  N   UNL A   1      44.741  34.225  34.998  1.00  0.00    -0.354 N 
ATOM     60  N   UNL A   1      44.640  34.492  32.087  1.00  0.00    -0.248 NA
ATOM     61  C   UNL A   1      45.700  34.922  30.052  1.00  0.00     0.031 C 
ATOM     62  C   UNL A   1      46.706  34.427  36.016  1.00  0.00     0.029 A 
ATOM     63  C   UNL A   1      46.089  34.450  34.775  1.00  0.00     0.049 A 
ATOM     64  H   UNL A   1      44.048  34.200  34.298  1.00  0.00     0.167 HD
ATOM     65  C   UNL A   1      46.000  34.683  32.311  1.00  0.00     0.074 A 
ATOM     66  C   UNL A   1      46.609  34.910  31.017  1.00  0.00     0.031 C 
ATOM     67  C   UNL A   1      46.684  34.664  33.482  1.00  0.00     0.031 A 
BRANCH  54  68
ATOM     68  C   UNL A   1      43.122  33.686  38.433  1.00  0.00    -0.014 A 
ATOM     69  C   UNL A   1      43.225  32.440  39.073  1.00  0.00     0.009 A 
ATOM     70  C   UNL A   1      42.944  34.837  39.216  1.00  0.00     0.009 A 
ATOM     71  C   UNL A   1      43.116  32.347  40.462  1.00  0.00     0.001 A 
ATOM     72  C   UNL A   1      42.868  34.745  40.607  1.00  0.00     0.001 A 
ATOM     73  C   UNL A   1      42.942  33.500  41.227  1.00  0.00     0.000 A 
ENDBRANCH  54  68
BRANCH  55  74
ATOM     74  C   UNL A   1      43.250  34.599  28.499  1.00  0.00    -0.014 A 
ATOM     75  C   UNL A   1      43.779  33.589  27.682  1.00  0.00     0.009 A 
ATOM     76  C   UNL A   1      42.785  35.781  27.900  1.00  0.00     0.009 A 
ATOM     77  C   UNL A   1      43.873  33.772  26.300  1.00  0.00     0.001 A 
ATOM     78  C   UNL A   1      42.851  35.948  26.515  1.00  0.00     0.001 A 
ATOM     79  C   UNL A   1      43.405  34.949  25.717  1.00  0.00     0.000 A 
ENDBRANCH  55  74
BRANCH  67  80
ATOM     80  C   UNL A   1      48.177  34.833  33.416  1.00  0.00    -0.014 A 
ATOM     81  C   UNL A   1      48.785  36.094  33.515  1.00  0.00     0.009 A 
ATOM     82  C   UNL A   1      48.993  33.696  33.296  1.00  0.00     0.009 A 
ATOM     83  C   UNL A   1      50.175  36.214  33.456  1.00  0.00     0.001 A 
ATOM     84  C   UNL A   1      50.383  33.816  33.271  1.00  0.00     0.001 A 
ATOM     85  C   UNL A   1      50.973  35.076  33.340  1.00  0.00     0.000 A 
ENDBRANCH  67  80
ENDBRANCH  41  42
ENDBRANCH  34  36
ENDBRANCH  33  34
ENDBRANCH  32  33
ENDBRANCH  31  32
ENDBRANCH  30  31
ENDBRANCH  29  30
ENDBRANCH   1  29
TORSDOF 21
ENDMDL
MODEL 3
REMARK VINA RESULT:      -8.6      5.357      9.918
REMARK SMILES CCc1cc(OC(F)(F)F)cc2c1O[C@@H](C(F)(F)F)C(C(=O)OCCOCCOCCOC(=O)c1ccc(-c3c4nc(c(-c5ccccc5)c5ccc([nH]5)c(-c5ccccc5)c5nc(c(-c6ccccc6)c6ccc3[nH]6)C=C5)C=C4)cc1)=C2
REMARK SMILES IDX 27 1 26 2 25 3 24 4 23 5 21 6 22 7 20 8 3 9 4 10 13 11 5 12
REMARK SMILES IDX 12 13 14 14 11 15 83 16 15 17 2 18 1 19 6 20 7 21 8 22 9 23
REMARK SMILES IDX 10 24 16 25 17 26 18 27 19 28 28 29 29 30 30 31 31 32 32 33
REMARK SMILES IDX 33 34 34 35 35 36 36 37 82 38 37 39 81 40 38 41 39 42 40 43
REMARK SMILES IDX 75 44 41 45 80 46 74 47 76 48 42 49 79 50 73 51 72 52 43 54
REMARK SMILES IDX 65 55 50 56 64 57 51 58 54 59 63 60 77 61 52 62 53 63 62 65
REMARK SMILES IDX 78 66 55 67 44 68 45 69 49 70 46 71 48 72 47 73 66 74 67 75
REMARK SMILES IDX 71 76 68 77 70 78 69 79 56 80 57 81 61 82 58 83 60 84 59 85
REMARK H PARENT 76 53 54 64
REMARK Flexibility Score: inf
ROOT
ATOM      1  C   UNL A   1      35.613  34.259  31.666  1.00  0.00     0.188 C 
ENDROOT
BRANCH   1   2
ATOM      2  O   UNL A   1      36.123  32.953  31.588  1.00  0.00    -0.376 OA
BRANCH   2   3
ATOM      3  C   UNL A   1      37.170  32.539  32.448  1.00  0.00     0.202 C 
BRANCH   3   4
ATOM      4  C   UNL A   1      37.046  32.335  33.972  1.00  0.00     0.261 C 
BRANCH   4   5
ATOM      5  O   UNL A   1      38.031  32.943  34.813  1.00  0.00    -0.460 OA
BRANCH   5   6
ATOM      6  C   UNL A   1      38.070  32.521  36.101  1.00  0.00     0.338 C 
ATOM      7  O   UNL A   1      37.128  32.450  36.865  1.00  0.00    -0.246 OA
BRANCH   6   8
ATOM      8  C   UNL A   1      39.417  32.010  36.423  1.00  0.00     0.087 C 
ATOM      9  C   UNL A   1      43.484  31.121  36.841  1.00  0.00    -0.002 A 
ATOM     10  C   UNL A   1      43.951  29.861  36.433  1.00  0.00     0.054 A 
ATOM     11  C   UNL A   1      42.113  31.396  36.703  1.00  0.00     0.131 A 
ATOM     12  C   UNL A   1      43.080  28.910  35.889  1.00  0.00     0.130 A 
ATOM     13  C   UNL A   1      41.228  30.458  36.152  1.00  0.00     0.021 A 
ATOM     14  O   UNL A   1      41.693  32.653  37.060  1.00  0.00    -0.475 OA
ATOM     15  C   UNL A   1      41.716  29.208  35.768  1.00  0.00     0.058 A 
ATOM     16  C   UNL A   1      39.846  30.857  35.879  1.00  0.00     0.027 C 
ATOM     17  C   UNL A   1      40.289  32.768  37.397  1.00  0.00     0.316 C 
BRANCH   9  18
ATOM     18  C   UNL A   1      44.388  32.187  37.428  1.00  0.00     0.036 C 
ATOM     19  C   UNL A   1      44.939  31.944  38.826  1.00  0.00     0.009 C 
ENDBRANCH   9  18
BRANCH  12  20
ATOM     20  O   UNL A   1      43.434  27.668  35.437  1.00  0.00    -0.406 OA
BRANCH  20  21
ATOM     21  C   UNL A   1      42.943  27.269  34.167  1.00  0.00     0.573 C 
ATOM     22  F   UNL A   1      43.917  26.713  33.415  1.00  0.00    -0.132 F 
ATOM     23  F   UNL A   1      41.920  26.397  34.296  1.00  0.00    -0.132 F 
ATOM     24  F   UNL A   1      42.484  28.360  33.515  1.00  0.00    -0.132 F 
ENDBRANCH  20  21
ENDBRANCH  12  20
BRANCH  17  25
ATOM     25  C   UNL A   1      39.991  34.253  37.659  1.00  0.00     0.430 C 
ATOM     26  F   UNL A   1      41.008  34.853  38.322  1.00  0.00    -0.167 F 
ATOM     27  F   UNL A   1      39.882  34.920  36.477  1.00  0.00    -0.167 F 
ATOM     28  F   UNL A   1      38.846  34.457  38.338  1.00  0.00    -0.167 F 
ENDBRANCH  17  25
ENDBRANCH   6   8
ENDBRANCH   5   6
ENDBRANCH   4   5
ENDBRANCH   3   4
ENDBRANCH   2   3
ENDBRANCH   1   2
BRANCH   1  29
ATOM     29  C   UNL A   1      34.076  34.348  31.772  1.00  0.00     0.188 C 
BRANCH  29  30
ATOM     30  O   UNL A   1      33.315  34.885  30.704  1.00  0.00    -0.376 OA
BRANCH  30  31
ATOM     31  C   UNL A   1      33.864  34.903  29.393  1.00  0.00     0.202 C 
BRANCH  31  32
ATOM     32  C   UNL A   1      33.803  33.665  28.478  1.00  0.00     0.261 C 
BRANCH  32  33
ATOM     33  O   UNL A   1      34.786  32.645  28.720  1.00  0.00    -0.460 OA
BRANCH  33  34
ATOM     34  C   UNL A   1      34.506  31.436  28.175  1.00  0.00     0.338 C 
ATOM     35  O   UNL A   1      33.519  31.123  27.533  1.00  0.00    -0.246 OA
BRANCH  34  36
ATOM     36  C   UNL A   1      35.670  30.540  28.310  1.00  0.00     0.060 A 
ATOM     37  C   UNL A   1      35.939  29.990  29.571  1.00  0.00     0.016 A 
ATOM     38  C   UNL A   1      36.546  30.331  27.244  1.00  0.00     0.016 A 
ATOM     39  C   UNL A   1      37.113  29.272  29.787  1.00  0.00     0.010 A 
ATOM     40  C   UNL A   1      37.737  29.632  27.469  1.00  0.00     0.010 A 
ATOM     41  C   UNL A   1      38.047  29.145  28.751  1.00  0.00    -0.014 A 
BRANCH  41  42
ATOM     42  C   UNL A   1      39.432  28.727  29.078  1.00  0.00     0.031 A 
ATOM     43  C   UNL A   1      40.302  29.685  29.850  1.00  0.00     0.074 A 
ATOM     44  C   UNL A   1      39.902  27.514  28.742  1.00  0.00     0.049 A 
ATOM     45  N   UNL A   1      41.548  29.558  30.230  1.00  0.00    -0.248 NA
ATOM     46  C   UNL A   1      39.679  30.960  30.247  1.00  0.00     0.031 C 
ATOM     47  C   UNL A   1      39.146  26.471  28.052  1.00  0.00     0.029 A 
ATOM     48  N   UNL A   1      41.141  26.958  28.943  1.00  0.00    -0.354 N 
ATOM     49  C   UNL A   1      41.858  30.737  30.896  1.00  0.00     0.074 A 
ATOM     50  C   UNL A   1      40.684  31.579  30.844  1.00  0.00     0.031 C 
ATOM     51  C   UNL A   1      39.943  25.401  27.877  1.00  0.00     0.029 A 
ATOM     52  C   UNL A   1      41.270  25.697  28.414  1.00  0.00     0.049 A 
ATOM     53  H   UNL A   1      41.868  27.420  29.422  1.00  0.00     0.167 HD
ATOM     54  C   UNL A   1      43.017  31.089  31.505  1.00  0.00     0.031 A 
ATOM     55  C   UNL A   1      42.344  24.886  28.356  1.00  0.00     0.031 A 
ATOM     56  C   UNL A   1      44.190  30.261  31.547  1.00  0.00     0.049 A 
ATOM     57  C   UNL A   1      43.648  25.333  28.967  1.00  0.00     0.074 A 
ATOM     58  C   UNL A   1      45.412  30.526  32.143  1.00  0.00     0.029 A 
ATOM     59  N   UNL A   1      44.292  29.009  30.964  1.00  0.00    -0.354 N 
ATOM     60  N   UNL A   1      43.926  26.443  29.608  1.00  0.00    -0.248 NA
ATOM     61  C   UNL A   1      44.784  24.406  28.853  1.00  0.00     0.031 C 
ATOM     62  C   UNL A   1      46.271  29.458  31.870  1.00  0.00     0.029 A 
ATOM     63  C   UNL A   1      45.564  28.497  31.165  1.00  0.00     0.049 A 
ATOM     64  H   UNL A   1      43.569  28.550  30.478  1.00  0.00     0.167 HD
ATOM     65  C   UNL A   1      45.252  26.327  30.011  1.00  0.00     0.074 A 
ATOM     66  C   UNL A   1      45.720  25.038  29.548  1.00  0.00     0.031 C 
ATOM     67  C   UNL A   1      46.013  27.208  30.708  1.00  0.00     0.031 A 
BRANCH  54  68
ATOM     68  C   UNL A   1      43.076  32.451  32.139  1.00  0.00    -0.014 A 
ATOM     69  C   UNL A   1      43.532  33.572  31.427  1.00  0.00     0.009 A 
ATOM     70  C   UNL A   1      42.651  32.618  33.466  1.00  0.00     0.009 A 
ATOM     71  C   UNL A   1      43.593  34.824  32.043  1.00  0.00     0.001 A 
ATOM     72  C   UNL A   1      42.682  33.876  34.069  1.00  0.00     0.001 A 
ATOM     73  C   UNL A   1      43.164  34.975  33.361  1.00  0.00     0.000 A 
ENDBRANCH  54  68
BRANCH  55  74
ATOM     74  C   UNL A   1      42.248  23.565  27.679  1.00  0.00    -0.014 A 
ATOM     75  C   UNL A   1      41.852  22.422  28.389  1.00  0.00     0.009 A 
ATOM     76  C   UNL A   1      42.586  23.436  26.322  1.00  0.00     0.009 A 
ATOM     77  C   UNL A   1      41.827  21.172  27.764  1.00  0.00     0.001 A 
ATOM     78  C   UNL A   1      42.530  22.191  25.691  1.00  0.00     0.001 A 
ATOM     79  C   UNL A   1      42.162  21.059  26.416  1.00  0.00     0.000 A 
ENDBRANCH  55  74
BRANCH  67  80
ATOM     80  C   UNL A   1      47.411  26.784  31.069  1.00  0.00    -0.014 A 
ATOM     81  C   UNL A   1      47.699  26.135  32.279  1.00  0.00     0.009 A 
ATOM     82  C   UNL A   1      48.453  27.004  30.153  1.00  0.00     0.009 A 
ATOM     83  C   UNL A   1      49.007  25.750  32.580  1.00  0.00     0.001 A 
ATOM     84  C   UNL A   1      49.754  26.588  30.442  1.00  0.00     0.001 A 
ATOM     85  C   UNL A   1      50.032  25.971  31.660  1.00  0.00     0.000 A 
ENDBRANCH  67  80
ENDBRANCH  41  42
ENDBRANCH  34  36
ENDBRANCH  33  34
ENDBRANCH  32  33
ENDBRANCH  31  32
ENDBRANCH  30  31
ENDBRANCH  29  30
ENDBRANCH   1  29
TORSDOF 21
ENDMDL
