MODEL 1
REMARK VINA RESULT:      -9.2      0.000      0.000
REMARK SMILES CCN(CC(C)(C)O)C(=O)[C@H]1CC=CC[C@H]1C(=O)OCCOCCOCCOC(=O)c1ccc(-c2c3nc(c(-c4ccccc4)c4ccc([nH]4)c(-c4ccccc4)c4nc(c(-c5ccccc5)c5ccc2[nH]5)C=C4)C=C3)cc1
REMARK SMILES IDX 22 1 21 2 20 3 19 4 17 5 18 6 16 7 11 8 12 9 13 10 15 11
REMARK SMILES IDX 14 12 9 13 10 14 3 15 2 16 1 17 4 18 5 19 6 20 7 21 8 22
REMARK SMILES IDX 23 24 24 25 25 26 26 27 27 28 28 29 29 30 30 31 31 32 32 33
REMARK SMILES IDX 78 34 33 35 77 36 34 37 35 38 36 39 71 40 37 41 76 42 70 43
REMARK SMILES IDX 72 44 38 45 75 46 69 47 68 48 39 50 61 51 46 52 60 53 47 54
REMARK SMILES IDX 50 55 59 56 73 57 48 58 49 59 58 61 74 62 51 63 40 64 41 65
REMARK SMILES IDX 45 66 42 67 44 68 43 69 62 70 63 71 67 72 64 73 66 74 65 75
REMARK SMILES IDX 52 76 53 77 57 78 54 79 56 80 55 81
REMARK H PARENT 8 23 72 49 50 60
REMARK Flexibility Score: inf
ROOT
ATOM      1  O   UNL A   1      29.976  27.467  24.496  1.00  0.00    -0.376 OA
ENDROOT
BRANCH   1   2
ATOM      2  C   UNL A   1      30.026  26.032  24.464  1.00  0.00     0.202 C 
BRANCH   2   3
ATOM      3  C   UNL A   1      30.027  25.148  25.731  1.00  0.00     0.261 C 
BRANCH   3   4
ATOM      4  O   UNL A   1      31.322  24.743  26.199  1.00  0.00    -0.463 OA
BRANCH   4   5
ATOM      5  C   UNL A   1      31.418  23.448  26.549  1.00  0.00     0.310 C 
ATOM      6  O   UNL A   1      31.132  23.012  27.658  1.00  0.00    -0.252 OA
BRANCH   5   7
ATOM      7  C   UNL A   1      31.894  22.565  25.430  1.00  0.00     0.115 C 
ATOM      8  C   UNL A   1      32.487  23.215  24.164  1.00  0.00     0.097 C 
ATOM      9  C   UNL A   1      32.070  22.189  23.032  1.00  0.00     0.041 C 
ATOM     10  C   UNL A   1      32.370  20.743  23.405  1.00  0.00    -0.030 C 
ATOM     11  C   UNL A   1      32.638  21.299  25.835  1.00  0.00     0.043 C 
ATOM     12  C   UNL A   1      32.672  20.353  24.658  1.00  0.00    -0.030 C 
BRANCH   8  13
ATOM     13  C   UNL A   1      34.041  23.425  24.000  1.00  0.00     0.226 C 
ATOM     14  O   UNL A   1      34.517  23.215  22.872  1.00  0.00    -0.275 OA
BRANCH  13  15
ATOM     15  N   UNL A   1      34.922  23.928  24.961  1.00  0.00    -0.340 N 
BRANCH  15  16
ATOM     16  C   UNL A   1      34.720  25.336  25.336  1.00  0.00     0.116 C 
ATOM     17  C   UNL A   1      33.966  26.137  24.295  1.00  0.00     0.027 C 
ENDBRANCH  15  16
BRANCH  15  18
ATOM     18  C   UNL A   1      35.888  23.249  25.841  1.00  0.00     0.154 C 
BRANCH  18  19
ATOM     19  C   UNL A   1      37.096  22.601  25.103  1.00  0.00     0.077 C 
ATOM     20  C   UNL A   1      38.323  22.902  25.965  1.00  0.00     0.043 C 
ATOM     21  C   UNL A   1      36.735  21.150  24.745  1.00  0.00     0.043 C 
BRANCH  19  22
ATOM     22  O   UNL A   1      37.368  23.182  23.822  1.00  0.00    -0.389 OA
ATOM     23  H   UNL A   1      37.944  23.954  23.932  1.00  0.00     0.211 HD
ENDBRANCH  19  22
ENDBRANCH  18  19
ENDBRANCH  15  18
ENDBRANCH  13  15
ENDBRANCH   8  13
ENDBRANCH   5   7
ENDBRANCH   4   5
ENDBRANCH   3   4
ENDBRANCH   2   3
ENDBRANCH   1   2
BRANCH   1  24
ATOM     24  C   UNL A   1      31.183  28.226  24.403  1.00  0.00     0.188 C 
BRANCH  24  25
ATOM     25  C   UNL A   1      31.073  29.803  24.485  1.00  0.00     0.188 C 
BRANCH  25  26
ATOM     26  O   UNL A   1      31.503  30.433  25.700  1.00  0.00    -0.376 OA
BRANCH  26  27
ATOM     27  C   UNL A   1      32.834  30.172  26.193  1.00  0.00     0.202 C 
BRANCH  27  28
ATOM     28  C   UNL A   1      33.143  30.789  27.551  1.00  0.00     0.261 C 
BRANCH  28  29
ATOM     29  O   UNL A   1      34.370  31.502  27.502  1.00  0.00    -0.460 OA
BRANCH  29  30
ATOM     30  C   UNL A   1      34.944  31.693  28.712  1.00  0.00     0.338 C 
ATOM     31  O   UNL A   1      34.492  32.306  29.670  1.00  0.00    -0.246 OA
BRANCH  30  32
ATOM     32  C   UNL A   1      36.046  30.730  28.777  1.00  0.00     0.060 A 
ATOM     33  C   UNL A   1      36.288  30.060  29.987  1.00  0.00     0.016 A 
ATOM     34  C   UNL A   1      36.767  30.431  27.619  1.00  0.00     0.016 A 
ATOM     35  C   UNL A   1      37.319  29.133  30.060  1.00  0.00     0.010 A 
ATOM     36  C   UNL A   1      37.821  29.541  27.699  1.00  0.00     0.010 A 
ATOM     37  C   UNL A   1      38.141  28.965  28.940  1.00  0.00    -0.014 A 
BRANCH  37  38
ATOM     38  C   UNL A   1      39.557  28.627  29.144  1.00  0.00     0.031 A 
ATOM     39  C   UNL A   1      40.441  29.759  29.591  1.00  0.00     0.074 A 
ATOM     40  C   UNL A   1      40.045  27.417  28.855  1.00  0.00     0.049 A 
ATOM     41  N   UNL A   1      41.741  29.847  29.599  1.00  0.00    -0.248 NA
ATOM     42  C   UNL A   1      39.753  30.974  30.069  1.00  0.00     0.031 C 
ATOM     43  C   UNL A   1      39.258  26.243  28.489  1.00  0.00     0.029 A 
ATOM     44  N   UNL A   1      41.345  26.998  28.796  1.00  0.00    -0.354 N 
ATOM     45  C   UNL A   1      42.018  31.133  30.047  1.00  0.00     0.074 A 
ATOM     46  C   UNL A   1      40.761  31.796  30.286  1.00  0.00     0.031 C 
ATOM     47  C   UNL A   1      40.103  25.234  28.212  1.00  0.00     0.029 A 
ATOM     48  C   UNL A   1      41.477  25.720  28.319  1.00  0.00     0.049 A 
ATOM     49  H   UNL A   1      42.109  27.557  29.069  1.00  0.00     0.167 HD
ATOM     50  C   UNL A   1      43.222  31.718  30.226  1.00  0.00     0.031 A 
ATOM     51  C   UNL A   1      42.589  25.054  27.961  1.00  0.00     0.031 A 
ATOM     52  C   UNL A   1      44.459  31.054  29.940  1.00  0.00     0.049 A 
ATOM     53  C   UNL A   1      43.922  25.750  28.077  1.00  0.00     0.074 A 
ATOM     54  C   UNL A   1      45.746  31.535  30.069  1.00  0.00     0.029 A 
ATOM     55  N   UNL A   1      44.551  29.760  29.450  1.00  0.00    -0.354 N 
ATOM     56  N   UNL A   1      44.189  26.967  28.489  1.00  0.00    -0.248 NA
ATOM     57  C   UNL A   1      45.107  24.979  27.675  1.00  0.00     0.031 C 
ATOM     58  C   UNL A   1      46.617  30.552  29.591  1.00  0.00     0.029 A 
ATOM     59  C   UNL A   1      45.877  29.431  29.247  1.00  0.00     0.049 A 
ATOM     60  H   UNL A   1      43.787  29.164  29.274  1.00  0.00     0.167 HD
ATOM     61  C   UNL A   1      45.573  27.096  28.436  1.00  0.00     0.074 A 
ATOM     62  C   UNL A   1      46.086  25.832  27.947  1.00  0.00     0.031 C 
ATOM     63  C   UNL A   1      46.351  28.156  28.769  1.00  0.00     0.031 A 
BRANCH  50  64
ATOM     64  C   UNL A   1      43.224  33.154  30.666  1.00  0.00    -0.014 A 
ATOM     65  C   UNL A   1      43.236  34.212  29.740  1.00  0.00     0.009 A 
ATOM     66  C   UNL A   1      43.262  33.453  32.036  1.00  0.00     0.009 A 
ATOM     67  C   UNL A   1      43.340  35.533  30.178  1.00  0.00     0.001 A 
ATOM     68  C   UNL A   1      43.326  34.777  32.472  1.00  0.00     0.001 A 
ATOM     69  C   UNL A   1      43.381  35.815  31.544  1.00  0.00     0.000 A 
ENDBRANCH  50  64
BRANCH  51  70
ATOM     70  C   UNL A   1      42.479  23.674  27.427  1.00  0.00    -0.014 A 
ATOM     71  C   UNL A   1      42.246  22.591  28.289  1.00  0.00     0.009 A 
ATOM     72  C   UNL A   1      42.580  23.431  26.048  1.00  0.00     0.009 A 
ATOM     73  C   UNL A   1      42.133  21.295  27.781  1.00  0.00     0.001 A 
ATOM     74  C   UNL A   1      42.437  22.139  25.541  1.00  0.00     0.001 A 
ATOM     75  C   UNL A   1      42.221  21.071  26.409  1.00  0.00     0.000 A 
ENDBRANCH  51  70
BRANCH  63  76
ATOM     76  C   UNL A   1      47.842  27.979  28.691  1.00  0.00    -0.014 A 
ATOM     77  C   UNL A   1      48.588  27.504  29.778  1.00  0.00     0.009 A 
ATOM     78  C   UNL A   1      48.488  28.201  27.463  1.00  0.00     0.009 A 
ATOM     79  C   UNL A   1      49.959  27.276  29.642  1.00  0.00     0.001 A 
ATOM     80  C   UNL A   1      49.850  27.940  27.320  1.00  0.00     0.001 A 
ATOM     81  C   UNL A   1      50.585  27.485  28.412  1.00  0.00     0.000 A 
ENDBRANCH  63  76
ENDBRANCH  37  38
ENDBRANCH  30  32
ENDBRANCH  29  30
ENDBRANCH  28  29
ENDBRANCH  27  28
ENDBRANCH  26  27
ENDBRANCH  25  26
ENDBRANCH  24  25
ENDBRANCH   1  24
TORSDOF 23
ENDMDL
MODEL 2
REMARK VINA RESULT:      -8.4      3.413      6.542
REMARK SMILES CCN(CC(C)(C)O)C(=O)[C@H]1CC=CC[C@H]1C(=O)OCCOCCOCCOC(=O)c1ccc(-c2c3nc(c(-c4ccccc4)c4ccc([nH]4)c(-c4ccccc4)c4nc(c(-c5ccccc5)c5ccc2[nH]5)C=C4)C=C3)cc1
REMARK SMILES IDX 22 1 21 2 20 3 19 4 17 5 18 6 16 7 11 8 12 9 13 10 15 11
REMARK SMILES IDX 14 12 9 13 10 14 3 15 2 16 1 17 4 18 5 19 6 20 7 21 8 22
REMARK SMILES IDX 23 24 24 25 25 26 26 27 27 28 28 29 29 30 30 31 31 32 32 33
REMARK SMILES IDX 78 34 33 35 77 36 34 37 35 38 36 39 71 40 37 41 76 42 70 43
REMARK SMILES IDX 72 44 38 45 75 46 69 47 68 48 39 50 61 51 46 52 60 53 47 54
REMARK SMILES IDX 50 55 59 56 73 57 48 58 49 59 58 61 74 62 51 63 40 64 41 65
REMARK SMILES IDX 45 66 42 67 44 68 43 69 62 70 63 71 67 72 64 73 66 74 65 75
REMARK SMILES IDX 52 76 53 77 57 78 54 79 56 80 55 81
REMARK H PARENT 8 23 72 49 50 60
REMARK Flexibility Score: inf
ROOT
ATOM      1  O   UNL A   1      29.405  27.230  23.929  1.00  0.00    -0.376 OA
ENDROOT
BRANCH   1   2
ATOM      2  C   UNL A   1      29.098  25.977  24.561  1.00  0.00     0.202 C 
BRANCH   2   3
ATOM      3  C   UNL A   1      29.763  25.494  25.870  1.00  0.00     0.261 C 
BRANCH   3   4
ATOM      4  O   UNL A   1      30.851  24.573  25.705  1.00  0.00    -0.463 OA
BRANCH   4   5
ATOM      5  C   UNL A   1      30.806  23.495  26.508  1.00  0.00     0.310 C 
ATOM      6  O   UNL A   1      30.014  23.358  27.432  1.00  0.00    -0.252 OA
BRANCH   5   7
ATOM      7  C   UNL A   1      31.818  22.444  26.147  1.00  0.00     0.115 C 
ATOM      8  C   UNL A   1      32.221  22.269  24.669  1.00  0.00     0.097 C 
ATOM      9  C   UNL A   1      32.532  20.719  24.585  1.00  0.00     0.041 C 
ATOM     10  C   UNL A   1      33.424  20.233  25.721  1.00  0.00    -0.030 C 
ATOM     11  C   UNL A   1      33.002  22.289  27.092  1.00  0.00     0.043 C 
ATOM     12  C   UNL A   1      33.672  20.961  26.826  1.00  0.00    -0.030 C 
BRANCH   8  13
ATOM     13  C   UNL A   1      33.489  22.993  24.072  1.00  0.00     0.226 C 
ATOM     14  O   UNL A   1      34.324  22.275  23.498  1.00  0.00    -0.275 OA
BRANCH  13  15
ATOM     15  N   UNL A   1      33.719  24.371  24.024  1.00  0.00    -0.340 N 
BRANCH  15  16
ATOM     16  C   UNL A   1      34.321  24.959  25.231  1.00  0.00     0.116 C 
ATOM     17  C   UNL A   1      35.663  24.357  25.592  1.00  0.00     0.027 C 
ENDBRANCH  15  16
BRANCH  15  18
ATOM     18  C   UNL A   1      33.675  25.322  22.902  1.00  0.00     0.154 C 
BRANCH  18  19
ATOM     19  C   UNL A   1      32.741  24.902  21.729  1.00  0.00     0.077 C 
ATOM     20  C   UNL A   1      31.383  24.601  22.363  1.00  0.00     0.043 C 
ATOM     21  C   UNL A   1      32.860  25.945  20.605  1.00  0.00     0.043 C 
BRANCH  19  22
ATOM     22  O   UNL A   1      33.144  23.691  21.077  1.00  0.00    -0.389 OA
ATOM     23  H   UNL A   1      33.848  23.886  20.439  1.00  0.00     0.211 HD
ENDBRANCH  19  22
ENDBRANCH  18  19
ENDBRANCH  15  18
ENDBRANCH  13  15
ENDBRANCH   8  13
ENDBRANCH   5   7
ENDBRANCH   4   5
ENDBRANCH   3   4
ENDBRANCH   2   3
ENDBRANCH   1   2
BRANCH   1  24
ATOM     24  C   UNL A   1      30.721  27.777  24.032  1.00  0.00     0.188 C 
BRANCH  24  25
ATOM     25  C   UNL A   1      30.896  29.332  23.792  1.00  0.00     0.188 C 
BRANCH  25  26
ATOM     26  O   UNL A   1      31.024  30.168  24.951  1.00  0.00    -0.376 OA
BRANCH  26  27
ATOM     27  C   UNL A   1      31.993  29.822  25.963  1.00  0.00     0.202 C 
BRANCH  27  28
ATOM     28  C   UNL A   1      32.273  30.922  26.980  1.00  0.00     0.261 C 
BRANCH  28  29
ATOM     29  O   UNL A   1      33.628  31.339  26.895  1.00  0.00    -0.460 OA
BRANCH  29  30
ATOM     30  C   UNL A   1      34.056  32.039  27.970  1.00  0.00     0.338 C 
ATOM     31  O   UNL A   1      33.384  32.692  28.758  1.00  0.00    -0.246 OA
BRANCH  30  32
ATOM     32  C   UNL A   1      35.424  31.578  28.217  1.00  0.00     0.060 A 
ATOM     33  C   UNL A   1      35.670  30.198  28.293  1.00  0.00     0.016 A 
ATOM     34  C   UNL A   1      36.463  32.510  28.278  1.00  0.00     0.016 A 
ATOM     35  C   UNL A   1      36.965  29.746  28.511  1.00  0.00     0.010 A 
ATOM     36  C   UNL A   1      37.745  32.066  28.537  1.00  0.00     0.010 A 
ATOM     37  C   UNL A   1      37.969  30.693  28.737  1.00  0.00    -0.014 A 
BRANCH  37  38
ATOM     38  C   UNL A   1      39.079  30.349  29.638  1.00  0.00     0.031 A 
ATOM     39  C   UNL A   1      40.110  29.410  29.077  1.00  0.00     0.074 A 
ATOM     40  C   UNL A   1      39.115  30.768  30.908  1.00  0.00     0.049 A 
ATOM     41  N   UNL A   1      41.035  28.725  29.690  1.00  0.00    -0.248 NA
ATOM     42  C   UNL A   1      40.067  29.191  27.617  1.00  0.00     0.031 C 
ATOM     43  C   UNL A   1      38.206  31.734  31.515  1.00  0.00     0.029 A 
ATOM     44  N   UNL A   1      39.950  30.388  31.921  1.00  0.00    -0.354 N 
ATOM     45  C   UNL A   1      41.653  27.975  28.697  1.00  0.00     0.074 A 
ATOM     46  C   UNL A   1      40.996  28.270  27.449  1.00  0.00     0.031 C 
ATOM     47  C   UNL A   1      38.518  31.851  32.819  1.00  0.00     0.029 A 
ATOM     48  C   UNL A   1      39.599  30.918  33.134  1.00  0.00     0.049 A 
ATOM     49  H   UNL A   1      40.726  29.794  31.792  1.00  0.00     0.167 HD
ATOM     50  C   UNL A   1      42.673  27.099  28.820  1.00  0.00     0.031 A 
ATOM     51  C   UNL A   1      40.069  30.629  34.360  1.00  0.00     0.031 A 
ATOM     52  C   UNL A   1      43.282  26.788  30.079  1.00  0.00     0.049 A 
ATOM     53  C   UNL A   1      41.143  29.580  34.498  1.00  0.00     0.074 A 
ATOM     54  C   UNL A   1      44.316  25.913  30.344  1.00  0.00     0.029 A 
ATOM     55  N   UNL A   1      42.892  27.342  31.290  1.00  0.00    -0.354 N 
ATOM     56  N   UNL A   1      41.724  28.861  33.566  1.00  0.00    -0.248 NA
ATOM     57  C   UNL A   1      41.626  29.302  35.857  1.00  0.00     0.031 C 
ATOM     58  C   UNL A   1      44.507  25.887  31.729  1.00  0.00     0.029 A 
ATOM     59  C   UNL A   1      43.650  26.808  32.313  1.00  0.00     0.049 A 
ATOM     60  H   UNL A   1      42.182  28.014  31.403  1.00  0.00     0.167 HD
ATOM     61  C   UNL A   1      42.667  28.075  34.218  1.00  0.00     0.074 A 
ATOM     62  C   UNL A   1      42.576  28.405  35.627  1.00  0.00     0.031 C 
ATOM     63  C   UNL A   1      43.538  27.171  33.704  1.00  0.00     0.031 A 
BRANCH  50  64
ATOM     64  C   UNL A   1      43.105  26.376  27.577  1.00  0.00    -0.014 A 
ATOM     65  C   UNL A   1      42.538  25.147  27.200  1.00  0.00     0.009 A 
ATOM     66  C   UNL A   1      44.136  26.915  26.792  1.00  0.00     0.009 A 
ATOM     67  C   UNL A   1      43.031  24.450  26.095  1.00  0.00     0.001 A 
ATOM     68  C   UNL A   1      44.600  26.235  25.666  1.00  0.00     0.001 A 
ATOM     69  C   UNL A   1      44.059  24.997  25.327  1.00  0.00     0.000 A 
ENDBRANCH  50  64
BRANCH  51  70
ATOM     70  C   UNL A   1      39.498  31.314  35.547  1.00  0.00    -0.014 A 
ATOM     71  C   UNL A   1      38.356  30.807  36.184  1.00  0.00     0.009 A 
ATOM     72  C   UNL A   1      40.107  32.468  36.067  1.00  0.00     0.009 A 
ATOM     73  C   UNL A   1      37.829  31.449  37.306  1.00  0.00     0.001 A 
ATOM     74  C   UNL A   1      39.595  33.091  37.206  1.00  0.00     0.001 A 
ATOM     75  C   UNL A   1      38.452  32.585  37.821  1.00  0.00     0.000 A 
ENDBRANCH  51  70
BRANCH  63  76
ATOM     76  C   UNL A   1      44.513  26.525  34.649  1.00  0.00    -0.014 A 
ATOM     77  C   UNL A   1      44.167  25.403  35.414  1.00  0.00     0.009 A 
ATOM     78  C   UNL A   1      45.836  26.999  34.689  1.00  0.00     0.009 A 
ATOM     79  C   UNL A   1      45.123  24.782  36.220  1.00  0.00     0.001 A 
ATOM     80  C   UNL A   1      46.796  26.357  35.468  1.00  0.00     0.001 A 
ATOM     81  C   UNL A   1      46.437  25.253  36.238  1.00  0.00     0.000 A 
ENDBRANCH  63  76
ENDBRANCH  37  38
ENDBRANCH  30  32
ENDBRANCH  29  30
ENDBRANCH  28  29
ENDBRANCH  27  28
ENDBRANCH  26  27
ENDBRANCH  25  26
ENDBRANCH  24  25
ENDBRANCH   1  24
TORSDOF 23
ENDMDL
MODEL 3
REMARK VINA RESULT:      -8.3      2.211      3.701
REMARK SMILES CCN(CC(C)(C)O)C(=O)[C@H]1CC=CC[C@H]1C(=O)OCCOCCOCCOC(=O)c1ccc(-c2c3nc(c(-c4ccccc4)c4ccc([nH]4)c(-c4ccccc4)c4nc(c(-c5ccccc5)c5ccc2[nH]5)C=C4)C=C3)cc1
REMARK SMILES IDX 22 1 21 2 20 3 19 4 17 5 18 6 16 7 11 8 12 9 13 10 15 11
REMARK SMILES IDX 14 12 9 13 10 14 3 15 2 16 1 17 4 18 5 19 6 20 7 21 8 22
REMARK SMILES IDX 23 24 24 25 25 26 26 27 27 28 28 29 29 30 30 31 31 32 32 33
REMARK SMILES IDX 78 34 33 35 77 36 34 37 35 38 36 39 71 40 37 41 76 42 70 43
REMARK SMILES IDX 72 44 38 45 75 46 69 47 68 48 39 50 61 51 46 52 60 53 47 54
REMARK SMILES IDX 50 55 59 56 73 57 48 58 49 59 58 61 74 62 51 63 40 64 41 65
REMARK SMILES IDX 45 66 42 67 44 68 43 69 62 70 63 71 67 72 64 73 66 74 65 75
REMARK SMILES IDX 52 76 53 77 57 78 54 79 56 80 55 81
REMARK H PARENT 8 23 72 49 50 60
REMARK Flexibility Score: inf
ROOT
ATOM      1  O   UNL A   1      33.063  31.347  27.107  1.00  0.00    -0.376 OA
ENDROOT
BRANCH   1   2
ATOM      2  C   UNL A   1      33.288  30.092  26.445  1.00  0.00     0.202 C 
BRANCH   2   3
ATOM      3  C   UNL A   1      33.651  28.786  27.188  1.00  0.00     0.261 C 
BRANCH   3   4
ATOM      4  O   UNL A   1      32.579  27.844  27.339  1.00  0.00    -0.463 OA
BRANCH   4   5
ATOM      5  C   UNL A   1      32.284  27.140  26.233  1.00  0.00     0.310 C 
ATOM      6  O   UNL A   1      31.533  27.532  25.348  1.00  0.00    -0.252 OA
BRANCH   5   7
ATOM      7  C   UNL A   1      32.991  25.815  26.166  1.00  0.00     0.115 C 
ATOM      8  C   UNL A   1      32.154  24.520  26.170  1.00  0.00     0.097 C 
ATOM      9  C   UNL A   1      33.111  23.503  26.914  1.00  0.00     0.041 C 
ATOM     10  C   UNL A   1      34.537  23.532  26.380  1.00  0.00    -0.030 C 
ATOM     11  C   UNL A   1      34.185  25.730  25.225  1.00  0.00     0.043 C 
ATOM     12  C   UNL A   1      35.004  24.511  25.581  1.00  0.00    -0.030 C 
BRANCH   8  13
ATOM     13  C   UNL A   1      31.735  23.809  24.826  1.00  0.00     0.226 C 
ATOM     14  O   UNL A   1      30.869  22.923  24.909  1.00  0.00    -0.275 OA
BRANCH  13  15
ATOM     15  N   UNL A   1      32.155  24.146  23.536  1.00  0.00    -0.340 N 
BRANCH  15  16
ATOM     16  C   UNL A   1      33.082  23.198  22.899  1.00  0.00     0.116 C 
ATOM     17  C   UNL A   1      32.392  21.998  22.285  1.00  0.00     0.027 C 
ENDBRANCH  15  16
BRANCH  15  18
ATOM     18  C   UNL A   1      31.672  25.171  22.596  1.00  0.00     0.154 C 
BRANCH  18  19
ATOM     19  C   UNL A   1      32.788  25.867  21.762  1.00  0.00     0.077 C 
ATOM     20  C   UNL A   1      32.463  25.567  20.298  1.00  0.00     0.043 C 
ATOM     21  C   UNL A   1      32.931  27.320  22.245  1.00  0.00     0.043 C 
BRANCH  19  22
ATOM     22  O   UNL A   1      34.097  25.330  21.989  1.00  0.00    -0.389 OA
ATOM     23  H   UNL A   1      34.418  25.617  22.857  1.00  0.00     0.211 HD
ENDBRANCH  19  22
ENDBRANCH  18  19
ENDBRANCH  15  18
ENDBRANCH  13  15
ENDBRANCH   8  13
ENDBRANCH   5   7
ENDBRANCH   4   5
ENDBRANCH   3   4
ENDBRANCH   2   3
ENDBRANCH   1   2
BRANCH   1  24
ATOM     24  C   UNL A   1      34.132  31.984  27.810  1.00  0.00     0.188 C 
BRANCH  24  25
ATOM     25  C   UNL A   1      34.183  33.566  27.800  1.00  0.00     0.188 C 
BRANCH  25  26
ATOM     26  O   UNL A   1      34.712  34.216  28.964  1.00  0.00    -0.376 OA
BRANCH  26  27
ATOM     27  C   UNL A   1      33.876  34.350  30.133  1.00  0.00     0.202 C 
BRANCH  27  28
ATOM     28  C   UNL A   1      34.603  34.171  31.461  1.00  0.00     0.261 C 
BRANCH  28  29
ATOM     29  O   UNL A   1      35.978  33.896  31.237  1.00  0.00    -0.460 OA
BRANCH  29  30
ATOM     30  C   UNL A   1      36.581  33.243  32.255  1.00  0.00     0.338 C 
ATOM     31  O   UNL A   1      36.325  33.314  33.450  1.00  0.00    -0.246 OA
BRANCH  30  32
ATOM     32  C   UNL A   1      37.358  32.172  31.627  1.00  0.00     0.060 A 
ATOM     33  C   UNL A   1      37.872  31.146  32.436  1.00  0.00     0.016 A 
ATOM     34  C   UNL A   1      37.490  32.143  30.237  1.00  0.00     0.016 A 
ATOM     35  C   UNL A   1      38.596  30.114  31.852  1.00  0.00     0.010 A 
ATOM     36  C   UNL A   1      38.246  31.142  29.658  1.00  0.00     0.010 A 
ATOM     37  C   UNL A   1      38.864  30.185  30.481  1.00  0.00    -0.014 A 
BRANCH  37  38
ATOM     38  C   UNL A   1      40.125  29.623  29.975  1.00  0.00     0.031 A 
ATOM     39  C   UNL A   1      41.260  30.597  29.822  1.00  0.00     0.074 A 
ATOM     40  C   UNL A   1      40.225  28.348  29.583  1.00  0.00     0.049 A 
ATOM     41  N   UNL A   1      42.382  30.473  29.170  1.00  0.00    -0.248 NA
ATOM     42  C   UNL A   1      41.087  31.909  30.477  1.00  0.00     0.031 C 
ATOM     43  C   UNL A   1      39.207  27.318  29.760  1.00  0.00     0.029 A 
ATOM     44  N   UNL A   1      41.242  27.725  28.915  1.00  0.00    -0.354 N 
ATOM     45  C   UNL A   1      43.023  31.698  29.309  1.00  0.00     0.074 A 
ATOM     46  C   UNL A   1      42.168  32.556  30.089  1.00  0.00     0.031 C 
ATOM     47  C   UNL A   1      39.644  26.184  29.183  1.00  0.00     0.029 A 
ATOM     48  C   UNL A   1      40.934  26.442  28.545  1.00  0.00     0.049 A 
ATOM     49  H   UNL A   1      42.107  28.153  28.721  1.00  0.00     0.167 HD
ATOM     50  C   UNL A   1      44.218  32.080  28.811  1.00  0.00     0.031 A 
ATOM     51  C   UNL A   1      41.605  25.604  27.735  1.00  0.00     0.031 A 
ATOM     52  C   UNL A   1      45.033  31.225  28.000  1.00  0.00     0.049 A 
ATOM     53  C   UNL A   1      42.893  26.074  27.108  1.00  0.00     0.074 A 
ATOM     54  C   UNL A   1      46.258  31.491  27.425  1.00  0.00     0.029 A 
ATOM     55  N   UNL A   1      44.682  29.931  27.640  1.00  0.00    -0.354 N 
ATOM     56  N   UNL A   1      43.499  27.233  27.228  1.00  0.00    -0.248 NA
ATOM     57  C   UNL A   1      43.589  25.121  26.233  1.00  0.00     0.031 C 
ATOM     58  C   UNL A   1      46.620  30.378  26.659  1.00  0.00     0.029 A 
ATOM     59  C   UNL A   1      45.660  29.391  26.828  1.00  0.00     0.049 A 
ATOM     60  H   UNL A   1      43.861  29.467  27.921  1.00  0.00     0.167 HD
ATOM     61  C   UNL A   1      44.665  27.136  26.477  1.00  0.00     0.074 A 
ATOM     62  C   UNL A   1      44.678  25.804  25.905  1.00  0.00     0.031 C 
ATOM     63  C   UNL A   1      45.644  28.056  26.286  1.00  0.00     0.031 A 
BRANCH  50  64
ATOM     64  C   UNL A   1      44.643  33.498  29.068  1.00  0.00    -0.014 A 
ATOM     65  C   UNL A   1      44.311  34.542  28.187  1.00  0.00     0.009 A 
ATOM     66  C   UNL A   1      45.431  33.786  30.192  1.00  0.00     0.009 A 
ATOM     67  C   UNL A   1      44.805  35.830  28.400  1.00  0.00     0.001 A 
ATOM     68  C   UNL A   1      45.891  35.082  30.423  1.00  0.00     0.001 A 
ATOM     69  C   UNL A   1      45.591  36.100  29.520  1.00  0.00     0.000 A 
ENDBRANCH  50  64
BRANCH  51  70
ATOM     70  C   UNL A   1      41.048  24.258  27.447  1.00  0.00    -0.014 A 
ATOM     71  C   UNL A   1      41.492  23.134  28.159  1.00  0.00     0.009 A 
ATOM     72  C   UNL A   1      40.051  24.092  26.472  1.00  0.00     0.009 A 
ATOM     73  C   UNL A   1      40.958  21.872  27.891  1.00  0.00     0.001 A 
ATOM     74  C   UNL A   1      39.498  22.834  26.228  1.00  0.00     0.001 A 
ATOM     75  C   UNL A   1      39.958  21.723  26.932  1.00  0.00     0.000 A 
ENDBRANCH  51  70
BRANCH  63  76
ATOM     76  C   UNL A   1      46.846  27.639  25.485  1.00  0.00    -0.014 A 
ATOM     77  C   UNL A   1      47.927  26.967  26.072  1.00  0.00     0.009 A 
ATOM     78  C   UNL A   1      46.840  27.842  24.095  1.00  0.00     0.009 A 
ATOM     79  C   UNL A   1      48.990  26.525  25.282  1.00  0.00     0.001 A 
ATOM     80  C   UNL A   1      47.886  27.369  23.304  1.00  0.00     0.001 A 
ATOM     81  C   UNL A   1      48.963  26.718  23.900  1.00  0.00     0.000 A 
ENDBRANCH  63  76
ENDBRANCH  37  38
ENDBRANCH  30  32
ENDBRANCH  29  30
ENDBRANCH  28  29
ENDBRANCH  27  28
ENDBRANCH  26  27
ENDBRANCH  25  26
ENDBRANCH  24  25
ENDBRANCH   1  24
TORSDOF 23
ENDMDL
