MODEL 1
REMARK VINA RESULT:     -10.2      0.000      0.000
REMARK SMILES C[C@H](Sc1ccccn1)C(=O)N[C@H](C(=O)OCCOCCOCCOC(=O)c1ccc(-c2c3nc(c(-c4ccccc4)c4ccc([nH]4)c(-c4ccccc4)c4nc(c(-c5ccccc5)c5ccc2[nH]5)C=C4)C=C3)cc1)c1ccc(F)cc1
REMARK SMILES IDX 20 1 19 2 18 3 17 4 16 5 14 6 15 7 13 8 12 9 10 10 11 11
REMARK SMILES IDX 2 13 1 14 3 15 4 16 5 17 9 18 6 19 8 20 7 21 76 22 77 23
REMARK SMILES IDX 82 24 78 25 81 26 79 27 80 28 21 29 22 30 23 31 24 32 25 33
REMARK SMILES IDX 26 34 27 35 28 36 29 37 75 38 30 39 74 40 31 41 32 42 33 43
REMARK SMILES IDX 68 44 34 45 73 46 67 47 69 48 35 49 72 50 66 51 65 52 36 54
REMARK SMILES IDX 58 55 43 56 57 57 44 58 47 59 56 60 70 61 45 62 46 63 55 65
REMARK SMILES IDX 71 66 48 67 37 68 38 69 42 70 39 71 41 72 40 73 59 74 60 75
REMARK SMILES IDX 64 76 61 77 63 78 62 79 49 80 50 81 54 82 51 83 53 84 52 85
REMARK H PARENT 12 12 69 53 47 64
REMARK Flexibility Score: inf
ROOT
ATOM      1  C   UNL A   1      33.948  32.011  27.908  1.00  0.00     0.188 C 
ENDROOT
BRANCH   1   2
ATOM      2  O   UNL A   1      33.771  30.626  27.622  1.00  0.00    -0.376 OA
BRANCH   2   3
ATOM      3  C   UNL A   1      32.908  30.235  26.568  1.00  0.00     0.202 C 
BRANCH   3   4
ATOM      4  C   UNL A   1      32.759  28.727  26.321  1.00  0.00     0.261 C 
BRANCH   4   5
ATOM      5  O   UNL A   1      31.717  28.320  25.405  1.00  0.00    -0.461 OA
BRANCH   5   6
ATOM      6  C   UNL A   1      32.167  27.984  24.155  1.00  0.00     0.333 C 
ATOM      7  O   UNL A   1      33.336  27.894  23.883  1.00  0.00    -0.249 OA
BRANCH   6   8
ATOM      8  C   UNL A   1      31.046  27.894  23.108  1.00  0.00     0.223 C 
BRANCH   8   9
ATOM      9  N   UNL A   1      30.723  26.450  22.959  1.00  0.00    -0.338 N 
ATOM     10  C   UNL A   1      30.977  25.289  23.612  1.00  0.00     0.234 C 
ATOM     11  O   UNL A   1      31.195  24.354  22.815  1.00  0.00    -0.274 OA
ATOM     12  H   UNL A   1      30.168  26.293  22.162  1.00  0.00     0.164 HD
BRANCH  10  13
ATOM     13  C   UNL A   1      30.846  24.900  25.093  1.00  0.00     0.139 C 
ATOM     14  C   UNL A   1      29.705  25.661  25.787  1.00  0.00     0.030 C 
BRANCH  13  15
ATOM     15  S   UNL A   1      32.336  24.806  26.126  1.00  0.00    -0.093 SA
BRANCH  15  16
ATOM     16  C   UNL A   1      33.515  23.876  25.165  1.00  0.00     0.097 A 
ATOM     17  C   UNL A   1      34.590  24.434  24.480  1.00  0.00     0.035 A 
ATOM     18  N   UNL A   1      33.353  22.533  25.270  1.00  0.00    -0.250 NA
ATOM     19  C   UNL A   1      35.603  23.596  24.016  1.00  0.00     0.004 A 
ATOM     20  C   UNL A   1      34.361  21.746  24.835  1.00  0.00     0.112 A 
ATOM     21  C   UNL A   1      35.504  22.227  24.223  1.00  0.00     0.020 A 
ENDBRANCH  15  16
ENDBRANCH  13  15
ENDBRANCH  10  13
ENDBRANCH   8   9
BRANCH   8  22
ATOM     22  C   UNL A   1      29.928  28.916  23.241  1.00  0.00    -0.014 A 
ATOM     23  C   UNL A   1      28.603  28.629  22.924  1.00  0.00     0.009 A 
ATOM     24  C   UNL A   1      30.193  30.236  23.654  1.00  0.00     0.009 A 
ATOM     25  C   UNL A   1      27.561  29.540  23.089  1.00  0.00     0.039 A 
ATOM     26  C   UNL A   1      29.162  31.178  23.796  1.00  0.00     0.039 A 
ATOM     27  C   UNL A   1      27.849  30.814  23.529  1.00  0.00     0.123 A 
ATOM     28  F   UNL A   1      26.856  31.689  23.719  1.00  0.00    -0.207 F 
ENDBRANCH   8  22
ENDBRANCH   6   8
ENDBRANCH   5   6
ENDBRANCH   4   5
ENDBRANCH   3   4
ENDBRANCH   2   3
ENDBRANCH   1   2
BRANCH   1  29
ATOM     29  C   UNL A   1      34.615  32.434  29.226  1.00  0.00     0.188 C 
BRANCH  29  30
ATOM     30  O   UNL A   1      34.965  33.803  29.379  1.00  0.00    -0.376 OA
BRANCH  30  31
ATOM     31  C   UNL A   1      34.321  34.732  28.513  1.00  0.00     0.202 C 
BRANCH  31  32
ATOM     32  C   UNL A   1      33.225  35.556  29.188  1.00  0.00     0.261 C 
BRANCH  32  33
ATOM     33  O   UNL A   1      32.783  34.939  30.416  1.00  0.00    -0.460 OA
BRANCH  33  34
ATOM     34  C   UNL A   1      32.875  35.718  31.516  1.00  0.00     0.338 C 
ATOM     35  O   UNL A   1      32.272  36.754  31.744  1.00  0.00    -0.246 OA
BRANCH  34  36
ATOM     36  C   UNL A   1      33.742  35.106  32.534  1.00  0.00     0.060 A 
ATOM     37  C   UNL A   1      34.901  35.792  32.894  1.00  0.00     0.016 A 
ATOM     38  C   UNL A   1      33.583  33.764  32.874  1.00  0.00     0.016 A 
ATOM     39  C   UNL A   1      35.976  35.099  33.441  1.00  0.00     0.010 A 
ATOM     40  C   UNL A   1      34.651  33.081  33.472  1.00  0.00     0.010 A 
ATOM     41  C   UNL A   1      35.891  33.720  33.665  1.00  0.00    -0.014 A 
BRANCH  41  42
ATOM     42  C   UNL A   1      37.138  32.925  33.867  1.00  0.00     0.031 A 
ATOM     43  C   UNL A   1      37.872  33.036  35.186  1.00  0.00     0.074 A 
ATOM     44  C   UNL A   1      37.573  32.031  32.958  1.00  0.00     0.049 A 
ATOM     45  N   UNL A   1      39.057  32.587  35.525  1.00  0.00    -0.248 NA
ATOM     46  C   UNL A   1      37.182  33.762  36.266  1.00  0.00     0.031 C 
ATOM     47  C   UNL A   1      36.909  31.702  31.697  1.00  0.00     0.029 A 
ATOM     48  N   UNL A   1      38.680  31.215  32.974  1.00  0.00    -0.354 N 
ATOM     49  C   UNL A   1      39.275  33.037  36.824  1.00  0.00     0.074 A 
ATOM     50  C   UNL A   1      38.109  33.799  37.210  1.00  0.00     0.031 C 
ATOM     51  C   UNL A   1      37.600  30.730  31.080  1.00  0.00     0.029 A 
ATOM     52  C   UNL A   1      38.802  30.433  31.852  1.00  0.00     0.049 A 
ATOM     53  H   UNL A   1      39.322  31.193  33.720  1.00  0.00     0.167 HD
ATOM     54  C   UNL A   1      40.350  32.837  37.625  1.00  0.00     0.031 A 
ATOM     55  C   UNL A   1      39.791  29.605  31.466  1.00  0.00     0.031 A 
ATOM     56  C   UNL A   1      41.485  32.027  37.269  1.00  0.00     0.049 A 
ATOM     57  C   UNL A   1      41.008  29.450  32.338  1.00  0.00     0.074 A 
ATOM     58  C   UNL A   1      42.636  31.781  37.998  1.00  0.00     0.029 A 
ATOM     59  N   UNL A   1      41.597  31.306  36.090  1.00  0.00    -0.354 N 
ATOM     60  N   UNL A   1      41.259  29.971  33.515  1.00  0.00    -0.248 NA
ATOM     61  C   UNL A   1      42.087  28.596  31.818  1.00  0.00     0.031 C 
ATOM     62  C   UNL A   1      43.464  30.946  37.240  1.00  0.00     0.029 A 
ATOM     63  C   UNL A   1      42.801  30.622  36.068  1.00  0.00     0.049 A 
ATOM     64  H   UNL A   1      40.920  31.283  35.376  1.00  0.00     0.167 HD
ATOM     65  C   UNL A   1      42.509  29.490  33.885  1.00  0.00     0.074 A 
ATOM     66  C   UNL A   1      42.954  28.616  32.820  1.00  0.00     0.031 C 
ATOM     67  C   UNL A   1      43.229  29.752  35.004  1.00  0.00     0.031 A 
BRANCH  54  68
ATOM     68  C   UNL A   1      40.376  33.561  38.945  1.00  0.00    -0.014 A 
ATOM     69  C   UNL A   1      39.871  32.987  40.122  1.00  0.00     0.009 A 
ATOM     70  C   UNL A   1      40.942  34.846  39.008  1.00  0.00     0.009 A 
ATOM     71  C   UNL A   1      39.893  33.702  41.323  1.00  0.00     0.001 A 
ATOM     72  C   UNL A   1      40.994  35.545  40.214  1.00  0.00     0.001 A 
ATOM     73  C   UNL A   1      40.458  34.977  41.369  1.00  0.00     0.000 A 
ENDBRANCH  54  68
BRANCH  55  74
ATOM     74  C   UNL A   1      39.713  28.904  30.154  1.00  0.00    -0.014 A 
ATOM     75  C   UNL A   1      39.320  27.558  30.077  1.00  0.00     0.009 A 
ATOM     76  C   UNL A   1      40.065  29.573  28.971  1.00  0.00     0.009 A 
ATOM     77  C   UNL A   1      39.310  26.892  28.848  1.00  0.00     0.001 A 
ATOM     78  C   UNL A   1      40.017  28.916  27.739  1.00  0.00     0.001 A 
ATOM     79  C   UNL A   1      39.652  27.573  27.681  1.00  0.00     0.000 A 
ENDBRANCH  55  74
BRANCH  67  80
ATOM     80  C   UNL A   1      44.544  29.037  35.155  1.00  0.00    -0.014 A 
ATOM     81  C   UNL A   1      44.633  27.781  35.775  1.00  0.00     0.009 A 
ATOM     82  C   UNL A   1      45.715  29.633  34.660  1.00  0.00     0.009 A 
ATOM     83  C   UNL A   1      45.873  27.162  35.942  1.00  0.00     0.001 A 
ATOM     84  C   UNL A   1      46.949  28.997  34.798  1.00  0.00     0.001 A 
ATOM     85  C   UNL A   1      47.029  27.768  35.453  1.00  0.00     0.000 A 
ENDBRANCH  67  80
ENDBRANCH  41  42
ENDBRANCH  34  36
ENDBRANCH  33  34
ENDBRANCH  32  33
ENDBRANCH  31  32
ENDBRANCH  30  31
ENDBRANCH  29  30
ENDBRANCH   1  29
TORSDOF 22
ENDMDL
MODEL 2
REMARK VINA RESULT:     -10.0      5.847     10.434
REMARK SMILES C[C@H](Sc1ccccn1)C(=O)N[C@H](C(=O)OCCOCCOCCOC(=O)c1ccc(-c2c3nc(c(-c4ccccc4)c4ccc([nH]4)c(-c4ccccc4)c4nc(c(-c5ccccc5)c5ccc2[nH]5)C=C4)C=C3)cc1)c1ccc(F)cc1
REMARK SMILES IDX 20 1 19 2 18 3 17 4 16 5 14 6 15 7 13 8 12 9 10 10 11 11
REMARK SMILES IDX 2 13 1 14 3 15 4 16 5 17 9 18 6 19 8 20 7 21 76 22 77 23
REMARK SMILES IDX 82 24 78 25 81 26 79 27 80 28 21 29 22 30 23 31 24 32 25 33
REMARK SMILES IDX 26 34 27 35 28 36 29 37 75 38 30 39 74 40 31 41 32 42 33 43
REMARK SMILES IDX 68 44 34 45 73 46 67 47 69 48 35 49 72 50 66 51 65 52 36 54
REMARK SMILES IDX 58 55 43 56 57 57 44 58 47 59 56 60 70 61 45 62 46 63 55 65
REMARK SMILES IDX 71 66 48 67 37 68 38 69 42 70 39 71 41 72 40 73 59 74 60 75
REMARK SMILES IDX 64 76 61 77 63 78 62 79 49 80 50 81 54 82 51 83 53 84 52 85
REMARK H PARENT 12 12 69 53 47 64
REMARK Flexibility Score: inf
ROOT
ATOM      1  C   UNL A   1      33.341  21.370  25.459  1.00  0.00     0.188 C 
ENDROOT
BRANCH   1   2
ATOM      2  O   UNL A   1      32.169  21.816  24.782  1.00  0.00    -0.376 OA
BRANCH   2   3
ATOM      3  C   UNL A   1      30.960  21.967  25.505  1.00  0.00     0.202 C 
BRANCH   3   4
ATOM      4  C   UNL A   1      30.626  23.379  26.006  1.00  0.00     0.261 C 
BRANCH   4   5
ATOM      5  O   UNL A   1      31.126  24.482  25.216  1.00  0.00    -0.461 OA
BRANCH   5   6
ATOM      6  C   UNL A   1      31.399  25.613  25.940  1.00  0.00     0.333 C 
ATOM      7  O   UNL A   1      30.724  25.975  26.868  1.00  0.00    -0.249 OA
BRANCH   6   8
ATOM      8  C   UNL A   1      32.546  26.450  25.352  1.00  0.00     0.223 C 
BRANCH   8   9
ATOM      9  N   UNL A   1      32.439  26.331  23.874  1.00  0.00    -0.338 N 
ATOM     10  C   UNL A   1      31.530  26.603  22.906  1.00  0.00     0.234 C 
ATOM     11  O   UNL A   1      31.512  25.712  22.031  1.00  0.00    -0.274 OA
ATOM     12  H   UNL A   1      33.260  25.948  23.490  1.00  0.00     0.164 HD
BRANCH  10  13
ATOM     13  C   UNL A   1      30.703  27.863  22.605  1.00  0.00     0.139 C 
ATOM     14  C   UNL A   1      31.555  29.141  22.685  1.00  0.00     0.030 C 
BRANCH  13  15
ATOM     15  S   UNL A   1      29.078  28.072  23.387  1.00  0.00    -0.093 SA
BRANCH  15  16
ATOM     16  C   UNL A   1      28.433  29.597  22.727  1.00  0.00     0.097 A 
ATOM     17  C   UNL A   1      27.875  30.615  23.494  1.00  0.00     0.035 A 
ATOM     18  N   UNL A   1      28.661  29.745  21.398  1.00  0.00    -0.250 NA
ATOM     19  C   UNL A   1      27.680  31.868  22.914  1.00  0.00     0.004 A 
ATOM     20  C   UNL A   1      28.487  30.976  20.868  1.00  0.00     0.112 A 
ATOM     21  C   UNL A   1      28.020  32.063  21.583  1.00  0.00     0.020 A 
ENDBRANCH  15  16
ENDBRANCH  13  15
ENDBRANCH  10  13
ENDBRANCH   8   9
BRANCH   8  22
ATOM     22  C   UNL A   1      32.775  27.809  25.995  1.00  0.00    -0.014 A 
ATOM     23  C   UNL A   1      31.756  28.741  26.170  1.00  0.00     0.009 A 
ATOM     24  C   UNL A   1      34.059  28.211  26.408  1.00  0.00     0.009 A 
ATOM     25  C   UNL A   1      31.941  29.969  26.803  1.00  0.00     0.039 A 
ATOM     26  C   UNL A   1      34.273  29.458  27.020  1.00  0.00     0.039 A 
ATOM     27  C   UNL A   1      33.204  30.319  27.229  1.00  0.00     0.123 A 
ATOM     28  F   UNL A   1      33.391  31.482  27.863  1.00  0.00    -0.207 F 
ENDBRANCH   8  22
ENDBRANCH   6   8
ENDBRANCH   5   6
ENDBRANCH   4   5
ENDBRANCH   3   4
ENDBRANCH   2   3
ENDBRANCH   1   2
BRANCH   1  29
ATOM     29  C   UNL A   1      34.692  21.380  24.725  1.00  0.00     0.188 C 
BRANCH  29  30
ATOM     30  O   UNL A   1      35.848  21.012  25.465  1.00  0.00    -0.376 OA
BRANCH  30  31
ATOM     31  C   UNL A   1      36.921  21.948  25.491  1.00  0.00     0.202 C 
BRANCH  31  32
ATOM     32  C   UNL A   1      38.287  21.340  25.173  1.00  0.00     0.261 C 
BRANCH  32  33
ATOM     33  O   UNL A   1      38.972  20.926  26.374  1.00  0.00    -0.460 OA
BRANCH  33  34
ATOM     34  C   UNL A   1      40.072  20.168  26.176  1.00  0.00     0.338 C 
ATOM     35  O   UNL A   1      40.120  19.029  25.741  1.00  0.00    -0.246 OA
BRANCH  34  36
ATOM     36  C   UNL A   1      41.301  20.930  26.442  1.00  0.00     0.060 A 
ATOM     37  C   UNL A   1      41.648  21.152  27.774  1.00  0.00     0.016 A 
ATOM     38  C   UNL A   1      41.902  21.668  25.424  1.00  0.00     0.016 A 
ATOM     39  C   UNL A   1      42.467  22.227  28.107  1.00  0.00     0.010 A 
ATOM     40  C   UNL A   1      42.766  22.718  25.762  1.00  0.00     0.010 A 
ATOM     41  C   UNL A   1      42.973  23.069  27.110  1.00  0.00    -0.014 A 
BRANCH  41  42
ATOM     42  C   UNL A   1      43.501  24.416  27.478  1.00  0.00     0.031 A 
ATOM     43  C   UNL A   1      42.540  25.460  28.007  1.00  0.00     0.074 A 
ATOM     44  C   UNL A   1      44.818  24.700  27.459  1.00  0.00     0.049 A 
ATOM     45  N   UNL A   1      42.730  26.739  28.222  1.00  0.00    -0.248 NA
ATOM     46  C   UNL A   1      41.178  25.000  28.326  1.00  0.00     0.031 C 
ATOM     47  C   UNL A   1      45.888  23.767  27.108  1.00  0.00     0.029 A 
ATOM     48  N   UNL A   1      45.479  25.865  27.768  1.00  0.00    -0.354 N 
ATOM     49  C   UNL A   1      41.497  27.241  28.630  1.00  0.00     0.074 A 
ATOM     50  C   UNL A   1      40.567  26.136  28.625  1.00  0.00     0.031 C 
ATOM     51  C   UNL A   1      47.071  24.384  27.256  1.00  0.00     0.029 A 
ATOM     52  C   UNL A   1      46.842  25.779  27.620  1.00  0.00     0.049 A 
ATOM     53  H   UNL A   1      45.019  26.683  28.067  1.00  0.00     0.167 HD
ATOM     54  C   UNL A   1      41.167  28.509  28.975  1.00  0.00     0.031 A 
ATOM     55  C   UNL A   1      47.795  26.724  27.722  1.00  0.00     0.031 A 
ATOM     56  C   UNL A   1      42.103  29.600  29.042  1.00  0.00     0.049 A 
ATOM     57  C   UNL A   1      47.399  28.142  28.039  1.00  0.00     0.074 A 
ATOM     58  C   UNL A   1      41.866  30.927  29.357  1.00  0.00     0.029 A 
ATOM     59  N   UNL A   1      43.466  29.480  28.818  1.00  0.00    -0.354 N 
ATOM     60  N   UNL A   1      46.214  28.632  28.311  1.00  0.00    -0.248 NA
ATOM     61  C   UNL A   1      48.479  29.139  28.053  1.00  0.00     0.031 C 
ATOM     62  C   UNL A   1      43.079  31.620  29.279  1.00  0.00     0.029 A 
ATOM     63  C   UNL A   1      44.081  30.711  28.979  1.00  0.00     0.049 A 
ATOM     64  H   UNL A   1      43.928  28.645  28.581  1.00  0.00     0.167 HD
ATOM     65  C   UNL A   1      46.410  29.988  28.550  1.00  0.00     0.074 A 
ATOM     66  C   UNL A   1      47.830  30.235  28.417  1.00  0.00     0.031 C 
ATOM     67  C   UNL A   1      45.495  30.943  28.848  1.00  0.00     0.031 A 
BRANCH  54  68
ATOM     68  C   UNL A   1      39.714  28.799  29.246  1.00  0.00    -0.014 A 
ATOM     69  C   UNL A   1      39.163  28.713  30.534  1.00  0.00     0.009 A 
ATOM     70  C   UNL A   1      38.884  29.187  28.180  1.00  0.00     0.009 A 
ATOM     71  C   UNL A   1      37.804  28.967  30.740  1.00  0.00     0.001 A 
ATOM     72  C   UNL A   1      37.536  29.473  28.393  1.00  0.00     0.001 A 
ATOM     73  C   UNL A   1      36.993  29.351  29.671  1.00  0.00     0.000 A 
ENDBRANCH  54  68
BRANCH  55  74
ATOM     74  C   UNL A   1      49.220  26.384  27.454  1.00  0.00    -0.014 A 
ATOM     75  C   UNL A   1      49.704  26.285  26.140  1.00  0.00     0.009 A 
ATOM     76  C   UNL A   1      50.099  26.123  28.518  1.00  0.00     0.009 A 
ATOM     77  C   UNL A   1      51.027  25.905  25.899  1.00  0.00     0.001 A 
ATOM     78  C   UNL A   1      51.431  25.781  28.274  1.00  0.00     0.001 A 
ATOM     79  C   UNL A   1      51.890  25.660  26.965  1.00  0.00     0.000 A 
ENDBRANCH  55  74
BRANCH  67  80
ATOM     80  C   UNL A   1      46.015  32.331  29.107  1.00  0.00    -0.014 A 
ATOM     81  C   UNL A   1      46.414  32.740  30.390  1.00  0.00     0.009 A 
ATOM     82  C   UNL A   1      46.113  33.242  28.044  1.00  0.00     0.009 A 
ATOM     83  C   UNL A   1      46.850  34.049  30.609  1.00  0.00     0.001 A 
ATOM     84  C   UNL A   1      46.580  34.539  28.260  1.00  0.00     0.001 A 
ATOM     85  C   UNL A   1      46.934  34.945  29.546  1.00  0.00     0.000 A 
ENDBRANCH  67  80
ENDBRANCH  41  42
ENDBRANCH  34  36
ENDBRANCH  33  34
ENDBRANCH  32  33
ENDBRANCH  31  32
ENDBRANCH  30  31
ENDBRANCH  29  30
ENDBRANCH   1  29
TORSDOF 22
ENDMDL
MODEL 3
REMARK VINA RESULT:      -9.4      5.890     10.538
REMARK SMILES C[C@H](Sc1ccccn1)C(=O)N[C@H](C(=O)OCCOCCOCCOC(=O)c1ccc(-c2c3nc(c(-c4ccccc4)c4ccc([nH]4)c(-c4ccccc4)c4nc(c(-c5ccccc5)c5ccc2[nH]5)C=C4)C=C3)cc1)c1ccc(F)cc1
REMARK SMILES IDX 20 1 19 2 18 3 17 4 16 5 14 6 15 7 13 8 12 9 10 10 11 11
REMARK SMILES IDX 2 13 1 14 3 15 4 16 5 17 9 18 6 19 8 20 7 21 76 22 77 23
REMARK SMILES IDX 82 24 78 25 81 26 79 27 80 28 21 29 22 30 23 31 24 32 25 33
REMARK SMILES IDX 26 34 27 35 28 36 29 37 75 38 30 39 74 40 31 41 32 42 33 43
REMARK SMILES IDX 68 44 34 45 73 46 67 47 69 48 35 49 72 50 66 51 65 52 36 54
REMARK SMILES IDX 58 55 43 56 57 57 44 58 47 59 56 60 70 61 45 62 46 63 55 65
REMARK SMILES IDX 71 66 48 67 37 68 38 69 42 70 39 71 41 72 40 73 59 74 60 75
REMARK SMILES IDX 64 76 61 77 63 78 62 79 49 80 50 81 54 82 51 83 53 84 52 85
REMARK H PARENT 12 12 69 53 47 64
REMARK Flexibility Score: inf
ROOT
ATOM      1  C   UNL A   1      33.966  21.207  26.565  1.00  0.00     0.188 C 
ENDROOT
BRANCH   1   2
ATOM      2  O   UNL A   1      32.683  21.361  27.166  1.00  0.00    -0.376 OA
BRANCH   2   3
ATOM      3  C   UNL A   1      32.017  22.609  27.082  1.00  0.00     0.202 C 
BRANCH   3   4
ATOM      4  C   UNL A   1      30.684  22.630  26.321  1.00  0.00     0.261 C 
BRANCH   4   5
ATOM      5  O   UNL A   1      30.223  23.920  25.857  1.00  0.00    -0.461 OA
BRANCH   5   6
ATOM      6  C   UNL A   1      30.699  24.276  24.623  1.00  0.00     0.333 C 
ATOM      7  O   UNL A   1      30.397  23.697  23.613  1.00  0.00    -0.249 OA
BRANCH   6   8
ATOM      8  C   UNL A   1      31.772  25.375  24.679  1.00  0.00     0.223 C 
BRANCH   8   9
ATOM      9  N   UNL A   1      31.334  26.340  25.722  1.00  0.00    -0.338 N 
ATOM     10  C   UNL A   1      31.878  27.333  26.466  1.00  0.00     0.234 C 
ATOM     11  O   UNL A   1      31.442  27.321  27.636  1.00  0.00    -0.274 OA
ATOM     12  H   UNL A   1      30.379  26.226  25.929  1.00  0.00     0.164 HD
BRANCH  10  13
ATOM     13  C   UNL A   1      32.747  28.541  26.080  1.00  0.00     0.139 C 
ATOM     14  C   UNL A   1      33.977  28.678  26.992  1.00  0.00     0.030 C 
BRANCH  13  15
ATOM     15  S   UNL A   1      31.954  30.141  25.751  1.00  0.00    -0.093 SA
BRANCH  15  16
ATOM     16  C   UNL A   1      30.993  29.892  24.271  1.00  0.00     0.097 A 
ATOM     17  C   UNL A   1      31.242  28.903  23.325  1.00  0.00     0.035 A 
ATOM     18  N   UNL A   1      29.889  30.679  24.210  1.00  0.00    -0.250 NA
ATOM     19  C   UNL A   1      30.263  28.615  22.375  1.00  0.00     0.004 A 
ATOM     20  C   UNL A   1      28.946  30.362  23.296  1.00  0.00     0.112 A 
ATOM     21  C   UNL A   1      29.078  29.336  22.377  1.00  0.00     0.020 A 
ENDBRANCH  15  16
ENDBRANCH  13  15
ENDBRANCH  10  13
ENDBRANCH   8   9
BRANCH   8  22
ATOM     22  C   UNL A   1      33.216  24.897  24.639  1.00  0.00    -0.014 A 
ATOM     23  C   UNL A   1      33.796  24.348  23.500  1.00  0.00     0.009 A 
ATOM     24  C   UNL A   1      34.032  24.950  25.785  1.00  0.00     0.009 A 
ATOM     25  C   UNL A   1      35.132  23.954  23.434  1.00  0.00     0.039 A 
ATOM     26  C   UNL A   1      35.372  24.528  25.749  1.00  0.00     0.039 A 
ATOM     27  C   UNL A   1      35.915  24.051  24.564  1.00  0.00     0.123 A 
ATOM     28  F   UNL A   1      37.205  23.703  24.507  1.00  0.00    -0.207 F 
ENDBRANCH   8  22
ENDBRANCH   6   8
ENDBRANCH   5   6
ENDBRANCH   4   5
ENDBRANCH   3   4
ENDBRANCH   2   3
ENDBRANCH   1   2
BRANCH   1  29
ATOM     29  C   UNL A   1      34.067  20.793  25.088  1.00  0.00     0.188 C 
BRANCH  29  30
ATOM     30  O   UNL A   1      35.364  20.569  24.552  1.00  0.00    -0.376 OA
BRANCH  30  31
ATOM     31  C   UNL A   1      36.448  20.551  25.476  1.00  0.00     0.202 C 
BRANCH  31  32
ATOM     32  C   UNL A   1      37.827  20.615  24.821  1.00  0.00     0.261 C 
BRANCH  32  33
ATOM     33  O   UNL A   1      38.831  21.073  25.751  1.00  0.00    -0.460 OA
BRANCH  33  34
ATOM     34  C   UNL A   1      39.862  20.223  25.949  1.00  0.00     0.338 C 
ATOM     35  O   UNL A   1      39.878  19.019  25.751  1.00  0.00    -0.246 OA
BRANCH  34  36
ATOM     36  C   UNL A   1      41.082  20.944  26.342  1.00  0.00     0.060 A 
ATOM     37  C   UNL A   1      41.246  21.248  27.692  1.00  0.00     0.016 A 
ATOM     38  C   UNL A   1      41.864  21.575  25.376  1.00  0.00     0.016 A 
ATOM     39  C   UNL A   1      42.069  22.305  28.070  1.00  0.00     0.010 A 
ATOM     40  C   UNL A   1      42.730  22.605  25.767  1.00  0.00     0.010 A 
ATOM     41  C   UNL A   1      42.761  23.045  27.105  1.00  0.00    -0.014 A 
BRANCH  41  42
ATOM     42  C   UNL A   1      43.307  24.389  27.456  1.00  0.00     0.031 A 
ATOM     43  C   UNL A   1      42.368  25.439  28.012  1.00  0.00     0.074 A 
ATOM     44  C   UNL A   1      44.624  24.665  27.399  1.00  0.00     0.049 A 
ATOM     45  N   UNL A   1      42.571  26.717  28.220  1.00  0.00    -0.248 NA
ATOM     46  C   UNL A   1      41.013  24.988  28.371  1.00  0.00     0.031 C 
ATOM     47  C   UNL A   1      45.678  23.726  27.017  1.00  0.00     0.029 A 
ATOM     48  N   UNL A   1      45.301  25.827  27.687  1.00  0.00    -0.354 N 
ATOM     49  C   UNL A   1      41.354  27.227  28.663  1.00  0.00     0.074 A 
ATOM     50  C   UNL A   1      40.418  26.127  28.687  1.00  0.00     0.031 C 
ATOM     51  C   UNL A   1      46.869  24.336  27.130  1.00  0.00     0.029 A 
ATOM     52  C   UNL A   1      46.659  25.732  27.500  1.00  0.00     0.049 A 
ATOM     53  H   UNL A   1      44.855  26.648  27.998  1.00  0.00     0.167 HD
ATOM     54  C   UNL A   1      41.041  28.497  29.016  1.00  0.00     0.031 A 
ATOM     55  C   UNL A   1      47.620  26.672  27.573  1.00  0.00     0.031 A 
ATOM     56  C   UNL A   1      41.986  29.583  29.055  1.00  0.00     0.049 A 
ATOM     57  C   UNL A   1      47.242  28.092  27.900  1.00  0.00     0.074 A 
ATOM     58  C   UNL A   1      41.766  30.911  29.376  1.00  0.00     0.029 A 
ATOM     59  N   UNL A   1      43.341  29.455  28.792  1.00  0.00    -0.354 N 
ATOM     60  N   UNL A   1      46.068  28.590  28.205  1.00  0.00    -0.248 NA
ATOM     61  C   UNL A   1      48.328  29.084  27.881  1.00  0.00     0.031 C 
ATOM     62  C   UNL A   1      42.980  31.597  29.261  1.00  0.00     0.029 A 
ATOM     63  C   UNL A   1      43.967  30.682  28.933  1.00  0.00     0.049 A 
ATOM     64  H   UNL A   1      43.791  28.616  28.542  1.00  0.00     0.167 HD
ATOM     65  C   UNL A   1      46.278  29.944  28.437  1.00  0.00     0.074 A 
ATOM     66  C   UNL A   1      47.695  30.184  28.263  1.00  0.00     0.031 C 
ATOM     67  C   UNL A   1      45.378  30.906  28.761  1.00  0.00     0.031 A 
BRANCH  54  68
ATOM     68  C   UNL A   1      39.599  28.796  29.329  1.00  0.00    -0.014 A 
ATOM     69  C   UNL A   1      39.077  28.680  30.627  1.00  0.00     0.009 A 
ATOM     70  C   UNL A   1      38.750  29.223  28.294  1.00  0.00     0.009 A 
ATOM     71  C   UNL A   1      37.726  28.944  30.872  1.00  0.00     0.001 A 
ATOM     72  C   UNL A   1      37.410  29.518  28.547  1.00  0.00     0.001 A 
ATOM     73  C   UNL A   1      36.896  29.367  29.833  1.00  0.00     0.000 A 
ENDBRANCH  54  68
BRANCH  55  74
ATOM     74  C   UNL A   1      49.034  26.324  27.263  1.00  0.00    -0.014 A 
ATOM     75  C   UNL A   1      49.512  26.347  25.944  1.00  0.00     0.009 A 
ATOM     76  C   UNL A   1      49.909  25.931  28.290  1.00  0.00     0.009 A 
ATOM     77  C   UNL A   1      50.824  25.959  25.658  1.00  0.00     0.001 A 
ATOM     78  C   UNL A   1      51.230  25.580  28.006  1.00  0.00     0.001 A 
ATOM     79  C   UNL A   1      51.682  25.582  26.689  1.00  0.00     0.000 A 
ENDBRANCH  55  74
BRANCH  67  80
ATOM     80  C   UNL A   1      45.914  32.290  29.003  1.00  0.00    -0.014 A 
ATOM     81  C   UNL A   1      45.873  33.281  28.009  1.00  0.00     0.009 A 
ATOM     82  C   UNL A   1      46.466  32.608  30.254  1.00  0.00     0.009 A 
ATOM     83  C   UNL A   1      46.420  34.544  28.248  1.00  0.00     0.001 A 
ATOM     84  C   UNL A   1      46.981  33.881  30.501  1.00  0.00     0.001 A 
ATOM     85  C   UNL A   1      46.971  34.843  29.492  1.00  0.00     0.000 A 
ENDBRANCH  67  80
ENDBRANCH  41  42
ENDBRANCH  34  36
ENDBRANCH  33  34
ENDBRANCH  32  33
ENDBRANCH  31  32
ENDBRANCH  30  31
ENDBRANCH  29  30
ENDBRANCH   1  29
TORSDOF 22
ENDMDL
