MODEL 1
REMARK VINA RESULT:     -11.0      0.000      0.000
REMARK SMILES CC(=O)n1cc2c3c(cccc31)C(=O)C[C@@H]2C(=O)OCCOCCOCCOC(=O)c1ccc(-c2c3nc(c(-c4ccccc4)c4ccc([nH]4)c(-c4ccccc4)c4nc(c(-c5ccccc5)c5ccc2[nH]5)C=C4)C=C3)cc1
REMARK SMILES IDX 24 1 23 2 22 3 21 4 20 5 19 6 17 7 18 8 16 9 4 10 5 11 12 12
REMARK SMILES IDX 6 13 7 14 11 15 8 16 10 17 15 18 9 19 13 20 14 21 2 22 1 23
REMARK SMILES IDX 3 24 25 25 26 26 27 27 28 28 29 29 30 30 31 31 32 32 78 33
REMARK SMILES IDX 33 34 77 35 34 36 35 37 36 38 71 39 37 40 76 41 70 42 72 43
REMARK SMILES IDX 38 44 75 45 69 46 68 47 39 49 61 50 46 51 60 52 47 53 50 54
REMARK SMILES IDX 59 55 73 56 48 57 49 58 58 60 74 61 51 62 40 63 41 64 45 65
REMARK SMILES IDX 42 66 44 67 43 68 62 69 63 70 67 71 64 72 66 73 65 74 52 75
REMARK SMILES IDX 53 76 57 77 54 78 56 79 55 80
REMARK H PARENT 72 48 50 59
REMARK Flexibility Score: inf
ROOT
ATOM      1  C   UNL A   1      39.706  21.834  26.279  1.00  0.00     0.188 C 
ENDROOT
BRANCH   1   2
ATOM      2  C   UNL A   1      38.511  21.385  25.438  1.00  0.00     0.188 C 
BRANCH   2   3
ATOM      3  O   UNL A   1      37.687  22.426  24.916  1.00  0.00    -0.376 OA
BRANCH   3   4
ATOM      4  C   UNL A   1      36.628  22.045  24.041  1.00  0.00     0.202 C 
BRANCH   4   5
ATOM      5  C   UNL A   1      35.446  21.276  24.663  1.00  0.00     0.261 C 
BRANCH   5   6
ATOM      6  O   UNL A   1      35.113  21.628  26.020  1.00  0.00    -0.463 OA
BRANCH   6   7
ATOM      7  C   UNL A   1      34.556  22.853  26.181  1.00  0.00     0.314 C 
ATOM      8  O   UNL A   1      35.186  23.852  26.522  1.00  0.00    -0.252 OA
BRANCH   7   9
ATOM      9  C   UNL A   1      33.045  22.896  25.937  1.00  0.00     0.139 C 
ATOM     10  N   UNL A   1      32.870  25.479  23.269  1.00  0.00    -0.287 N 
ATOM     11  C   UNL A   1      33.510  24.394  23.852  1.00  0.00     0.100 A 
ATOM     12  C   UNL A   1      31.659  25.665  23.950  1.00  0.00     0.057 A 
ATOM     13  C   UNL A   1      32.788  23.966  24.935  1.00  0.00    -0.006 A 
ATOM     14  C   UNL A   1      31.619  24.723  24.967  1.00  0.00     0.015 A 
ATOM     15  C   UNL A   1      30.574  26.540  23.773  1.00  0.00     0.027 A 
ATOM     16  C   UNL A   1      30.535  24.605  25.833  1.00  0.00     0.027 A 
ATOM     17  C   UNL A   1      29.460  26.389  24.625  1.00  0.00     0.003 A 
ATOM     18  C   UNL A   1      32.114  23.044  27.173  1.00  0.00     0.101 C 
ATOM     19  C   UNL A   1      29.428  25.426  25.641  1.00  0.00     0.012 A 
ATOM     20  C   UNL A   1      30.686  23.564  26.880  1.00  0.00     0.164 C 
ATOM     21  O   UNL A   1      29.707  23.199  27.522  1.00  0.00    -0.294 OA
BRANCH  10  22
ATOM     22  C   UNL A   1      33.362  26.232  22.186  1.00  0.00     0.227 C 
ATOM     23  C   UNL A   1      33.617  27.682  22.494  1.00  0.00     0.115 C 
ATOM     24  O   UNL A   1      33.574  25.701  21.105  1.00  0.00    -0.274 OA
ENDBRANCH  10  22
ENDBRANCH   7   9
ENDBRANCH   6   7
ENDBRANCH   5   6
ENDBRANCH   4   5
ENDBRANCH   3   4
ENDBRANCH   2   3
ENDBRANCH   1   2
BRANCH   1  25
ATOM     25  O   UNL A   1      40.051  20.957  27.341  1.00  0.00    -0.376 OA
BRANCH  25  26
ATOM     26  C   UNL A   1      41.210  20.124  27.260  1.00  0.00     0.202 C 
BRANCH  26  27
ATOM     27  C   UNL A   1      42.542  20.676  26.729  1.00  0.00     0.261 C 
BRANCH  27  28
ATOM     28  O   UNL A   1      42.840  20.353  25.379  1.00  0.00    -0.460 OA
BRANCH  28  29
ATOM     29  C   UNL A   1      44.133  20.152  25.067  1.00  0.00     0.338 C 
ATOM     30  O   UNL A   1      44.701  19.088  24.895  1.00  0.00    -0.246 OA
BRANCH  29  31
ATOM     31  C   UNL A   1      44.741  21.484  24.902  1.00  0.00     0.060 A 
ATOM     32  C   UNL A   1      45.801  21.789  25.747  1.00  0.00     0.016 A 
ATOM     33  C   UNL A   1      44.101  22.458  24.113  1.00  0.00     0.016 A 
ATOM     34  C   UNL A   1      45.922  23.098  26.127  1.00  0.00     0.010 A 
ATOM     35  C   UNL A   1      44.210  23.762  24.497  1.00  0.00     0.010 A 
ATOM     36  C   UNL A   1      44.993  24.009  25.612  1.00  0.00    -0.014 A 
BRANCH  36  37
ATOM     37  C   UNL A   1      44.692  25.150  26.431  1.00  0.00     0.031 A 
ATOM     38  C   UNL A   1      45.729  26.181  26.434  1.00  0.00     0.074 A 
ATOM     39  C   UNL A   1      43.542  25.218  27.125  1.00  0.00     0.049 A 
ATOM     40  N   UNL A   1      46.538  26.465  27.395  1.00  0.00    -0.248 NA
ATOM     41  C   UNL A   1      45.991  26.868  25.165  1.00  0.00     0.031 C 
ATOM     42  C   UNL A   1      42.321  24.417  26.993  1.00  0.00     0.029 A 
ATOM     43  N   UNL A   1      43.213  26.127  28.071  1.00  0.00    -0.354 N 
ATOM     44  C   UNL A   1      47.343  27.477  26.901  1.00  0.00     0.074 A 
ATOM     45  C   UNL A   1      47.068  27.580  25.487  1.00  0.00     0.031 C 
ATOM     46  C   UNL A   1      41.318  25.030  27.669  1.00  0.00     0.029 A 
ATOM     47  C   UNL A   1      41.867  26.169  28.386  1.00  0.00     0.049 A 
ATOM     48  H   UNL A   1      43.878  26.713  28.500  1.00  0.00     0.167 HD
ATOM     49  C   UNL A   1      48.038  28.308  27.716  1.00  0.00     0.031 A 
ATOM     50  C   UNL A   1      41.273  27.148  29.110  1.00  0.00     0.031 A 
ATOM     51  C   UNL A   1      48.128  27.816  29.062  1.00  0.00     0.049 A 
ATOM     52  C   UNL A   1      42.345  27.827  29.886  1.00  0.00     0.074 A 
ATOM     53  C   UNL A   1      48.735  26.726  29.652  1.00  0.00     0.029 A 
ATOM     54  N   UNL A   1      47.192  28.265  29.964  1.00  0.00    -0.354 N 
ATOM     55  N   UNL A   1      43.015  27.253  30.846  1.00  0.00    -0.248 NA
ATOM     56  C   UNL A   1      42.978  29.002  29.303  1.00  0.00     0.031 C 
ATOM     57  C   UNL A   1      47.836  26.304  30.674  1.00  0.00     0.029 A 
ATOM     58  C   UNL A   1      46.744  27.176  30.672  1.00  0.00     0.049 A 
ATOM     59  H   UNL A   1      46.896  29.197  30.082  1.00  0.00     0.167 HD
ATOM     60  C   UNL A   1      44.310  27.736  30.722  1.00  0.00     0.074 A 
ATOM     61  C   UNL A   1      44.205  28.881  29.821  1.00  0.00     0.031 C 
ATOM     62  C   UNL A   1      45.383  26.999  31.134  1.00  0.00     0.031 A 
BRANCH  49  63
ATOM     63  C   UNL A   1      48.347  29.717  27.327  1.00  0.00    -0.014 A 
ATOM     64  C   UNL A   1      49.672  30.165  27.331  1.00  0.00     0.009 A 
ATOM     65  C   UNL A   1      47.336  30.686  27.159  1.00  0.00     0.009 A 
ATOM     66  C   UNL A   1      49.969  31.523  27.171  1.00  0.00     0.001 A 
ATOM     67  C   UNL A   1      47.629  32.033  26.953  1.00  0.00     0.001 A 
ATOM     68  C   UNL A   1      48.949  32.454  26.976  1.00  0.00     0.000 A 
ENDBRANCH  49  63
BRANCH  50  69
ATOM     69  C   UNL A   1      39.956  27.777  28.865  1.00  0.00    -0.014 A 
ATOM     70  C   UNL A   1      39.015  27.862  29.905  1.00  0.00     0.009 A 
ATOM     71  C   UNL A   1      39.729  28.554  27.714  1.00  0.00     0.009 A 
ATOM     72  C   UNL A   1      37.926  28.740  29.821  1.00  0.00     0.001 A 
ATOM     73  C   UNL A   1      38.636  29.422  27.627  1.00  0.00     0.001 A 
ATOM     74  C   UNL A   1      37.747  29.531  28.690  1.00  0.00     0.000 A 
ENDBRANCH  50  69
BRANCH  62  75
ATOM     75  C   UNL A   1      45.103  25.728  31.901  1.00  0.00    -0.014 A 
ATOM     76  C   UNL A   1      45.102  25.684  33.307  1.00  0.00     0.009 A 
ATOM     77  C   UNL A   1      44.650  24.604  31.197  1.00  0.00     0.009 A 
ATOM     78  C   UNL A   1      44.665  24.541  33.987  1.00  0.00     0.001 A 
ATOM     79  C   UNL A   1      44.200  23.469  31.878  1.00  0.00     0.001 A 
ATOM     80  C   UNL A   1      44.206  23.438  33.271  1.00  0.00     0.000 A 
ENDBRANCH  62  75
ENDBRANCH  36  37
ENDBRANCH  29  31
ENDBRANCH  28  29
ENDBRANCH  27  28
ENDBRANCH  26  27
ENDBRANCH  25  26
ENDBRANCH   1  25
TORSDOF 18
ENDMDL
MODEL 2
REMARK VINA RESULT:     -10.6      2.228      6.091
REMARK SMILES CC(=O)n1cc2c3c(cccc31)C(=O)C[C@@H]2C(=O)OCCOCCOCCOC(=O)c1ccc(-c2c3nc(c(-c4ccccc4)c4ccc([nH]4)c(-c4ccccc4)c4nc(c(-c5ccccc5)c5ccc2[nH]5)C=C4)C=C3)cc1
REMARK SMILES IDX 24 1 23 2 22 3 21 4 20 5 19 6 17 7 18 8 16 9 4 10 5 11 12 12
REMARK SMILES IDX 6 13 7 14 11 15 8 16 10 17 15 18 9 19 13 20 14 21 2 22 1 23
REMARK SMILES IDX 3 24 25 25 26 26 27 27 28 28 29 29 30 30 31 31 32 32 78 33
REMARK SMILES IDX 33 34 77 35 34 36 35 37 36 38 71 39 37 40 76 41 70 42 72 43
REMARK SMILES IDX 38 44 75 45 69 46 68 47 39 49 61 50 46 51 60 52 47 53 50 54
REMARK SMILES IDX 59 55 73 56 48 57 49 58 58 60 74 61 51 62 40 63 41 64 45 65
REMARK SMILES IDX 42 66 44 67 43 68 62 69 63 70 67 71 64 72 66 73 65 74 52 75
REMARK SMILES IDX 53 76 57 77 54 78 56 79 55 80
REMARK H PARENT 72 48 50 59
REMARK Flexibility Score: inf
ROOT
ATOM      1  C   UNL A   1      34.554  19.535  24.950  1.00  0.00     0.188 C 
ENDROOT
BRANCH   1   2
ATOM      2  C   UNL A   1      33.067  19.883  24.883  1.00  0.00     0.188 C 
BRANCH   2   3
ATOM      3  O   UNL A   1      32.755  21.263  24.700  1.00  0.00    -0.376 OA
BRANCH   3   4
ATOM      4  C   UNL A   1      32.368  22.005  25.855  1.00  0.00     0.202 C 
BRANCH   4   5
ATOM      5  C   UNL A   1      33.497  22.623  26.702  1.00  0.00     0.261 C 
BRANCH   5   6
ATOM      6  O   UNL A   1      33.751  24.025  26.481  1.00  0.00    -0.463 OA
BRANCH   6   7
ATOM      7  C   UNL A   1      34.831  24.304  25.712  1.00  0.00     0.314 C 
ATOM      8  O   UNL A   1      35.986  24.024  26.028  1.00  0.00    -0.252 OA
BRANCH   7   9
ATOM      9  C   UNL A   1      34.506  25.039  24.410  1.00  0.00     0.139 C 
ATOM     10  N   UNL A   1      32.658  27.978  25.743  1.00  0.00    -0.287 N 
ATOM     11  C   UNL A   1      33.690  27.057  25.851  1.00  0.00     0.100 A 
ATOM     12  C   UNL A   1      32.046  27.776  24.498  1.00  0.00     0.057 A 
ATOM     13  C   UNL A   1      33.674  26.222  24.764  1.00  0.00    -0.006 A 
ATOM     14  C   UNL A   1      32.686  26.697  23.905  1.00  0.00     0.015 A 
ATOM     15  C   UNL A   1      31.016  28.436  23.807  1.00  0.00     0.027 A 
ATOM     16  C   UNL A   1      32.346  26.234  22.636  1.00  0.00     0.027 A 
ATOM     17  C   UNL A   1      30.704  27.990  22.506  1.00  0.00     0.003 A 
ATOM     18  C   UNL A   1      33.861  24.222  23.256  1.00  0.00     0.101 C 
ATOM     19  C   UNL A   1      31.365  26.907  21.914  1.00  0.00     0.012 A 
ATOM     20  C   UNL A   1      33.116  25.049  22.181  1.00  0.00     0.164 C 
ATOM     21  O   UNL A   1      33.086  24.721  20.999  1.00  0.00    -0.294 OA
BRANCH  10  22
ATOM     22  C   UNL A   1      32.315  28.938  26.713  1.00  0.00     0.227 C 
ATOM     23  C   UNL A   1      31.412  28.433  27.805  1.00  0.00     0.115 C 
ATOM     24  O   UNL A   1      32.761  30.075  26.647  1.00  0.00    -0.274 OA
ENDBRANCH  10  22
ENDBRANCH   7   9
ENDBRANCH   6   7
ENDBRANCH   5   6
ENDBRANCH   4   5
ENDBRANCH   3   4
ENDBRANCH   2   3
ENDBRANCH   1   2
BRANCH   1  25
ATOM     25  O   UNL A   1      35.432  20.609  24.642  1.00  0.00    -0.376 OA
BRANCH  25  26
ATOM     26  C   UNL A   1      36.503  20.958  25.522  1.00  0.00     0.202 C 
BRANCH  26  27
ATOM     27  C   UNL A   1      37.913  21.234  24.976  1.00  0.00     0.261 C 
BRANCH  27  28
ATOM     28  O   UNL A   1      38.926  21.385  25.958  1.00  0.00    -0.460 OA
BRANCH  28  29
ATOM     29  C   UNL A   1      39.929  20.488  25.950  1.00  0.00     0.338 C 
ATOM     30  O   UNL A   1      39.876  19.316  25.621  1.00  0.00    -0.246 OA
BRANCH  29  31
ATOM     31  C   UNL A   1      41.147  21.208  26.358  1.00  0.00     0.060 A 
ATOM     32  C   UNL A   1      41.683  20.868  27.593  1.00  0.00     0.016 A 
ATOM     33  C   UNL A   1      41.567  22.344  25.641  1.00  0.00     0.016 A 
ATOM     34  C   UNL A   1      42.294  21.873  28.292  1.00  0.00     0.010 A 
ATOM     35  C   UNL A   1      42.166  23.353  26.337  1.00  0.00     0.010 A 
ATOM     36  C   UNL A   1      42.350  23.136  27.692  1.00  0.00    -0.014 A 
BRANCH  36  37
ATOM     37  C   UNL A   1      42.371  24.267  28.578  1.00  0.00     0.031 A 
ATOM     38  C   UNL A   1      41.341  25.267  28.303  1.00  0.00     0.074 A 
ATOM     39  C   UNL A   1      43.284  24.358  29.560  1.00  0.00     0.049 A 
ATOM     40  N   UNL A   1      41.511  26.435  27.788  1.00  0.00    -0.248 NA
ATOM     41  C   UNL A   1      39.945  24.855  28.485  1.00  0.00     0.031 C 
ATOM     42  C   UNL A   1      44.166  23.326  30.118  1.00  0.00     0.029 A 
ATOM     43  N   UNL A   1      43.542  25.435  30.337  1.00  0.00    -0.354 N 
ATOM     44  C   UNL A   1      40.240  26.977  27.698  1.00  0.00     0.074 A 
ATOM     45  C   UNL A   1      39.308  25.915  27.994  1.00  0.00     0.031 C 
ATOM     46  C   UNL A   1      44.686  23.776  31.286  1.00  0.00     0.029 A 
ATOM     47  C   UNL A   1      44.289  25.163  31.469  1.00  0.00     0.049 A 
ATOM     48  H   UNL A   1      43.223  26.340  30.114  1.00  0.00     0.167 HD
ATOM     49  C   UNL A   1      40.033  28.313  27.586  1.00  0.00     0.031 A 
ATOM     50  C   UNL A   1      44.459  26.018  32.506  1.00  0.00     0.031 A 
ATOM     51  C   UNL A   1      41.223  29.029  27.223  1.00  0.00     0.049 A 
ATOM     52  C   UNL A   1      44.160  27.383  31.998  1.00  0.00     0.074 A 
ATOM     53  C   UNL A   1      42.029  29.058  26.102  1.00  0.00     0.029 A 
ATOM     54  N   UNL A   1      41.970  29.574  28.242  1.00  0.00    -0.354 N 
ATOM     55  N   UNL A   1      44.892  28.001  31.113  1.00  0.00    -0.248 NA
ATOM     56  C   UNL A   1      42.802  27.890  32.142  1.00  0.00     0.031 C 
ATOM     57  C   UNL A   1      43.357  29.199  26.599  1.00  0.00     0.029 A 
ATOM     58  C   UNL A   1      43.288  29.278  27.992  1.00  0.00     0.049 A 
ATOM     59  H   UNL A   1      41.625  30.082  29.011  1.00  0.00     0.167 HD
ATOM     60  C   UNL A   1      43.990  28.694  30.317  1.00  0.00     0.074 A 
ATOM     61  C   UNL A   1      42.732  28.668  31.057  1.00  0.00     0.031 C 
ATOM     62  C   UNL A   1      44.272  28.980  29.012  1.00  0.00     0.031 A 
BRANCH  49  63
ATOM     63  C   UNL A   1      38.806  28.968  28.129  1.00  0.00    -0.014 A 
ATOM     64  C   UNL A   1      38.511  28.872  29.493  1.00  0.00     0.009 A 
ATOM     65  C   UNL A   1      37.809  29.506  27.288  1.00  0.00     0.009 A 
ATOM     66  C   UNL A   1      37.274  29.297  29.990  1.00  0.00     0.001 A 
ATOM     67  C   UNL A   1      36.594  29.974  27.785  1.00  0.00     0.001 A 
ATOM     68  C   UNL A   1      36.321  29.853  29.138  1.00  0.00     0.000 A 
ENDBRANCH  49  63
BRANCH  50  69
ATOM     69  C   UNL A   1      44.457  25.696  33.950  1.00  0.00    -0.014 A 
ATOM     70  C   UNL A   1      43.260  25.326  34.585  1.00  0.00     0.009 A 
ATOM     71  C   UNL A   1      45.661  25.460  34.640  1.00  0.00     0.009 A 
ATOM     72  C   UNL A   1      43.273  24.686  35.832  1.00  0.00     0.001 A 
ATOM     73  C   UNL A   1      45.673  24.831  35.889  1.00  0.00     0.001 A 
ATOM     74  C   UNL A   1      44.480  24.425  36.475  1.00  0.00     0.000 A 
ENDBRANCH  50  69
BRANCH  62  75
ATOM     75  C   UNL A   1      45.669  28.687  28.520  1.00  0.00    -0.014 A 
ATOM     76  C   UNL A   1      46.692  29.652  28.544  1.00  0.00     0.009 A 
ATOM     77  C   UNL A   1      46.008  27.364  28.203  1.00  0.00     0.009 A 
ATOM     78  C   UNL A   1      48.015  29.302  28.251  1.00  0.00     0.001 A 
ATOM     79  C   UNL A   1      47.332  27.012  27.925  1.00  0.00     0.001 A 
ATOM     80  C   UNL A   1      48.335  27.979  27.951  1.00  0.00     0.000 A 
ENDBRANCH  62  75
ENDBRANCH  36  37
ENDBRANCH  29  31
ENDBRANCH  28  29
ENDBRANCH  27  28
ENDBRANCH  26  27
ENDBRANCH  25  26
ENDBRANCH   1  25
TORSDOF 18
ENDMDL
MODEL 3
REMARK VINA RESULT:     -10.5      2.412      6.362
REMARK SMILES CC(=O)n1cc2c3c(cccc31)C(=O)C[C@@H]2C(=O)OCCOCCOCCOC(=O)c1ccc(-c2c3nc(c(-c4ccccc4)c4ccc([nH]4)c(-c4ccccc4)c4nc(c(-c5ccccc5)c5ccc2[nH]5)C=C4)C=C3)cc1
REMARK SMILES IDX 24 1 23 2 22 3 21 4 20 5 19 6 17 7 18 8 16 9 4 10 5 11 12 12
REMARK SMILES IDX 6 13 7 14 11 15 8 16 10 17 15 18 9 19 13 20 14 21 2 22 1 23
REMARK SMILES IDX 3 24 25 25 26 26 27 27 28 28 29 29 30 30 31 31 32 32 78 33
REMARK SMILES IDX 33 34 77 35 34 36 35 37 36 38 71 39 37 40 76 41 70 42 72 43
REMARK SMILES IDX 38 44 75 45 69 46 68 47 39 49 61 50 46 51 60 52 47 53 50 54
REMARK SMILES IDX 59 55 73 56 48 57 49 58 58 60 74 61 51 62 40 63 41 64 45 65
REMARK SMILES IDX 42 66 44 67 43 68 62 69 63 70 67 71 64 72 66 73 65 74 52 75
REMARK SMILES IDX 53 76 57 77 54 78 56 79 55 80
REMARK H PARENT 72 48 50 59
REMARK Flexibility Score: inf
ROOT
ATOM      1  C   UNL A   1      34.254  20.710  24.944  1.00  0.00     0.188 C 
ENDROOT
BRANCH   1   2
ATOM      2  C   UNL A   1      32.956  21.339  24.437  1.00  0.00     0.188 C 
BRANCH   2   3
ATOM      3  O   UNL A   1      32.742  21.279  23.027  1.00  0.00    -0.376 OA
BRANCH   3   4
ATOM      4  C   UNL A   1      32.636  22.517  22.329  1.00  0.00     0.202 C 
BRANCH   4   5
ATOM      5  C   UNL A   1      33.368  23.730  22.936  1.00  0.00     0.261 C 
BRANCH   5   6
ATOM      6  O   UNL A   1      32.556  24.623  23.723  1.00  0.00    -0.463 OA
BRANCH   6   7
ATOM      7  C   UNL A   1      32.905  25.931  23.661  1.00  0.00     0.314 C 
ATOM      8  O   UNL A   1      33.520  26.431  22.721  1.00  0.00    -0.252 OA
BRANCH   7   9
ATOM      9  C   UNL A   1      32.500  26.751  24.888  1.00  0.00     0.139 C 
ATOM     10  N   UNL A   1      30.024  29.066  23.361  1.00  0.00    -0.287 N 
ATOM     11  C   UNL A   1      30.592  27.804  23.451  1.00  0.00     0.100 A 
ATOM     12  C   UNL A   1      30.578  29.849  24.383  1.00  0.00     0.057 A 
ATOM     13  C   UNL A   1      31.556  27.805  24.426  1.00  0.00    -0.006 A 
ATOM     14  C   UNL A   1      31.514  29.058  25.034  1.00  0.00     0.015 A 
ATOM     15  C   UNL A   1      30.347  31.160  24.832  1.00  0.00     0.027 A 
ATOM     16  C   UNL A   1      32.244  29.514  26.128  1.00  0.00     0.027 A 
ATOM     17  C   UNL A   1      31.059  31.603  25.967  1.00  0.00     0.003 A 
ATOM     18  C   UNL A   1      33.633  27.353  25.765  1.00  0.00     0.101 C 
ATOM     19  C   UNL A   1      31.992  30.790  26.621  1.00  0.00     0.012 A 
ATOM     20  C   UNL A   1      33.223  28.539  26.672  1.00  0.00     0.164 C 
ATOM     21  O   UNL A   1      33.725  28.730  27.775  1.00  0.00    -0.294 OA
BRANCH  10  22
ATOM     22  C   UNL A   1      29.059  29.462  22.414  1.00  0.00     0.227 C 
ATOM     23  C   UNL A   1      27.646  29.474  22.927  1.00  0.00     0.115 C 
ATOM     24  O   UNL A   1      29.395  29.785  21.284  1.00  0.00    -0.274 OA
ENDBRANCH  10  22
ENDBRANCH   7   9
ENDBRANCH   6   7
ENDBRANCH   5   6
ENDBRANCH   4   5
ENDBRANCH   3   4
ENDBRANCH   2   3
ENDBRANCH   1   2
BRANCH   1  25
ATOM     25  O   UNL A   1      35.435  21.415  24.591  1.00  0.00    -0.376 OA
BRANCH  25  26
ATOM     26  C   UNL A   1      36.558  21.458  25.476  1.00  0.00     0.202 C 
BRANCH  26  27
ATOM     27  C   UNL A   1      37.957  21.044  24.995  1.00  0.00     0.261 C 
BRANCH  27  28
ATOM     28  O   UNL A   1      39.014  21.298  25.908  1.00  0.00    -0.460 OA
BRANCH  28  29
ATOM     29  C   UNL A   1      40.031  20.418  25.930  1.00  0.00     0.338 C 
ATOM     30  O   UNL A   1      40.003  19.240  25.619  1.00  0.00    -0.246 OA
BRANCH  29  31
ATOM     31  C   UNL A   1      41.230  21.165  26.347  1.00  0.00     0.060 A 
ATOM     32  C   UNL A   1      41.762  20.838  27.588  1.00  0.00     0.016 A 
ATOM     33  C   UNL A   1      41.631  22.308  25.631  1.00  0.00     0.016 A 
ATOM     34  C   UNL A   1      42.345  21.858  28.290  1.00  0.00     0.010 A 
ATOM     35  C   UNL A   1      42.202  23.331  26.331  1.00  0.00     0.010 A 
ATOM     36  C   UNL A   1      42.379  23.120  27.688  1.00  0.00    -0.014 A 
BRANCH  36  37
ATOM     37  C   UNL A   1      42.368  24.253  28.572  1.00  0.00     0.031 A 
ATOM     38  C   UNL A   1      41.288  25.206  28.317  1.00  0.00     0.074 A 
ATOM     39  C   UNL A   1      43.297  24.387  29.534  1.00  0.00     0.049 A 
ATOM     40  N   UNL A   1      41.395  26.379  27.797  1.00  0.00    -0.248 NA
ATOM     41  C   UNL A   1      39.917  24.731  28.530  1.00  0.00     0.031 C 
ATOM     42  C   UNL A   1      44.236  23.398  30.074  1.00  0.00     0.029 A 
ATOM     43  N   UNL A   1      43.523  25.476  30.304  1.00  0.00    -0.354 N 
ATOM     44  C   UNL A   1      40.099  26.863  27.734  1.00  0.00     0.074 A 
ATOM     45  C   UNL A   1      39.223  25.761  28.051  1.00  0.00     0.031 C 
ATOM     46  C   UNL A   1      44.759  23.873  31.231  1.00  0.00     0.029 A 
ATOM     47  C   UNL A   1      44.304  25.240  31.421  1.00  0.00     0.049 A 
ATOM     48  H   UNL A   1      43.159  26.366  30.087  1.00  0.00     0.167 HD
ATOM     49  C   UNL A   1      39.830  28.188  27.625  1.00  0.00     0.031 A 
ATOM     50  C   UNL A   1      44.458  26.105  32.452  1.00  0.00     0.031 A 
ATOM     51  C   UNL A   1      40.979  28.956  27.236  1.00  0.00     0.049 A 
ATOM     52  C   UNL A   1      44.087  27.454  31.949  1.00  0.00     0.074 A 
ATOM     53  C   UNL A   1      41.758  29.018  26.098  1.00  0.00     0.029 A 
ATOM     54  N   UNL A   1      41.722  29.536  28.237  1.00  0.00    -0.354 N 
ATOM     55  N   UNL A   1      44.772  28.102  31.048  1.00  0.00    -0.248 NA
ATOM     56  C   UNL A   1      42.711  27.900  32.121  1.00  0.00     0.031 C 
ATOM     57  C   UNL A   1      43.089  29.220  26.566  1.00  0.00     0.029 A 
ATOM     58  C   UNL A   1      43.047  29.299  27.960  1.00  0.00     0.049 A 
ATOM     59  H   UNL A   1      41.370  30.030  29.013  1.00  0.00     0.167 HD
ATOM     60  C   UNL A   1      43.823  28.752  30.270  1.00  0.00     0.074 A 
ATOM     61  C   UNL A   1      42.583  28.671  31.037  1.00  0.00     0.031 C 
ATOM     62  C   UNL A   1      44.064  29.048  28.959  1.00  0.00     0.031 A 
BRANCH  49  63
ATOM     63  C   UNL A   1      38.586  28.789  28.193  1.00  0.00    -0.014 A 
ATOM     64  C   UNL A   1      37.834  29.686  27.426  1.00  0.00     0.009 A 
ATOM     65  C   UNL A   1      38.245  28.656  29.555  1.00  0.00     0.009 A 
ATOM     66  C   UNL A   1      36.787  30.415  28.001  1.00  0.00     0.001 A 
ATOM     67  C   UNL A   1      37.173  29.345  30.120  1.00  0.00     0.001 A 
ATOM     68  C   UNL A   1      36.453  30.239  29.343  1.00  0.00     0.000 A 
ENDBRANCH  49  63
BRANCH  50  69
ATOM     69  C   UNL A   1      44.501  25.786  33.897  1.00  0.00    -0.014 A 
ATOM     70  C   UNL A   1      43.634  24.817  34.427  1.00  0.00     0.009 A 
ATOM     71  C   UNL A   1      45.580  26.205  34.697  1.00  0.00     0.009 A 
ATOM     72  C   UNL A   1      43.876  24.244  35.683  1.00  0.00     0.001 A 
ATOM     73  C   UNL A   1      45.815  25.640  35.955  1.00  0.00     0.001 A 
ATOM     74  C   UNL A   1      44.975  24.643  36.438  1.00  0.00     0.000 A 
ENDBRANCH  50  69
BRANCH  62  75
ATOM     75  C   UNL A   1      45.463  28.816  28.438  1.00  0.00    -0.014 A 
ATOM     76  C   UNL A   1      45.808  27.671  27.698  1.00  0.00     0.009 A 
ATOM     77  C   UNL A   1      46.397  29.857  28.532  1.00  0.00     0.009 A 
ATOM     78  C   UNL A   1      47.059  27.569  27.078  1.00  0.00     0.001 A 
ATOM     79  C   UNL A   1      47.640  29.761  27.900  1.00  0.00     0.001 A 
ATOM     80  C   UNL A   1      47.970  28.619  27.172  1.00  0.00     0.000 A 
ENDBRANCH  62  75
ENDBRANCH  36  37
ENDBRANCH  29  31
ENDBRANCH  28  29
ENDBRANCH  27  28
ENDBRANCH  26  27
ENDBRANCH  25  26
ENDBRANCH   1  25
TORSDOF 18
ENDMDL
