MODEL 1
REMARK VINA RESULT:     -11.1      0.000      0.000
REMARK SMILES O=C(OCCOCCOCCOC(=O)[C@@H]1Cc2ccccc2CN1C(=O)COc1ccccc1)c1ccc(-c2c3nc(c(-c4ccccc4)c4ccc([nH]4)c(-c4ccccc4)c4nc(c(-c5ccccc5)c5ccc2[nH]5)C=C4)C=C3)cc1
REMARK SMILES IDX 8 1 7 2 6 3 5 4 4 5 3 6 2 7 1 8 35 9 36 10 82 11 37 12 81 13
REMARK SMILES IDX 38 14 39 15 40 16 75 17 41 18 80 19 74 20 76 21 42 22 79 23
REMARK SMILES IDX 73 24 72 25 43 27 65 28 50 29 64 30 51 31 54 32 63 33 77 34
REMARK SMILES IDX 52 35 53 36 62 38 78 39 55 40 44 41 45 42 49 43 46 44 48 45
REMARK SMILES IDX 47 46 66 47 67 48 71 49 68 50 70 51 69 52 56 53 57 54 61 55
REMARK SMILES IDX 58 56 60 57 59 58 9 59 10 60 11 61 12 62 13 63 14 64 15 65
REMARK SMILES IDX 16 66 24 67 17 68 23 69 18 70 22 71 19 72 21 73 20 74 25 75
REMARK SMILES IDX 26 76 27 77 28 78 29 79 30 80 34 81 31 82 33 83 32 84
REMARK H PARENT 76 26 54 37
REMARK Flexibility Score: inf
ROOT
ATOM      1  C   UNL A   1      40.133  21.682  26.828  1.00  0.00     0.188 C 
ENDROOT
BRANCH   1   2
ATOM      2  C   UNL A   1      40.729  20.313  26.494  1.00  0.00     0.188 C 
BRANCH   2   3
ATOM      3  O   UNL A   1      42.117  20.255  26.852  1.00  0.00    -0.376 OA
BRANCH   3   4
ATOM      4  C   UNL A   1      42.971  19.895  25.765  1.00  0.00     0.202 C 
BRANCH   4   5
ATOM      5  C   UNL A   1      43.891  21.027  25.295  1.00  0.00     0.261 C 
BRANCH   5   6
ATOM      6  O   UNL A   1      43.176  22.236  25.012  1.00  0.00    -0.460 OA
BRANCH   6   7
ATOM      7  C   UNL A   1      43.595  23.516  25.160  1.00  0.00     0.338 C 
ATOM      8  O   UNL A   1      44.349  23.975  24.302  1.00  0.00    -0.246 OA
BRANCH   7   9
ATOM      9  C   UNL A   1      43.184  24.430  26.280  1.00  0.00     0.060 A 
ATOM     10  C   UNL A   1      42.143  24.214  27.190  1.00  0.00     0.016 A 
ATOM     11  C   UNL A   1      43.959  25.588  26.457  1.00  0.00     0.016 A 
ATOM     12  C   UNL A   1      41.825  25.136  28.191  1.00  0.00     0.010 A 
ATOM     13  C   UNL A   1      43.675  26.496  27.482  1.00  0.00     0.010 A 
ATOM     14  C   UNL A   1      42.585  26.287  28.342  1.00  0.00    -0.014 A 
BRANCH  14  15
ATOM     15  C   UNL A   1      42.209  27.330  29.324  1.00  0.00     0.031 A 
ATOM     16  C   UNL A   1      42.825  27.263  30.685  1.00  0.00     0.074 A 
ATOM     17  C   UNL A   1      41.292  28.274  29.034  1.00  0.00     0.049 A 
ATOM     18  N   UNL A   1      42.520  27.939  31.757  1.00  0.00    -0.248 NA
ATOM     19  C   UNL A   1      43.972  26.350  30.847  1.00  0.00     0.031 C 
ATOM     20  C   UNL A   1      40.734  28.556  27.715  1.00  0.00     0.029 A 
ATOM     21  N   UNL A   1      40.566  29.086  29.867  1.00  0.00    -0.354 N 
ATOM     22  C   UNL A   1      43.470  27.581  32.700  1.00  0.00     0.074 A 
ATOM     23  C   UNL A   1      44.307  26.563  32.110  1.00  0.00     0.031 C 
ATOM     24  C   UNL A   1      39.609  29.276  27.850  1.00  0.00     0.029 A 
ATOM     25  C   UNL A   1      39.427  29.576  29.262  1.00  0.00     0.049 A 
ATOM     26  H   UNL A   1      40.828  29.296  30.793  1.00  0.00     0.167 HD
ATOM     27  C   UNL A   1      43.653  28.106  33.932  1.00  0.00     0.031 A 
ATOM     28  C   UNL A   1      38.346  30.165  29.803  1.00  0.00     0.031 A 
ATOM     29  C   UNL A   1      42.786  29.097  34.500  1.00  0.00     0.049 A 
ATOM     30  C   UNL A   1      38.417  30.542  31.254  1.00  0.00     0.074 A 
ATOM     31  C   UNL A   1      42.890  29.749  35.714  1.00  0.00     0.029 A 
ATOM     32  N   UNL A   1      41.628  29.559  33.891  1.00  0.00    -0.354 N 
ATOM     33  N   UNL A   1      39.368  30.283  32.118  1.00  0.00    -0.248 NA
ATOM     34  C   UNL A   1      37.319  31.358  31.784  1.00  0.00     0.031 C 
ATOM     35  C   UNL A   1      41.760  30.560  35.865  1.00  0.00     0.029 A 
ATOM     36  C   UNL A   1      40.978  30.448  34.724  1.00  0.00     0.049 A 
ATOM     37  H   UNL A   1      41.316  29.290  32.996  1.00  0.00     0.167 HD
ATOM     38  C   UNL A   1      39.030  30.977  33.269  1.00  0.00     0.074 A 
ATOM     39  C   UNL A   1      37.767  31.638  33.000  1.00  0.00     0.031 C 
ATOM     40  C   UNL A   1      39.722  31.089  34.428  1.00  0.00     0.031 A 
BRANCH  27  41
ATOM     41  C   UNL A   1      44.832  27.614  34.714  1.00  0.00    -0.014 A 
ATOM     42  C   UNL A   1      46.099  28.200  34.554  1.00  0.00     0.009 A 
ATOM     43  C   UNL A   1      44.682  26.554  35.619  1.00  0.00     0.009 A 
ATOM     44  C   UNL A   1      47.199  27.715  35.263  1.00  0.00     0.001 A 
ATOM     45  C   UNL A   1      45.779  26.083  36.342  1.00  0.00     0.001 A 
ATOM     46  C   UNL A   1      47.037  26.657  36.158  1.00  0.00     0.000 A 
ENDBRANCH  27  41
BRANCH  28  47
ATOM     47  C   UNL A   1      37.136  30.444  28.987  1.00  0.00    -0.014 A 
ATOM     48  C   UNL A   1      36.803  31.750  28.605  1.00  0.00     0.009 A 
ATOM     49  C   UNL A   1      36.282  29.391  28.615  1.00  0.00     0.009 A 
ATOM     50  C   UNL A   1      35.619  32.005  27.904  1.00  0.00     0.001 A 
ATOM     51  C   UNL A   1      35.109  29.646  27.898  1.00  0.00     0.001 A 
ATOM     52  C   UNL A   1      34.772  30.953  27.554  1.00  0.00     0.000 A 
ENDBRANCH  28  47
BRANCH  40  53
ATOM     53  C   UNL A   1      39.149  32.003  35.468  1.00  0.00    -0.014 A 
ATOM     54  C   UNL A   1      39.432  33.376  35.464  1.00  0.00     0.009 A 
ATOM     55  C   UNL A   1      38.281  31.480  36.439  1.00  0.00     0.009 A 
ATOM     56  C   UNL A   1      38.873  34.207  36.435  1.00  0.00     0.001 A 
ATOM     57  C   UNL A   1      37.701  32.318  37.389  1.00  0.00     0.001 A 
ATOM     58  C   UNL A   1      38.004  33.679  37.390  1.00  0.00     0.000 A 
ENDBRANCH  40  53
ENDBRANCH  14  15
ENDBRANCH   7   9
ENDBRANCH   6   7
ENDBRANCH   5   6
ENDBRANCH   4   5
ENDBRANCH   3   4
ENDBRANCH   2   3
ENDBRANCH   1   2
BRANCH   1  59
ATOM     59  O   UNL A   1      38.861  21.993  26.254  1.00  0.00    -0.376 OA
BRANCH  59  60
ATOM     60  C   UNL A   1      38.273  21.044  25.370  1.00  0.00     0.202 C 
BRANCH  60  61
ATOM     61  C   UNL A   1      37.146  21.515  24.428  1.00  0.00     0.261 C 
BRANCH  61  62
ATOM     62  O   UNL A   1      36.492  22.737  24.814  1.00  0.00    -0.462 OA
BRANCH  62  63
ATOM     63  C   UNL A   1      35.688  23.250  23.836  1.00  0.00     0.329 C 
ATOM     64  O   UNL A   1      35.995  23.178  22.661  1.00  0.00    -0.250 OA
BRANCH  63  65
ATOM     65  C   UNL A   1      34.370  23.898  24.373  1.00  0.00     0.200 C 
ATOM     66  C   UNL A   1      34.720  24.998  25.414  1.00  0.00     0.073 C 
ATOM     67  N   UNL A   1      33.287  23.009  24.929  1.00  0.00    -0.321 N 
ATOM     68  C   UNL A   1      33.490  25.803  25.733  1.00  0.00    -0.040 A 
ATOM     69  C   UNL A   1      32.421  23.575  25.983  1.00  0.00     0.156 C 
ATOM     70  C   UNL A   1      33.466  27.195  25.821  1.00  0.00     0.004 A 
ATOM     71  C   UNL A   1      32.314  25.080  25.939  1.00  0.00    -0.025 A 
ATOM     72  C   UNL A   1      32.272  27.876  26.044  1.00  0.00     0.000 A 
ATOM     73  C   UNL A   1      31.111  25.763  26.158  1.00  0.00     0.006 A 
ATOM     74  C   UNL A   1      31.090  27.160  26.194  1.00  0.00     0.000 A 
BRANCH  67  75
ATOM     75  C   UNL A   1      32.817  21.811  24.413  1.00  0.00     0.261 C 
ATOM     76  O   UNL A   1      32.534  21.720  23.209  1.00  0.00    -0.271 OA
BRANCH  75  77
ATOM     77  C   UNL A   1      32.622  20.578  25.288  1.00  0.00     0.329 C 
BRANCH  77  78
ATOM     78  O   UNL A   1      31.915  19.472  24.769  1.00  0.00    -0.484 OA
BRANCH  78  79
ATOM     79  C   UNL A   1      32.588  18.316  24.544  1.00  0.00     0.120 A 
ATOM     80  C   UNL A   1      32.672  17.470  25.651  1.00  0.00     0.046 A 
ATOM     81  C   UNL A   1      33.259  17.995  23.368  1.00  0.00     0.046 A 
ATOM     82  C   UNL A   1      33.405  16.289  25.578  1.00  0.00     0.004 A 
ATOM     83  C   UNL A   1      34.006  16.819  23.301  1.00  0.00     0.004 A 
ATOM     84  C   UNL A   1      34.076  15.964  24.402  1.00  0.00     0.000 A 
ENDBRANCH  78  79
ENDBRANCH  77  78
ENDBRANCH  75  77
ENDBRANCH  67  75
ENDBRANCH  63  65
ENDBRANCH  62  63
ENDBRANCH  61  62
ENDBRANCH  60  61
ENDBRANCH  59  60
ENDBRANCH   1  59
TORSDOF 21
ENDMDL
MODEL 2
REMARK VINA RESULT:     -10.9      4.224      6.182
REMARK SMILES O=C(OCCOCCOCCOC(=O)[C@@H]1Cc2ccccc2CN1C(=O)COc1ccccc1)c1ccc(-c2c3nc(c(-c4ccccc4)c4ccc([nH]4)c(-c4ccccc4)c4nc(c(-c5ccccc5)c5ccc2[nH]5)C=C4)C=C3)cc1
REMARK SMILES IDX 8 1 7 2 6 3 5 4 4 5 3 6 2 7 1 8 35 9 36 10 82 11 37 12 81 13
REMARK SMILES IDX 38 14 39 15 40 16 75 17 41 18 80 19 74 20 76 21 42 22 79 23
REMARK SMILES IDX 73 24 72 25 43 27 65 28 50 29 64 30 51 31 54 32 63 33 77 34
REMARK SMILES IDX 52 35 53 36 62 38 78 39 55 40 44 41 45 42 49 43 46 44 48 45
REMARK SMILES IDX 47 46 66 47 67 48 71 49 68 50 70 51 69 52 56 53 57 54 61 55
REMARK SMILES IDX 58 56 60 57 59 58 9 59 10 60 11 61 12 62 13 63 14 64 15 65
REMARK SMILES IDX 16 66 24 67 17 68 23 69 18 70 22 71 19 72 21 73 20 74 25 75
REMARK SMILES IDX 26 76 27 77 28 78 29 79 30 80 34 81 31 82 33 83 32 84
REMARK H PARENT 76 26 54 37
REMARK Flexibility Score: inf
ROOT
ATOM      1  C   UNL A   1      39.913  21.945  26.525  1.00  0.00     0.188 C 
ENDROOT
BRANCH   1   2
ATOM      2  C   UNL A   1      41.400  21.610  26.404  1.00  0.00     0.188 C 
BRANCH   2   3
ATOM      3  O   UNL A   1      41.682  20.312  26.946  1.00  0.00    -0.376 OA
BRANCH   3   4
ATOM      4  C   UNL A   1      41.833  19.299  25.949  1.00  0.00     0.202 C 
BRANCH   4   5
ATOM      5  C   UNL A   1      43.144  18.513  26.056  1.00  0.00     0.261 C 
BRANCH   5   6
ATOM      6  O   UNL A   1      43.934  18.594  24.862  1.00  0.00    -0.460 OA
BRANCH   6   7
ATOM      7  C   UNL A   1      44.983  19.411  24.601  1.00  0.00     0.338 C 
ATOM      8  O   UNL A   1      46.011  18.900  24.158  1.00  0.00    -0.246 OA
BRANCH   7   9
ATOM      9  C   UNL A   1      44.975  20.903  24.784  1.00  0.00     0.060 A 
ATOM     10  C   UNL A   1      44.779  21.863  23.785  1.00  0.00     0.016 A 
ATOM     11  C   UNL A   1      45.128  21.371  26.100  1.00  0.00     0.016 A 
ATOM     12  C   UNL A   1      44.808  23.234  24.053  1.00  0.00     0.010 A 
ATOM     13  C   UNL A   1      45.116  22.740  26.384  1.00  0.00     0.010 A 
ATOM     14  C   UNL A   1      44.981  23.684  25.354  1.00  0.00    -0.014 A 
BRANCH  14  15
ATOM     15  C   UNL A   1      45.119  25.128  25.652  1.00  0.00     0.031 A 
ATOM     16  C   UNL A   1      46.498  25.677  25.829  1.00  0.00     0.074 A 
ATOM     17  C   UNL A   1      44.041  25.918  25.826  1.00  0.00     0.049 A 
ATOM     18  N   UNL A   1      46.864  26.848  26.271  1.00  0.00    -0.248 NA
ATOM     19  C   UNL A   1      47.613  24.810  25.405  1.00  0.00     0.031 C 
ATOM     20  C   UNL A   1      42.655  25.563  25.531  1.00  0.00     0.029 A 
ATOM     21  N   UNL A   1      43.933  27.148  26.426  1.00  0.00    -0.354 N 
ATOM     22  C   UNL A   1      48.242  26.883  26.121  1.00  0.00     0.074 A 
ATOM     23  C   UNL A   1      48.660  25.588  25.635  1.00  0.00     0.031 C 
ATOM     24  C   UNL A   1      41.831  26.418  26.158  1.00  0.00     0.029 A 
ATOM     25  C   UNL A   1      42.641  27.427  26.821  1.00  0.00     0.049 A 
ATOM     26  H   UNL A   1      44.692  27.760  26.559  1.00  0.00     0.167 HD
ATOM     27  C   UNL A   1      49.070  27.931  26.320  1.00  0.00     0.031 A 
ATOM     28  C   UNL A   1      42.180  28.374  27.658  1.00  0.00     0.031 A 
ATOM     29  C   UNL A   1      48.627  29.197  26.832  1.00  0.00     0.049 A 
ATOM     30  C   UNL A   1      43.147  29.429  28.110  1.00  0.00     0.074 A 
ATOM     31  C   UNL A   1      49.353  30.355  27.031  1.00  0.00     0.029 A 
ATOM     32  N   UNL A   1      47.330  29.453  27.252  1.00  0.00    -0.354 N 
ATOM     33  N   UNL A   1      44.436  29.506  27.880  1.00  0.00    -0.248 NA
ATOM     34  C   UNL A   1      42.593  30.563  28.857  1.00  0.00     0.031 C 
ATOM     35  C   UNL A   1      48.507  31.294  27.631  1.00  0.00     0.029 A 
ATOM     36  C   UNL A   1      47.243  30.735  27.760  1.00  0.00     0.049 A 
ATOM     37  H   UNL A   1      46.582  28.815  27.197  1.00  0.00     0.167 HD
ATOM     38  C   UNL A   1      44.833  30.738  28.376  1.00  0.00     0.074 A 
ATOM     39  C   UNL A   1      43.652  31.355  28.950  1.00  0.00     0.031 C 
ATOM     40  C   UNL A   1      46.054  31.321  28.324  1.00  0.00     0.031 A 
BRANCH  27  41
ATOM     41  C   UNL A   1      50.515  27.734  25.976  1.00  0.00    -0.014 A 
ATOM     42  C   UNL A   1      50.988  27.992  24.678  1.00  0.00     0.009 A 
ATOM     43  C   UNL A   1      51.414  27.286  26.953  1.00  0.00     0.009 A 
ATOM     44  C   UNL A   1      52.329  27.774  24.358  1.00  0.00     0.001 A 
ATOM     45  C   UNL A   1      52.759  27.088  26.635  1.00  0.00     0.001 A 
ATOM     46  C   UNL A   1      53.214  27.325  25.337  1.00  0.00     0.000 A 
ENDBRANCH  27  41
BRANCH  28  47
ATOM     47  C   UNL A   1      40.763  28.379  28.103  1.00  0.00    -0.014 A 
ATOM     48  C   UNL A   1      39.783  29.090  27.397  1.00  0.00     0.009 A 
ATOM     49  C   UNL A   1      40.390  27.691  29.271  1.00  0.00     0.009 A 
ATOM     50  C   UNL A   1      38.469  29.149  27.872  1.00  0.00     0.001 A 
ATOM     51  C   UNL A   1      39.071  27.736  29.733  1.00  0.00     0.001 A 
ATOM     52  C   UNL A   1      38.114  28.475  29.041  1.00  0.00     0.000 A 
ENDBRANCH  28  47
BRANCH  40  53
ATOM     53  C   UNL A   1      46.156  32.718  28.857  1.00  0.00    -0.014 A 
ATOM     54  C   UNL A   1      45.897  33.827  28.040  1.00  0.00     0.009 A 
ATOM     55  C   UNL A   1      46.478  32.916  30.209  1.00  0.00     0.009 A 
ATOM     56  C   UNL A   1      45.984  35.116  28.566  1.00  0.00     0.001 A 
ATOM     57  C   UNL A   1      46.534  34.204  30.737  1.00  0.00     0.001 A 
ATOM     58  C   UNL A   1      46.295  35.302  29.913  1.00  0.00     0.000 A 
ENDBRANCH  40  53
ENDBRANCH  14  15
ENDBRANCH   7   9
ENDBRANCH   6   7
ENDBRANCH   5   6
ENDBRANCH   4   5
ENDBRANCH   3   4
ENDBRANCH   2   3
ENDBRANCH   1   2
BRANCH   1  59
ATOM     59  O   UNL A   1      39.077  21.599  25.418  1.00  0.00    -0.376 OA
BRANCH  59  60
ATOM     60  C   UNL A   1      37.667  21.721  25.577  1.00  0.00     0.202 C 
BRANCH  60  61
ATOM     61  C   UNL A   1      36.895  22.644  24.613  1.00  0.00     0.261 C 
BRANCH  61  62
ATOM     62  O   UNL A   1      35.497  22.810  24.908  1.00  0.00    -0.462 OA
BRANCH  62  63
ATOM     63  C   UNL A   1      34.838  23.570  23.984  1.00  0.00     0.329 C 
ATOM     64  O   UNL A   1      35.062  23.456  22.793  1.00  0.00    -0.250 OA
BRANCH  63  65
ATOM     65  C   UNL A   1      33.788  24.551  24.600  1.00  0.00     0.200 C 
ATOM     66  C   UNL A   1      34.485  25.463  25.649  1.00  0.00     0.073 C 
ATOM     67  N   UNL A   1      32.517  23.995  25.187  1.00  0.00    -0.321 N 
ATOM     68  C   UNL A   1      33.556  26.578  26.048  1.00  0.00    -0.040 A 
ATOM     69  C   UNL A   1      31.896  24.747  26.296  1.00  0.00     0.156 C 
ATOM     70  C   UNL A   1      33.943  27.912  26.171  1.00  0.00     0.004 A 
ATOM     71  C   UNL A   1      32.231  26.219  26.294  1.00  0.00    -0.025 A 
ATOM     72  C   UNL A   1      33.009  28.902  26.469  1.00  0.00     0.000 A 
ATOM     73  C   UNL A   1      31.289  27.213  26.589  1.00  0.00     0.006 A 
ATOM     74  C   UNL A   1      31.676  28.553  26.660  1.00  0.00     0.000 A 
BRANCH  67  75
ATOM     75  C   UNL A   1      31.698  23.005  24.667  1.00  0.00     0.261 C 
ATOM     76  O   UNL A   1      30.683  23.311  24.024  1.00  0.00    -0.271 OA
BRANCH  75  77
ATOM     77  C   UNL A   1      31.998  21.523  24.864  1.00  0.00     0.329 C 
BRANCH  77  78
ATOM     78  O   UNL A   1      32.099  20.686  23.733  1.00  0.00    -0.484 OA
BRANCH  78  79
ATOM     79  C   UNL A   1      32.917  19.605  23.792  1.00  0.00     0.120 A 
ATOM     80  C   UNL A   1      32.453  18.489  23.096  1.00  0.00     0.046 A 
ATOM     81  C   UNL A   1      34.073  19.518  24.561  1.00  0.00     0.046 A 
ATOM     82  C   UNL A   1      33.157  17.289  23.143  1.00  0.00     0.004 A 
ATOM     83  C   UNL A   1      34.770  18.310  24.621  1.00  0.00     0.004 A 
ATOM     84  C   UNL A   1      34.315  17.198  23.910  1.00  0.00     0.000 A 
ENDBRANCH  78  79
ENDBRANCH  77  78
ENDBRANCH  75  77
ENDBRANCH  67  75
ENDBRANCH  63  65
ENDBRANCH  62  63
ENDBRANCH  61  62
ENDBRANCH  60  61
ENDBRANCH  59  60
ENDBRANCH   1  59
TORSDOF 21
ENDMDL
MODEL 3
REMARK VINA RESULT:     -10.8      3.880      8.332
REMARK SMILES O=C(OCCOCCOCCOC(=O)[C@@H]1Cc2ccccc2CN1C(=O)COc1ccccc1)c1ccc(-c2c3nc(c(-c4ccccc4)c4ccc([nH]4)c(-c4ccccc4)c4nc(c(-c5ccccc5)c5ccc2[nH]5)C=C4)C=C3)cc1
REMARK SMILES IDX 8 1 7 2 6 3 5 4 4 5 3 6 2 7 1 8 35 9 36 10 82 11 37 12 81 13
REMARK SMILES IDX 38 14 39 15 40 16 75 17 41 18 80 19 74 20 76 21 42 22 79 23
REMARK SMILES IDX 73 24 72 25 43 27 65 28 50 29 64 30 51 31 54 32 63 33 77 34
REMARK SMILES IDX 52 35 53 36 62 38 78 39 55 40 44 41 45 42 49 43 46 44 48 45
REMARK SMILES IDX 47 46 66 47 67 48 71 49 68 50 70 51 69 52 56 53 57 54 61 55
REMARK SMILES IDX 58 56 60 57 59 58 9 59 10 60 11 61 12 62 13 63 14 64 15 65
REMARK SMILES IDX 16 66 24 67 17 68 23 69 18 70 22 71 19 72 21 73 20 74 25 75
REMARK SMILES IDX 26 76 27 77 28 78 29 79 30 80 34 81 31 82 33 83 32 84
REMARK H PARENT 76 26 54 37
REMARK Flexibility Score: inf
ROOT
ATOM      1  C   UNL A   1      34.654  21.953  24.548  1.00  0.00     0.188 C 
ENDROOT
BRANCH   1   2
ATOM      2  C   UNL A   1      35.600  20.880  25.090  1.00  0.00     0.188 C 
BRANCH   2   3
ATOM      3  O   UNL A   1      36.932  21.069  24.592  1.00  0.00    -0.376 OA
BRANCH   3   4
ATOM      4  C   UNL A   1      37.749  19.901  24.694  1.00  0.00     0.202 C 
BRANCH   4   5
ATOM      5  C   UNL A   1      38.681  19.898  25.910  1.00  0.00     0.261 C 
BRANCH   5   6
ATOM      6  O   UNL A   1      39.888  19.159  25.678  1.00  0.00    -0.460 OA
BRANCH   6   7
ATOM      7  C   UNL A   1      41.158  19.499  26.004  1.00  0.00     0.338 C 
ATOM      8  O   UNL A   1      42.021  18.623  25.934  1.00  0.00    -0.246 OA
BRANCH   7   9
ATOM      9  C   UNL A   1      41.600  20.875  26.416  1.00  0.00     0.060 A 
ATOM     10  C   UNL A   1      42.041  21.896  25.567  1.00  0.00     0.016 A 
ATOM     11  C   UNL A   1      41.509  21.175  27.785  1.00  0.00     0.016 A 
ATOM     12  C   UNL A   1      42.450  23.142  26.050  1.00  0.00     0.010 A 
ATOM     13  C   UNL A   1      41.876  22.434  28.273  1.00  0.00     0.010 A 
ATOM     14  C   UNL A   1      42.375  23.420  27.408  1.00  0.00    -0.014 A 
BRANCH  14  15
ATOM     15  C   UNL A   1      42.897  24.691  27.959  1.00  0.00     0.031 A 
ATOM     16  C   UNL A   1      41.927  25.806  28.184  1.00  0.00     0.074 A 
ATOM     17  C   UNL A   1      44.212  24.871  28.192  1.00  0.00     0.049 A 
ATOM     18  N   UNL A   1      42.166  27.054  28.477  1.00  0.00    -0.248 NA
ATOM     19  C   UNL A   1      40.495  25.459  28.120  1.00  0.00     0.031 C 
ATOM     20  C   UNL A   1      45.241  23.835  28.171  1.00  0.00     0.029 A 
ATOM     21  N   UNL A   1      44.930  26.028  28.361  1.00  0.00    -0.354 N 
ATOM     22  C   UNL A   1      40.922  27.625  28.693  1.00  0.00     0.074 A 
ATOM     23  C   UNL A   1      39.926  26.619  28.409  1.00  0.00     0.031 C 
ATOM     24  C   UNL A   1      46.451  24.408  28.074  1.00  0.00     0.029 A 
ATOM     25  C   UNL A   1      46.277  25.851  28.118  1.00  0.00     0.049 A 
ATOM     26  H   UNL A   1      44.529  26.887  28.626  1.00  0.00     0.167 HD
ATOM     27  C   UNL A   1      40.649  28.869  29.145  1.00  0.00     0.031 A 
ATOM     28  C   UNL A   1      47.245  26.762  27.916  1.00  0.00     0.031 A 
ATOM     29  C   UNL A   1      41.662  29.856  29.390  1.00  0.00     0.049 A 
ATOM     30  C   UNL A   1      46.904  28.202  28.168  1.00  0.00     0.074 A 
ATOM     31  C   UNL A   1      41.524  31.133  29.898  1.00  0.00     0.029 A 
ATOM     32  N   UNL A   1      43.008  29.672  29.113  1.00  0.00    -0.354 N 
ATOM     33  N   UNL A   1      45.739  28.724  28.468  1.00  0.00    -0.248 NA
ATOM     34  C   UNL A   1      48.012  29.163  28.138  1.00  0.00     0.031 C 
ATOM     35  C   UNL A   1      42.783  31.744  29.869  1.00  0.00     0.029 A 
ATOM     36  C   UNL A   1      43.709  30.830  29.389  1.00  0.00     0.049 A 
ATOM     37  H   UNL A   1      43.406  28.839  28.770  1.00  0.00     0.167 HD
ATOM     38  C   UNL A   1      45.987  30.057  28.751  1.00  0.00     0.074 A 
ATOM     39  C   UNL A   1      47.408  30.268  28.551  1.00  0.00     0.031 C 
ATOM     40  C   UNL A   1      45.123  31.010  29.178  1.00  0.00     0.031 A 
BRANCH  27  41
ATOM     41  C   UNL A   1      39.211  29.202  29.399  1.00  0.00    -0.014 A 
ATOM     42  C   UNL A   1      38.617  28.931  30.643  1.00  0.00     0.009 A 
ATOM     43  C   UNL A   1      38.437  29.789  28.389  1.00  0.00     0.009 A 
ATOM     44  C   UNL A   1      37.268  29.215  30.861  1.00  0.00     0.001 A 
ATOM     45  C   UNL A   1      37.093  30.090  28.615  1.00  0.00     0.001 A 
ATOM     46  C   UNL A   1      36.508  29.796  29.847  1.00  0.00     0.000 A 
ENDBRANCH  27  41
BRANCH  28  47
ATOM     47  C   UNL A   1      48.603  26.352  27.474  1.00  0.00    -0.014 A 
ATOM     48  C   UNL A   1      49.594  26.005  28.401  1.00  0.00     0.009 A 
ATOM     49  C   UNL A   1      48.923  26.341  26.105  1.00  0.00     0.009 A 
ATOM     50  C   UNL A   1      50.890  25.697  27.973  1.00  0.00     0.001 A 
ATOM     51  C   UNL A   1      50.214  26.015  25.679  1.00  0.00     0.001 A 
ATOM     52  C   UNL A   1      51.200  25.705  26.613  1.00  0.00     0.000 A 
ENDBRANCH  28  47
BRANCH  40  53
ATOM     53  C   UNL A   1      45.708  32.350  29.506  1.00  0.00    -0.014 A 
ATOM     54  C   UNL A   1      46.340  32.585  30.734  1.00  0.00     0.009 A 
ATOM     55  C   UNL A   1      45.656  33.375  28.549  1.00  0.00     0.009 A 
ATOM     56  C   UNL A   1      46.889  33.838  31.008  1.00  0.00     0.001 A 
ATOM     57  C   UNL A   1      46.232  34.615  28.814  1.00  0.00     0.001 A 
ATOM     58  C   UNL A   1      46.842  34.847  30.046  1.00  0.00     0.000 A 
ENDBRANCH  40  53
ENDBRANCH  14  15
ENDBRANCH   7   9
ENDBRANCH   6   7
ENDBRANCH   5   6
ENDBRANCH   4   5
ENDBRANCH   3   4
ENDBRANCH   2   3
ENDBRANCH   1   2
BRANCH   1  59
ATOM     59  O   UNL A   1      33.617  22.405  25.421  1.00  0.00    -0.376 OA
BRANCH  59  60
ATOM     60  C   UNL A   1      32.439  21.613  25.532  1.00  0.00     0.202 C 
BRANCH  60  61
ATOM     61  C   UNL A   1      31.081  22.330  25.674  1.00  0.00     0.261 C 
BRANCH  61  62
ATOM     62  O   UNL A   1      30.887  23.458  24.804  1.00  0.00    -0.462 OA
BRANCH  62  63
ATOM     63  C   UNL A   1      30.610  24.616  25.475  1.00  0.00     0.329 C 
ATOM     64  O   UNL A   1      30.383  24.616  26.670  1.00  0.00    -0.250 OA
BRANCH  63  65
ATOM     65  C   UNL A   1      30.637  25.894  24.575  1.00  0.00     0.200 C 
ATOM     66  C   UNL A   1      29.224  26.133  23.972  1.00  0.00     0.073 C 
ATOM     67  N   UNL A   1      31.671  26.005  23.485  1.00  0.00    -0.321 N 
ATOM     68  C   UNL A   1      29.170  27.493  23.330  1.00  0.00    -0.040 A 
ATOM     69  C   UNL A   1      31.313  26.791  22.287  1.00  0.00     0.156 C 
ATOM     70  C   UNL A   1      28.113  28.389  23.484  1.00  0.00     0.004 A 
ATOM     71  C   UNL A   1      30.267  27.849  22.546  1.00  0.00    -0.025 A 
ATOM     72  C   UNL A   1      28.169  29.663  22.922  1.00  0.00     0.000 A 
ATOM     73  C   UNL A   1      30.328  29.131  21.984  1.00  0.00     0.006 A 
ATOM     74  C   UNL A   1      29.286  30.040  22.186  1.00  0.00     0.000 A 
BRANCH  67  75
ATOM     75  C   UNL A   1      33.018  25.684  23.550  1.00  0.00     0.261 C 
ATOM     76  O   UNL A   1      33.457  24.709  22.923  1.00  0.00    -0.271 OA
BRANCH  75  77
ATOM     77  C   UNL A   1      34.001  26.497  24.386  1.00  0.00     0.329 C 
BRANCH  77  78
ATOM     78  O   UNL A   1      34.097  27.889  24.172  1.00  0.00    -0.484 OA
BRANCH  78  79
ATOM     79  C   UNL A   1      33.540  28.728  25.080  1.00  0.00     0.120 A 
ATOM     80  C   UNL A   1      34.139  28.698  26.340  1.00  0.00     0.046 A 
ATOM     81  C   UNL A   1      32.396  29.490  24.869  1.00  0.00     0.046 A 
ATOM     82  C   UNL A   1      33.613  29.450  27.387  1.00  0.00     0.004 A 
ATOM     83  C   UNL A   1      31.859  30.232  25.923  1.00  0.00     0.004 A 
ATOM     84  C   UNL A   1      32.469  30.216  27.178  1.00  0.00     0.000 A 
ENDBRANCH  78  79
ENDBRANCH  77  78
ENDBRANCH  75  77
ENDBRANCH  67  75
ENDBRANCH  63  65
ENDBRANCH  62  63
ENDBRANCH  61  62
ENDBRANCH  60  61
ENDBRANCH  59  60
ENDBRANCH   1  59
TORSDOF 21
ENDMDL
