MODEL 1
REMARK VINA RESULT:     -10.2      0.000      0.000
REMARK SMILES Cc1cc(Br)cc2c1O[C@H](C(F)(F)F)C(C(=O)OCCOCCOCCOC(=O)c1ccc(-c3c4nc(c(-c5ccccc5)c5ccc([nH]5)c(-c5ccccc5)c5nc(c(-c6ccccc6)c6ccc3[nH]6)C=C5)C=C4)cc1)=C2
REMARK SMILES IDX 23 1 22 2 21 3 20 4 19 5 18 6 16 7 17 8 15 9 1 10 2 11 3 12
REMARK SMILES IDX 8 13 4 14 7 15 9 16 5 17 6 18 78 19 10 20 11 21 12 22 13 23
REMARK SMILES IDX 14 24 24 25 25 26 26 27 27 28 28 29 29 30 30 31 31 32 77 33
REMARK SMILES IDX 32 34 76 35 33 36 34 37 35 38 70 39 36 40 75 41 69 42 71 43
REMARK SMILES IDX 37 44 74 45 68 46 67 47 38 49 60 50 45 51 59 52 46 53 49 54
REMARK SMILES IDX 58 55 72 56 47 57 48 58 57 60 73 61 50 62 39 63 40 64 44 65
REMARK SMILES IDX 41 66 43 67 42 68 61 69 62 70 66 71 63 72 65 73 64 74 51 75
REMARK SMILES IDX 52 76 56 77 53 78 55 79 54 80
REMARK H PARENT 71 48 49 59
REMARK Flexibility Score: inf
ROOT
ATOM      1  C   UNL A   1      41.878  20.370  26.537  1.00  0.00     0.188 C 
ENDROOT
BRANCH   1   2
ATOM      2  C   UNL A   1      40.960  21.109  27.531  1.00  0.00     0.188 C 
BRANCH   2   3
ATOM      3  O   UNL A   1      40.200  22.216  27.101  1.00  0.00    -0.376 OA
BRANCH   3   4
ATOM      4  C   UNL A   1      39.142  22.062  26.171  1.00  0.00     0.202 C 
BRANCH   4   5
ATOM      5  C   UNL A   1      38.155  23.179  25.794  1.00  0.00     0.261 C 
BRANCH   5   6
ATOM      6  O   UNL A   1      36.863  23.120  26.409  1.00  0.00    -0.460 OA
BRANCH   6   7
ATOM      7  C   UNL A   1      35.908  22.482  25.689  1.00  0.00     0.338 C 
ATOM      8  O   UNL A   1      35.968  21.350  25.237  1.00  0.00    -0.246 OA
BRANCH   7   9
ATOM      9  C   UNL A   1      34.682  23.305  25.655  1.00  0.00     0.087 C 
ATOM     10  C   UNL A   1      30.014  25.325  26.434  1.00  0.00     0.048 C 
ATOM     11  C   UNL A   1      31.333  25.792  25.884  1.00  0.00    -0.007 A 
ATOM     12  C   UNL A   1      31.472  27.146  25.537  1.00  0.00     0.023 A 
ATOM     13  C   UNL A   1      32.430  24.931  25.723  1.00  0.00     0.130 A 
ATOM     14  C   UNL A   1      32.680  27.625  25.036  1.00  0.00     0.019 A 
ATOM     15  C   UNL A   1      33.654  25.429  25.259  1.00  0.00     0.019 A 
ATOM     16  O   UNL A   1      32.238  23.613  26.031  1.00  0.00    -0.475 OA
ATOM     17  Br  UNL A   1      32.851  29.452  24.582  1.00  0.00    -0.051 Br
ATOM     18  C   UNL A   1      33.773  26.774  24.894  1.00  0.00     0.027 A 
ATOM     19  C   UNL A   1      34.823  24.565  25.226  1.00  0.00     0.027 C 
ATOM     20  C   UNL A   1      33.373  22.708  26.086  1.00  0.00     0.316 C 
BRANCH  20  21
ATOM     21  C   UNL A   1      33.444  22.108  27.495  1.00  0.00     0.430 C 
ATOM     22  F   UNL A   1      32.252  22.201  28.132  1.00  0.00    -0.167 F 
ATOM     23  F   UNL A   1      33.766  20.794  27.465  1.00  0.00    -0.167 F 
ATOM     24  F   UNL A   1      34.365  22.733  28.264  1.00  0.00    -0.167 F 
ENDBRANCH  20  21
ENDBRANCH   7   9
ENDBRANCH   6   7
ENDBRANCH   5   6
ENDBRANCH   4   5
ENDBRANCH   3   4
ENDBRANCH   2   3
ENDBRANCH   1   2
BRANCH   1  25
ATOM     25  O   UNL A   1      42.388  21.055  25.418  1.00  0.00    -0.376 OA
BRANCH  25  26
ATOM     26  C   UNL A   1      43.765  21.394  25.364  1.00  0.00     0.202 C 
BRANCH  26  27
ATOM     27  C   UNL A   1      44.358  22.556  24.541  1.00  0.00     0.261 C 
BRANCH  27  28
ATOM     28  O   UNL A   1      43.732  23.839  24.654  1.00  0.00    -0.460 OA
BRANCH  28  29
ATOM     29  C   UNL A   1      44.523  24.838  25.125  1.00  0.00     0.338 C 
ATOM     30  O   UNL A   1      45.592  25.209  24.683  1.00  0.00    -0.246 OA
BRANCH  29  31
ATOM     31  C   UNL A   1      43.780  25.571  26.170  1.00  0.00     0.060 A 
ATOM     32  C   UNL A   1      44.074  26.926  26.387  1.00  0.00     0.016 A 
ATOM     33  C   UNL A   1      42.809  24.926  26.934  1.00  0.00     0.016 A 
ATOM     34  C   UNL A   1      43.391  27.642  27.367  1.00  0.00     0.010 A 
ATOM     35  C   UNL A   1      42.151  25.635  27.942  1.00  0.00     0.010 A 
ATOM     36  C   UNL A   1      42.451  26.991  28.176  1.00  0.00    -0.014 A 
BRANCH  36  37
ATOM     37  C   UNL A   1      41.921  27.670  29.381  1.00  0.00     0.031 A 
ATOM     38  C   UNL A   1      40.638  28.444  29.258  1.00  0.00     0.074 A 
ATOM     39  C   UNL A   1      42.548  27.586  30.568  1.00  0.00     0.049 A 
ATOM     40  N   UNL A   1      40.007  29.150  30.159  1.00  0.00    -0.248 NA
ATOM     41  C   UNL A   1      39.979  28.414  27.941  1.00  0.00     0.031 C 
ATOM     42  C   UNL A   1      43.762  26.819  30.835  1.00  0.00     0.029 A 
ATOM     43  N   UNL A   1      42.238  28.161  31.777  1.00  0.00    -0.354 N 
ATOM     44  C   UNL A   1      38.878  29.647  29.521  1.00  0.00     0.074 A 
ATOM     45  C   UNL A   1      38.928  29.192  28.149  1.00  0.00     0.031 C 
ATOM     46  C   UNL A   1      44.096  26.972  32.129  1.00  0.00     0.029 A 
ATOM     47  C   UNL A   1      43.142  27.877  32.770  1.00  0.00     0.049 A 
ATOM     48  H   UNL A   1      41.443  28.726  31.917  1.00  0.00     0.167 HD
ATOM     49  C   UNL A   1      37.881  30.405  30.033  1.00  0.00     0.031 A 
ATOM     50  C   UNL A   1      43.201  28.311  34.046  1.00  0.00     0.031 A 
ATOM     51  C   UNL A   1      37.839  30.877  31.390  1.00  0.00     0.049 A 
ATOM     52  C   UNL A   1      42.140  29.250  34.561  1.00  0.00     0.074 A 
ATOM     53  C   UNL A   1      36.871  31.656  31.999  1.00  0.00     0.029 A 
ATOM     54  N   UNL A   1      38.809  30.622  32.345  1.00  0.00    -0.354 N 
ATOM     55  N   UNL A   1      41.071  29.703  33.953  1.00  0.00    -0.248 NA
ATOM     56  C   UNL A   1      42.294  29.733  35.942  1.00  0.00     0.031 C 
ATOM     57  C   UNL A   1      37.287  31.926  33.305  1.00  0.00     0.029 A 
ATOM     58  C   UNL A   1      38.479  31.255  33.532  1.00  0.00     0.049 A 
ATOM     59  H   UNL A   1      39.613  30.072  32.203  1.00  0.00     0.167 HD
ATOM     60  C   UNL A   1      40.412  30.501  34.883  1.00  0.00     0.074 A 
ATOM     61  C   UNL A   1      41.193  30.456  36.100  1.00  0.00     0.031 C 
ATOM     62  C   UNL A   1      39.263  31.205  34.739  1.00  0.00     0.031 A 
BRANCH  49  63
ATOM     63  C   UNL A   1      36.760  30.795  29.111  1.00  0.00    -0.014 A 
ATOM     64  C   UNL A   1      35.782  29.866  28.725  1.00  0.00     0.009 A 
ATOM     65  C   UNL A   1      36.649  32.123  28.670  1.00  0.00     0.009 A 
ATOM     66  C   UNL A   1      34.727  30.254  27.897  1.00  0.00     0.001 A 
ATOM     67  C   UNL A   1      35.578  32.515  27.867  1.00  0.00     0.001 A 
ATOM     68  C   UNL A   1      34.621  31.579  27.476  1.00  0.00     0.000 A 
ENDBRANCH  49  63
BRANCH  50  69
ATOM     69  C   UNL A   1      44.312  27.868  34.931  1.00  0.00    -0.014 A 
ATOM     70  C   UNL A   1      44.145  26.768  35.787  1.00  0.00     0.009 A 
ATOM     71  C   UNL A   1      45.543  28.544  34.931  1.00  0.00     0.009 A 
ATOM     72  C   UNL A   1      45.181  26.365  36.633  1.00  0.00     0.001 A 
ATOM     73  C   UNL A   1      46.586  28.120  35.756  1.00  0.00     0.001 A 
ATOM     74  C   UNL A   1      46.403  27.036  36.611  1.00  0.00     0.000 A 
ENDBRANCH  50  69
BRANCH  62  75
ATOM     75  C   UNL A   1      38.752  31.973  35.927  1.00  0.00    -0.014 A 
ATOM     76  C   UNL A   1      37.942  31.360  36.897  1.00  0.00     0.009 A 
ATOM     77  C   UNL A   1      39.162  33.301  36.127  1.00  0.00     0.009 A 
ATOM     78  C   UNL A   1      37.538  32.070  38.030  1.00  0.00     0.001 A 
ATOM     79  C   UNL A   1      38.783  33.997  37.277  1.00  0.00     0.001 A 
ATOM     80  C   UNL A   1      37.967  33.383  38.224  1.00  0.00     0.000 A 
ENDBRANCH  62  75
ENDBRANCH  36  37
ENDBRANCH  29  31
ENDBRANCH  28  29
ENDBRANCH  27  28
ENDBRANCH  26  27
ENDBRANCH  25  26
ENDBRANCH   1  25
TORSDOF 18
ENDMDL
MODEL 2
REMARK VINA RESULT:     -10.0      3.928      7.705
REMARK SMILES Cc1cc(Br)cc2c1O[C@H](C(F)(F)F)C(C(=O)OCCOCCOCCOC(=O)c1ccc(-c3c4nc(c(-c5ccccc5)c5ccc([nH]5)c(-c5ccccc5)c5nc(c(-c6ccccc6)c6ccc3[nH]6)C=C5)C=C4)cc1)=C2
REMARK SMILES IDX 23 1 22 2 21 3 20 4 19 5 18 6 16 7 17 8 15 9 1 10 2 11 3 12
REMARK SMILES IDX 8 13 4 14 7 15 9 16 5 17 6 18 78 19 10 20 11 21 12 22 13 23
REMARK SMILES IDX 14 24 24 25 25 26 26 27 27 28 28 29 29 30 30 31 31 32 77 33
REMARK SMILES IDX 32 34 76 35 33 36 34 37 35 38 70 39 36 40 75 41 69 42 71 43
REMARK SMILES IDX 37 44 74 45 68 46 67 47 38 49 60 50 45 51 59 52 46 53 49 54
REMARK SMILES IDX 58 55 72 56 47 57 48 58 57 60 73 61 50 62 39 63 40 64 44 65
REMARK SMILES IDX 41 66 43 67 42 68 61 69 62 70 66 71 63 72 65 73 64 74 51 75
REMARK SMILES IDX 52 76 56 77 53 78 55 79 54 80
REMARK H PARENT 71 48 49 59
REMARK Flexibility Score: inf
ROOT
ATOM      1  C   UNL A   1      36.430  21.450  25.606  1.00  0.00     0.188 C 
ENDROOT
BRANCH   1   2
ATOM      2  C   UNL A   1      35.585  20.325  24.976  1.00  0.00     0.188 C 
BRANCH   2   3
ATOM      3  O   UNL A   1      34.188  20.472  24.858  1.00  0.00    -0.376 OA
BRANCH   3   4
ATOM      4  C   UNL A   1      33.616  21.672  24.370  1.00  0.00     0.202 C 
BRANCH   4   5
ATOM      5  C   UNL A   1      32.221  21.765  23.729  1.00  0.00     0.261 C 
BRANCH   5   6
ATOM      6  O   UNL A   1      31.597  23.054  23.747  1.00  0.00    -0.460 OA
BRANCH   6   7
ATOM      7  C   UNL A   1      31.143  23.461  24.957  1.00  0.00     0.338 C 
ATOM      8  O   UNL A   1      30.925  22.757  25.929  1.00  0.00    -0.246 OA
BRANCH   7   9
ATOM      9  C   UNL A   1      31.096  24.936  24.997  1.00  0.00     0.087 C 
ATOM     10  C   UNL A   1      32.152  29.943  25.544  1.00  0.00     0.048 C 
ATOM     11  C   UNL A   1      31.158  29.108  24.785  1.00  0.00    -0.007 A 
ATOM     12  C   UNL A   1      30.290  29.752  23.887  1.00  0.00     0.023 A 
ATOM     13  C   UNL A   1      31.079  27.713  24.928  1.00  0.00     0.130 A 
ATOM     14  C   UNL A   1      29.363  29.017  23.153  1.00  0.00     0.019 A 
ATOM     15  C   UNL A   1      30.173  26.977  24.155  1.00  0.00     0.019 A 
ATOM     16  O   UNL A   1      31.911  27.133  25.844  1.00  0.00    -0.475 OA
ATOM     17  Br  UNL A   1      28.209  29.900  21.944  1.00  0.00    -0.051 Br
ATOM     18  C   UNL A   1      29.298  27.632  23.283  1.00  0.00     0.027 A 
ATOM     19  C   UNL A   1      30.191  25.524  24.204  1.00  0.00     0.027 C 
ATOM     20  C   UNL A   1      32.032  25.687  25.900  1.00  0.00     0.316 C 
BRANCH  20  21
ATOM     21  C   UNL A   1      33.499  25.315  25.654  1.00  0.00     0.430 C 
ATOM     22  F   UNL A   1      34.330  26.327  26.003  1.00  0.00    -0.167 F 
ATOM     23  F   UNL A   1      33.872  24.238  26.384  1.00  0.00    -0.167 F 
ATOM     24  F   UNL A   1      33.735  25.025  24.355  1.00  0.00    -0.167 F 
ENDBRANCH  20  21
ENDBRANCH   7   9
ENDBRANCH   6   7
ENDBRANCH   5   6
ENDBRANCH   4   5
ENDBRANCH   3   4
ENDBRANCH   2   3
ENDBRANCH   1   2
BRANCH   1  25
ATOM     25  O   UNL A   1      37.681  21.777  25.049  1.00  0.00    -0.376 OA
BRANCH  25  26
ATOM     26  C   UNL A   1      38.872  21.459  25.752  1.00  0.00     0.202 C 
BRANCH  26  27
ATOM     27  C   UNL A   1      39.453  20.039  25.911  1.00  0.00     0.261 C 
BRANCH  27  28
ATOM     28  O   UNL A   1      40.735  19.775  25.330  1.00  0.00    -0.460 OA
BRANCH  28  29
ATOM     29  C   UNL A   1      41.755  19.604  26.211  1.00  0.00     0.338 C 
ATOM     30  O   UNL A   1      42.329  18.571  26.490  1.00  0.00    -0.246 OA
BRANCH  29  31
ATOM     31  C   UNL A   1      42.219  20.934  26.656  1.00  0.00     0.060 A 
ATOM     32  C   UNL A   1      42.157  21.251  28.021  1.00  0.00     0.016 A 
ATOM     33  C   UNL A   1      42.700  21.861  25.734  1.00  0.00     0.016 A 
ATOM     34  C   UNL A   1      42.586  22.499  28.470  1.00  0.00     0.010 A 
ATOM     35  C   UNL A   1      43.096  23.125  26.179  1.00  0.00     0.010 A 
ATOM     36  C   UNL A   1      43.023  23.457  27.545  1.00  0.00    -0.014 A 
BRANCH  36  37
ATOM     37  C   UNL A   1      43.225  24.859  27.980  1.00  0.00     0.031 A 
ATOM     38  C   UNL A   1      44.629  25.331  28.237  1.00  0.00     0.074 A 
ATOM     39  C   UNL A   1      42.191  25.706  28.123  1.00  0.00     0.049 A 
ATOM     40  N   UNL A   1      45.047  26.495  28.660  1.00  0.00    -0.248 NA
ATOM     41  C   UNL A   1      45.705  24.360  27.976  1.00  0.00     0.031 C 
ATOM     42  C   UNL A   1      40.791  25.392  27.847  1.00  0.00     0.029 A 
ATOM     43  N   UNL A   1      42.168  27.015  28.539  1.00  0.00    -0.354 N 
ATOM     44  C   UNL A   1      46.431  26.397  28.717  1.00  0.00     0.074 A 
ATOM     45  C   UNL A   1      46.781  25.051  28.319  1.00  0.00     0.031 C 
ATOM     46  C   UNL A   1      40.044  26.481  28.103  1.00  0.00     0.029 A 
ATOM     47  C   UNL A   1      40.907  27.554  28.597  1.00  0.00     0.049 A 
ATOM     48  H   UNL A   1      42.981  27.520  28.776  1.00  0.00     0.167 HD
ATOM     49  C   UNL A   1      47.333  27.346  29.060  1.00  0.00     0.031 A 
ATOM     50  C   UNL A   1      40.495  28.768  29.015  1.00  0.00     0.031 A 
ATOM     51  C   UNL A   1      46.988  28.678  29.477  1.00  0.00     0.049 A 
ATOM     52  C   UNL A   1      41.510  29.770  29.503  1.00  0.00     0.074 A 
ATOM     53  C   UNL A   1      47.835  29.707  29.848  1.00  0.00     0.029 A 
ATOM     54  N   UNL A   1      45.695  29.161  29.585  1.00  0.00    -0.354 N 
ATOM     55  N   UNL A   1      42.817  29.671  29.541  1.00  0.00    -0.248 NA
ATOM     56  C   UNL A   1      40.992  31.053  30.002  1.00  0.00     0.031 C 
ATOM     57  C   UNL A   1      47.051  30.794  30.242  1.00  0.00     0.029 A 
ATOM     58  C   UNL A   1      45.718  30.465  30.049  1.00  0.00     0.049 A 
ATOM     59  H   UNL A   1      44.880  28.653  29.365  1.00  0.00     0.167 HD
ATOM     60  C   UNL A   1      43.277  30.885  30.040  1.00  0.00     0.074 A 
ATOM     61  C   UNL A   1      42.112  31.710  30.275  1.00  0.00     0.031 C 
ATOM     62  C   UNL A   1      44.552  31.279  30.280  1.00  0.00     0.031 A 
BRANCH  49  63
ATOM     63  C   UNL A   1      48.787  26.968  29.021  1.00  0.00    -0.014 A 
ATOM     64  C   UNL A   1      49.472  26.599  30.189  1.00  0.00     0.009 A 
ATOM     65  C   UNL A   1      49.465  26.927  27.793  1.00  0.00     0.009 A 
ATOM     66  C   UNL A   1      50.813  26.216  30.131  1.00  0.00     0.001 A 
ATOM     67  C   UNL A   1      50.797  26.515  27.733  1.00  0.00     0.001 A 
ATOM     68  C   UNL A   1      51.471  26.166  28.902  1.00  0.00     0.000 A 
ENDBRANCH  49  63
BRANCH  50  69
ATOM     69  C   UNL A   1      39.046  29.107  29.001  1.00  0.00    -0.014 A 
ATOM     70  C   UNL A   1      38.444  29.609  27.836  1.00  0.00     0.009 A 
ATOM     71  C   UNL A   1      38.258  28.938  30.150  1.00  0.00     0.009 A 
ATOM     72  C   UNL A   1      37.088  29.948  27.829  1.00  0.00     0.001 A 
ATOM     73  C   UNL A   1      36.896  29.249  30.131  1.00  0.00     0.001 A 
ATOM     74  C   UNL A   1      36.314  29.760  28.973  1.00  0.00     0.000 A 
ENDBRANCH  50  69
BRANCH  62  75
ATOM     75  C   UNL A   1      44.773  32.672  30.804  1.00  0.00    -0.014 A 
ATOM     76  C   UNL A   1      44.870  32.925  32.181  1.00  0.00     0.009 A 
ATOM     77  C   UNL A   1      44.979  33.730  29.904  1.00  0.00     0.009 A 
ATOM     78  C   UNL A   1      45.148  34.214  32.644  1.00  0.00     0.001 A 
ATOM     79  C   UNL A   1      45.289  35.009  30.369  1.00  0.00     0.001 A 
ATOM     80  C   UNL A   1      45.367  35.251  31.738  1.00  0.00     0.000 A 
ENDBRANCH  62  75
ENDBRANCH  36  37
ENDBRANCH  29  31
ENDBRANCH  28  29
ENDBRANCH  27  28
ENDBRANCH  26  27
ENDBRANCH  25  26
ENDBRANCH   1  25
TORSDOF 18
ENDMDL
MODEL 3
REMARK VINA RESULT:     -10.0      1.188      6.000
REMARK SMILES Cc1cc(Br)cc2c1O[C@H](C(F)(F)F)C(C(=O)OCCOCCOCCOC(=O)c1ccc(-c3c4nc(c(-c5ccccc5)c5ccc([nH]5)c(-c5ccccc5)c5nc(c(-c6ccccc6)c6ccc3[nH]6)C=C5)C=C4)cc1)=C2
REMARK SMILES IDX 23 1 22 2 21 3 20 4 19 5 18 6 16 7 17 8 15 9 1 10 2 11 3 12
REMARK SMILES IDX 8 13 4 14 7 15 9 16 5 17 6 18 78 19 10 20 11 21 12 22 13 23
REMARK SMILES IDX 14 24 24 25 25 26 26 27 27 28 28 29 29 30 30 31 31 32 77 33
REMARK SMILES IDX 32 34 76 35 33 36 34 37 35 38 70 39 36 40 75 41 69 42 71 43
REMARK SMILES IDX 37 44 74 45 68 46 67 47 38 49 60 50 45 51 59 52 46 53 49 54
REMARK SMILES IDX 58 55 72 56 47 57 48 58 57 60 73 61 50 62 39 63 40 64 44 65
REMARK SMILES IDX 41 66 43 67 42 68 61 69 62 70 66 71 63 72 65 73 64 74 51 75
REMARK SMILES IDX 52 76 56 77 53 78 55 79 54 80
REMARK H PARENT 71 48 49 59
REMARK Flexibility Score: inf
ROOT
ATOM      1  C   UNL A   1      39.756  21.889  26.115  1.00  0.00     0.188 C 
ENDROOT
BRANCH   1   2
ATOM      2  C   UNL A   1      38.246  21.897  25.805  1.00  0.00     0.188 C 
BRANCH   2   3
ATOM      3  O   UNL A   1      37.755  21.228  24.665  1.00  0.00    -0.376 OA
BRANCH   3   4
ATOM      4  C   UNL A   1      36.786  20.200  24.778  1.00  0.00     0.202 C 
BRANCH   4   5
ATOM      5  C   UNL A   1      35.290  20.448  25.025  1.00  0.00     0.261 C 
BRANCH   5   6
ATOM      6  O   UNL A   1      34.808  21.767  24.743  1.00  0.00    -0.460 OA
BRANCH   6   7
ATOM      7  C   UNL A   1      34.550  22.533  25.831  1.00  0.00     0.338 C 
ATOM      8  O   UNL A   1      35.106  22.471  26.916  1.00  0.00    -0.246 OA
BRANCH   7   9
ATOM      9  C   UNL A   1      33.586  23.592  25.473  1.00  0.00     0.087 C 
ATOM     10  C   UNL A   1      29.369  26.327  24.370  1.00  0.00     0.048 C 
ATOM     11  C   UNL A   1      30.772  26.612  24.829  1.00  0.00    -0.007 A 
ATOM     12  C   UNL A   1      31.113  27.935  25.157  1.00  0.00     0.023 A 
ATOM     13  C   UNL A   1      31.743  25.606  24.957  1.00  0.00     0.130 A 
ATOM     14  C   UNL A   1      32.397  28.243  25.600  1.00  0.00     0.019 A 
ATOM     15  C   UNL A   1      33.019  25.917  25.443  1.00  0.00     0.019 A 
ATOM     16  O   UNL A   1      31.382  24.341  24.584  1.00  0.00    -0.475 OA
ATOM     17  Br  UNL A   1      32.835  30.027  26.045  1.00  0.00    -0.051 Br
ATOM     18  C   UNL A   1      33.353  27.241  25.743  1.00  0.00     0.027 A 
ATOM     19  C   UNL A   1      33.975  24.853  25.705  1.00  0.00     0.027 C 
ATOM     20  C   UNL A   1      32.257  23.221  24.879  1.00  0.00     0.316 C 
BRANCH  20  21
ATOM     21  C   UNL A   1      31.488  22.225  25.755  1.00  0.00     0.430 C 
ATOM     22  F   UNL A   1      31.860  22.321  27.055  1.00  0.00    -0.167 F 
ATOM     23  F   UNL A   1      30.154  22.450  25.717  1.00  0.00    -0.167 F 
ATOM     24  F   UNL A   1      31.695  20.946  25.367  1.00  0.00    -0.167 F 
ENDBRANCH  20  21
ENDBRANCH   7   9
ENDBRANCH   6   7
ENDBRANCH   5   6
ENDBRANCH   4   5
ENDBRANCH   3   4
ENDBRANCH   2   3
ENDBRANCH   1   2
BRANCH   1  25
ATOM     25  O   UNL A   1      40.339  20.753  26.708  1.00  0.00    -0.376 OA
BRANCH  25  26
ATOM     26  C   UNL A   1      41.686  20.415  26.415  1.00  0.00     0.202 C 
BRANCH  26  27
ATOM     27  C   UNL A   1      42.714  21.362  25.763  1.00  0.00     0.261 C 
BRANCH  27  28
ATOM     28  O   UNL A   1      43.152  22.494  26.522  1.00  0.00    -0.460 OA
BRANCH  28  29
ATOM     29  C   UNL A   1      43.168  23.677  25.854  1.00  0.00     0.338 C 
ATOM     30  O   UNL A   1      43.428  23.865  24.683  1.00  0.00    -0.246 OA
BRANCH  29  31
ATOM     31  C   UNL A   1      42.610  24.722  26.738  1.00  0.00     0.060 A 
ATOM     32  C   UNL A   1      43.205  25.993  26.743  1.00  0.00     0.016 A 
ATOM     33  C   UNL A   1      41.518  24.447  27.558  1.00  0.00     0.016 A 
ATOM     34  C   UNL A   1      42.702  26.997  27.567  1.00  0.00     0.010 A 
ATOM     35  C   UNL A   1      41.037  25.444  28.411  1.00  0.00     0.010 A 
ATOM     36  C   UNL A   1      41.637  26.717  28.433  1.00  0.00    -0.014 A 
BRANCH  36  37
ATOM     37  C   UNL A   1      41.275  27.690  29.491  1.00  0.00     0.031 A 
ATOM     38  C   UNL A   1      42.063  27.677  30.771  1.00  0.00     0.074 A 
ATOM     39  C   UNL A   1      40.286  28.583  29.316  1.00  0.00     0.049 A 
ATOM     40  N   UNL A   1      41.906  28.401  31.848  1.00  0.00    -0.248 NA
ATOM     41  C   UNL A   1      43.180  26.720  30.843  1.00  0.00     0.031 C 
ATOM     42  C   UNL A   1      39.489  28.741  28.102  1.00  0.00     0.029 A 
ATOM     43  N   UNL A   1      39.786  29.532  30.174  1.00  0.00    -0.354 N 
ATOM     44  C   UNL A   1      42.901  27.989  32.724  1.00  0.00     0.074 A 
ATOM     45  C   UNL A   1      43.635  26.928  32.069  1.00  0.00     0.031 C 
ATOM     46  C   UNL A   1      38.597  29.730  28.294  1.00  0.00     0.029 A 
ATOM     47  C   UNL A   1      38.736  30.247  29.655  1.00  0.00     0.049 A 
ATOM     48  H   UNL A   1      40.147  29.684  31.078  1.00  0.00     0.167 HD
ATOM     49  C   UNL A   1      43.188  28.458  33.961  1.00  0.00     0.031 A 
ATOM     50  C   UNL A   1      37.963  31.197  30.220  1.00  0.00     0.031 A 
ATOM     51  C   UNL A   1      42.447  29.497  34.624  1.00  0.00     0.049 A 
ATOM     52  C   UNL A   1      38.229  31.623  31.642  1.00  0.00     0.074 A 
ATOM     53  C   UNL A   1      42.660  30.035  35.880  1.00  0.00     0.029 A 
ATOM     54  N   UNL A   1      41.347  30.147  34.088  1.00  0.00    -0.354 N 
ATOM     55  N   UNL A   1      39.181  31.235  32.457  1.00  0.00    -0.248 NA
ATOM     56  C   UNL A   1      37.315  32.620  32.220  1.00  0.00     0.031 C 
ATOM     57  C   UNL A   1      41.651  30.967  36.131  1.00  0.00     0.029 A 
ATOM     58  C   UNL A   1      40.851  31.061  35.002  1.00  0.00     0.049 A 
ATOM     59  H   UNL A   1      40.975  29.985  33.192  1.00  0.00     0.167 HD
ATOM     60  C   UNL A   1      38.996  31.960  33.630  1.00  0.00     0.074 A 
ATOM     61  C   UNL A   1      37.853  32.820  33.415  1.00  0.00     0.031 C 
ATOM     62  C   UNL A   1      39.712  31.914  34.780  1.00  0.00     0.031 A 
BRANCH  49  63
ATOM     63  C   UNL A   1      44.342  27.832  34.692  1.00  0.00    -0.014 A 
ATOM     64  C   UNL A   1      44.161  26.696  35.496  1.00  0.00     0.009 A 
ATOM     65  C   UNL A   1      45.635  28.352  34.529  1.00  0.00     0.009 A 
ATOM     66  C   UNL A   1      45.250  26.106  36.139  1.00  0.00     0.001 A 
ATOM     67  C   UNL A   1      46.727  27.742  35.149  1.00  0.00     0.001 A 
ATOM     68  C   UNL A   1      46.533  26.624  35.958  1.00  0.00     0.000 A 
ENDBRANCH  49  63
BRANCH  50  69
ATOM     69  C   UNL A   1      36.854  31.813  29.443  1.00  0.00    -0.014 A 
ATOM     70  C   UNL A   1      37.070  32.983  28.697  1.00  0.00     0.009 A 
ATOM     71  C   UNL A   1      35.572  31.240  29.445  1.00  0.00     0.009 A 
ATOM     72  C   UNL A   1      36.023  33.573  27.985  1.00  0.00     0.001 A 
ATOM     73  C   UNL A   1      34.535  31.816  28.707  1.00  0.00     0.001 A 
ATOM     74  C   UNL A   1      34.760  32.985  27.983  1.00  0.00     0.000 A 
ENDBRANCH  50  69
BRANCH  62  75
ATOM     75  C   UNL A   1      39.308  32.834  35.900  1.00  0.00    -0.014 A 
ATOM     76  C   UNL A   1      38.336  32.454  36.840  1.00  0.00     0.009 A 
ATOM     77  C   UNL A   1      39.973  34.059  36.070  1.00  0.00     0.009 A 
ATOM     78  C   UNL A   1      38.027  33.293  37.914  1.00  0.00     0.001 A 
ATOM     79  C   UNL A   1      39.685  34.879  37.162  1.00  0.00     0.001 A 
ATOM     80  C   UNL A   1      38.708  34.498  38.079  1.00  0.00     0.000 A 
ENDBRANCH  62  75
ENDBRANCH  36  37
ENDBRANCH  29  31
ENDBRANCH  28  29
ENDBRANCH  27  28
ENDBRANCH  26  27
ENDBRANCH  25  26
ENDBRANCH   1  25
TORSDOF 18
ENDMDL
