MODEL 1
REMARK VINA RESULT:      -9.7      0.000      0.000
REMARK SMILES O=C(Nc1ccccc1C(=O)OCCOCCOCCOC(=O)c1ccc(-c2c3nc(c(-c4ccccc4)c4ccc([nH]4)c(-c4ccccc4)c4nc(c(-c5ccccc5)c5ccc2[nH]5)C=C4)C=C3)cc1)c1ccc(N2C(=O)[C@H]3CC=CC[C@H]3C2=O)cc1
REMARK SMILES IDX 16 1 15 2 14 3 13 4 12 5 10 6 11 7 9 8 4 9 5 10 6 11 8 12
REMARK SMILES IDX 7 13 3 14 1 15 2 16 72 18 73 19 88 20 74 21 87 22 75 23
REMARK SMILES IDX 76 24 77 25 85 26 78 27 79 28 84 29 86 30 80 31 83 32 81 33
REMARK SMILES IDX 82 34 17 35 18 36 19 37 20 38 21 39 22 40 23 41 24 42 25 43
REMARK SMILES IDX 71 44 26 45 70 46 27 47 28 48 29 49 64 50 30 51 69 52 63 53
REMARK SMILES IDX 65 54 31 55 68 56 62 57 61 58 32 60 54 61 39 62 53 63 40 64
REMARK SMILES IDX 43 65 52 66 66 67 41 68 42 69 51 71 67 72 44 73 33 74 34 75
REMARK SMILES IDX 38 76 35 77 37 78 36 79 55 80 56 81 60 82 57 83 59 84 58 85
REMARK SMILES IDX 45 86 46 87 50 88 47 89 49 90 48 91
REMARK H PARENT 3 17 65 59 43 70
REMARK Flexibility Score: inf
ROOT
ATOM      1  C   UNL A   1      33.654  37.241  31.936  1.00  0.00     0.188 C 
ENDROOT
BRANCH   1   2
ATOM      2  O   UNL A   1      32.484  36.730  31.338  1.00  0.00    -0.376 OA
BRANCH   2   3
ATOM      3  C   UNL A   1      32.672  35.844  30.256  1.00  0.00     0.202 C 
BRANCH   3   4
ATOM      4  C   UNL A   1      33.960  35.022  30.154  1.00  0.00     0.261 C 
BRANCH   4   5
ATOM      5  O   UNL A   1      33.913  33.587  30.254  1.00  0.00    -0.460 OA
BRANCH   5   6
ATOM      6  C   UNL A   1      34.776  32.972  31.095  1.00  0.00     0.340 C 
ATOM      7  O   UNL A   1      34.478  32.328  32.090  1.00  0.00    -0.246 OA
BRANCH   6   8
ATOM      8  C   UNL A   1      36.159  32.996  30.539  1.00  0.00     0.083 A 
ATOM      9  C   UNL A   1      36.698  32.104  29.589  1.00  0.00     0.056 A 
ATOM     10  C   UNL A   1      38.093  32.122  29.381  1.00  0.00     0.027 A 
ATOM     11  C   UNL A   1      38.917  33.061  30.007  1.00  0.00     0.002 A 
ATOM     12  C   UNL A   1      37.003  33.950  31.150  1.00  0.00     0.018 A 
ATOM     13  C   UNL A   1      38.368  33.991  30.876  1.00  0.00     0.001 A 
BRANCH   9  14
ATOM     14  N   UNL A   1      36.019  31.177  28.765  1.00  0.00    -0.321 N 
ATOM     15  O   UNL A   1      35.637  29.493  27.314  1.00  0.00    -0.269 OA
ATOM     16  C   UNL A   1      36.408  30.035  28.105  1.00  0.00     0.255 C 
ATOM     17  H   UNL A   1      35.067  31.394  28.637  1.00  0.00     0.170 HD
BRANCH  16  18
ATOM     18  C   UNL A   1      37.724  29.413  28.349  1.00  0.00     0.040 A 
ATOM     19  C   UNL A   1      38.762  29.459  27.414  1.00  0.00     0.016 A 
ATOM     20  C   UNL A   1      37.858  28.654  29.509  1.00  0.00     0.016 A 
ATOM     21  C   UNL A   1      39.833  28.565  27.529  1.00  0.00     0.027 A 
ATOM     22  C   UNL A   1      38.905  27.742  29.600  1.00  0.00     0.027 A 
ATOM     23  C   UNL A   1      39.841  27.620  28.565  1.00  0.00     0.052 A 
BRANCH  23  24
ATOM     24  N   UNL A   1      40.686  26.490  28.530  1.00  0.00    -0.250 N 
ATOM     25  C   UNL A   1      40.290  25.218  28.214  1.00  0.00     0.238 C 
ATOM     26  C   UNL A   1      42.012  26.539  28.903  1.00  0.00     0.238 C 
ATOM     27  O   UNL A   1      39.157  24.794  28.024  1.00  0.00    -0.274 OA
ATOM     28  C   UNL A   1      41.529  24.381  28.004  1.00  0.00     0.096 C 
ATOM     29  C   UNL A   1      42.612  25.160  28.755  1.00  0.00     0.096 C 
ATOM     30  O   UNL A   1      42.654  27.490  29.335  1.00  0.00    -0.274 OA
ATOM     31  C   UNL A   1      41.772  24.227  26.493  1.00  0.00     0.041 C 
ATOM     32  C   UNL A   1      43.947  25.294  28.023  1.00  0.00     0.041 C 
ATOM     33  C   UNL A   1      42.683  25.270  25.908  1.00  0.00    -0.030 C 
ATOM     34  C   UNL A   1      43.720  25.748  26.611  1.00  0.00    -0.030 C 
ENDBRANCH  23  24
ENDBRANCH  16  18
ENDBRANCH   9  14
ENDBRANCH   6   8
ENDBRANCH   5   6
ENDBRANCH   4   5
ENDBRANCH   3   4
ENDBRANCH   2   3
ENDBRANCH   1   2
BRANCH   1  35
ATOM     35  C   UNL A   1      33.993  36.564  33.281  1.00  0.00     0.188 C 
BRANCH  35  36
ATOM     36  O   UNL A   1      35.147  35.743  33.407  1.00  0.00    -0.376 OA
BRANCH  36  37
ATOM     37  C   UNL A   1      35.152  34.683  34.356  1.00  0.00     0.202 C 
BRANCH  37  38
ATOM     38  C   UNL A   1      36.492  34.060  34.786  1.00  0.00     0.261 C 
BRANCH  38  39
ATOM     39  O   UNL A   1      36.627  32.651  34.525  1.00  0.00    -0.460 OA
BRANCH  39  40
ATOM     40  C   UNL A   1      37.577  32.002  35.242  1.00  0.00     0.338 C 
ATOM     41  O   UNL A   1      37.471  31.544  36.370  1.00  0.00    -0.246 OA
BRANCH  40  42
ATOM     42  C   UNL A   1      38.736  31.705  34.369  1.00  0.00     0.060 A 
ATOM     43  C   UNL A   1      38.529  30.865  33.262  1.00  0.00     0.016 A 
ATOM     44  C   UNL A   1      39.998  32.252  34.607  1.00  0.00     0.016 A 
ATOM     45  C   UNL A   1      39.584  30.551  32.406  1.00  0.00     0.010 A 
ATOM     46  C   UNL A   1      41.066  31.904  33.772  1.00  0.00     0.010 A 
ATOM     47  C   UNL A   1      40.869  31.026  32.690  1.00  0.00    -0.014 A 
BRANCH  47  48
ATOM     48  C   UNL A   1      42.034  30.388  32.031  1.00  0.00     0.031 A 
ATOM     49  C   UNL A   1      42.654  31.112  30.865  1.00  0.00     0.074 A 
ATOM     50  C   UNL A   1      42.553  29.221  32.453  1.00  0.00     0.049 A 
ATOM     51  N   UNL A   1      43.655  30.757  30.101  1.00  0.00    -0.248 NA
ATOM     52  C   UNL A   1      42.063  32.416  30.518  1.00  0.00     0.031 C 
ATOM     53  C   UNL A   1      42.091  28.448  33.603  1.00  0.00     0.029 A 
ATOM     54  N   UNL A   1      43.595  28.483  31.946  1.00  0.00    -0.354 N 
ATOM     55  C   UNL A   1      43.805  31.786  29.180  1.00  0.00     0.074 A 
ATOM     56  C   UNL A   1      42.784  32.770  29.466  1.00  0.00     0.031 C 
ATOM     57  C   UNL A   1      42.841  27.335  33.708  1.00  0.00     0.029 A 
ATOM     58  C   UNL A   1      43.813  27.304  32.615  1.00  0.00     0.049 A 
ATOM     59  H   UNL A   1      44.135  28.774  31.175  1.00  0.00     0.167 HD
ATOM     60  C   UNL A   1      44.710  31.907  28.181  1.00  0.00     0.031 A 
ATOM     61  C   UNL A   1      44.683  26.307  32.356  1.00  0.00     0.031 A 
ATOM     62  C   UNL A   1      45.712  30.926  27.876  1.00  0.00     0.049 A 
ATOM     63  C   UNL A   1      45.617  26.421  31.177  1.00  0.00     0.074 A 
ATOM     64  C   UNL A   1      46.681  30.964  26.889  1.00  0.00     0.029 A 
ATOM     65  N   UNL A   1      45.863  29.723  28.545  1.00  0.00    -0.354 N 
ATOM     66  N   UNL A   1      45.769  27.412  30.331  1.00  0.00    -0.248 NA
ATOM     67  C   UNL A   1      46.500  25.272  30.919  1.00  0.00     0.031 C 
ATOM     68  C   UNL A   1      47.384  29.755  26.925  1.00  0.00     0.029 A 
ATOM     69  C   UNL A   1      46.891  28.994  27.972  1.00  0.00     0.049 A 
ATOM     70  H   UNL A   1      45.321  29.430  29.313  1.00  0.00     0.167 HD
ATOM     71  C   UNL A   1      46.786  27.022  29.467  1.00  0.00     0.074 A 
ATOM     72  C   UNL A   1      47.221  25.709  29.895  1.00  0.00     0.031 C 
ATOM     73  C   UNL A   1      47.317  27.692  28.414  1.00  0.00     0.031 A 
BRANCH  60  74
ATOM     74  C   UNL A   1      44.617  33.131  27.317  1.00  0.00    -0.014 A 
ATOM     75  C   UNL A   1      45.280  34.320  27.659  1.00  0.00     0.009 A 
ATOM     76  C   UNL A   1      43.866  33.085  26.132  1.00  0.00     0.009 A 
ATOM     77  C   UNL A   1      45.168  35.449  26.845  1.00  0.00     0.001 A 
ATOM     78  C   UNL A   1      43.778  34.208  25.307  1.00  0.00     0.001 A 
ATOM     79  C   UNL A   1      44.422  35.390  25.669  1.00  0.00     0.000 A 
ENDBRANCH  60  74
BRANCH  61  80
ATOM     80  C   UNL A   1      44.709  25.089  33.209  1.00  0.00    -0.014 A 
ATOM     81  C   UNL A   1      44.016  23.931  32.824  1.00  0.00     0.009 A 
ATOM     82  C   UNL A   1      45.384  25.096  34.440  1.00  0.00     0.009 A 
ATOM     83  C   UNL A   1      43.973  22.817  33.667  1.00  0.00     0.001 A 
ATOM     84  C   UNL A   1      45.363  23.971  35.268  1.00  0.00     0.001 A 
ATOM     85  C   UNL A   1      44.648  22.836  34.886  1.00  0.00     0.000 A 
ENDBRANCH  61  80
BRANCH  73  86
ATOM     86  C   UNL A   1      48.456  27.043  27.678  1.00  0.00    -0.014 A 
ATOM     87  C   UNL A   1      49.783  27.182  28.112  1.00  0.00     0.009 A 
ATOM     88  C   UNL A   1      48.186  26.234  26.562  1.00  0.00     0.009 A 
ATOM     89  C   UNL A   1      50.820  26.548  27.424  1.00  0.00     0.001 A 
ATOM     90  C   UNL A   1      49.221  25.578  25.896  1.00  0.00     0.001 A 
ATOM     91  C   UNL A   1      50.538  25.743  26.322  1.00  0.00     0.000 A 
ENDBRANCH  73  86
ENDBRANCH  47  48
ENDBRANCH  40  42
ENDBRANCH  39  40
ENDBRANCH  38  39
ENDBRANCH  37  38
ENDBRANCH  36  37
ENDBRANCH  35  36
ENDBRANCH   1  35
TORSDOF 20
ENDMDL
MODEL 2
REMARK VINA RESULT:      -9.3      0.382      5.442
REMARK SMILES O=C(Nc1ccccc1C(=O)OCCOCCOCCOC(=O)c1ccc(-c2c3nc(c(-c4ccccc4)c4ccc([nH]4)c(-c4ccccc4)c4nc(c(-c5ccccc5)c5ccc2[nH]5)C=C4)C=C3)cc1)c1ccc(N2C(=O)[C@H]3CC=CC[C@H]3C2=O)cc1
REMARK SMILES IDX 16 1 15 2 14 3 13 4 12 5 10 6 11 7 9 8 4 9 5 10 6 11 8 12
REMARK SMILES IDX 7 13 3 14 1 15 2 16 72 18 73 19 88 20 74 21 87 22 75 23
REMARK SMILES IDX 76 24 77 25 85 26 78 27 79 28 84 29 86 30 80 31 83 32 81 33
REMARK SMILES IDX 82 34 17 35 18 36 19 37 20 38 21 39 22 40 23 41 24 42 25 43
REMARK SMILES IDX 71 44 26 45 70 46 27 47 28 48 29 49 64 50 30 51 69 52 63 53
REMARK SMILES IDX 65 54 31 55 68 56 62 57 61 58 32 60 54 61 39 62 53 63 40 64
REMARK SMILES IDX 43 65 52 66 66 67 41 68 42 69 51 71 67 72 44 73 33 74 34 75
REMARK SMILES IDX 38 76 35 77 37 78 36 79 55 80 56 81 60 82 57 83 59 84 58 85
REMARK SMILES IDX 45 86 46 87 50 88 47 89 49 90 48 91
REMARK H PARENT 3 17 65 59 43 70
REMARK Flexibility Score: inf
ROOT
ATOM      1  C   UNL A   1      33.786  37.013  32.088  1.00  0.00     0.188 C 
ENDROOT
BRANCH   1   2
ATOM      2  O   UNL A   1      32.597  36.627  31.435  1.00  0.00    -0.376 OA
BRANCH   2   3
ATOM      3  C   UNL A   1      32.742  35.738  30.350  1.00  0.00     0.202 C 
BRANCH   3   4
ATOM      4  C   UNL A   1      34.012  34.891  30.218  1.00  0.00     0.261 C 
BRANCH   4   5
ATOM      5  O   UNL A   1      33.977  33.483  30.510  1.00  0.00    -0.460 OA
BRANCH   5   6
ATOM      6  C   UNL A   1      34.947  32.964  31.297  1.00  0.00     0.340 C 
ATOM      7  O   UNL A   1      34.777  32.301  32.309  1.00  0.00    -0.246 OA
BRANCH   6   8
ATOM      8  C   UNL A   1      36.284  33.123  30.657  1.00  0.00     0.083 A 
ATOM      9  C   UNL A   1      36.815  32.338  29.613  1.00  0.00     0.056 A 
ATOM     10  C   UNL A   1      38.188  32.468  29.320  1.00  0.00     0.027 A 
ATOM     11  C   UNL A   1      38.990  33.418  29.957  1.00  0.00     0.002 A 
ATOM     12  C   UNL A   1      37.103  34.091  31.281  1.00  0.00     0.018 A 
ATOM     13  C   UNL A   1      38.440  34.247  30.925  1.00  0.00     0.001 A 
BRANCH   9  14
ATOM     14  N   UNL A   1      36.143  31.423  28.770  1.00  0.00    -0.321 N 
ATOM     15  O   UNL A   1      35.777  29.764  27.286  1.00  0.00    -0.269 OA
ATOM     16  C   UNL A   1      36.542  30.295  28.090  1.00  0.00     0.255 C 
ATOM     17  H   UNL A   1      35.191  31.637  28.642  1.00  0.00     0.170 HD
BRANCH  16  18
ATOM     18  C   UNL A   1      37.860  29.676  28.327  1.00  0.00     0.040 A 
ATOM     19  C   UNL A   1      38.873  29.672  27.363  1.00  0.00     0.016 A 
ATOM     20  C   UNL A   1      38.021  28.969  29.516  1.00  0.00     0.016 A 
ATOM     21  C   UNL A   1      39.942  28.777  27.490  1.00  0.00     0.027 A 
ATOM     22  C   UNL A   1      39.065  28.055  29.621  1.00  0.00     0.027 A 
ATOM     23  C   UNL A   1      39.972  27.880  28.567  1.00  0.00     0.052 A 
BRANCH  23  24
ATOM     24  N   UNL A   1      40.809  26.744  28.561  1.00  0.00    -0.250 N 
ATOM     25  C   UNL A   1      40.384  25.451  28.412  1.00  0.00     0.238 C 
ATOM     26  C   UNL A   1      42.166  26.815  28.797  1.00  0.00     0.238 C 
ATOM     27  O   UNL A   1      39.238  25.022  28.374  1.00  0.00    -0.274 OA
ATOM     28  C   UNL A   1      41.597  24.585  28.166  1.00  0.00     0.096 C 
ATOM     29  C   UNL A   1      42.747  25.424  28.728  1.00  0.00     0.096 C 
ATOM     30  O   UNL A   1      42.846  27.798  29.071  1.00  0.00    -0.274 OA
ATOM     31  C   UNL A   1      41.691  24.282  26.660  1.00  0.00     0.041 C 
ATOM     32  C   UNL A   1      44.005  25.472  27.860  1.00  0.00     0.041 C 
ATOM     33  C   UNL A   1      42.541  25.255  25.891  1.00  0.00    -0.030 C 
ATOM     34  C   UNL A   1      43.641  25.789  26.439  1.00  0.00    -0.030 C 
ENDBRANCH  23  24
ENDBRANCH  16  18
ENDBRANCH   9  14
ENDBRANCH   6   8
ENDBRANCH   5   6
ENDBRANCH   4   5
ENDBRANCH   3   4
ENDBRANCH   2   3
ENDBRANCH   1   2
BRANCH   1  35
ATOM     35  C   UNL A   1      34.007  36.279  33.428  1.00  0.00     0.188 C 
BRANCH  35  36
ATOM     36  O   UNL A   1      35.209  35.558  33.668  1.00  0.00    -0.376 OA
BRANCH  36  37
ATOM     37  C   UNL A   1      35.243  34.575  34.696  1.00  0.00     0.202 C 
BRANCH  37  38
ATOM     38  C   UNL A   1      36.592  33.960  35.109  1.00  0.00     0.261 C 
BRANCH  38  39
ATOM     39  O   UNL A   1      36.726  32.549  34.859  1.00  0.00    -0.460 OA
BRANCH  39  40
ATOM     40  C   UNL A   1      37.748  31.927  35.498  1.00  0.00     0.338 C 
ATOM     41  O   UNL A   1      37.732  31.430  36.613  1.00  0.00    -0.246 OA
BRANCH  40  42
ATOM     42  C   UNL A   1      38.867  31.716  34.549  1.00  0.00     0.060 A 
ATOM     43  C   UNL A   1      38.575  31.128  33.307  1.00  0.00     0.016 A 
ATOM     44  C   UNL A   1      40.173  32.105  34.852  1.00  0.00     0.016 A 
ATOM     45  C   UNL A   1      39.588  30.906  32.375  1.00  0.00     0.010 A 
ATOM     46  C   UNL A   1      41.196  31.844  33.933  1.00  0.00     0.010 A 
ATOM     47  C   UNL A   1      40.912  31.213  32.708  1.00  0.00    -0.014 A 
BRANCH  47  48
ATOM     48  C   UNL A   1      42.011  30.627  31.902  1.00  0.00     0.031 A 
ATOM     49  C   UNL A   1      42.549  29.287  32.332  1.00  0.00     0.074 A 
ATOM     50  C   UNL A   1      42.508  31.234  30.810  1.00  0.00     0.049 A 
ATOM     51  N   UNL A   1      43.522  28.578  31.821  1.00  0.00    -0.248 NA
ATOM     52  C   UNL A   1      41.895  28.666  33.496  1.00  0.00     0.031 C 
ATOM     53  C   UNL A   1      42.040  32.500  30.249  1.00  0.00     0.029 A 
ATOM     54  N   UNL A   1      43.533  30.854  29.978  1.00  0.00    -0.354 N 
ATOM     55  C   UNL A   1      43.602  27.435  32.607  1.00  0.00     0.074 A 
ATOM     56  C   UNL A   1      42.595  27.552  33.639  1.00  0.00     0.031 C 
ATOM     57  C   UNL A   1      42.785  32.797  29.169  1.00  0.00     0.029 A 
ATOM     58  C   UNL A   1      43.801  31.761  28.982  1.00  0.00     0.049 A 
ATOM     59  H   UNL A   1      44.029  30.010  30.086  1.00  0.00     0.167 HD
ATOM     60  C   UNL A   1      44.439  26.379  32.486  1.00  0.00     0.031 A 
ATOM     61  C   UNL A   1      44.769  31.760  28.045  1.00  0.00     0.031 A 
ATOM     62  C   UNL A   1      45.456  26.265  31.480  1.00  0.00     0.049 A 
ATOM     63  C   UNL A   1      45.753  30.618  27.991  1.00  0.00     0.074 A 
ATOM     64  C   UNL A   1      46.347  25.227  31.270  1.00  0.00     0.029 A 
ATOM     65  N   UNL A   1      45.727  27.230  30.524  1.00  0.00    -0.354 N 
ATOM     66  N   UNL A   1      45.801  29.528  28.720  1.00  0.00    -0.248 NA
ATOM     67  C   UNL A   1      46.819  30.708  26.980  1.00  0.00     0.031 C 
ATOM     68  C   UNL A   1      47.196  25.590  30.220  1.00  0.00     0.029 A 
ATOM     69  C   UNL A   1      46.793  26.826  29.739  1.00  0.00     0.049 A 
ATOM     70  H   UNL A   1      45.234  28.076  30.417  1.00  0.00     0.167 HD
ATOM     71  C   UNL A   1      46.875  28.791  28.234  1.00  0.00     0.074 A 
ATOM     72  C   UNL A   1      47.445  29.551  27.143  1.00  0.00     0.031 C 
ATOM     73  C   UNL A   1      47.345  27.589  28.651  1.00  0.00     0.031 A 
BRANCH  60  74
ATOM     74  C   UNL A   1      44.314  25.285  33.507  1.00  0.00    -0.014 A 
ATOM     75  C   UNL A   1      43.640  24.088  33.216  1.00  0.00     0.009 A 
ATOM     76  C   UNL A   1      44.894  25.451  34.773  1.00  0.00     0.009 A 
ATOM     77  C   UNL A   1      43.526  23.090  34.186  1.00  0.00     0.001 A 
ATOM     78  C   UNL A   1      44.801  24.441  35.732  1.00  0.00     0.001 A 
ATOM     79  C   UNL A   1      44.109  23.266  35.440  1.00  0.00     0.000 A 
ENDBRANCH  60  74
BRANCH  61  80
ATOM     80  C   UNL A   1      44.889  32.888  27.082  1.00  0.00    -0.014 A 
ATOM     81  C   UNL A   1      44.197  32.863  25.861  1.00  0.00     0.009 A 
ATOM     82  C   UNL A   1      45.738  33.972  27.358  1.00  0.00     0.009 A 
ATOM     83  C   UNL A   1      44.378  33.884  24.924  1.00  0.00     0.001 A 
ATOM     84  C   UNL A   1      45.893  35.005  26.431  1.00  0.00     0.001 A 
ATOM     85  C   UNL A   1      45.222  34.954  25.210  1.00  0.00     0.000 A 
ENDBRANCH  61  80
BRANCH  73  86
ATOM     86  C   UNL A   1      48.504  26.996  27.900  1.00  0.00    -0.014 A 
ATOM     87  C   UNL A   1      49.825  27.163  28.340  1.00  0.00     0.009 A 
ATOM     88  C   UNL A   1      48.261  26.211  26.761  1.00  0.00     0.009 A 
ATOM     89  C   UNL A   1      50.882  26.580  27.636  1.00  0.00     0.001 A 
ATOM     90  C   UNL A   1      49.315  25.606  26.078  1.00  0.00     0.001 A 
ATOM     91  C   UNL A   1      50.626  25.799  26.511  1.00  0.00     0.000 A 
ENDBRANCH  73  86
ENDBRANCH  47  48
ENDBRANCH  40  42
ENDBRANCH  39  40
ENDBRANCH  38  39
ENDBRANCH  37  38
ENDBRANCH  36  37
ENDBRANCH  35  36
ENDBRANCH   1  35
TORSDOF 20
ENDMDL
MODEL 3
REMARK VINA RESULT:      -8.8      4.473      7.726
REMARK SMILES O=C(Nc1ccccc1C(=O)OCCOCCOCCOC(=O)c1ccc(-c2c3nc(c(-c4ccccc4)c4ccc([nH]4)c(-c4ccccc4)c4nc(c(-c5ccccc5)c5ccc2[nH]5)C=C4)C=C3)cc1)c1ccc(N2C(=O)[C@H]3CC=CC[C@H]3C2=O)cc1
REMARK SMILES IDX 16 1 15 2 14 3 13 4 12 5 10 6 11 7 9 8 4 9 5 10 6 11 8 12
REMARK SMILES IDX 7 13 3 14 1 15 2 16 72 18 73 19 88 20 74 21 87 22 75 23
REMARK SMILES IDX 76 24 77 25 85 26 78 27 79 28 84 29 86 30 80 31 83 32 81 33
REMARK SMILES IDX 82 34 17 35 18 36 19 37 20 38 21 39 22 40 23 41 24 42 25 43
REMARK SMILES IDX 71 44 26 45 70 46 27 47 28 48 29 49 64 50 30 51 69 52 63 53
REMARK SMILES IDX 65 54 31 55 68 56 62 57 61 58 32 60 54 61 39 62 53 63 40 64
REMARK SMILES IDX 43 65 52 66 66 67 41 68 42 69 51 71 67 72 44 73 33 74 34 75
REMARK SMILES IDX 38 76 35 77 37 78 36 79 55 80 56 81 60 82 57 83 59 84 58 85
REMARK SMILES IDX 45 86 46 87 50 88 47 89 49 90 48 91
REMARK H PARENT 3 17 65 59 43 70
REMARK Flexibility Score: inf
ROOT
ATOM      1  C   UNL A   1      34.297  30.020  27.488  1.00  0.00     0.188 C 
ENDROOT
BRANCH   1   2
ATOM      2  O   UNL A   1      33.049  30.570  27.131  1.00  0.00    -0.376 OA
BRANCH   2   3
ATOM      3  C   UNL A   1      32.031  29.649  26.804  1.00  0.00     0.202 C 
BRANCH   3   4
ATOM      4  C   UNL A   1      31.617  28.576  27.816  1.00  0.00     0.261 C 
BRANCH   4   5
ATOM      5  O   UNL A   1      31.845  27.185  27.530  1.00  0.00    -0.460 OA
BRANCH   5   6
ATOM      6  C   UNL A   1      32.393  26.855  26.337  1.00  0.00     0.340 C 
ATOM      7  O   UNL A   1      33.527  26.436  26.156  1.00  0.00    -0.246 OA
BRANCH   6   8
ATOM      8  C   UNL A   1      31.361  26.866  25.262  1.00  0.00     0.083 A 
ATOM      9  C   UNL A   1      30.191  26.082  25.214  1.00  0.00     0.056 A 
ATOM     10  C   UNL A   1      29.473  26.038  24.000  1.00  0.00     0.027 A 
ATOM     11  C   UNL A   1      29.833  26.826  22.904  1.00  0.00     0.002 A 
ATOM     12  C   UNL A   1      31.703  27.670  24.152  1.00  0.00     0.018 A 
ATOM     13  C   UNL A   1      30.938  27.661  22.988  1.00  0.00     0.001 A 
BRANCH   9  14
ATOM     14  N   UNL A   1      29.594  25.323  26.247  1.00  0.00    -0.321 N 
ATOM     15  O   UNL A   1      29.053  23.582  27.575  1.00  0.00    -0.269 OA
ATOM     16  C   UNL A   1      29.838  24.072  26.765  1.00  0.00     0.255 C 
ATOM     17  H   UNL A   1      28.848  25.788  26.690  1.00  0.00     0.170 HD
BRANCH  16  18
ATOM     18  C   UNL A   1      31.048  23.309  26.402  1.00  0.00     0.040 A 
ATOM     19  C   UNL A   1      32.140  23.175  27.265  1.00  0.00     0.016 A 
ATOM     20  C   UNL A   1      31.121  22.823  25.098  1.00  0.00     0.016 A 
ATOM     21  C   UNL A   1      33.377  22.767  26.752  1.00  0.00     0.027 A 
ATOM     22  C   UNL A   1      32.360  22.454  24.585  1.00  0.00     0.027 A 
ATOM     23  C   UNL A   1      33.513  22.521  25.379  1.00  0.00     0.052 A 
BRANCH  23  24
ATOM     24  N   UNL A   1      34.779  22.457  24.761  1.00  0.00    -0.250 N 
ATOM     25  C   UNL A   1      35.371  23.476  24.063  1.00  0.00     0.238 C 
ATOM     26  C   UNL A   1      35.533  21.302  24.722  1.00  0.00     0.238 C 
ATOM     27  O   UNL A   1      34.898  24.559  23.744  1.00  0.00    -0.274 OA
ATOM     28  C   UNL A   1      36.816  23.105  23.827  1.00  0.00     0.096 C 
ATOM     29  C   UNL A   1      36.817  21.582  23.979  1.00  0.00     0.096 C 
ATOM     30  O   UNL A   1      35.254  20.189  25.153  1.00  0.00    -0.274 OA
ATOM     31  C   UNL A   1      37.691  23.859  24.843  1.00  0.00     0.041 C 
ATOM     32  C   UNL A   1      37.977  21.008  24.793  1.00  0.00     0.041 C 
ATOM     33  C   UNL A   1      37.963  23.091  26.108  1.00  0.00    -0.030 C 
ATOM     34  C   UNL A   1      38.128  21.761  26.082  1.00  0.00    -0.030 C 
ENDBRANCH  23  24
ENDBRANCH  16  18
ENDBRANCH   9  14
ENDBRANCH   6   8
ENDBRANCH   5   6
ENDBRANCH   4   5
ENDBRANCH   3   4
ENDBRANCH   2   3
ENDBRANCH   1   2
BRANCH   1  35
ATOM     35  C   UNL A   1      35.411  31.080  27.622  1.00  0.00     0.188 C 
BRANCH  35  36
ATOM     36  O   UNL A   1      35.088  32.444  27.861  1.00  0.00    -0.376 OA
BRANCH  36  37
ATOM     37  C   UNL A   1      34.796  32.872  29.186  1.00  0.00     0.202 C 
BRANCH  37  38
ATOM     38  C   UNL A   1      35.785  32.544  30.320  1.00  0.00     0.261 C 
BRANCH  38  39
ATOM     39  O   UNL A   1      35.770  31.179  30.774  1.00  0.00    -0.460 OA
BRANCH  39  40
ATOM     40  C   UNL A   1      36.674  30.861  31.733  1.00  0.00     0.338 C 
ATOM     41  O   UNL A   1      36.512  30.892  32.943  1.00  0.00    -0.246 OA
BRANCH  40  42
ATOM     42  C   UNL A   1      37.858  30.229  31.105  1.00  0.00     0.060 A 
ATOM     43  C   UNL A   1      38.914  29.832  31.941  1.00  0.00     0.016 A 
ATOM     44  C   UNL A   1      37.930  30.004  29.729  1.00  0.00     0.016 A 
ATOM     45  C   UNL A   1      40.052  29.232  31.405  1.00  0.00     0.010 A 
ATOM     46  C   UNL A   1      39.091  29.440  29.186  1.00  0.00     0.010 A 
ATOM     47  C   UNL A   1      40.168  29.085  30.019  1.00  0.00    -0.014 A 
BRANCH  47  48
ATOM     48  C   UNL A   1      41.505  28.823  29.431  1.00  0.00     0.031 A 
ATOM     49  C   UNL A   1      41.760  27.447  28.873  1.00  0.00     0.074 A 
ATOM     50  C   UNL A   1      42.461  29.766  29.364  1.00  0.00     0.049 A 
ATOM     51  N   UNL A   1      42.847  26.955  28.336  1.00  0.00    -0.248 NA
ATOM     52  C   UNL A   1      40.632  26.502  28.926  1.00  0.00     0.031 C 
ATOM     53  C   UNL A   1      42.326  31.151  29.810  1.00  0.00     0.029 A 
ATOM     54  N   UNL A   1      43.747  29.687  28.889  1.00  0.00    -0.354 N 
ATOM     55  C   UNL A   1      42.535  25.644  27.999  1.00  0.00     0.074 A 
ATOM     56  C   UNL A   1      41.168  25.409  28.408  1.00  0.00     0.031 C 
ATOM     57  C   UNL A   1      43.492  31.790  29.597  1.00  0.00     0.029 A 
ATOM     58  C   UNL A   1      44.460  30.852  29.030  1.00  0.00     0.049 A 
ATOM     59  H   UNL A   1      44.122  28.870  28.485  1.00  0.00     0.167 HD
ATOM     60  C   UNL A   1      43.315  24.712  27.404  1.00  0.00     0.031 A 
ATOM     61  C   UNL A   1      45.752  31.118  28.753  1.00  0.00     0.031 A 
ATOM     62  C   UNL A   1      44.680  24.929  27.017  1.00  0.00     0.049 A 
ATOM     63  C   UNL A   1      46.630  30.033  28.180  1.00  0.00     0.074 A 
ATOM     64  C   UNL A   1      45.549  24.049  26.397  1.00  0.00     0.029 A 
ATOM     65  N   UNL A   1      45.378  26.107  27.225  1.00  0.00    -0.354 N 
ATOM     66  N   UNL A   1      46.317  28.806  27.838  1.00  0.00    -0.248 NA
ATOM     67  C   UNL A   1      48.044  30.374  27.954  1.00  0.00     0.031 C 
ATOM     68  C   UNL A   1      46.794  24.676  26.282  1.00  0.00     0.029 A 
ATOM     69  C   UNL A   1      46.680  25.966  26.775  1.00  0.00     0.049 A 
ATOM     70  H   UNL A   1      45.005  26.922  27.632  1.00  0.00     0.167 HD
ATOM     71  C   UNL A   1      47.481  28.244  27.327  1.00  0.00     0.074 A 
ATOM     72  C   UNL A   1      48.504  29.265  27.393  1.00  0.00     0.031 C 
ATOM     73  C   UNL A   1      47.685  26.994  26.841  1.00  0.00     0.031 A 
BRANCH  60  74
ATOM     74  C   UNL A   1      42.714  23.354  27.183  1.00  0.00    -0.014 A 
ATOM     75  C   UNL A   1      42.180  22.985  25.939  1.00  0.00     0.009 A 
ATOM     76  C   UNL A   1      42.698  22.426  28.236  1.00  0.00     0.009 A 
ATOM     77  C   UNL A   1      41.614  21.721  25.763  1.00  0.00     0.001 A 
ATOM     78  C   UNL A   1      42.156  21.154  28.048  1.00  0.00     0.001 A 
ATOM     79  C   UNL A   1      41.607  20.806  26.814  1.00  0.00     0.000 A 
ENDBRANCH  60  74
BRANCH  61  80
ATOM     80  C   UNL A   1      46.322  32.463  29.032  1.00  0.00    -0.014 A 
ATOM     81  C   UNL A   1      46.859  32.766  30.293  1.00  0.00     0.009 A 
ATOM     82  C   UNL A   1      46.283  33.470  28.054  1.00  0.00     0.009 A 
ATOM     83  C   UNL A   1      47.316  34.055  30.578  1.00  0.00     0.001 A 
ATOM     84  C   UNL A   1      46.768  34.750  28.333  1.00  0.00     0.001 A 
ATOM     85  C   UNL A   1      47.273  35.044  29.599  1.00  0.00     0.000 A 
ENDBRANCH  61  80
BRANCH  73  86
ATOM     86  C   UNL A   1      49.050  26.671  26.300  1.00  0.00    -0.014 A 
ATOM     87  C   UNL A   1      50.030  26.065  27.098  1.00  0.00     0.009 A 
ATOM     88  C   UNL A   1      49.337  26.931  24.949  1.00  0.00     0.009 A 
ATOM     89  C   UNL A   1      51.282  25.753  26.563  1.00  0.00     0.001 A 
ATOM     90  C   UNL A   1      50.578  26.592  24.410  1.00  0.00     0.001 A 
ATOM     91  C   UNL A   1      51.553  26.011  25.220  1.00  0.00     0.000 A 
ENDBRANCH  73  86
ENDBRANCH  47  48
ENDBRANCH  40  42
ENDBRANCH  39  40
ENDBRANCH  38  39
ENDBRANCH  37  38
ENDBRANCH  36  37
ENDBRANCH  35  36
ENDBRANCH   1  35
TORSDOF 20
ENDMDL
