MODEL 1
REMARK VINA RESULT:     -10.1      0.000      0.000
REMARK SMILES C[C@@H]1CN(C(=O)N2CCC(CC(=O)OCCOCCOCCOC(=O)c3ccc(-c4c5nc(c(-c6ccccc6)c6ccc([nH]6)c(-c6ccccc6)c6nc(c(-c7ccccc7)c7ccc4[nH]7)C=C6)C=C5)cc3)CC2)C[C@@H](C)S1
REMARK SMILES IDX 19 1 18 2 17 3 16 4 15 5 14 6 12 7 13 8 11 9 10 10 1 11 2 12
REMARK SMILES IDX 3 13 79 14 4 15 77 16 5 17 76 18 78 19 6 20 7 21 8 22 75 23
REMARK SMILES IDX 9 24 74 25 20 26 21 27 22 28 23 29 24 30 25 31 26 32 27 33
REMARK SMILES IDX 73 34 28 35 72 36 29 37 30 38 31 39 66 40 32 41 71 42 65 43
REMARK SMILES IDX 67 44 33 45 70 46 64 47 63 48 34 50 56 51 41 52 55 53 42 54
REMARK SMILES IDX 45 55 54 56 68 57 43 58 44 59 53 61 69 62 46 63 35 64 36 65
REMARK SMILES IDX 40 66 37 67 39 68 38 69 57 70 58 71 62 72 59 73 61 74 60 75
REMARK SMILES IDX 47 76 48 77 52 78 49 79 51 80 50 81
REMARK H PARENT 67 49 45 60
REMARK Flexibility Score: inf
ROOT
ATOM      1  C   UNL A   1      38.171  22.130  25.706  1.00  0.00     0.188 C 
ENDROOT
BRANCH   1   2
ATOM      2  C   UNL A   1      37.431  23.466  25.715  1.00  0.00     0.188 C 
BRANCH   2   3
ATOM      3  O   UNL A   1      36.071  23.429  26.132  1.00  0.00    -0.376 OA
BRANCH   3   4
ATOM      4  C   UNL A   1      35.119  24.043  25.263  1.00  0.00     0.202 C 
BRANCH   4   5
ATOM      5  C   UNL A   1      34.894  23.356  23.910  1.00  0.00     0.261 C 
BRANCH   5   6
ATOM      6  O   UNL A   1      34.437  24.254  22.878  1.00  0.00    -0.463 OA
BRANCH   6   7
ATOM      7  C   UNL A   1      33.369  23.837  22.153  1.00  0.00     0.306 C 
ATOM      8  O   UNL A   1      33.392  23.599  20.950  1.00  0.00    -0.252 OA
BRANCH   7   9
ATOM      9  C   UNL A   1      32.109  23.601  22.967  1.00  0.00     0.126 C 
BRANCH   9  10
ATOM     10  C   UNL A   1      30.963  24.637  23.043  1.00  0.00     0.003 C 
ATOM     11  C   UNL A   1      34.164  27.396  24.975  1.00  0.00     0.021 C 
ATOM     12  C   UNL A   1      33.671  27.430  26.421  1.00  0.00     0.063 C 
ATOM     13  C   UNL A   1      32.142  27.376  26.546  1.00  0.00     0.135 C 
ATOM     14  S   UNL A   1      34.326  28.895  27.293  1.00  0.00    -0.152 SA
ATOM     15  N   UNL A   1      31.466  28.514  25.926  1.00  0.00    -0.322 N 
ATOM     16  C   UNL A   1      33.234  30.186  26.561  1.00  0.00     0.063 C 
ATOM     17  C   UNL A   1      30.961  28.532  24.634  1.00  0.00     0.320 C 
ATOM     18  C   UNL A   1      31.741  29.794  26.592  1.00  0.00     0.135 C 
ATOM     19  C   UNL A   1      33.477  31.469  27.352  1.00  0.00     0.021 C 
ATOM     20  O   UNL A   1      30.907  29.583  23.991  1.00  0.00    -0.248 OA
ATOM     21  N   UNL A   1      30.596  27.331  24.057  1.00  0.00    -0.325 N 
ATOM     22  C   UNL A   1      30.663  27.179  22.614  1.00  0.00     0.121 C 
ATOM     23  C   UNL A   1      29.847  26.268  24.709  1.00  0.00     0.121 C 
ATOM     24  C   UNL A   1      31.450  25.913  22.296  1.00  0.00     0.026 C 
ATOM     25  C   UNL A   1      30.523  24.913  24.492  1.00  0.00     0.026 C 
ENDBRANCH   9  10
ENDBRANCH   7   9
ENDBRANCH   6   7
ENDBRANCH   5   6
ENDBRANCH   4   5
ENDBRANCH   3   4
ENDBRANCH   2   3
ENDBRANCH   1   2
BRANCH   1  26
ATOM     26  O   UNL A   1      37.427  21.000  25.275  1.00  0.00    -0.376 OA
BRANCH  26  27
ATOM     27  C   UNL A   1      38.188  19.875  24.816  1.00  0.00     0.202 C 
BRANCH  27  28
ATOM     28  C   UNL A   1      39.237  19.273  25.779  1.00  0.00     0.261 C 
BRANCH  28  29
ATOM     29  O   UNL A   1      40.604  19.258  25.309  1.00  0.00    -0.460 OA
BRANCH  29  30
ATOM     30  C   UNL A   1      41.598  19.334  26.225  1.00  0.00     0.338 C 
ATOM     31  O   UNL A   1      42.406  18.458  26.487  1.00  0.00    -0.246 OA
BRANCH  30  32
ATOM     32  C   UNL A   1      41.738  20.754  26.663  1.00  0.00     0.060 A 
ATOM     33  C   UNL A   1      41.893  21.736  25.673  1.00  0.00     0.016 A 
ATOM     34  C   UNL A   1      41.637  21.139  28.004  1.00  0.00     0.016 A 
ATOM     35  C   UNL A   1      41.996  23.087  26.021  1.00  0.00     0.010 A 
ATOM     36  C   UNL A   1      41.755  22.493  28.353  1.00  0.00     0.010 A 
ATOM     37  C   UNL A   1      41.973  23.472  27.367  1.00  0.00    -0.014 A 
BRANCH  37  38
ATOM     38  C   UNL A   1      42.393  24.847  27.750  1.00  0.00     0.031 A 
ATOM     39  C   UNL A   1      43.864  25.176  27.710  1.00  0.00     0.074 A 
ATOM     40  C   UNL A   1      41.512  25.805  28.092  1.00  0.00     0.049 A 
ATOM     41  N   UNL A   1      44.478  26.290  28.018  1.00  0.00    -0.248 NA
ATOM     42  C   UNL A   1      44.760  24.101  27.256  1.00  0.00     0.031 C 
ATOM     43  C   UNL A   1      40.059  25.655  28.125  1.00  0.00     0.029 A 
ATOM     44  N   UNL A   1      41.724  27.107  28.482  1.00  0.00    -0.354 N 
ATOM     45  C   UNL A   1      45.829  26.045  27.806  1.00  0.00     0.074 A 
ATOM     46  C   UNL A   1      45.949  24.671  27.372  1.00  0.00     0.031 C 
ATOM     47  C   UNL A   1      39.510  26.819  28.519  1.00  0.00     0.029 A 
ATOM     48  C   UNL A   1      40.572  27.786  28.800  1.00  0.00     0.049 A 
ATOM     49  H   UNL A   1      42.619  27.516  28.528  1.00  0.00     0.167 HD
ATOM     50  C   UNL A   1      46.882  26.886  27.951  1.00  0.00     0.031 A 
ATOM     51  C   UNL A   1      40.395  29.033  29.283  1.00  0.00     0.031 A 
ATOM     52  C   UNL A   1      46.781  28.249  28.396  1.00  0.00     0.049 A 
ATOM     53  C   UNL A   1      41.591  29.921  29.526  1.00  0.00     0.074 A 
ATOM     54  C   UNL A   1      47.794  29.177  28.562  1.00  0.00     0.029 A 
ATOM     55  N   UNL A   1      45.600  28.877  28.756  1.00  0.00    -0.354 N 
ATOM     56  N   UNL A   1      42.860  29.685  29.299  1.00  0.00    -0.248 NA
ATOM     57  C   UNL A   1      41.323  31.255  30.088  1.00  0.00     0.031 C 
ATOM     58  C   UNL A   1      47.235  30.346  29.085  1.00  0.00     0.029 A 
ATOM     59  C   UNL A   1      45.864  30.171  29.175  1.00  0.00     0.049 A 
ATOM     60  H   UNL A   1      44.706  28.466  28.719  1.00  0.00     0.167 HD
ATOM     61  C   UNL A   1      43.534  30.848  29.657  1.00  0.00     0.074 A 
ATOM     62  C   UNL A   1      42.534  31.794  30.103  1.00  0.00     0.031 C 
ATOM     63  C   UNL A   1      44.865  31.109  29.616  1.00  0.00     0.031 A 
BRANCH  50  64
ATOM     64  C   UNL A   1      48.250  26.331  27.664  1.00  0.00    -0.014 A 
ATOM     65  C   UNL A   1      48.963  25.604  28.629  1.00  0.00     0.009 A 
ATOM     66  C   UNL A   1      48.820  26.516  26.394  1.00  0.00     0.009 A 
ATOM     67  C   UNL A   1      50.236  25.105  28.340  1.00  0.00     0.001 A 
ATOM     68  C   UNL A   1      50.078  25.991  26.098  1.00  0.00     0.001 A 
ATOM     69  C   UNL A   1      50.790  25.295  27.074  1.00  0.00     0.000 A 
ENDBRANCH  50  64
BRANCH  51  70
ATOM     70  C   UNL A   1      39.026  29.526  29.603  1.00  0.00    -0.014 A 
ATOM     71  C   UNL A   1      38.399  29.180  30.810  1.00  0.00     0.009 A 
ATOM     72  C   UNL A   1      38.321  30.311  28.676  1.00  0.00     0.009 A 
ATOM     73  C   UNL A   1      37.087  29.586  31.069  1.00  0.00     0.001 A 
ATOM     74  C   UNL A   1      37.021  30.741  28.952  1.00  0.00     0.001 A 
ATOM     75  C   UNL A   1      36.402  30.370  30.143  1.00  0.00     0.000 A 
ENDBRANCH  51  70
BRANCH  63  76
ATOM     76  C   UNL A   1      45.320  32.487  30.020  1.00  0.00    -0.014 A 
ATOM     77  C   UNL A   1      45.740  32.771  31.328  1.00  0.00     0.009 A 
ATOM     78  C   UNL A   1      45.371  33.508  29.056  1.00  0.00     0.009 A 
ATOM     79  C   UNL A   1      46.167  34.056  31.671  1.00  0.00     0.001 A 
ATOM     80  C   UNL A   1      45.829  34.782  29.394  1.00  0.00     0.001 A 
ATOM     81  C   UNL A   1      46.216  35.059  30.703  1.00  0.00     0.000 A 
ENDBRANCH  63  76
ENDBRANCH  37  38
ENDBRANCH  30  32
ENDBRANCH  29  30
ENDBRANCH  28  29
ENDBRANCH  27  28
ENDBRANCH  26  27
ENDBRANCH   1  26
TORSDOF 18
ENDMDL
MODEL 2
REMARK VINA RESULT:      -9.9      3.884      5.971
REMARK SMILES C[C@@H]1CN(C(=O)N2CCC(CC(=O)OCCOCCOCCOC(=O)c3ccc(-c4c5nc(c(-c6ccccc6)c6ccc([nH]6)c(-c6ccccc6)c6nc(c(-c7ccccc7)c7ccc4[nH]7)C=C6)C=C5)cc3)CC2)C[C@@H](C)S1
REMARK SMILES IDX 19 1 18 2 17 3 16 4 15 5 14 6 12 7 13 8 11 9 10 10 1 11 2 12
REMARK SMILES IDX 3 13 79 14 4 15 77 16 5 17 76 18 78 19 6 20 7 21 8 22 75 23
REMARK SMILES IDX 9 24 74 25 20 26 21 27 22 28 23 29 24 30 25 31 26 32 27 33
REMARK SMILES IDX 73 34 28 35 72 36 29 37 30 38 31 39 66 40 32 41 71 42 65 43
REMARK SMILES IDX 67 44 33 45 70 46 64 47 63 48 34 50 56 51 41 52 55 53 42 54
REMARK SMILES IDX 45 55 54 56 68 57 43 58 44 59 53 61 69 62 46 63 35 64 36 65
REMARK SMILES IDX 40 66 37 67 39 68 38 69 57 70 58 71 62 72 59 73 61 74 60 75
REMARK SMILES IDX 47 76 48 77 52 78 49 79 51 80 50 81
REMARK H PARENT 67 49 45 60
REMARK Flexibility Score: inf
ROOT
ATOM      1  C   UNL A   1      43.259  19.867  25.825  1.00  0.00     0.188 C 
ENDROOT
BRANCH   1   2
ATOM      2  C   UNL A   1      41.927  19.123  25.755  1.00  0.00     0.188 C 
BRANCH   2   3
ATOM      3  O   UNL A   1      40.829  19.735  26.421  1.00  0.00    -0.376 OA
BRANCH   3   4
ATOM      4  C   UNL A   1      40.926  21.140  26.656  1.00  0.00     0.202 C 
BRANCH   4   5
ATOM      5  C   UNL A   1      39.636  21.950  26.470  1.00  0.00     0.261 C 
BRANCH   5   6
ATOM      6  O   UNL A   1      38.574  21.203  25.841  1.00  0.00    -0.463 OA
BRANCH   6   7
ATOM      7  C   UNL A   1      37.626  21.934  25.203  1.00  0.00     0.306 C 
ATOM      8  O   UNL A   1      37.737  23.121  24.915  1.00  0.00    -0.252 OA
BRANCH   7   9
ATOM      9  C   UNL A   1      36.400  21.143  24.782  1.00  0.00     0.126 C 
BRANCH   9  10
ATOM     10  C   UNL A   1      35.112  21.092  25.637  1.00  0.00     0.003 C 
ATOM     11  C   UNL A   1      33.810  24.775  23.121  1.00  0.00     0.021 C 
ATOM     12  C   UNL A   1      33.912  25.883  24.169  1.00  0.00     0.063 C 
ATOM     13  C   UNL A   1      33.548  25.418  25.586  1.00  0.00     0.135 C 
ATOM     14  S   UNL A   1      32.891  27.320  23.693  1.00  0.00    -0.152 SA
ATOM     15  N   UNL A   1      32.166  24.955  25.710  1.00  0.00    -0.322 N 
ATOM     16  C   UNL A   1      31.226  26.650  24.108  1.00  0.00     0.063 C 
ATOM     17  C   UNL A   1      31.758  23.633  25.602  1.00  0.00     0.320 C 
ATOM     18  C   UNL A   1      31.171  26.016  25.515  1.00  0.00     0.135 C 
ATOM     19  C   UNL A   1      30.242  27.812  23.996  1.00  0.00     0.021 C 
ATOM     20  O   UNL A   1      30.634  23.351  25.181  1.00  0.00    -0.248 OA
ATOM     21  N   UNL A   1      32.671  22.639  25.899  1.00  0.00    -0.325 N 
ATOM     22  C   UNL A   1      32.558  21.344  25.251  1.00  0.00     0.121 C 
ATOM     23  C   UNL A   1      33.578  22.631  27.037  1.00  0.00     0.121 C 
ATOM     24  C   UNL A   1      33.912  20.982  24.652  1.00  0.00     0.026 C 
ATOM     25  C   UNL A   1      35.002  22.292  26.595  1.00  0.00     0.026 C 
ENDBRANCH   9  10
ENDBRANCH   7   9
ENDBRANCH   6   7
ENDBRANCH   5   6
ENDBRANCH   4   5
ENDBRANCH   3   4
ENDBRANCH   2   3
ENDBRANCH   1   2
BRANCH   1  26
ATOM     26  O   UNL A   1      44.107  19.752  24.692  1.00  0.00    -0.376 OA
BRANCH  26  27
ATOM     27  C   UNL A   1      45.231  20.638  24.646  1.00  0.00     0.202 C 
BRANCH  27  28
ATOM     28  C   UNL A   1      45.323  21.743  25.723  1.00  0.00     0.261 C 
BRANCH  28  29
ATOM     29  O   UNL A   1      45.123  23.101  25.267  1.00  0.00    -0.460 OA
BRANCH  29  30
ATOM     30  C   UNL A   1      43.854  23.546  25.116  1.00  0.00     0.338 C 
ATOM     31  O   UNL A   1      43.028  23.119  24.325  1.00  0.00    -0.246 OA
BRANCH  30  32
ATOM     32  C   UNL A   1      43.523  24.445  26.260  1.00  0.00     0.060 A 
ATOM     33  C   UNL A   1      42.792  23.907  27.331  1.00  0.00     0.016 A 
ATOM     34  C   UNL A   1      43.983  25.764  26.337  1.00  0.00     0.016 A 
ATOM     35  C   UNL A   1      42.480  24.692  28.446  1.00  0.00     0.010 A 
ATOM     36  C   UNL A   1      43.658  26.554  27.449  1.00  0.00     0.010 A 
ATOM     37  C   UNL A   1      42.873  26.035  28.494  1.00  0.00    -0.014 A 
BRANCH  37  38
ATOM     38  C   UNL A   1      42.280  26.942  29.515  1.00  0.00     0.031 A 
ATOM     39  C   UNL A   1      42.986  27.075  30.840  1.00  0.00     0.074 A 
ATOM     40  C   UNL A   1      41.171  27.667  29.282  1.00  0.00     0.049 A 
ATOM     41  N   UNL A   1      42.658  27.781  31.893  1.00  0.00    -0.248 NA
ATOM     42  C   UNL A   1      44.233  26.310  30.994  1.00  0.00     0.031 C 
ATOM     43  C   UNL A   1      40.410  27.686  28.035  1.00  0.00     0.029 A 
ATOM     44  N   UNL A   1      40.488  28.533  30.105  1.00  0.00    -0.354 N 
ATOM     45  C   UNL A   1      43.650  27.536  32.834  1.00  0.00     0.074 A 
ATOM     46  C   UNL A   1      44.574  26.595  32.241  1.00  0.00     0.031 C 
ATOM     47  C   UNL A   1      39.362  28.519  28.177  1.00  0.00     0.029 A 
ATOM     48  C   UNL A   1      39.357  29.065  29.534  1.00  0.00     0.049 A 
ATOM     49  H   UNL A   1      40.783  28.752  31.018  1.00  0.00     0.167 HD
ATOM     50  C   UNL A   1      43.790  28.049  34.080  1.00  0.00     0.031 A 
ATOM     51  C   UNL A   1      38.415  29.880  30.052  1.00  0.00     0.031 A 
ATOM     52  C   UNL A   1      42.872  28.972  34.689  1.00  0.00     0.049 A 
ATOM     53  C   UNL A   1      38.541  30.364  31.476  1.00  0.00     0.074 A 
ATOM     54  C   UNL A   1      42.940  29.552  35.943  1.00  0.00     0.029 A 
ATOM     55  N   UNL A   1      41.713  29.443  34.093  1.00  0.00    -0.354 N 
ATOM     56  N   UNL A   1      39.497  30.143  32.347  1.00  0.00    -0.248 NA
ATOM     57  C   UNL A   1      37.457  31.220  31.985  1.00  0.00     0.031 C 
ATOM     58  C   UNL A   1      41.789  30.322  36.133  1.00  0.00     0.029 A 
ATOM     59  C   UNL A   1      41.041  30.281  34.968  1.00  0.00     0.049 A 
ATOM     60  H   UNL A   1      41.412  29.216  33.183  1.00  0.00     0.167 HD
ATOM     61  C   UNL A   1      39.144  30.857  33.488  1.00  0.00     0.074 A 
ATOM     62  C   UNL A   1      37.897  31.530  33.196  1.00  0.00     0.031 C 
ATOM     63  C   UNL A   1      39.801  30.949  34.672  1.00  0.00     0.031 A 
BRANCH  50  64
ATOM     64  C   UNL A   1      44.968  27.580  34.888  1.00  0.00    -0.014 A 
ATOM     65  C   UNL A   1      44.867  26.489  35.766  1.00  0.00     0.009 A 
ATOM     66  C   UNL A   1      46.206  28.225  34.746  1.00  0.00     0.009 A 
ATOM     67  C   UNL A   1      45.974  26.078  36.512  1.00  0.00     0.001 A 
ATOM     68  C   UNL A   1      47.319  27.792  35.469  1.00  0.00     0.001 A 
ATOM     69  C   UNL A   1      47.200  26.727  36.359  1.00  0.00     0.000 A 
ENDBRANCH  50  64
BRANCH  51  70
ATOM     70  C   UNL A   1      37.236  30.279  29.234  1.00  0.00    -0.014 A 
ATOM     71  C   UNL A   1      36.278  29.333  28.840  1.00  0.00     0.009 A 
ATOM     72  C   UNL A   1      37.090  31.608  28.803  1.00  0.00     0.009 A 
ATOM     73  C   UNL A   1      35.215  29.702  28.010  1.00  0.00     0.001 A 
ATOM     74  C   UNL A   1      36.009  31.980  28.000  1.00  0.00     0.001 A 
ATOM     75  C   UNL A   1      35.079  31.026  27.596  1.00  0.00     0.000 A 
ENDBRANCH  51  70
BRANCH  63  76
ATOM     76  C   UNL A   1      39.211  31.844  35.730  1.00  0.00    -0.014 A 
ATOM     77  C   UNL A   1      38.281  31.367  36.666  1.00  0.00     0.009 A 
ATOM     78  C   UNL A   1      39.633  33.182  35.818  1.00  0.00     0.009 A 
ATOM     79  C   UNL A   1      37.759  32.218  37.643  1.00  0.00     0.001 A 
ATOM     80  C   UNL A   1      39.135  34.021  36.815  1.00  0.00     0.001 A 
ATOM     81  C   UNL A   1      38.190  33.542  37.720  1.00  0.00     0.000 A 
ENDBRANCH  63  76
ENDBRANCH  37  38
ENDBRANCH  30  32
ENDBRANCH  29  30
ENDBRANCH  28  29
ENDBRANCH  27  28
ENDBRANCH  26  27
ENDBRANCH   1  26
TORSDOF 18
ENDMDL
MODEL 3
REMARK VINA RESULT:      -9.9      3.200      8.645
REMARK SMILES C[C@@H]1CN(C(=O)N2CCC(CC(=O)OCCOCCOCCOC(=O)c3ccc(-c4c5nc(c(-c6ccccc6)c6ccc([nH]6)c(-c6ccccc6)c6nc(c(-c7ccccc7)c7ccc4[nH]7)C=C6)C=C5)cc3)CC2)C[C@@H](C)S1
REMARK SMILES IDX 19 1 18 2 17 3 16 4 15 5 14 6 12 7 13 8 11 9 10 10 1 11 2 12
REMARK SMILES IDX 3 13 79 14 4 15 77 16 5 17 76 18 78 19 6 20 7 21 8 22 75 23
REMARK SMILES IDX 9 24 74 25 20 26 21 27 22 28 23 29 24 30 25 31 26 32 27 33
REMARK SMILES IDX 73 34 28 35 72 36 29 37 30 38 31 39 66 40 32 41 71 42 65 43
REMARK SMILES IDX 67 44 33 45 70 46 64 47 63 48 34 50 56 51 41 52 55 53 42 54
REMARK SMILES IDX 45 55 54 56 68 57 43 58 44 59 53 61 69 62 46 63 35 64 36 65
REMARK SMILES IDX 40 66 37 67 39 68 38 69 57 70 58 71 62 72 59 73 61 74 60 75
REMARK SMILES IDX 47 76 48 77 52 78 49 79 51 80 50 81
REMARK H PARENT 67 49 45 60
REMARK Flexibility Score: inf
ROOT
ATOM      1  C   UNL A   1      34.273  33.730  30.107  1.00  0.00     0.188 C 
ENDROOT
BRANCH   1   2
ATOM      2  C   UNL A   1      34.419  33.641  28.590  1.00  0.00     0.188 C 
BRANCH   2   3
ATOM      3  O   UNL A   1      33.838  32.501  27.968  1.00  0.00    -0.376 OA
BRANCH   3   4
ATOM      4  C   UNL A   1      34.666  31.343  27.854  1.00  0.00     0.202 C 
BRANCH   4   5
ATOM      5  C   UNL A   1      34.088  30.174  27.045  1.00  0.00     0.261 C 
BRANCH   5   6
ATOM      6  O   UNL A   1      32.719  29.865  27.378  1.00  0.00    -0.463 OA
BRANCH   6   7
ATOM      7  C   UNL A   1      31.845  29.830  26.341  1.00  0.00     0.306 C 
ATOM      8  O   UNL A   1      31.413  30.819  25.759  1.00  0.00    -0.252 OA
BRANCH   7   9
ATOM      9  C   UNL A   1      31.475  28.432  25.876  1.00  0.00     0.126 C 
BRANCH   9  10
ATOM     10  C   UNL A   1      31.865  27.892  24.480  1.00  0.00     0.003 C 
ATOM     11  C   UNL A   1      32.114  23.773  26.616  1.00  0.00     0.021 C 
ATOM     12  C   UNL A   1      33.625  23.547  26.619  1.00  0.00     0.063 C 
ATOM     13  C   UNL A   1      34.329  24.111  25.376  1.00  0.00     0.135 C 
ATOM     14  S   UNL A   1      34.013  21.774  26.815  1.00  0.00    -0.152 SA
ATOM     15  N   UNL A   1      33.890  23.491  24.127  1.00  0.00    -0.322 N 
ATOM     16  C   UNL A   1      33.614  21.194  25.113  1.00  0.00     0.063 C 
ATOM     17  C   UNL A   1      32.895  23.988  23.298  1.00  0.00     0.320 C 
ATOM     18  C   UNL A   1      34.254  22.073  24.017  1.00  0.00     0.135 C 
ATOM     19  C   UNL A   1      34.105  19.752  25.012  1.00  0.00     0.021 C 
ATOM     20  O   UNL A   1      32.208  23.229  22.610  1.00  0.00    -0.248 OA
ATOM     21  N   UNL A   1      32.637  25.345  23.325  1.00  0.00    -0.325 N 
ATOM     22  C   UNL A   1      31.304  25.829  23.011  1.00  0.00     0.121 C 
ATOM     23  C   UNL A   1      33.639  26.400  23.337  1.00  0.00     0.121 C 
ATOM     24  C   UNL A   1      30.853  26.765  24.126  1.00  0.00     0.026 C 
ATOM     25  C   UNL A   1      33.333  27.430  24.425  1.00  0.00     0.026 C 
ENDBRANCH   9  10
ENDBRANCH   7   9
ENDBRANCH   6   7
ENDBRANCH   5   6
ENDBRANCH   4   5
ENDBRANCH   3   4
ENDBRANCH   2   3
ENDBRANCH   1   2
BRANCH   1  26
ATOM     26  O   UNL A   1      34.471  35.011  30.687  1.00  0.00    -0.376 OA
BRANCH  26  27
ATOM     27  C   UNL A   1      34.073  35.159  32.055  1.00  0.00     0.202 C 
BRANCH  27  28
ATOM     28  C   UNL A   1      35.171  35.058  33.139  1.00  0.00     0.261 C 
BRANCH  28  29
ATOM     29  O   UNL A   1      36.364  34.325  32.778  1.00  0.00    -0.460 OA
BRANCH  29  30
ATOM     30  C   UNL A   1      36.530  33.082  33.286  1.00  0.00     0.338 C 
ATOM     31  O   UNL A   1      35.870  32.572  34.176  1.00  0.00    -0.246 OA
BRANCH  30  32
ATOM     32  C   UNL A   1      37.456  32.321  32.396  1.00  0.00     0.060 A 
ATOM     33  C   UNL A   1      38.376  31.447  32.995  1.00  0.00     0.016 A 
ATOM     34  C   UNL A   1      37.380  32.388  31.000  1.00  0.00     0.016 A 
ATOM     35  C   UNL A   1      39.246  30.682  32.211  1.00  0.00     0.010 A 
ATOM     36  C   UNL A   1      38.262  31.631  30.215  1.00  0.00     0.010 A 
ATOM     37  C   UNL A   1      39.227  30.802  30.816  1.00  0.00    -0.014 A 
BRANCH  37  38
ATOM     38  C   UNL A   1      40.345  30.240  30.010  1.00  0.00     0.031 A 
ATOM     39  C   UNL A   1      41.553  31.109  29.771  1.00  0.00     0.074 A 
ATOM     40  C   UNL A   1      40.328  28.985  29.526  1.00  0.00     0.049 A 
ATOM     41  N   UNL A   1      42.640  30.856  29.086  1.00  0.00    -0.248 NA
ATOM     42  C   UNL A   1      41.531  32.442  30.394  1.00  0.00     0.031 C 
ATOM     43  C   UNL A   1      39.258  28.010  29.719  1.00  0.00     0.029 A 
ATOM     44  N   UNL A   1      41.257  28.317  28.760  1.00  0.00    -0.354 N 
ATOM     45  C   UNL A   1      43.422  32.000  29.187  1.00  0.00     0.074 A 
ATOM     46  C   UNL A   1      42.675  32.957  29.973  1.00  0.00     0.031 C 
ATOM     47  C   UNL A   1      39.587  26.869  29.084  1.00  0.00     0.029 A 
ATOM     48  C   UNL A   1      40.875  27.044  28.411  1.00  0.00     0.049 A 
ATOM     49  H   UNL A   1      42.115  28.714  28.488  1.00  0.00     0.167 HD
ATOM     50  C   UNL A   1      44.656  32.238  28.680  1.00  0.00     0.031 A 
ATOM     51  C   UNL A   1      41.482  26.133  27.622  1.00  0.00     0.031 A 
ATOM     52  C   UNL A   1      45.404  31.303  27.885  1.00  0.00     0.049 A 
ATOM     53  C   UNL A   1      42.813  26.455  26.990  1.00  0.00     0.074 A 
ATOM     54  C   UNL A   1      46.666  31.455  27.338  1.00  0.00     0.029 A 
ATOM     55  N   UNL A   1      44.956  30.046  27.513  1.00  0.00    -0.354 N 
ATOM     56  N   UNL A   1      43.552  27.532  27.113  1.00  0.00    -0.248 NA
ATOM     57  C   UNL A   1      43.398  25.428  26.112  1.00  0.00     0.031 C 
ATOM     58  C   UNL A   1      46.955  30.317  26.580  1.00  0.00     0.029 A 
ATOM     59  C   UNL A   1      45.905  29.425  26.716  1.00  0.00     0.049 A 
ATOM     60  H   UNL A   1      44.093  29.652  27.776  1.00  0.00     0.167 HD
ATOM     61  C   UNL A   1      44.698  27.295  26.359  1.00  0.00     0.074 A 
ATOM     62  C   UNL A   1      44.564  25.970  25.794  1.00  0.00     0.031 C 
ATOM     63  C   UNL A   1      45.767  28.106  26.157  1.00  0.00     0.031 A 
BRANCH  50  64
ATOM     64  C   UNL A   1      45.256  33.592  28.938  1.00  0.00    -0.014 A 
ATOM     65  C   UNL A   1      46.070  33.833  30.056  1.00  0.00     0.009 A 
ATOM     66  C   UNL A   1      45.024  34.637  28.030  1.00  0.00     0.009 A 
ATOM     67  C   UNL A   1      46.609  35.102  30.277  1.00  0.00     0.001 A 
ATOM     68  C   UNL A   1      45.589  35.896  28.237  1.00  0.00     0.001 A 
ATOM     69  C   UNL A   1      46.373  36.130  29.366  1.00  0.00     0.000 A 
ENDBRANCH  50  64
BRANCH  51  70
ATOM     70  C   UNL A   1      40.828  24.822  27.350  1.00  0.00    -0.014 A 
ATOM     71  C   UNL A   1      39.681  24.742  26.546  1.00  0.00     0.009 A 
ATOM     72  C   UNL A   1      41.327  23.647  27.935  1.00  0.00     0.009 A 
ATOM     73  C   UNL A   1      39.031  23.518  26.357  1.00  0.00     0.001 A 
ATOM     74  C   UNL A   1      40.694  22.421  27.718  1.00  0.00     0.001 A 
ATOM     75  C   UNL A   1      39.541  22.359  26.939  1.00  0.00     0.000 A 
ENDBRANCH  51  70
BRANCH  63  76
ATOM     76  C   UNL A   1      46.904  27.569  25.327  1.00  0.00    -0.014 A 
ATOM     77  C   UNL A   1      47.032  27.879  23.965  1.00  0.00     0.009 A 
ATOM     78  C   UNL A   1      47.890  26.775  25.936  1.00  0.00     0.009 A 
ATOM     79  C   UNL A   1      48.103  27.376  23.222  1.00  0.00     0.001 A 
ATOM     80  C   UNL A   1      48.976  26.301  25.199  1.00  0.00     0.001 A 
ATOM     81  C   UNL A   1      49.076  26.592  23.841  1.00  0.00     0.000 A 
ENDBRANCH  63  76
ENDBRANCH  37  38
ENDBRANCH  30  32
ENDBRANCH  29  30
ENDBRANCH  28  29
ENDBRANCH  27  28
ENDBRANCH  26  27
ENDBRANCH   1  26
TORSDOF 18
ENDMDL
