MODEL 1
REMARK VINA RESULT:      -9.7      0.000      0.000
REMARK SMILES CC[C@@H](C(=O)OCCOCCOCCOC(=O)c1ccc(-c2c3nc(c(-c4ccccc4)c4ccc([nH]4)c(-c4ccccc4)c4nc(c(-c5ccccc5)c5ccc2[nH]5)C=C4)C=C3)cc1)n1c(SCc2cccc(C(F)(F)F)c2)nc2ccncc21
REMARK SMILES IDX 9 1 8 2 7 3 6 4 4 5 5 6 3 7 2 8 1 9 66 10 67 11 86 12 80 13
REMARK SMILES IDX 81 14 85 15 82 16 84 17 83 18 68 19 69 20 70 21 71 22 79 23
REMARK SMILES IDX 72 24 74 25 73 26 75 27 76 28 77 29 78 30 10 31 11 32 12 33
REMARK SMILES IDX 13 34 14 35 15 36 16 37 17 38 18 39 19 40 65 41 20 42 64 43
REMARK SMILES IDX 21 44 22 45 23 46 58 47 24 48 63 49 57 50 59 51 25 52 62 53
REMARK SMILES IDX 56 54 55 55 26 57 48 58 33 59 47 60 34 61 37 62 46 63 60 64
REMARK SMILES IDX 35 65 36 66 45 68 61 69 38 70 27 71 28 72 32 73 29 74 31 75
REMARK SMILES IDX 30 76 49 77 50 78 54 79 51 80 53 81 52 82 39 83 40 84 44 85
REMARK SMILES IDX 41 86 43 87 42 88
REMARK H PARENT 59 56 37 67
REMARK Flexibility Score: inf
ROOT
ATOM      1  O   UNL A   1      34.676  21.869  27.036  1.00  0.00    -0.376 OA
ENDROOT
BRANCH   1   2
ATOM      2  C   UNL A   1      33.702  22.491  27.874  1.00  0.00     0.202 C 
BRANCH   2   3
ATOM      3  C   UNL A   1      32.336  22.788  27.242  1.00  0.00     0.261 C 
BRANCH   3   4
ATOM      4  O   UNL A   1      32.400  23.604  26.052  1.00  0.00    -0.462 OA
BRANCH   4   5
ATOM      5  C   UNL A   1      31.233  24.174  25.643  1.00  0.00     0.329 C 
ATOM      6  O   UNL A   1      30.303  24.436  26.397  1.00  0.00    -0.250 OA
BRANCH   5   7
ATOM      7  C   UNL A   1      31.158  24.392  24.130  1.00  0.00     0.199 C 
BRANCH   7   8
ATOM      8  C   UNL A   1      32.098  23.556  23.237  1.00  0.00     0.034 C 
ATOM      9  C   UNL A   1      31.690  22.103  23.020  1.00  0.00     0.007 C 
ENDBRANCH   7   8
BRANCH   7  10
ATOM     10  N   UNL A   1      31.165  25.835  23.819  1.00  0.00    -0.303 N 
ATOM     11  C   UNL A   1      32.258  26.622  23.493  1.00  0.00     0.170 A 
ATOM     12  C   UNL A   1      30.056  26.649  23.587  1.00  0.00     0.088 A 
ATOM     13  N   UNL A   1      31.902  27.601  22.690  1.00  0.00    -0.222 NA
ATOM     14  C   UNL A   1      30.555  27.701  22.822  1.00  0.00     0.093 A 
ATOM     15  C   UNL A   1      28.718  26.634  23.950  1.00  0.00     0.139 A 
ATOM     16  C   UNL A   1      29.723  28.723  22.372  1.00  0.00     0.051 A 
ATOM     17  N   UNL A   1      27.927  27.670  23.589  1.00  0.00    -0.262 NA
ATOM     18  C   UNL A   1      28.428  28.672  22.835  1.00  0.00     0.113 A 
BRANCH  11  19
ATOM     19  S   UNL A   1      33.832  26.734  24.205  1.00  0.00    -0.083 SA
BRANCH  19  20
ATOM     20  C   UNL A   1      33.781  26.972  25.963  1.00  0.00     0.113 C 
BRANCH  20  21
ATOM     21  C   UNL A   1      33.743  28.363  26.559  1.00  0.00    -0.037 A 
ATOM     22  C   UNL A   1      32.565  29.102  26.337  1.00  0.00     0.004 A 
ATOM     23  C   UNL A   1      34.785  28.971  27.277  1.00  0.00     0.017 A 
ATOM     24  C   UNL A   1      32.447  30.423  26.762  1.00  0.00     0.001 A 
ATOM     25  C   UNL A   1      34.686  30.315  27.689  1.00  0.00     0.056 A 
ATOM     26  C   UNL A   1      33.509  31.031  27.422  1.00  0.00     0.013 A 
BRANCH  25  27
ATOM     27  C   UNL A   1      35.841  31.030  28.353  1.00  0.00     0.416 C 
ATOM     28  F   UNL A   1      37.034  30.438  28.063  1.00  0.00    -0.166 F 
ATOM     29  F   UNL A   1      35.959  32.324  27.950  1.00  0.00    -0.166 F 
ATOM     30  F   UNL A   1      35.762  31.060  29.711  1.00  0.00    -0.166 F 
ENDBRANCH  25  27
ENDBRANCH  20  21
ENDBRANCH  19  20
ENDBRANCH  11  19
ENDBRANCH   7  10
ENDBRANCH   5   7
ENDBRANCH   4   5
ENDBRANCH   3   4
ENDBRANCH   2   3
ENDBRANCH   1   2
BRANCH   1  31
ATOM     31  C   UNL A   1      34.218  20.871  26.129  1.00  0.00     0.188 C 
BRANCH  31  32
ATOM     32  C   UNL A   1      35.020  20.718  24.836  1.00  0.00     0.188 C 
BRANCH  32  33
ATOM     33  O   UNL A   1      35.255  21.922  24.123  1.00  0.00    -0.376 OA
BRANCH  33  34
ATOM     34  C   UNL A   1      36.619  22.343  24.006  1.00  0.00     0.202 C 
BRANCH  34  35
ATOM     35  C   UNL A   1      37.691  21.492  24.728  1.00  0.00     0.261 C 
BRANCH  35  36
ATOM     36  O   UNL A   1      38.119  21.976  26.021  1.00  0.00    -0.460 OA
BRANCH  36  37
ATOM     37  C   UNL A   1      39.413  21.765  26.376  1.00  0.00     0.338 C 
ATOM     38  O   UNL A   1      40.053  20.763  26.155  1.00  0.00    -0.246 OA
BRANCH  37  39
ATOM     39  C   UNL A   1      40.007  23.060  26.850  1.00  0.00     0.060 A 
ATOM     40  C   UNL A   1      39.477  24.243  26.326  1.00  0.00     0.016 A 
ATOM     41  C   UNL A   1      40.980  23.144  27.859  1.00  0.00     0.016 A 
ATOM     42  C   UNL A   1      39.928  25.486  26.789  1.00  0.00     0.010 A 
ATOM     43  C   UNL A   1      41.434  24.395  28.318  1.00  0.00     0.010 A 
ATOM     44  C   UNL A   1      40.920  25.583  27.780  1.00  0.00    -0.014 A 
BRANCH  44  45
ATOM     45  C   UNL A   1      41.529  26.916  28.080  1.00  0.00     0.031 A 
ATOM     46  C   UNL A   1      42.900  27.204  27.522  1.00  0.00     0.074 A 
ATOM     47  C   UNL A   1      40.907  27.879  28.790  1.00  0.00     0.049 A 
ATOM     48  N   UNL A   1      43.608  28.306  27.568  1.00  0.00    -0.248 NA
ATOM     49  C   UNL A   1      43.565  26.089  26.828  1.00  0.00     0.031 C 
ATOM     50  C   UNL A   1      39.577  27.780  29.383  1.00  0.00     0.029 A 
ATOM     51  N   UNL A   1      41.307  29.166  29.091  1.00  0.00    -0.354 N 
ATOM     52  C   UNL A   1      44.798  28.013  26.913  1.00  0.00     0.074 A 
ATOM     53  C   UNL A   1      44.714  26.637  26.473  1.00  0.00     0.031 C 
ATOM     54  C   UNL A   1      39.244  28.972  29.916  1.00  0.00     0.029 A 
ATOM     55  C   UNL A   1      40.355  29.909  29.753  1.00  0.00     0.049 A 
ATOM     56  H   UNL A   1      42.194  29.520  28.853  1.00  0.00     0.167 HD
ATOM     57  C   UNL A   1      45.886  28.795  26.718  1.00  0.00     0.031 A 
ATOM     58  C   UNL A   1      40.375  31.193  30.175  1.00  0.00     0.031 A 
ATOM     59  C   UNL A   1      46.036  30.135  27.215  1.00  0.00     0.049 A 
ATOM     60  C   UNL A   1      41.625  32.028  29.995  1.00  0.00     0.074 A 
ATOM     61  C   UNL A   1      47.133  30.973  27.107  1.00  0.00     0.029 A 
ATOM     62  N   UNL A   1      45.075  30.823  27.936  1.00  0.00    -0.354 N 
ATOM     63  N   UNL A   1      42.731  31.745  29.351  1.00  0.00    -0.248 NA
ATOM     64  C   UNL A   1      41.632  33.361  30.627  1.00  0.00     0.031 C 
ATOM     65  C   UNL A   1      46.860  32.144  27.821  1.00  0.00     0.029 A 
ATOM     66  C   UNL A   1      45.565  32.063  28.307  1.00  0.00     0.049 A 
ATOM     67  H   UNL A   1      44.178  30.481  28.152  1.00  0.00     0.167 HD
ATOM     68  C   UNL A   1      43.555  32.858  29.498  1.00  0.00     0.074 A 
ATOM     69  C   UNL A   1      42.811  33.840  30.253  1.00  0.00     0.031 C 
ATOM     70  C   UNL A   1      44.826  33.041  29.060  1.00  0.00     0.031 A 
BRANCH  57  71
ATOM     71  C   UNL A   1      47.046  28.168  26.002  1.00  0.00    -0.014 A 
ATOM     72  C   UNL A   1      47.027  27.969  24.612  1.00  0.00     0.009 A 
ATOM     73  C   UNL A   1      48.172  27.763  26.735  1.00  0.00     0.009 A 
ATOM     74  C   UNL A   1      48.099  27.341  23.978  1.00  0.00     0.001 A 
ATOM     75  C   UNL A   1      49.254  27.162  26.094  1.00  0.00     0.001 A 
ATOM     76  C   UNL A   1      49.212  26.941  24.718  1.00  0.00     0.000 A 
ENDBRANCH  57  71
BRANCH  58  77
ATOM     77  C   UNL A   1      39.193  31.805  30.854  1.00  0.00    -0.014 A 
ATOM     78  C   UNL A   1      38.648  31.214  32.009  1.00  0.00     0.009 A 
ATOM     79  C   UNL A   1      38.545  32.921  30.305  1.00  0.00     0.009 A 
ATOM     80  C   UNL A   1      37.464  31.705  32.570  1.00  0.00     0.001 A 
ATOM     81  C   UNL A   1      37.384  33.433  30.891  1.00  0.00     0.001 A 
ATOM     82  C   UNL A   1      36.836  32.816  32.013  1.00  0.00     0.000 A 
ENDBRANCH  58  77
BRANCH  70  83
ATOM     83  C   UNL A   1      45.498  34.354  29.368  1.00  0.00    -0.014 A 
ATOM     84  C   UNL A   1      45.375  35.459  28.511  1.00  0.00     0.009 A 
ATOM     85  C   UNL A   1      46.209  34.507  30.570  1.00  0.00     0.009 A 
ATOM     86  C   UNL A   1      45.974  36.680  28.836  1.00  0.00     0.001 A 
ATOM     87  C   UNL A   1      46.781  35.737  30.906  1.00  0.00     0.001 A 
ATOM     88  C   UNL A   1      46.670  36.819  30.036  1.00  0.00     0.000 A 
ENDBRANCH  70  83
ENDBRANCH  44  45
ENDBRANCH  37  39
ENDBRANCH  36  37
ENDBRANCH  35  36
ENDBRANCH  34  35
ENDBRANCH  33  34
ENDBRANCH  32  33
ENDBRANCH  31  32
ENDBRANCH   1  31
TORSDOF 23
ENDMDL
MODEL 2
REMARK VINA RESULT:      -9.7      3.674      8.076
REMARK SMILES CC[C@@H](C(=O)OCCOCCOCCOC(=O)c1ccc(-c2c3nc(c(-c4ccccc4)c4ccc([nH]4)c(-c4ccccc4)c4nc(c(-c5ccccc5)c5ccc2[nH]5)C=C4)C=C3)cc1)n1c(SCc2cccc(C(F)(F)F)c2)nc2ccncc21
REMARK SMILES IDX 9 1 8 2 7 3 6 4 4 5 5 6 3 7 2 8 1 9 66 10 67 11 86 12 80 13
REMARK SMILES IDX 81 14 85 15 82 16 84 17 83 18 68 19 69 20 70 21 71 22 79 23
REMARK SMILES IDX 72 24 74 25 73 26 75 27 76 28 77 29 78 30 10 31 11 32 12 33
REMARK SMILES IDX 13 34 14 35 15 36 16 37 17 38 18 39 19 40 65 41 20 42 64 43
REMARK SMILES IDX 21 44 22 45 23 46 58 47 24 48 63 49 57 50 59 51 25 52 62 53
REMARK SMILES IDX 56 54 55 55 26 57 48 58 33 59 47 60 34 61 37 62 46 63 60 64
REMARK SMILES IDX 35 65 36 66 45 68 61 69 38 70 27 71 28 72 32 73 29 74 31 75
REMARK SMILES IDX 30 76 49 77 50 78 54 79 51 80 53 81 52 82 39 83 40 84 44 85
REMARK SMILES IDX 41 86 43 87 42 88
REMARK H PARENT 59 56 37 67
REMARK Flexibility Score: inf
ROOT
ATOM      1  O   UNL A   1      32.798  24.815  26.200  1.00  0.00    -0.376 OA
ENDROOT
BRANCH   1   2
ATOM      2  C   UNL A   1      31.733  24.149  26.878  1.00  0.00     0.202 C 
BRANCH   2   3
ATOM      3  C   UNL A   1      31.920  22.652  27.156  1.00  0.00     0.261 C 
BRANCH   3   4
ATOM      4  O   UNL A   1      32.989  22.040  26.402  1.00  0.00    -0.462 OA
BRANCH   4   5
ATOM      5  C   UNL A   1      32.622  21.307  25.314  1.00  0.00     0.329 C 
ATOM      6  O   UNL A   1      31.470  20.954  25.090  1.00  0.00    -0.250 OA
BRANCH   5   7
ATOM      7  C   UNL A   1      33.801  20.898  24.428  1.00  0.00     0.199 C 
BRANCH   7   8
ATOM      8  C   UNL A   1      34.404  19.494  24.637  1.00  0.00     0.034 C 
ATOM      9  C   UNL A   1      33.407  18.341  24.672  1.00  0.00     0.007 C 
ENDBRANCH   7   8
BRANCH   7  10
ATOM     10  N   UNL A   1      34.806  21.980  24.381  1.00  0.00    -0.303 N 
ATOM     11  C   UNL A   1      34.613  23.292  23.980  1.00  0.00     0.170 A 
ATOM     12  C   UNL A   1      36.090  21.954  24.922  1.00  0.00     0.088 A 
ATOM     13  N   UNL A   1      35.429  24.098  24.625  1.00  0.00    -0.222 NA
ATOM     14  C   UNL A   1      36.408  23.297  25.119  1.00  0.00     0.093 A 
ATOM     15  C   UNL A   1      37.018  20.973  25.238  1.00  0.00     0.139 A 
ATOM     16  C   UNL A   1      37.628  23.676  25.673  1.00  0.00     0.051 A 
ATOM     17  N   UNL A   1      38.236  21.343  25.694  1.00  0.00    -0.262 NA
ATOM     18  C   UNL A   1      38.517  22.649  25.891  1.00  0.00     0.113 A 
BRANCH  11  19
ATOM     19  S   UNL A   1      33.787  23.954  22.611  1.00  0.00    -0.083 SA
BRANCH  19  20
ATOM     20  C   UNL A   1      32.022  23.914  22.782  1.00  0.00     0.113 C 
BRANCH  20  21
ATOM     21  C   UNL A   1      31.240  25.173  23.089  1.00  0.00    -0.037 A 
ATOM     22  C   UNL A   1      29.953  24.990  23.631  1.00  0.00     0.004 A 
ATOM     23  C   UNL A   1      31.681  26.485  22.850  1.00  0.00     0.017 A 
ATOM     24  C   UNL A   1      29.109  26.070  23.874  1.00  0.00     0.001 A 
ATOM     25  C   UNL A   1      30.824  27.583  23.068  1.00  0.00     0.056 A 
ATOM     26  C   UNL A   1      29.537  27.359  23.580  1.00  0.00     0.013 A 
BRANCH  25  27
ATOM     27  C   UNL A   1      31.230  28.993  22.702  1.00  0.00     0.416 C 
ATOM     28  F   UNL A   1      31.135  29.837  23.768  1.00  0.00    -0.166 F 
ATOM     29  F   UNL A   1      32.520  29.074  22.276  1.00  0.00    -0.166 F 
ATOM     30  F   UNL A   1      30.469  29.547  21.721  1.00  0.00    -0.166 F 
ENDBRANCH  25  27
ENDBRANCH  20  21
ENDBRANCH  19  20
ENDBRANCH  11  19
ENDBRANCH   7  10
ENDBRANCH   5   7
ENDBRANCH   4   5
ENDBRANCH   3   4
ENDBRANCH   2   3
ENDBRANCH   1   2
BRANCH   1  31
ATOM     31  C   UNL A   1      32.823  26.238  26.256  1.00  0.00     0.188 C 
BRANCH  31  32
ATOM     32  C   UNL A   1      31.499  26.921  26.599  1.00  0.00     0.188 C 
BRANCH  32  33
ATOM     33  O   UNL A   1      31.554  27.841  27.679  1.00  0.00    -0.376 OA
BRANCH  33  34
ATOM     34  C   UNL A   1      31.986  29.171  27.368  1.00  0.00     0.202 C 
BRANCH  34  35
ATOM     35  C   UNL A   1      33.485  29.372  27.038  1.00  0.00     0.261 C 
BRANCH  35  36
ATOM     36  O   UNL A   1      33.945  30.742  26.993  1.00  0.00    -0.460 OA
BRANCH  36  37
ATOM     37  C   UNL A   1      34.494  31.260  28.123  1.00  0.00     0.338 C 
ATOM     38  O   UNL A   1      33.930  31.970  28.924  1.00  0.00    -0.246 OA
BRANCH  37  39
ATOM     39  C   UNL A   1      35.825  30.606  28.363  1.00  0.00     0.060 A 
ATOM     40  C   UNL A   1      36.024  29.987  29.600  1.00  0.00     0.016 A 
ATOM     41  C   UNL A   1      36.822  30.493  27.381  1.00  0.00     0.016 A 
ATOM     42  C   UNL A   1      37.210  29.286  29.857  1.00  0.00     0.010 A 
ATOM     43  C   UNL A   1      38.014  29.792  27.645  1.00  0.00     0.010 A 
ATOM     44  C   UNL A   1      38.227  29.188  28.892  1.00  0.00    -0.014 A 
BRANCH  44  45
ATOM     45  C   UNL A   1      39.559  28.629  29.283  1.00  0.00     0.031 A 
ATOM     46  C   UNL A   1      40.356  29.376  30.322  1.00  0.00     0.074 A 
ATOM     47  C   UNL A   1      40.064  27.483  28.783  1.00  0.00     0.049 A 
ATOM     48  N   UNL A   1      41.494  29.059  30.891  1.00  0.00    -0.248 NA
ATOM     49  C   UNL A   1      39.795  30.660  30.770  1.00  0.00     0.031 C 
ATOM     50  C   UNL A   1      39.422  26.627  27.790  1.00  0.00     0.029 A 
ATOM     51  N   UNL A   1      41.233  26.814  29.089  1.00  0.00    -0.354 N 
ATOM     52  C   UNL A   1      41.782  30.106  31.757  1.00  0.00     0.074 A 
ATOM     53  C   UNL A   1      40.700  31.060  31.647  1.00  0.00     0.031 C 
ATOM     54  C   UNL A   1      40.168  25.518  27.619  1.00  0.00     0.029 A 
ATOM     55  C   UNL A   1      41.371  25.603  28.448  1.00  0.00     0.049 A 
ATOM     56  H   UNL A   1      41.907  27.172  29.711  1.00  0.00     0.167 HD
ATOM     57  C   UNL A   1      42.862  30.289  32.553  1.00  0.00     0.031 A 
ATOM     58  C   UNL A   1      42.348  24.672  28.522  1.00  0.00     0.031 A 
ATOM     59  C   UNL A   1      43.993  29.404  32.623  1.00  0.00     0.049 A 
ATOM     60  C   UNL A   1      43.572  24.928  29.375  1.00  0.00     0.074 A 
ATOM     61  C   UNL A   1      45.153  29.551  33.364  1.00  0.00     0.029 A 
ATOM     62  N   UNL A   1      44.120  28.227  31.908  1.00  0.00    -0.354 N 
ATOM     63  N   UNL A   1      43.816  25.910  30.209  1.00  0.00    -0.248 NA
ATOM     64  C   UNL A   1      44.669  23.947  29.276  1.00  0.00     0.031 C 
ATOM     65  C   UNL A   1      46.011  28.494  33.046  1.00  0.00     0.029 A 
ATOM     66  C   UNL A   1      45.352  27.651  32.166  1.00  0.00     0.049 A 
ATOM     67  H   UNL A   1      43.435  27.853  31.307  1.00  0.00     0.167 HD
ATOM     68  C   UNL A   1      45.084  25.663  30.730  1.00  0.00     0.074 A 
ATOM     69  C   UNL A   1      45.542  24.418  30.156  1.00  0.00     0.031 C 
ATOM     70  C   UNL A   1      45.811  26.413  31.595  1.00  0.00     0.031 A 
BRANCH  57  71
ATOM     71  C   UNL A   1      42.903  31.560  33.351  1.00  0.00    -0.014 A 
ATOM     72  C   UNL A   1      42.398  31.619  34.659  1.00  0.00     0.009 A 
ATOM     73  C   UNL A   1      43.449  32.718  32.775  1.00  0.00     0.009 A 
ATOM     74  C   UNL A   1      42.406  32.825  35.361  1.00  0.00     0.001 A 
ATOM     75  C   UNL A   1      43.482  33.914  33.489  1.00  0.00     0.001 A 
ATOM     76  C   UNL A   1      42.950  33.971  34.777  1.00  0.00     0.000 A 
ENDBRANCH  57  71
BRANCH  58  77
ATOM     77  C   UNL A   1      42.266  23.399  27.745  1.00  0.00    -0.014 A 
ATOM     78  C   UNL A   1      42.724  23.341  26.416  1.00  0.00     0.009 A 
ATOM     79  C   UNL A   1      41.646  22.263  28.288  1.00  0.00     0.009 A 
ATOM     80  C   UNL A   1      42.529  22.192  25.642  1.00  0.00     0.001 A 
ATOM     81  C   UNL A   1      41.486  21.103  27.524  1.00  0.00     0.001 A 
ATOM     82  C   UNL A   1      41.913  21.073  26.198  1.00  0.00     0.000 A 
ENDBRANCH  58  77
BRANCH  70  83
ATOM     83  C   UNL A   1      47.175  25.912  31.993  1.00  0.00    -0.014 A 
ATOM     84  C   UNL A   1      48.314  26.201  31.225  1.00  0.00     0.009 A 
ATOM     85  C   UNL A   1      47.332  25.200  33.194  1.00  0.00     0.009 A 
ATOM     86  C   UNL A   1      49.576  25.760  31.635  1.00  0.00     0.001 A 
ATOM     87  C   UNL A   1      48.599  24.788  33.616  1.00  0.00     0.001 A 
ATOM     88  C   UNL A   1      49.718  25.061  32.832  1.00  0.00     0.000 A 
ENDBRANCH  70  83
ENDBRANCH  44  45
ENDBRANCH  37  39
ENDBRANCH  36  37
ENDBRANCH  35  36
ENDBRANCH  34  35
ENDBRANCH  33  34
ENDBRANCH  32  33
ENDBRANCH  31  32
ENDBRANCH   1  31
TORSDOF 23
ENDMDL
MODEL 3
REMARK VINA RESULT:      -9.6      4.836      9.360
REMARK SMILES CC[C@@H](C(=O)OCCOCCOCCOC(=O)c1ccc(-c2c3nc(c(-c4ccccc4)c4ccc([nH]4)c(-c4ccccc4)c4nc(c(-c5ccccc5)c5ccc2[nH]5)C=C4)C=C3)cc1)n1c(SCc2cccc(C(F)(F)F)c2)nc2ccncc21
REMARK SMILES IDX 9 1 8 2 7 3 6 4 4 5 5 6 3 7 2 8 1 9 66 10 67 11 86 12 80 13
REMARK SMILES IDX 81 14 85 15 82 16 84 17 83 18 68 19 69 20 70 21 71 22 79 23
REMARK SMILES IDX 72 24 74 25 73 26 75 27 76 28 77 29 78 30 10 31 11 32 12 33
REMARK SMILES IDX 13 34 14 35 15 36 16 37 17 38 18 39 19 40 65 41 20 42 64 43
REMARK SMILES IDX 21 44 22 45 23 46 58 47 24 48 63 49 57 50 59 51 25 52 62 53
REMARK SMILES IDX 56 54 55 55 26 57 48 58 33 59 47 60 34 61 37 62 46 63 60 64
REMARK SMILES IDX 35 65 36 66 45 68 61 69 38 70 27 71 28 72 32 73 29 74 31 75
REMARK SMILES IDX 30 76 49 77 50 78 54 79 51 80 53 81 52 82 39 83 40 84 44 85
REMARK SMILES IDX 41 86 43 87 42 88
REMARK H PARENT 59 56 37 67
REMARK Flexibility Score: inf
ROOT
ATOM      1  O   UNL A   1      28.799  30.561  21.480  1.00  0.00    -0.376 OA
ENDROOT
BRANCH   1   2
ATOM      2  C   UNL A   1      28.638  29.338  22.197  1.00  0.00     0.202 C 
BRANCH   2   3
ATOM      3  C   UNL A   1      29.909  28.515  22.452  1.00  0.00     0.261 C 
BRANCH   3   4
ATOM      4  O   UNL A   1      30.191  28.282  23.848  1.00  0.00    -0.462 OA
BRANCH   4   5
ATOM      5  C   UNL A   1      30.272  26.981  24.242  1.00  0.00     0.329 C 
ATOM      6  O   UNL A   1      29.399  26.150  24.022  1.00  0.00    -0.250 OA
BRANCH   5   7
ATOM      7  C   UNL A   1      31.529  26.667  25.057  1.00  0.00     0.199 C 
BRANCH   7   8
ATOM      8  C   UNL A   1      32.642  27.734  25.101  1.00  0.00     0.034 C 
ATOM      9  C   UNL A   1      33.689  27.558  26.196  1.00  0.00     0.007 C 
ENDBRANCH   7   8
BRANCH   7  10
ATOM     10  N   UNL A   1      32.016  25.308  24.746  1.00  0.00    -0.303 N 
ATOM     11  C   UNL A   1      31.960  24.186  25.557  1.00  0.00     0.170 A 
ATOM     12  C   UNL A   1      32.437  24.833  23.504  1.00  0.00     0.088 A 
ATOM     13  N   UNL A   1      31.858  23.094  24.831  1.00  0.00    -0.222 NA
ATOM     14  C   UNL A   1      32.255  23.453  23.584  1.00  0.00     0.093 A 
ATOM     15  C   UNL A   1      32.967  25.393  22.352  1.00  0.00     0.139 A 
ATOM     16  C   UNL A   1      32.554  22.623  22.507  1.00  0.00     0.051 A 
ATOM     17  N   UNL A   1      33.339  24.580  21.337  1.00  0.00    -0.262 NA
ATOM     18  C   UNL A   1      33.141  23.248  21.430  1.00  0.00     0.113 A 
BRANCH  11  19
ATOM     19  S   UNL A   1      32.340  23.974  27.232  1.00  0.00    -0.083 SA
BRANCH  19  20
ATOM     20  C   UNL A   1      32.805  22.310  27.632  1.00  0.00     0.113 C 
BRANCH  20  21
ATOM     21  C   UNL A   1      33.660  21.492  26.688  1.00  0.00    -0.037 A 
ATOM     22  C   UNL A   1      34.949  21.993  26.424  1.00  0.00     0.004 A 
ATOM     23  C   UNL A   1      33.260  20.311  26.043  1.00  0.00     0.017 A 
ATOM     24  C   UNL A   1      35.793  21.374  25.505  1.00  0.00     0.001 A 
ATOM     25  C   UNL A   1      34.096  19.691  25.092  1.00  0.00     0.056 A 
ATOM     26  C   UNL A   1      35.362  20.237  24.831  1.00  0.00     0.013 A 
BRANCH  25  27
ATOM     27  C   UNL A   1      33.640  18.491  24.294  1.00  0.00     0.416 C 
ATOM     28  F   UNL A   1      32.830  18.853  23.259  1.00  0.00    -0.166 F 
ATOM     29  F   UNL A   1      34.675  17.806  23.736  1.00  0.00    -0.166 F 
ATOM     30  F   UNL A   1      32.931  17.585  25.020  1.00  0.00    -0.166 F 
ENDBRANCH  25  27
ENDBRANCH  20  21
ENDBRANCH  19  20
ENDBRANCH  11  19
ENDBRANCH   7  10
ENDBRANCH   5   7
ENDBRANCH   4   5
ENDBRANCH   3   4
ENDBRANCH   2   3
ENDBRANCH   1   2
BRANCH   1  31
ATOM     31  C   UNL A   1      28.806  31.768  22.236  1.00  0.00     0.188 C 
BRANCH  31  32
ATOM     32  C   UNL A   1      28.764  31.610  23.756  1.00  0.00     0.188 C 
BRANCH  32  33
ATOM     33  O   UNL A   1      29.816  32.250  24.462  1.00  0.00    -0.376 OA
BRANCH  33  34
ATOM     34  C   UNL A   1      30.633  31.417  25.293  1.00  0.00     0.202 C 
BRANCH  34  35
ATOM     35  C   UNL A   1      31.133  32.017  26.628  1.00  0.00     0.261 C 
BRANCH  35  36
ATOM     36  O   UNL A   1      32.533  31.814  26.929  1.00  0.00    -0.460 OA
BRANCH  36  37
ATOM     37  C   UNL A   1      33.195  32.823  27.554  1.00  0.00     0.338 C 
ATOM     38  O   UNL A   1      32.733  33.905  27.837  1.00  0.00    -0.246 OA
BRANCH  37  39
ATOM     39  C   UNL A   1      34.504  32.301  28.073  1.00  0.00     0.060 A 
ATOM     40  C   UNL A   1      34.610  30.923  28.283  1.00  0.00     0.016 A 
ATOM     41  C   UNL A   1      35.643  33.102  28.251  1.00  0.00     0.016 A 
ATOM     42  C   UNL A   1      35.828  30.360  28.685  1.00  0.00     0.010 A 
ATOM     43  C   UNL A   1      36.864  32.533  28.661  1.00  0.00     0.010 A 
ATOM     44  C   UNL A   1      36.969  31.155  28.893  1.00  0.00    -0.014 A 
BRANCH  44  45
ATOM     45  C   UNL A   1      38.177  30.551  29.535  1.00  0.00     0.031 A 
ATOM     46  C   UNL A   1      38.386  30.795  31.008  1.00  0.00     0.074 A 
ATOM     47  C   UNL A   1      39.065  29.778  28.877  1.00  0.00     0.049 A 
ATOM     48  N   UNL A   1      39.303  30.317  31.814  1.00  0.00    -0.248 NA
ATOM     49  C   UNL A   1      37.434  31.712  31.655  1.00  0.00     0.031 C 
ATOM     50  C   UNL A   1      39.007  29.423  27.462  1.00  0.00     0.029 A 
ATOM     51  N   UNL A   1      40.178  29.104  29.341  1.00  0.00    -0.354 N 
ATOM     52  C   UNL A   1      39.038  30.879  33.056  1.00  0.00     0.074 A 
ATOM     53  C   UNL A   1      37.873  31.724  32.902  1.00  0.00     0.031 C 
ATOM     54  C   UNL A   1      39.995  28.548  27.188  1.00  0.00     0.029 A 
ATOM     55  C   UNL A   1      40.793  28.317  28.393  1.00  0.00     0.049 A 
ATOM     56  H   UNL A   1      40.503  29.181  30.267  1.00  0.00     0.167 HD
ATOM     57  C   UNL A   1      39.713  30.743  34.222  1.00  0.00     0.031 A 
ATOM     58  C   UNL A   1      41.869  27.504  28.484  1.00  0.00     0.031 A 
ATOM     59  C   UNL A   1      40.920  29.981  34.390  1.00  0.00     0.049 A 
ATOM     60  C   UNL A   1      42.639  27.414  29.784  1.00  0.00     0.074 A 
ATOM     61  C   UNL A   1      41.695  29.842  35.529  1.00  0.00     0.029 A 
ATOM     62  N   UNL A   1      41.542  29.256  33.390  1.00  0.00    -0.354 N 
ATOM     63  N   UNL A   1      42.360  27.931  30.956  1.00  0.00    -0.248 NA
ATOM     64  C   UNL A   1      43.894  26.640  29.761  1.00  0.00     0.031 C 
ATOM     65  C   UNL A   1      42.823  29.085  35.199  1.00  0.00     0.029 A 
ATOM     66  C   UNL A   1      42.709  28.691  33.876  1.00  0.00     0.049 A 
ATOM     67  H   UNL A   1      41.205  29.156  32.471  1.00  0.00     0.167 HD
ATOM     68  C   UNL A   1      43.396  27.544  31.802  1.00  0.00     0.074 A 
ATOM     69  C   UNL A   1      44.288  26.713  31.026  1.00  0.00     0.031 C 
ATOM     70  C   UNL A   1      43.599  27.865  33.104  1.00  0.00     0.031 A 
BRANCH  57  71
ATOM     71  C   UNL A   1      39.196  31.524  35.395  1.00  0.00    -0.014 A 
ATOM     72  C   UNL A   1      39.657  32.820  35.672  1.00  0.00     0.009 A 
ATOM     73  C   UNL A   1      38.236  30.945  36.240  1.00  0.00     0.009 A 
ATOM     74  C   UNL A   1      39.194  33.506  36.795  1.00  0.00     0.001 A 
ATOM     75  C   UNL A   1      37.753  31.644  37.345  1.00  0.00     0.001 A 
ATOM     76  C   UNL A   1      38.241  32.919  37.629  1.00  0.00     0.000 A 
ENDBRANCH  57  71
BRANCH  58  77
ATOM     77  C   UNL A   1      42.342  26.710  27.311  1.00  0.00    -0.014 A 
ATOM     78  C   UNL A   1      41.877  25.398  27.100  1.00  0.00     0.009 A 
ATOM     79  C   UNL A   1      43.328  27.215  26.450  1.00  0.00     0.009 A 
ATOM     80  C   UNL A   1      42.415  24.605  26.081  1.00  0.00     0.001 A 
ATOM     81  C   UNL A   1      43.837  26.433  25.409  1.00  0.00     0.001 A 
ATOM     82  C   UNL A   1      43.392  25.124  25.235  1.00  0.00     0.000 A 
ENDBRANCH  58  77
BRANCH  70  83
ATOM     83  C   UNL A   1      44.822  27.311  33.788  1.00  0.00    -0.014 A 
ATOM     84  C   UNL A   1      46.028  28.028  33.827  1.00  0.00     0.009 A 
ATOM     85  C   UNL A   1      44.745  26.083  34.465  1.00  0.00     0.009 A 
ATOM     86  C   UNL A   1      47.138  27.513  34.502  1.00  0.00     0.001 A 
ATOM     87  C   UNL A   1      45.847  25.586  35.165  1.00  0.00     0.001 A 
ATOM     88  C   UNL A   1      47.045  26.297  35.175  1.00  0.00     0.000 A 
ENDBRANCH  70  83
ENDBRANCH  44  45
ENDBRANCH  37  39
ENDBRANCH  36  37
ENDBRANCH  35  36
ENDBRANCH  34  35
ENDBRANCH  33  34
ENDBRANCH  32  33
ENDBRANCH  31  32
ENDBRANCH   1  31
TORSDOF 23
ENDMDL
