MODEL 1
REMARK VINA RESULT:     -10.9      0.000      0.000
REMARK SMILES O=C(OCCOCCOCCOC(=O)c1cc(Br)cc2c1N[C@H](c1cccc([N+](=O)[O-])c1)[C@H]1CC=C[C@H]21)c1ccc(-c2c3nc(c(-c4ccccc4)c4ccc([nH]4)c(-c4ccccc4)c4nc(c(-c5ccccc5)c5ccc2[nH]5)C=C4)C=C3)cc1
REMARK SMILES IDX 7 1 6 2 5 3 4 4 3 5 2 6 1 7 38 8 39 9 85 10 40 11 84 12
REMARK SMILES IDX 41 13 42 14 43 15 78 16 44 17 83 18 77 19 79 20 45 21 82 22
REMARK SMILES IDX 76 23 75 24 46 26 68 27 53 28 67 29 54 30 57 31 66 32 80 33
REMARK SMILES IDX 55 34 56 35 65 37 81 38 58 39 47 40 48 41 52 42 49 43 51 44
REMARK SMILES IDX 50 45 69 46 70 47 74 48 71 49 73 50 72 51 59 52 60 53 64 54
REMARK SMILES IDX 61 55 63 56 62 57 8 58 9 59 10 60 11 61 12 62 13 63 14 64
REMARK SMILES IDX 15 65 16 66 21 67 17 68 20 69 22 70 18 71 19 72 37 73 23 74
REMARK SMILES IDX 33 76 36 77 34 78 35 79 24 80 25 81 32 82 26 83 28 84 27 85
REMARK SMILES IDX 29 86 30 87 31 88
REMARK H PARENT 79 25 57 36 22 75
REMARK Flexibility Score: inf
ROOT
ATOM      1  C   UNL A   1      35.335  23.427  26.225  1.00  0.00     0.188 C 
ENDROOT
BRANCH   1   2
ATOM      2  O   UNL A   1      35.142  22.325  25.320  1.00  0.00    -0.376 OA
BRANCH   2   3
ATOM      3  C   UNL A   1      36.108  22.287  24.269  1.00  0.00     0.202 C 
BRANCH   3   4
ATOM      4  C   UNL A   1      37.149  21.168  24.386  1.00  0.00     0.261 C 
BRANCH   4   5
ATOM      5  O   UNL A   1      37.753  21.082  25.682  1.00  0.00    -0.460 OA
BRANCH   5   6
ATOM      6  C   UNL A   1      39.003  21.406  26.083  1.00  0.00     0.338 C 
ATOM      7  O   UNL A   1      39.856  20.518  26.030  1.00  0.00    -0.246 OA
BRANCH   6   8
ATOM      8  C   UNL A   1      39.454  22.761  26.562  1.00  0.00     0.060 A 
ATOM      9  C   UNL A   1      40.505  22.757  27.502  1.00  0.00     0.016 A 
ATOM     10  C   UNL A   1      38.938  24.005  26.192  1.00  0.00     0.016 A 
ATOM     11  C   UNL A   1      41.052  23.942  28.011  1.00  0.00     0.010 A 
ATOM     12  C   UNL A   1      39.488  25.200  26.687  1.00  0.00     0.010 A 
ATOM     13  C   UNL A   1      40.564  25.177  27.583  1.00  0.00    -0.014 A 
BRANCH  13  14
ATOM     14  C   UNL A   1      41.292  26.431  27.904  1.00  0.00     0.031 A 
ATOM     15  C   UNL A   1      40.761  27.440  28.881  1.00  0.00     0.074 A 
ATOM     16  C   UNL A   1      42.490  26.608  27.314  1.00  0.00     0.049 A 
ATOM     17  N   UNL A   1      41.217  28.630  29.183  1.00  0.00    -0.248 NA
ATOM     18  C   UNL A   1      39.573  27.045  29.644  1.00  0.00     0.031 C 
ATOM     19  C   UNL A   1      43.164  25.615  26.471  1.00  0.00     0.029 A 
ATOM     20  N   UNL A   1      43.367  27.659  27.353  1.00  0.00    -0.354 N 
ATOM     21  C   UNL A   1      40.362  29.144  30.160  1.00  0.00     0.074 A 
ATOM     22  C   UNL A   1      39.385  28.110  30.416  1.00  0.00     0.031 C 
ATOM     23  C   UNL A   1      44.362  26.091  26.102  1.00  0.00     0.029 A 
ATOM     24  C   UNL A   1      44.513  27.443  26.629  1.00  0.00     0.049 A 
ATOM     25  H   UNL A   1      43.192  28.490  27.853  1.00  0.00     0.167 HD
ATOM     26  C   UNL A   1      40.386  30.377  30.740  1.00  0.00     0.031 A 
ATOM     27  C   UNL A   1      45.566  28.252  26.403  1.00  0.00     0.031 A 
ATOM     28  C   UNL A   1      41.355  31.382  30.349  1.00  0.00     0.049 A 
ATOM     29  C   UNL A   1      45.542  29.633  26.986  1.00  0.00     0.074 A 
ATOM     30  C   UNL A   1      41.425  32.719  30.704  1.00  0.00     0.029 A 
ATOM     31  N   UNL A   1      42.435  31.147  29.506  1.00  0.00    -0.354 N 
ATOM     32  N   UNL A   1      44.600  30.194  27.703  1.00  0.00    -0.248 NA
ATOM     33  C   UNL A   1      46.703  30.498  26.733  1.00  0.00     0.031 C 
ATOM     34  C   UNL A   1      42.424  33.322  29.948  1.00  0.00     0.029 A 
ATOM     35  C   UNL A   1      43.144  32.317  29.326  1.00  0.00     0.049 A 
ATOM     36  H   UNL A   1      42.659  30.278  29.100  1.00  0.00     0.167 HD
ATOM     37  C   UNL A   1      45.052  31.472  27.989  1.00  0.00     0.074 A 
ATOM     38  C   UNL A   1      46.359  31.604  27.384  1.00  0.00     0.031 C 
ATOM     39  C   UNL A   1      44.431  32.441  28.696  1.00  0.00     0.031 A 
BRANCH  26  40
ATOM     40  C   UNL A   1      39.288  30.791  31.716  1.00  0.00    -0.014 A 
ATOM     41  C   UNL A   1      39.467  30.548  33.094  1.00  0.00     0.009 A 
ATOM     42  C   UNL A   1      38.083  31.396  31.335  1.00  0.00     0.009 A 
ATOM     43  C   UNL A   1      38.530  30.936  34.057  1.00  0.00     0.001 A 
ATOM     44  C   UNL A   1      37.154  31.824  32.300  1.00  0.00     0.001 A 
ATOM     45  C   UNL A   1      37.381  31.601  33.658  1.00  0.00     0.000 A 
ENDBRANCH  26  40
BRANCH  27  46
ATOM     46  C   UNL A   1      46.716  27.755  25.612  1.00  0.00    -0.014 A 
ATOM     47  C   UNL A   1      46.832  28.051  24.244  1.00  0.00     0.009 A 
ATOM     48  C   UNL A   1      47.666  26.913  26.208  1.00  0.00     0.009 A 
ATOM     49  C   UNL A   1      47.864  27.496  23.485  1.00  0.00     0.001 A 
ATOM     50  C   UNL A   1      48.711  26.379  25.450  1.00  0.00     0.001 A 
ATOM     51  C   UNL A   1      48.804  26.662  24.088  1.00  0.00     0.000 A 
ENDBRANCH  27  46
BRANCH  39  52
ATOM     52  C   UNL A   1      45.129  33.752  28.912  1.00  0.00    -0.014 A 
ATOM     53  C   UNL A   1      45.976  33.884  30.027  1.00  0.00     0.009 A 
ATOM     54  C   UNL A   1      44.761  34.895  28.191  1.00  0.00     0.009 A 
ATOM     55  C   UNL A   1      46.400  35.143  30.448  1.00  0.00     0.001 A 
ATOM     56  C   UNL A   1      45.210  36.152  28.600  1.00  0.00     0.001 A 
ATOM     57  C   UNL A   1      46.012  36.275  29.737  1.00  0.00     0.000 A 
ENDBRANCH  39  52
ENDBRANCH  13  14
ENDBRANCH   6   8
ENDBRANCH   5   6
ENDBRANCH   4   5
ENDBRANCH   3   4
ENDBRANCH   2   3
ENDBRANCH   1   2
BRANCH   1  58
ATOM     58  C   UNL A   1      35.479  24.739  25.455  1.00  0.00     0.188 C 
BRANCH  58  59
ATOM     59  O   UNL A   1      34.372  25.086  24.619  1.00  0.00    -0.376 OA
BRANCH  59  60
ATOM     60  C   UNL A   1      34.149  26.463  24.343  1.00  0.00     0.202 C 
BRANCH  60  61
ATOM     61  C   UNL A   1      34.057  26.870  22.873  1.00  0.00     0.261 C 
BRANCH  61  62
ATOM     62  O   UNL A   1      33.940  25.779  21.954  1.00  0.00    -0.460 OA
BRANCH  62  63
ATOM     63  C   UNL A   1      32.773  25.755  21.271  1.00  0.00     0.340 C 
ATOM     64  O   UNL A   1      32.622  25.627  20.059  1.00  0.00    -0.246 OA
BRANCH  63  65
ATOM     65  C   UNL A   1      31.633  25.954  22.171  1.00  0.00     0.084 A 
ATOM     66  C   UNL A   1      30.965  27.185  22.107  1.00  0.00     0.033 A 
ATOM     67  C   UNL A   1      31.418  25.042  23.219  1.00  0.00     0.053 A 
ATOM     68  C   UNL A   1      30.125  27.554  23.148  1.00  0.00     0.019 A 
ATOM     69  C   UNL A   1      30.637  25.488  24.311  1.00  0.00    -0.016 A 
ATOM     70  N   UNL A   1      32.024  23.784  23.235  1.00  0.00    -0.377 N 
ATOM     71  Br  UNL A   1      29.196  29.197  23.073  1.00  0.00    -0.051 Br
ATOM     72  C   UNL A   1      30.008  26.742  24.274  1.00  0.00     0.022 A 
ATOM     73  C   UNL A   1      30.666  24.632  25.543  1.00  0.00     0.049 C 
ATOM     74  C   UNL A   1      31.907  22.859  24.358  1.00  0.00     0.114 C 
ATOM     75  H   UNL A   1      32.557  23.509  22.454  1.00  0.00     0.161 HD
ATOM     76  C   UNL A   1      30.625  23.169  25.105  1.00  0.00     0.031 C 
ATOM     77  C   UNL A   1      29.555  24.608  26.529  1.00  0.00    -0.023 C 
ATOM     78  C   UNL A   1      30.347  22.405  26.390  1.00  0.00     0.034 C 
ATOM     79  C   UNL A   1      29.409  23.370  27.027  1.00  0.00    -0.030 C 
BRANCH  74  80
ATOM     80  C   UNL A   1      32.017  21.418  23.877  1.00  0.00    -0.019 A 
ATOM     81  C   UNL A   1      31.886  21.149  22.504  1.00  0.00     0.006 A 
ATOM     82  C   UNL A   1      32.327  20.348  24.735  1.00  0.00     0.091 A 
ATOM     83  C   UNL A   1      32.120  19.868  21.995  1.00  0.00     0.007 A 
ATOM     84  C   UNL A   1      32.615  19.079  24.216  1.00  0.00     0.269 A 
ATOM     85  C   UNL A   1      32.508  18.832  22.845  1.00  0.00     0.085 A 
BRANCH  84  86
ATOM     86  N   UNL A   1      33.094  18.022  25.117  1.00  0.00     0.062 N 
ATOM     87  O   UNL A   1      32.440  17.805  26.147  1.00  0.00    -0.258 OA
ATOM     88  O   UNL A   1      34.113  17.400  24.785  1.00  0.00    -0.258 OA
ENDBRANCH  84  86
ENDBRANCH  74  80
ENDBRANCH  63  65
ENDBRANCH  62  63
ENDBRANCH  61  62
ENDBRANCH  60  61
ENDBRANCH  59  60
ENDBRANCH  58  59
ENDBRANCH   1  58
TORSDOF 19
ENDMDL
MODEL 2
REMARK VINA RESULT:     -10.6      2.791      7.108
REMARK SMILES O=C(OCCOCCOCCOC(=O)c1cc(Br)cc2c1N[C@H](c1cccc([N+](=O)[O-])c1)[C@H]1CC=C[C@H]21)c1ccc(-c2c3nc(c(-c4ccccc4)c4ccc([nH]4)c(-c4ccccc4)c4nc(c(-c5ccccc5)c5ccc2[nH]5)C=C4)C=C3)cc1
REMARK SMILES IDX 7 1 6 2 5 3 4 4 3 5 2 6 1 7 38 8 39 9 85 10 40 11 84 12
REMARK SMILES IDX 41 13 42 14 43 15 78 16 44 17 83 18 77 19 79 20 45 21 82 22
REMARK SMILES IDX 76 23 75 24 46 26 68 27 53 28 67 29 54 30 57 31 66 32 80 33
REMARK SMILES IDX 55 34 56 35 65 37 81 38 58 39 47 40 48 41 52 42 49 43 51 44
REMARK SMILES IDX 50 45 69 46 70 47 74 48 71 49 73 50 72 51 59 52 60 53 64 54
REMARK SMILES IDX 61 55 63 56 62 57 8 58 9 59 10 60 11 61 12 62 13 63 14 64
REMARK SMILES IDX 15 65 16 66 21 67 17 68 20 69 22 70 18 71 19 72 37 73 23 74
REMARK SMILES IDX 33 76 36 77 34 78 35 79 24 80 25 81 32 82 26 83 28 84 27 85
REMARK SMILES IDX 29 86 30 87 31 88
REMARK H PARENT 79 25 57 36 22 75
REMARK Flexibility Score: inf
ROOT
ATOM      1  C   UNL A   1      34.797  32.599  27.896  1.00  0.00     0.188 C 
ENDROOT
BRANCH   1   2
ATOM      2  O   UNL A   1      33.968  33.137  28.941  1.00  0.00    -0.376 OA
BRANCH   2   3
ATOM      3  C   UNL A   1      34.629  34.128  29.727  1.00  0.00     0.202 C 
BRANCH   3   4
ATOM      4  C   UNL A   1      35.686  33.588  30.697  1.00  0.00     0.261 C 
BRANCH   4   5
ATOM      5  O   UNL A   1      35.529  32.195  30.995  1.00  0.00    -0.460 OA
BRANCH   5   6
ATOM      6  C   UNL A   1      36.309  31.369  31.731  1.00  0.00     0.338 C 
ATOM      7  O   UNL A   1      36.018  31.239  32.921  1.00  0.00    -0.246 OA
BRANCH   6   8
ATOM      8  C   UNL A   1      37.480  30.574  31.220  1.00  0.00     0.060 A 
ATOM      9  C   UNL A   1      37.681  30.611  29.824  1.00  0.00     0.016 A 
ATOM     10  C   UNL A   1      38.368  29.797  31.969  1.00  0.00     0.016 A 
ATOM     11  C   UNL A   1      38.751  29.947  29.210  1.00  0.00     0.010 A 
ATOM     12  C   UNL A   1      39.452  29.139  31.363  1.00  0.00     0.010 A 
ATOM     13  C   UNL A   1      39.664  29.228  29.982  1.00  0.00    -0.014 A 
BRANCH  13  14
ATOM     14  C   UNL A   1      40.936  28.741  29.391  1.00  0.00     0.031 A 
ATOM     15  C   UNL A   1      41.090  27.346  28.855  1.00  0.00     0.074 A 
ATOM     16  C   UNL A   1      41.947  29.626  29.306  1.00  0.00     0.049 A 
ATOM     17  N   UNL A   1      42.162  26.735  28.415  1.00  0.00    -0.248 NA
ATOM     18  C   UNL A   1      39.869  26.540  28.775  1.00  0.00     0.031 C 
ATOM     19  C   UNL A   1      41.848  31.048  29.655  1.00  0.00     0.029 A 
ATOM     20  N   UNL A   1      43.238  29.481  28.876  1.00  0.00    -0.354 N 
ATOM     21  C   UNL A   1      41.754  25.458  28.021  1.00  0.00     0.074 A 
ATOM     22  C   UNL A   1      40.327  25.411  28.247  1.00  0.00     0.031 C 
ATOM     23  C   UNL A   1      43.017  31.648  29.393  1.00  0.00     0.029 A 
ATOM     24  C   UNL A   1      43.965  30.646  28.918  1.00  0.00     0.049 A 
ATOM     25  H   UNL A   1      43.611  28.623  28.567  1.00  0.00     0.167 HD
ATOM     26  C   UNL A   1      42.522  24.432  27.559  1.00  0.00     0.031 A 
ATOM     27  C   UNL A   1      45.257  30.877  28.619  1.00  0.00     0.031 A 
ATOM     28  C   UNL A   1      43.962  24.548  27.453  1.00  0.00     0.049 A 
ATOM     29  C   UNL A   1      46.107  29.721  28.184  1.00  0.00     0.074 A 
ATOM     30  C   UNL A   1      44.903  23.572  27.166  1.00  0.00     0.029 A 
ATOM     31  N   UNL A   1      44.671  25.731  27.629  1.00  0.00    -0.354 N 
ATOM     32  N   UNL A   1      45.763  28.463  28.060  1.00  0.00    -0.248 NA
ATOM     33  C   UNL A   1      47.513  29.997  27.856  1.00  0.00     0.031 C 
ATOM     34  C   UNL A   1      46.170  24.119  27.343  1.00  0.00     0.029 A 
ATOM     35  C   UNL A   1      46.021  25.488  27.477  1.00  0.00     0.049 A 
ATOM     36  H   UNL A   1      44.270  26.607  27.832  1.00  0.00     0.167 HD
ATOM     37  C   UNL A   1      46.902  27.799  27.640  1.00  0.00     0.074 A 
ATOM     38  C   UNL A   1      47.949  28.790  27.512  1.00  0.00     0.031 C 
ATOM     39  C   UNL A   1      47.056  26.482  27.380  1.00  0.00     0.031 A 
BRANCH  26  40
ATOM     40  C   UNL A   1      41.897  23.067  27.284  1.00  0.00    -0.014 A 
ATOM     41  C   UNL A   1      42.134  22.008  28.186  1.00  0.00     0.009 A 
ATOM     42  C   UNL A   1      41.099  22.776  26.169  1.00  0.00     0.009 A 
ATOM     43  C   UNL A   1      41.564  20.741  28.030  1.00  0.00     0.001 A 
ATOM     44  C   UNL A   1      40.490  21.517  26.027  1.00  0.00     0.001 A 
ATOM     45  C   UNL A   1      40.716  20.505  26.960  1.00  0.00     0.000 A 
ENDBRANCH  26  40
BRANCH  27  46
ATOM     46  C   UNL A   1      45.793  32.256  28.704  1.00  0.00    -0.014 A 
ATOM     47  C   UNL A   1      45.762  33.112  27.592  1.00  0.00     0.009 A 
ATOM     48  C   UNL A   1      46.410  32.698  29.884  1.00  0.00     0.009 A 
ATOM     49  C   UNL A   1      46.359  34.373  27.652  1.00  0.00     0.001 A 
ATOM     50  C   UNL A   1      46.985  33.969  29.948  1.00  0.00     0.001 A 
ATOM     51  C   UNL A   1      46.968  34.802  28.830  1.00  0.00     0.000 A 
ENDBRANCH  27  46
BRANCH  39  52
ATOM     52  C   UNL A   1      48.386  25.981  26.898  1.00  0.00    -0.014 A 
ATOM     53  C   UNL A   1      49.274  25.428  27.839  1.00  0.00     0.009 A 
ATOM     54  C   UNL A   1      48.850  26.283  25.611  1.00  0.00     0.009 A 
ATOM     55  C   UNL A   1      50.615  25.234  27.515  1.00  0.00     0.001 A 
ATOM     56  C   UNL A   1      50.190  26.062  25.284  1.00  0.00     0.001 A 
ATOM     57  C   UNL A   1      51.072  25.556  26.240  1.00  0.00     0.000 A 
ENDBRANCH  39  52
ENDBRANCH  13  14
ENDBRANCH   6   8
ENDBRANCH   5   6
ENDBRANCH   4   5
ENDBRANCH   3   4
ENDBRANCH   2   3
ENDBRANCH   1   2
BRANCH   1  58
ATOM     58  C   UNL A   1      34.460  31.131  27.639  1.00  0.00     0.188 C 
BRANCH  58  59
ATOM     59  O   UNL A   1      33.121  30.874  27.209  1.00  0.00    -0.376 OA
BRANCH  59  60
ATOM     60  C   UNL A   1      32.926  30.387  25.887  1.00  0.00     0.202 C 
BRANCH  60  61
ATOM     61  C   UNL A   1      33.091  28.883  25.671  1.00  0.00     0.261 C 
BRANCH  61  62
ATOM     62  O   UNL A   1      34.065  28.520  24.686  1.00  0.00    -0.460 OA
BRANCH  62  63
ATOM     63  C   UNL A   1      33.536  28.148  23.498  1.00  0.00     0.340 C 
ATOM     64  O   UNL A   1      33.958  28.422  22.377  1.00  0.00    -0.246 OA
BRANCH  63  65
ATOM     65  C   UNL A   1      32.308  27.371  23.689  1.00  0.00     0.084 A 
ATOM     66  C   UNL A   1      31.106  27.942  23.248  1.00  0.00     0.033 A 
ATOM     67  C   UNL A   1      32.335  26.237  24.519  1.00  0.00     0.053 A 
ATOM     68  C   UNL A   1      29.903  27.424  23.705  1.00  0.00     0.019 A 
ATOM     69  C   UNL A   1      31.098  25.797  25.048  1.00  0.00    -0.016 A 
ATOM     70  N   UNL A   1      33.534  25.625  24.890  1.00  0.00    -0.377 N 
ATOM     71  Br  UNL A   1      28.270  28.162  23.106  1.00  0.00    -0.051 Br
ATOM     72  C   UNL A   1      29.896  26.399  24.648  1.00  0.00     0.022 A 
ATOM     73  C   UNL A   1      31.171  24.790  26.158  1.00  0.00     0.049 C 
ATOM     74  C   UNL A   1      33.602  24.514  25.834  1.00  0.00     0.114 C 
ATOM     75  H   UNL A   1      34.373  25.958  24.497  1.00  0.00     0.161 HD
ATOM     76  C   UNL A   1      32.272  23.786  25.818  1.00  0.00     0.031 C 
ATOM     77  C   UNL A   1      30.070  23.834  26.447  1.00  0.00    -0.023 C 
ATOM     78  C   UNL A   1      32.065  22.657  26.815  1.00  0.00     0.034 C 
ATOM     79  C   UNL A   1      30.577  22.658  26.851  1.00  0.00    -0.030 C 
BRANCH  74  80
ATOM     80  C   UNL A   1      34.803  23.628  25.532  1.00  0.00    -0.019 A 
ATOM     81  C   UNL A   1      36.094  24.158  25.694  1.00  0.00     0.006 A 
ATOM     82  C   UNL A   1      34.682  22.273  25.176  1.00  0.00     0.091 A 
ATOM     83  C   UNL A   1      37.227  23.346  25.568  1.00  0.00     0.007 A 
ATOM     84  C   UNL A   1      35.815  21.451  25.106  1.00  0.00     0.269 A 
ATOM     85  C   UNL A   1      37.091  21.985  25.296  1.00  0.00     0.085 A 
BRANCH  84  86
ATOM     86  N   UNL A   1      35.647  20.008  24.893  1.00  0.00     0.062 N 
ATOM     87  O   UNL A   1      36.670  19.308  24.865  1.00  0.00    -0.258 OA
ATOM     88  O   UNL A   1      34.494  19.573  24.769  1.00  0.00    -0.258 OA
ENDBRANCH  84  86
ENDBRANCH  74  80
ENDBRANCH  63  65
ENDBRANCH  62  63
ENDBRANCH  61  62
ENDBRANCH  60  61
ENDBRANCH  59  60
ENDBRANCH  58  59
ENDBRANCH   1  58
TORSDOF 19
ENDMDL
MODEL 3
REMARK VINA RESULT:     -10.1      7.162     12.858
REMARK SMILES O=C(OCCOCCOCCOC(=O)c1cc(Br)cc2c1N[C@H](c1cccc([N+](=O)[O-])c1)[C@H]1CC=C[C@H]21)c1ccc(-c2c3nc(c(-c4ccccc4)c4ccc([nH]4)c(-c4ccccc4)c4nc(c(-c5ccccc5)c5ccc2[nH]5)C=C4)C=C3)cc1
REMARK SMILES IDX 7 1 6 2 5 3 4 4 3 5 2 6 1 7 38 8 39 9 85 10 40 11 84 12
REMARK SMILES IDX 41 13 42 14 43 15 78 16 44 17 83 18 77 19 79 20 45 21 82 22
REMARK SMILES IDX 76 23 75 24 46 26 68 27 53 28 67 29 54 30 57 31 66 32 80 33
REMARK SMILES IDX 55 34 56 35 65 37 81 38 58 39 47 40 48 41 52 42 49 43 51 44
REMARK SMILES IDX 50 45 69 46 70 47 74 48 71 49 73 50 72 51 59 52 60 53 64 54
REMARK SMILES IDX 61 55 63 56 62 57 8 58 9 59 10 60 11 61 12 62 13 63 14 64
REMARK SMILES IDX 15 65 16 66 21 67 17 68 20 69 22 70 18 71 19 72 37 73 23 74
REMARK SMILES IDX 33 76 36 77 34 78 35 79 24 80 25 81 32 82 26 83 28 84 27 85
REMARK SMILES IDX 29 86 30 87 31 88
REMARK H PARENT 79 25 57 36 22 75
REMARK Flexibility Score: inf
ROOT
ATOM      1  C   UNL A   1      48.679  35.286  33.646  1.00  0.00     0.188 C 
ENDROOT
BRANCH   1   2
ATOM      2  O   UNL A   1      48.322  36.588  34.143  1.00  0.00    -0.376 OA
BRANCH   2   3
ATOM      3  C   UNL A   1      46.954  36.922  33.906  1.00  0.00     0.202 C 
BRANCH   3   4
ATOM      4  C   UNL A   1      46.041  36.824  35.134  1.00  0.00     0.261 C 
BRANCH   4   5
ATOM      5  O   UNL A   1      44.689  36.473  34.814  1.00  0.00    -0.460 OA
BRANCH   5   6
ATOM      6  C   UNL A   1      44.033  35.301  34.974  1.00  0.00     0.338 C 
ATOM      7  O   UNL A   1      43.296  35.202  35.956  1.00  0.00    -0.246 OA
BRANCH   6   8
ATOM      8  C   UNL A   1      44.099  34.117  34.045  1.00  0.00     0.060 A 
ATOM      9  C   UNL A   1      43.709  32.882  34.604  1.00  0.00     0.016 A 
ATOM     10  C   UNL A   1      44.518  34.108  32.713  1.00  0.00     0.016 A 
ATOM     11  C   UNL A   1      43.686  31.700  33.851  1.00  0.00     0.010 A 
ATOM     12  C   UNL A   1      44.487  32.930  31.946  1.00  0.00     0.010 A 
ATOM     13  C   UNL A   1      44.049  31.723  32.503  1.00  0.00    -0.014 A 
BRANCH  13  14
ATOM     14  C   UNL A   1      43.786  30.552  31.630  1.00  0.00     0.031 A 
ATOM     15  C   UNL A   1      42.455  30.324  30.972  1.00  0.00     0.074 A 
ATOM     16  C   UNL A   1      44.816  29.715  31.405  1.00  0.00     0.049 A 
ATOM     17  N   UNL A   1      42.031  29.296  30.277  1.00  0.00    -0.248 NA
ATOM     18  C   UNL A   1      41.477  31.410  31.085  1.00  0.00     0.031 C 
ATOM     19  C   UNL A   1      46.190  29.934  31.872  1.00  0.00     0.029 A 
ATOM     20  N   UNL A   1      44.886  28.538  30.710  1.00  0.00    -0.354 N 
ATOM     21  C   UNL A   1      40.726  29.598  29.882  1.00  0.00     0.074 A 
ATOM     22  C   UNL A   1      40.454  30.923  30.392  1.00  0.00     0.031 C 
ATOM     23  C   UNL A   1      46.971  28.942  31.420  1.00  0.00     0.029 A 
ATOM     24  C   UNL A   1      46.145  27.988  30.688  1.00  0.00     0.049 A 
ATOM     25  H   UNL A   1      44.109  28.124  30.268  1.00  0.00     0.167 HD
ATOM     26  C   UNL A   1      39.849  28.812  29.198  1.00  0.00     0.031 A 
ATOM     27  C   UNL A   1      46.582  26.835  30.148  1.00  0.00     0.031 A 
ATOM     28  C   UNL A   1      40.186  27.458  28.807  1.00  0.00     0.049 A 
ATOM     29  C   UNL A   1      45.588  25.945  29.464  1.00  0.00     0.074 A 
ATOM     30  C   UNL A   1      39.377  26.474  28.262  1.00  0.00     0.029 A 
ATOM     31  N   UNL A   1      41.453  26.899  28.921  1.00  0.00    -0.354 N 
ATOM     32  N   UNL A   1      44.298  26.130  29.321  1.00  0.00    -0.248 NA
ATOM     33  C   UNL A   1      46.087  24.694  28.876  1.00  0.00     0.031 C 
ATOM     34  C   UNL A   1      40.101  25.287  28.215  1.00  0.00     0.029 A 
ATOM     35  C   UNL A   1      41.425  25.592  28.478  1.00  0.00     0.049 A 
ATOM     36  H   UNL A   1      42.250  27.365  29.266  1.00  0.00     0.167 HD
ATOM     37  C   UNL A   1      43.833  25.026  28.627  1.00  0.00     0.074 A 
ATOM     38  C   UNL A   1      44.975  24.179  28.361  1.00  0.00     0.031 C 
ATOM     39  C   UNL A   1      42.567  24.750  28.245  1.00  0.00     0.031 A 
BRANCH  26  40
ATOM     40  C   UNL A   1      38.418  29.285  28.957  1.00  0.00    -0.014 A 
ATOM     41  C   UNL A   1      37.498  29.266  30.026  1.00  0.00     0.009 A 
ATOM     42  C   UNL A   1      37.935  29.735  27.720  1.00  0.00     0.009 A 
ATOM     43  C   UNL A   1      36.183  29.724  29.899  1.00  0.00     0.001 A 
ATOM     44  C   UNL A   1      36.627  30.233  27.595  1.00  0.00     0.001 A 
ATOM     45  C   UNL A   1      35.755  30.235  28.684  1.00  0.00     0.000 A 
ENDBRANCH  26  40
BRANCH  27  46
ATOM     46  C   UNL A   1      48.021  26.490  30.224  1.00  0.00    -0.014 A 
ATOM     47  C   UNL A   1      48.541  25.808  31.335  1.00  0.00     0.009 A 
ATOM     48  C   UNL A   1      48.898  26.911  29.214  1.00  0.00     0.009 A 
ATOM     49  C   UNL A   1      49.914  25.575  31.445  1.00  0.00     0.001 A 
ATOM     50  C   UNL A   1      50.268  26.655  29.315  1.00  0.00     0.001 A 
ATOM     51  C   UNL A   1      50.776  25.997  30.434  1.00  0.00     0.000 A 
ENDBRANCH  27  46
BRANCH  39  52
ATOM     52  C   UNL A   1      42.294  23.498  27.465  1.00  0.00    -0.014 A 
ATOM     53  C   UNL A   1      41.928  22.336  28.169  1.00  0.00     0.009 A 
ATOM     54  C   UNL A   1      42.640  23.399  26.111  1.00  0.00     0.009 A 
ATOM     55  C   UNL A   1      41.964  21.091  27.545  1.00  0.00     0.001 A 
ATOM     56  C   UNL A   1      42.648  22.151  25.483  1.00  0.00     0.001 A 
ATOM     57  C   UNL A   1      42.329  20.999  26.205  1.00  0.00     0.000 A 
ENDBRANCH  39  52
ENDBRANCH  13  14
ENDBRANCH   6   8
ENDBRANCH   5   6
ENDBRANCH   4   5
ENDBRANCH   3   4
ENDBRANCH   2   3
ENDBRANCH   1   2
BRANCH   1  58
ATOM     58  C   UNL A   1      49.897  35.375  32.726  1.00  0.00     0.188 C 
BRANCH  58  59
ATOM     59  O   UNL A   1      50.037  34.307  31.786  1.00  0.00    -0.376 OA
BRANCH  59  60
ATOM     60  C   UNL A   1      48.876  33.876  31.087  1.00  0.00     0.202 C 
BRANCH  60  61
ATOM     61  C   UNL A   1      49.015  32.629  30.214  1.00  0.00     0.261 C 
BRANCH  61  62
ATOM     62  O   UNL A   1      47.794  31.921  29.978  1.00  0.00    -0.460 OA
BRANCH  62  63
ATOM     63  C   UNL A   1      47.722  31.335  28.761  1.00  0.00     0.340 C 
ATOM     64  O   UNL A   1      48.630  30.782  28.147  1.00  0.00    -0.246 OA
BRANCH  63  65
ATOM     65  C   UNL A   1      46.378  31.470  28.191  1.00  0.00     0.084 A 
ATOM     66  C   UNL A   1      45.657  32.631  28.502  1.00  0.00     0.033 A 
ATOM     67  C   UNL A   1      45.771  30.354  27.591  1.00  0.00     0.053 A 
ATOM     68  C   UNL A   1      44.287  32.655  28.287  1.00  0.00     0.019 A 
ATOM     69  C   UNL A   1      44.361  30.370  27.477  1.00  0.00    -0.016 A 
ATOM     70  N   UNL A   1      46.510  29.231  27.209  1.00  0.00    -0.377 N 
ATOM     71  Br  UNL A   1      43.297  34.217  28.676  1.00  0.00    -0.051 Br
ATOM     72  C   UNL A   1      43.629  31.513  27.837  1.00  0.00     0.022 A 
ATOM     73  C   UNL A   1      43.707  29.068  27.122  1.00  0.00     0.049 C 
ATOM     74  C   UNL A   1      45.896  28.016  26.683  1.00  0.00     0.114 C 
ATOM     75  H   UNL A   1      47.489  29.261  27.300  1.00  0.00     0.161 HD
ATOM     76  C   UNL A   1      44.564  28.381  26.059  1.00  0.00     0.031 C 
ATOM     77  C   UNL A   1      42.390  28.992  26.439  1.00  0.00    -0.023 C 
ATOM     78  C   UNL A   1      43.684  27.252  25.546  1.00  0.00     0.034 C 
ATOM     79  C   UNL A   1      42.371  27.952  25.590  1.00  0.00    -0.030 C 
BRANCH  74  80
ATOM     80  C   UNL A   1      46.853  27.299  25.740  1.00  0.00    -0.019 A 
ATOM     81  C   UNL A   1      47.174  25.954  25.992  1.00  0.00     0.006 A 
ATOM     82  C   UNL A   1      47.371  27.897  24.577  1.00  0.00     0.091 A 
ATOM     83  C   UNL A   1      47.931  25.211  25.081  1.00  0.00     0.007 A 
ATOM     84  C   UNL A   1      48.082  27.135  23.640  1.00  0.00     0.269 A 
ATOM     85  C   UNL A   1      48.369  25.791  23.891  1.00  0.00     0.085 A 
BRANCH  84  86
ATOM     86  N   UNL A   1      48.470  27.743  22.361  1.00  0.00     0.062 N 
ATOM     87  O   UNL A   1      49.565  28.320  22.307  1.00  0.00    -0.258 OA
ATOM     88  O   UNL A   1      47.686  27.629  21.408  1.00  0.00    -0.258 OA
ENDBRANCH  84  86
ENDBRANCH  74  80
ENDBRANCH  63  65
ENDBRANCH  62  63
ENDBRANCH  61  62
ENDBRANCH  60  61
ENDBRANCH  59  60
ENDBRANCH  58  59
ENDBRANCH   1  58
TORSDOF 19
ENDMDL
