MODEL 1
REMARK VINA RESULT:      -9.7      0.000      0.000
REMARK SMILES CCCCCCNC(=O)Oc1cccc(-c2ccc([C@@H](C)C(=O)OCCOCCOCCOC(=O)c3ccc(-c4c5nc(c(-c6ccccc6)c6ccc([nH]6)c(-c6ccccc6)c6nc(c(-c7ccccc7)c7ccc4[nH]7)C=C6)C=C5)cc3)cc2Cl)c1
REMARK SMILES IDX 25 1 24 2 22 3 23 4 20 5 21 6 19 7 16 8 17 9 85 10 18 11
REMARK SMILES IDX 84 12 86 13 15 14 11 15 12 16 87 17 13 18 14 19 10 20 8 21
REMARK SMILES IDX 7 22 9 24 6 25 5 26 4 27 3 28 2 29 1 30 26 31 27 32 28 33
REMARK SMILES IDX 29 34 30 35 31 36 32 37 33 38 34 39 35 40 36 41 37 42 83 43
REMARK SMILES IDX 38 44 82 45 39 46 40 47 41 48 76 49 42 50 81 51 75 52 77 53
REMARK SMILES IDX 43 54 80 55 74 56 73 57 44 59 66 60 51 61 65 62 52 63 55 64
REMARK SMILES IDX 64 65 78 66 53 67 54 68 63 70 79 71 56 72 45 73 46 74 50 75
REMARK SMILES IDX 47 76 49 77 48 78 67 79 68 80 72 81 69 82 71 83 70 84 57 85
REMARK SMILES IDX 58 86 62 87 59 88 61 89 60 90
REMARK H PARENT 7 23 77 58 55 69
REMARK Flexibility Score: inf
ROOT
ATOM      1  C   UNL A   1      32.345  24.997  22.813  1.00  0.00     0.261 C 
ENDROOT
BRANCH   1   2
ATOM      2  O   UNL A   1      32.174  26.279  23.460  1.00  0.00    -0.463 OA
BRANCH   2   3
ATOM      3  C   UNL A   1      33.018  26.552  24.486  1.00  0.00     0.313 C 
ATOM      4  O   UNL A   1      34.226  26.321  24.447  1.00  0.00    -0.252 OA
BRANCH   3   5
ATOM      5  C   UNL A   1      32.391  27.186  25.730  1.00  0.00     0.126 C 
ATOM      6  C   UNL A   1      30.883  27.299  25.515  1.00  0.00     0.025 C 
BRANCH   5   7
ATOM      7  C   UNL A   1      32.940  28.477  26.335  1.00  0.00    -0.033 A 
ATOM      8  C   UNL A   1      34.074  30.824  27.555  1.00  0.00     0.000 A 
ATOM      9  C   UNL A   1      32.801  30.836  26.946  1.00  0.00     0.010 A 
ATOM     10  C   UNL A   1      34.764  29.599  27.551  1.00  0.00     0.049 A 
ATOM     11  C   UNL A   1      32.237  29.686  26.360  1.00  0.00     0.005 A 
ATOM     12  C   UNL A   1      34.206  28.454  26.953  1.00  0.00     0.025 A 
ATOM     13  Cl  UNL A   1      36.308  29.401  28.313  1.00  0.00    -0.084 Cl
BRANCH   8  14
ATOM     14  C   UNL A   1      34.591  32.051  28.206  1.00  0.00    -0.013 A 
ATOM     15  C   UNL A   1      34.338  33.979  29.671  1.00  0.00     0.133 A 
ATOM     16  C   UNL A   1      35.608  34.441  29.338  1.00  0.00     0.047 A 
ATOM     17  C   UNL A   1      33.825  32.798  29.121  1.00  0.00     0.056 A 
ATOM     18  C   UNL A   1      36.388  33.703  28.453  1.00  0.00     0.004 A 
ATOM     19  C   UNL A   1      35.882  32.524  27.892  1.00  0.00     0.009 A 
BRANCH  15  20
ATOM     20  O   UNL A   1      33.546  34.827  30.467  1.00  0.00    -0.410 OA
BRANCH  20  21
ATOM     21  C   UNL A   1      33.025  35.967  29.881  1.00  0.00     0.412 C 
ATOM     22  N   UNL A   1      33.336  37.118  30.553  1.00  0.00    -0.321 N 
ATOM     23  H   UNL A   1      33.054  37.961  30.129  1.00  0.00     0.167 HD
ATOM     24  O   UNL A   1      32.321  36.000  28.870  1.00  0.00    -0.224 OA
BRANCH  22  25
ATOM     25  C   UNL A   1      34.035  37.233  31.819  1.00  0.00     0.119 C 
BRANCH  25  26
ATOM     26  C   UNL A   1      33.254  36.623  32.984  1.00  0.00     0.021 C 
BRANCH  26  27
ATOM     27  C   UNL A   1      34.098  35.845  34.002  1.00  0.00     0.002 C 
BRANCH  27  28
ATOM     28  C   UNL A   1      34.470  34.411  33.606  1.00  0.00    -0.000 C 
BRANCH  28  29
ATOM     29  C   UNL A   1      35.855  33.939  34.052  1.00  0.00    -0.003 C 
ATOM     30  C   UNL A   1      36.125  34.164  35.532  1.00  0.00     0.004 C 
ENDBRANCH  28  29
ENDBRANCH  27  28
ENDBRANCH  26  27
ENDBRANCH  25  26
ENDBRANCH  22  25
ENDBRANCH  20  21
ENDBRANCH  15  20
ENDBRANCH   8  14
ENDBRANCH   5   7
ENDBRANCH   3   5
ENDBRANCH   2   3
ENDBRANCH   1   2
BRANCH   1  31
ATOM     31  C   UNL A   1      31.197  24.001  23.024  1.00  0.00     0.202 C 
BRANCH  31  32
ATOM     32  O   UNL A   1      31.526  22.719  23.540  1.00  0.00    -0.376 OA
BRANCH  32  33
ATOM     33  C   UNL A   1      32.869  22.439  23.920  1.00  0.00     0.188 C 
BRANCH  33  34
ATOM     34  C   UNL A   1      33.181  21.953  25.343  1.00  0.00     0.188 C 
BRANCH  34  35
ATOM     35  O   UNL A   1      34.239  21.019  25.425  1.00  0.00    -0.376 OA
BRANCH  35  36
ATOM     36  C   UNL A   1      35.494  21.546  25.819  1.00  0.00     0.202 C 
BRANCH  36  37
ATOM     37  C   UNL A   1      36.657  20.750  25.219  1.00  0.00     0.261 C 
BRANCH  37  38
ATOM     38  O   UNL A   1      37.875  21.501  25.048  1.00  0.00    -0.460 OA
BRANCH  38  39
ATOM     39  C   UNL A   1      38.911  21.164  25.844  1.00  0.00     0.338 C 
ATOM     40  O   UNL A   1      39.432  20.060  25.952  1.00  0.00    -0.246 OA
BRANCH  39  41
ATOM     41  C   UNL A   1      39.480  22.396  26.423  1.00  0.00     0.060 A 
ATOM     42  C   UNL A   1      38.921  23.631  26.068  1.00  0.00     0.016 A 
ATOM     43  C   UNL A   1      40.567  22.338  27.299  1.00  0.00     0.016 A 
ATOM     44  C   UNL A   1      39.474  24.816  26.554  1.00  0.00     0.010 A 
ATOM     45  C   UNL A   1      41.131  23.527  27.770  1.00  0.00     0.010 A 
ATOM     46  C   UNL A   1      40.611  24.772  27.371  1.00  0.00    -0.014 A 
BRANCH  46  47
ATOM     47  C   UNL A   1      41.377  26.013  27.646  1.00  0.00     0.031 A 
ATOM     48  C   UNL A   1      40.759  27.052  28.543  1.00  0.00     0.074 A 
ATOM     49  C   UNL A   1      42.598  26.219  27.124  1.00  0.00     0.049 A 
ATOM     50  N   UNL A   1      41.213  28.230  28.887  1.00  0.00    -0.248 NA
ATOM     51  C   UNL A   1      39.449  26.715  29.124  1.00  0.00     0.031 C 
ATOM     52  C   UNL A   1      43.330  25.281  26.276  1.00  0.00     0.029 A 
ATOM     53  N   UNL A   1      43.436  27.302  27.230  1.00  0.00    -0.354 N 
ATOM     54  C   UNL A   1      40.240  28.779  29.714  1.00  0.00     0.074 A 
ATOM     55  C   UNL A   1      39.160  27.819  29.796  1.00  0.00     0.031 C 
ATOM     56  C   UNL A   1      44.506  25.835  25.929  1.00  0.00     0.029 A 
ATOM     57  C   UNL A   1      44.594  27.177  26.503  1.00  0.00     0.049 A 
ATOM     58  H   UNL A   1      43.225  28.094  27.776  1.00  0.00     0.167 HD
ATOM     59  C   UNL A   1      40.245  29.972  30.354  1.00  0.00     0.031 A 
ATOM     60  C   UNL A   1      45.597  28.053  26.304  1.00  0.00     0.031 A 
ATOM     61  C   UNL A   1      41.308  30.937  30.264  1.00  0.00     0.049 A 
ATOM     62  C   UNL A   1      45.545  29.408  26.965  1.00  0.00     0.074 A 
ATOM     63  C   UNL A   1      41.410  32.168  30.889  1.00  0.00     0.029 A 
ATOM     64  N   UNL A   1      42.447  30.784  29.491  1.00  0.00    -0.354 N 
ATOM     65  N   UNL A   1      44.636  29.904  27.770  1.00  0.00    -0.248 NA
ATOM     66  C   UNL A   1      46.667  30.320  26.694  1.00  0.00     0.031 C 
ATOM     67  C   UNL A   1      42.584  32.786  30.447  1.00  0.00     0.029 A 
ATOM     68  C   UNL A   1      43.245  31.910  29.601  1.00  0.00     0.049 A 
ATOM     69  H   UNL A   1      42.659  29.992  28.946  1.00  0.00     0.167 HD
ATOM     70  C   UNL A   1      45.092  31.168  28.126  1.00  0.00     0.074 A 
ATOM     71  C   UNL A   1      46.364  31.358  27.462  1.00  0.00     0.031 C 
ATOM     72  C   UNL A   1      44.511  32.088  28.936  1.00  0.00     0.031 A 
BRANCH  59  73
ATOM     73  C   UNL A   1      39.035  30.315  31.179  1.00  0.00    -0.014 A 
ATOM     74  C   UNL A   1      38.890  29.848  32.496  1.00  0.00     0.009 A 
ATOM     75  C   UNL A   1      38.036  31.136  30.637  1.00  0.00     0.009 A 
ATOM     76  C   UNL A   1      37.751  30.166  33.238  1.00  0.00     0.001 A 
ATOM     77  C   UNL A   1      36.912  31.480  31.392  1.00  0.00     0.001 A 
ATOM     78  C   UNL A   1      36.766  30.986  32.687  1.00  0.00     0.000 A 
ENDBRANCH  59  73
BRANCH  60  79
ATOM     79  C   UNL A   1      46.741  27.693  25.422  1.00  0.00    -0.014 A 
ATOM     80  C   UNL A   1      46.717  28.001  24.053  1.00  0.00     0.009 A 
ATOM     81  C   UNL A   1      47.851  27.010  25.944  1.00  0.00     0.009 A 
ATOM     82  C   UNL A   1      47.768  27.608  23.220  1.00  0.00     0.001 A 
ATOM     83  C   UNL A   1      48.914  26.646  25.114  1.00  0.00     0.001 A 
ATOM     84  C   UNL A   1      48.867  26.936  23.753  1.00  0.00     0.000 A 
ENDBRANCH  60  79
BRANCH  72  85
ATOM     85  C   UNL A   1      45.264  33.367  29.187  1.00  0.00    -0.014 A 
ATOM     86  C   UNL A   1      45.254  34.420  28.261  1.00  0.00     0.009 A 
ATOM     87  C   UNL A   1      45.964  33.531  30.394  1.00  0.00     0.009 A 
ATOM     88  C   UNL A   1      45.960  35.597  28.522  1.00  0.00     0.001 A 
ATOM     89  C   UNL A   1      46.640  34.720  30.667  1.00  0.00     0.001 A 
ATOM     90  C   UNL A   1      46.647  35.748  29.727  1.00  0.00     0.000 A 
ENDBRANCH  72  85
ENDBRANCH  46  47
ENDBRANCH  39  41
ENDBRANCH  38  39
ENDBRANCH  37  38
ENDBRANCH  36  37
ENDBRANCH  35  36
ENDBRANCH  34  35
ENDBRANCH  33  34
ENDBRANCH  32  33
ENDBRANCH  31  32
ENDBRANCH   1  31
TORSDOF 26
ENDMDL
MODEL 2
REMARK VINA RESULT:      -9.4      1.308      5.805
REMARK SMILES CCCCCCNC(=O)Oc1cccc(-c2ccc([C@@H](C)C(=O)OCCOCCOCCOC(=O)c3ccc(-c4c5nc(c(-c6ccccc6)c6ccc([nH]6)c(-c6ccccc6)c6nc(c(-c7ccccc7)c7ccc4[nH]7)C=C6)C=C5)cc3)cc2Cl)c1
REMARK SMILES IDX 25 1 24 2 22 3 23 4 20 5 21 6 19 7 16 8 17 9 85 10 18 11
REMARK SMILES IDX 84 12 86 13 15 14 11 15 12 16 87 17 13 18 14 19 10 20 8 21
REMARK SMILES IDX 7 22 9 24 6 25 5 26 4 27 3 28 2 29 1 30 26 31 27 32 28 33
REMARK SMILES IDX 29 34 30 35 31 36 32 37 33 38 34 39 35 40 36 41 37 42 83 43
REMARK SMILES IDX 38 44 82 45 39 46 40 47 41 48 76 49 42 50 81 51 75 52 77 53
REMARK SMILES IDX 43 54 80 55 74 56 73 57 44 59 66 60 51 61 65 62 52 63 55 64
REMARK SMILES IDX 64 65 78 66 53 67 54 68 63 70 79 71 56 72 45 73 46 74 50 75
REMARK SMILES IDX 47 76 49 77 48 78 67 79 68 80 72 81 69 82 71 83 70 84 57 85
REMARK SMILES IDX 58 86 62 87 59 88 61 89 60 90
REMARK H PARENT 7 23 77 58 55 69
REMARK Flexibility Score: inf
ROOT
ATOM      1  C   UNL A   1      31.511  22.994  24.721  1.00  0.00     0.261 C 
ENDROOT
BRANCH   1   2
ATOM      2  O   UNL A   1      32.503  23.015  23.669  1.00  0.00    -0.463 OA
BRANCH   2   3
ATOM      3  C   UNL A   1      32.734  24.218  23.086  1.00  0.00     0.313 C 
ATOM      4  O   UNL A   1      33.548  24.383  22.179  1.00  0.00    -0.252 OA
BRANCH   3   5
ATOM      5  C   UNL A   1      31.910  25.396  23.610  1.00  0.00     0.126 C 
ATOM      6  C   UNL A   1      31.189  26.052  22.434  1.00  0.00     0.025 C 
BRANCH   5   7
ATOM      7  C   UNL A   1      32.521  26.460  24.519  1.00  0.00    -0.033 A 
ATOM      8  C   UNL A   1      33.534  28.485  26.296  1.00  0.00     0.000 A 
ATOM      9  C   UNL A   1      34.220  28.105  25.123  1.00  0.00     0.010 A 
ATOM     10  C   UNL A   1      32.316  27.834  26.553  1.00  0.00     0.049 A 
ATOM     11  C   UNL A   1      33.721  27.124  24.244  1.00  0.00     0.005 A 
ATOM     12  C   UNL A   1      31.823  26.844  25.682  1.00  0.00     0.025 A 
ATOM     13  Cl  UNL A   1      31.320  28.231  27.916  1.00  0.00    -0.084 Cl
BRANCH   8  14
ATOM     14  C   UNL A   1      34.081  29.565  27.153  1.00  0.00    -0.013 A 
ATOM     15  C   UNL A   1      34.067  31.841  28.017  1.00  0.00     0.133 A 
ATOM     16  C   UNL A   1      35.236  31.610  28.736  1.00  0.00     0.047 A 
ATOM     17  C   UNL A   1      33.485  30.838  27.233  1.00  0.00     0.056 A 
ATOM     18  C   UNL A   1      35.825  30.351  28.688  1.00  0.00     0.004 A 
ATOM     19  C   UNL A   1      35.255  29.343  27.901  1.00  0.00     0.009 A 
BRANCH  15  20
ATOM     20  O   UNL A   1      33.586  33.163  28.000  1.00  0.00    -0.410 OA
BRANCH  20  21
ATOM     21  C   UNL A   1      34.507  34.187  27.869  1.00  0.00     0.412 C 
ATOM     22  N   UNL A   1      34.091  35.370  28.417  1.00  0.00    -0.321 N 
ATOM     23  H   UNL A   1      34.745  36.106  28.417  1.00  0.00     0.167 HD
ATOM     24  O   UNL A   1      35.597  34.106  27.301  1.00  0.00    -0.224 OA
BRANCH  22  25
ATOM     25  C   UNL A   1      32.792  35.660  28.996  1.00  0.00     0.119 C 
BRANCH  25  26
ATOM     26  C   UNL A   1      32.883  36.114  30.454  1.00  0.00     0.021 C 
BRANCH  26  27
ATOM     27  C   UNL A   1      33.801  35.269  31.347  1.00  0.00     0.002 C 
BRANCH  27  28
ATOM     28  C   UNL A   1      34.151  35.876  32.711  1.00  0.00    -0.000 C 
BRANCH  28  29
ATOM     29  C   UNL A   1      35.409  35.318  33.381  1.00  0.00    -0.003 C 
ATOM     30  C   UNL A   1      35.136  34.642  34.715  1.00  0.00     0.004 C 
ENDBRANCH  28  29
ENDBRANCH  27  28
ENDBRANCH  26  27
ENDBRANCH  25  26
ENDBRANCH  22  25
ENDBRANCH  20  21
ENDBRANCH  15  20
ENDBRANCH   8  14
ENDBRANCH   5   7
ENDBRANCH   3   5
ENDBRANCH   2   3
ENDBRANCH   1   2
BRANCH   1  31
ATOM     31  C   UNL A   1      32.071  22.849  26.143  1.00  0.00     0.202 C 
BRANCH  31  32
ATOM     32  O   UNL A   1      33.435  23.188  26.350  1.00  0.00    -0.376 OA
BRANCH  32  33
ATOM     33  C   UNL A   1      34.320  22.224  26.910  1.00  0.00     0.188 C 
BRANCH  33  34
ATOM     34  C   UNL A   1      35.120  21.288  25.991  1.00  0.00     0.188 C 
BRANCH  34  35
ATOM     35  O   UNL A   1      35.446  21.841  24.732  1.00  0.00    -0.376 OA
BRANCH  35  36
ATOM     36  C   UNL A   1      36.727  21.506  24.227  1.00  0.00     0.202 C 
BRANCH  36  37
ATOM     37  C   UNL A   1      37.635  20.933  25.319  1.00  0.00     0.261 C 
BRANCH  37  38
ATOM     38  O   UNL A   1      38.984  21.442  25.309  1.00  0.00    -0.460 OA
BRANCH  38  39
ATOM     39  C   UNL A   1      39.691  21.307  26.450  1.00  0.00     0.338 C 
ATOM     40  O   UNL A   1      40.149  20.271  26.918  1.00  0.00    -0.246 OA
BRANCH  39  41
ATOM     41  C   UNL A   1      40.025  22.651  26.958  1.00  0.00     0.060 A 
ATOM     42  C   UNL A   1      39.313  23.755  26.470  1.00  0.00     0.016 A 
ATOM     43  C   UNL A   1      41.045  22.826  27.897  1.00  0.00     0.016 A 
ATOM     44  C   UNL A   1      39.645  25.044  26.888  1.00  0.00     0.010 A 
ATOM     45  C   UNL A   1      41.389  24.120  28.301  1.00  0.00     0.010 A 
ATOM     46  C   UNL A   1      40.716  25.236  27.771  1.00  0.00    -0.014 A 
BRANCH  46  47
ATOM     47  C   UNL A   1      41.264  26.598  27.988  1.00  0.00     0.031 A 
ATOM     48  C   UNL A   1      42.615  26.926  27.410  1.00  0.00     0.074 A 
ATOM     49  C   UNL A   1      40.583  27.533  28.673  1.00  0.00     0.049 A 
ATOM     50  N   UNL A   1      43.317  28.026  27.508  1.00  0.00    -0.248 NA
ATOM     51  C   UNL A   1      43.260  25.866  26.618  1.00  0.00     0.031 C 
ATOM     52  C   UNL A   1      39.252  27.363  29.249  1.00  0.00     0.029 A 
ATOM     53  N   UNL A   1      40.934  28.818  29.006  1.00  0.00    -0.354 N 
ATOM     54  C   UNL A   1      44.490  27.786  26.803  1.00  0.00     0.074 A 
ATOM     55  C   UNL A   1      44.418  26.428  26.307  1.00  0.00     0.031 C 
ATOM     56  C   UNL A   1      38.901  28.501  29.875  1.00  0.00     0.029 A 
ATOM     57  C   UNL A   1      39.996  29.465  29.772  1.00  0.00     0.049 A 
ATOM     58  H   UNL A   1      41.780  29.236  28.722  1.00  0.00     0.167 HD
ATOM     59  C   UNL A   1      45.533  28.620  26.580  1.00  0.00     0.031 A 
ATOM     60  C   UNL A   1      40.027  30.685  30.343  1.00  0.00     0.031 A 
ATOM     61  C   UNL A   1      45.618  29.965  27.084  1.00  0.00     0.049 A 
ATOM     62  C   UNL A   1      41.233  31.568  30.147  1.00  0.00     0.074 A 
ATOM     63  C   UNL A   1      46.628  30.892  26.898  1.00  0.00     0.029 A 
ATOM     64  N   UNL A   1      44.661  30.569  27.882  1.00  0.00    -0.354 N 
ATOM     65  N   UNL A   1      42.323  31.343  29.452  1.00  0.00    -0.248 NA
ATOM     66  C   UNL A   1      41.206  32.881  30.810  1.00  0.00     0.031 C 
ATOM     67  C   UNL A   1      46.310  32.038  27.634  1.00  0.00     0.029 A 
ATOM     68  C   UNL A   1      45.069  31.848  28.221  1.00  0.00     0.049 A 
ATOM     69  H   UNL A   1      43.815  30.151  28.166  1.00  0.00     0.167 HD
ATOM     70  C   UNL A   1      43.092  32.495  29.566  1.00  0.00     0.074 A 
ATOM     71  C   UNL A   1      42.340  33.422  30.385  1.00  0.00     0.031 C 
ATOM     72  C   UNL A   1      44.312  32.763  29.036  1.00  0.00     0.031 A 
BRANCH  59  73
ATOM     73  C   UNL A   1      46.689  28.079  25.786  1.00  0.00    -0.014 A 
ATOM     74  C   UNL A   1      47.834  27.563  26.416  1.00  0.00     0.009 A 
ATOM     75  C   UNL A   1      46.622  28.066  24.385  1.00  0.00     0.009 A 
ATOM     76  C   UNL A   1      48.902  27.081  25.657  1.00  0.00     0.001 A 
ATOM     77  C   UNL A   1      47.678  27.553  23.628  1.00  0.00     0.001 A 
ATOM     78  C   UNL A   1      48.821  27.071  24.264  1.00  0.00     0.000 A 
ENDBRANCH  59  73
BRANCH  60  79
ATOM     79  C   UNL A   1      38.886  31.148  31.179  1.00  0.00    -0.014 A 
ATOM     80  C   UNL A   1      38.216  32.344  30.880  1.00  0.00     0.009 A 
ATOM     81  C   UNL A   1      38.483  30.407  32.301  1.00  0.00     0.009 A 
ATOM     82  C   UNL A   1      37.183  32.802  31.702  1.00  0.00     0.001 A 
ATOM     83  C   UNL A   1      37.430  30.852  33.104  1.00  0.00     0.001 A 
ATOM     84  C   UNL A   1      36.788  32.053  32.810  1.00  0.00     0.000 A 
ENDBRANCH  60  79
BRANCH  72  85
ATOM     85  C   UNL A   1      44.892  34.129  29.286  1.00  0.00    -0.014 A 
ATOM     86  C   UNL A   1      44.624  35.210  28.433  1.00  0.00     0.009 A 
ATOM     87  C   UNL A   1      45.690  34.343  30.422  1.00  0.00     0.009 A 
ATOM     88  C   UNL A   1      45.173  36.468  28.692  1.00  0.00     0.001 A 
ATOM     89  C   UNL A   1      46.210  35.609  30.697  1.00  0.00     0.001 A 
ATOM     90  C   UNL A   1      45.961  36.667  29.826  1.00  0.00     0.000 A 
ENDBRANCH  72  85
ENDBRANCH  46  47
ENDBRANCH  39  41
ENDBRANCH  38  39
ENDBRANCH  37  38
ENDBRANCH  36  37
ENDBRANCH  35  36
ENDBRANCH  34  35
ENDBRANCH  33  34
ENDBRANCH  32  33
ENDBRANCH  31  32
ENDBRANCH   1  31
TORSDOF 26
ENDMDL
MODEL 3
REMARK VINA RESULT:      -9.3      2.371      9.619
REMARK SMILES CCCCCCNC(=O)Oc1cccc(-c2ccc([C@@H](C)C(=O)OCCOCCOCCOC(=O)c3ccc(-c4c5nc(c(-c6ccccc6)c6ccc([nH]6)c(-c6ccccc6)c6nc(c(-c7ccccc7)c7ccc4[nH]7)C=C6)C=C5)cc3)cc2Cl)c1
REMARK SMILES IDX 25 1 24 2 22 3 23 4 20 5 21 6 19 7 16 8 17 9 85 10 18 11
REMARK SMILES IDX 84 12 86 13 15 14 11 15 12 16 87 17 13 18 14 19 10 20 8 21
REMARK SMILES IDX 7 22 9 24 6 25 5 26 4 27 3 28 2 29 1 30 26 31 27 32 28 33
REMARK SMILES IDX 29 34 30 35 31 36 32 37 33 38 34 39 35 40 36 41 37 42 83 43
REMARK SMILES IDX 38 44 82 45 39 46 40 47 41 48 76 49 42 50 81 51 75 52 77 53
REMARK SMILES IDX 43 54 80 55 74 56 73 57 44 59 66 60 51 61 65 62 52 63 55 64
REMARK SMILES IDX 64 65 78 66 53 67 54 68 63 70 79 71 56 72 45 73 46 74 50 75
REMARK SMILES IDX 47 76 49 77 48 78 67 79 68 80 72 81 69 82 71 83 70 84 57 85
REMARK SMILES IDX 58 86 62 87 59 88 61 89 60 90
REMARK H PARENT 7 23 77 58 55 69
REMARK Flexibility Score: inf
ROOT
ATOM      1  C   UNL A   1      34.765  33.912  27.872  1.00  0.00     0.261 C 
ENDROOT
BRANCH   1   2
ATOM      2  O   UNL A   1      34.998  32.568  27.395  1.00  0.00    -0.463 OA
BRANCH   2   3
ATOM      3  C   UNL A   1      34.028  31.658  27.663  1.00  0.00     0.313 C 
ATOM      4  O   UNL A   1      33.951  31.045  28.727  1.00  0.00    -0.252 OA
BRANCH   3   5
ATOM      5  C   UNL A   1      32.996  31.423  26.558  1.00  0.00     0.126 C 
ATOM      6  C   UNL A   1      31.659  32.016  27.001  1.00  0.00     0.025 C 
BRANCH   5   7
ATOM      7  C   UNL A   1      32.785  30.043  25.938  1.00  0.00    -0.033 A 
ATOM      8  C   UNL A   1      32.241  27.481  24.746  1.00  0.00     0.000 A 
ATOM      9  C   UNL A   1      33.369  27.703  25.564  1.00  0.00     0.010 A 
ATOM     10  C   UNL A   1      31.380  28.573  24.548  1.00  0.00     0.049 A 
ATOM     11  C   UNL A   1      33.631  28.952  26.160  1.00  0.00     0.005 A 
ATOM     12  C   UNL A   1      31.649  29.825  25.133  1.00  0.00     0.025 A 
ATOM     13  Cl  UNL A   1      29.919  28.449  23.624  1.00  0.00    -0.084 Cl
BRANCH   8  14
ATOM     14  C   UNL A   1      31.987  26.129  24.192  1.00  0.00    -0.013 A 
ATOM     15  C   UNL A   1      31.167  23.844  24.385  1.00  0.00     0.133 A 
ATOM     16  C   UNL A   1      31.621  23.539  23.105  1.00  0.00     0.047 A 
ATOM     17  C   UNL A   1      31.339  25.121  24.932  1.00  0.00     0.056 A 
ATOM     18  C   UNL A   1      32.242  24.529  22.350  1.00  0.00     0.004 A 
ATOM     19  C   UNL A   1      32.425  25.807  22.891  1.00  0.00     0.009 A 
BRANCH  15  20
ATOM     20  O   UNL A   1      30.664  22.775  25.149  1.00  0.00    -0.410 OA
BRANCH  20  21
ATOM     21  C   UNL A   1      31.079  22.668  26.465  1.00  0.00     0.412 C 
ATOM     22  N   UNL A   1      32.118  21.793  26.640  1.00  0.00    -0.321 N 
ATOM     23  H   UNL A   1      32.499  21.743  27.547  1.00  0.00     0.167 HD
ATOM     24  O   UNL A   1      30.582  23.254  27.427  1.00  0.00    -0.224 OA
BRANCH  22  25
ATOM     25  C   UNL A   1      32.719  20.933  25.638  1.00  0.00     0.119 C 
BRANCH  25  26
ATOM     26  C   UNL A   1      34.192  21.260  25.385  1.00  0.00     0.021 C 
BRANCH  26  27
ATOM     27  C   UNL A   1      34.456  22.610  24.705  1.00  0.00     0.002 C 
BRANCH  27  28
ATOM     28  C   UNL A   1      35.646  22.651  23.740  1.00  0.00    -0.000 C 
BRANCH  28  29
ATOM     29  C   UNL A   1      36.878  23.411  24.238  1.00  0.00    -0.003 C 
ATOM     30  C   UNL A   1      36.796  23.804  25.705  1.00  0.00     0.004 C 
ENDBRANCH  28  29
ENDBRANCH  27  28
ENDBRANCH  26  27
ENDBRANCH  25  26
ENDBRANCH  22  25
ENDBRANCH  20  21
ENDBRANCH  15  20
ENDBRANCH   8  14
ENDBRANCH   5   7
ENDBRANCH   3   5
ENDBRANCH   2   3
ENDBRANCH   1   2
BRANCH   1  31
ATOM     31  C   UNL A   1      33.865  34.017  29.112  1.00  0.00     0.202 C 
BRANCH  31  32
ATOM     32  O   UNL A   1      34.041  35.145  29.958  1.00  0.00    -0.376 OA
BRANCH  32  33
ATOM     33  C   UNL A   1      32.905  35.893  30.375  1.00  0.00     0.188 C 
BRANCH  33  34
ATOM     34  C   UNL A   1      32.750  36.298  31.848  1.00  0.00     0.188 C 
BRANCH  34  35
ATOM     35  O   UNL A   1      33.338  35.401  32.769  1.00  0.00    -0.376 OA
BRANCH  35  36
ATOM     36  C   UNL A   1      34.604  35.785  33.277  1.00  0.00     0.202 C 
BRANCH  36  37
ATOM     37  C   UNL A   1      35.492  34.571  33.565  1.00  0.00     0.261 C 
BRANCH  37  38
ATOM     38  O   UNL A   1      36.028  33.926  32.393  1.00  0.00    -0.460 OA
BRANCH  38  39
ATOM     39  C   UNL A   1      35.560  32.693  32.111  1.00  0.00     0.338 C 
ATOM     40  O   UNL A   1      34.394  32.316  32.155  1.00  0.00    -0.246 OA
BRANCH  39  41
ATOM     41  C   UNL A   1      36.654  31.896  31.524  1.00  0.00     0.060 A 
ATOM     42  C   UNL A   1      37.524  31.206  32.380  1.00  0.00     0.016 A 
ATOM     43  C   UNL A   1      36.835  31.841  30.140  1.00  0.00     0.016 A 
ATOM     44  C   UNL A   1      38.602  30.492  31.857  1.00  0.00     0.010 A 
ATOM     45  C   UNL A   1      37.926  31.141  29.618  1.00  0.00     0.010 A 
ATOM     46  C   UNL A   1      38.835  30.494  30.476  1.00  0.00    -0.014 A 
BRANCH  46  47
ATOM     47  C   UNL A   1      40.127  29.997  29.940  1.00  0.00     0.031 A 
ATOM     48  C   UNL A   1      41.279  30.960  29.841  1.00  0.00     0.074 A 
ATOM     49  C   UNL A   1      40.287  28.719  29.555  1.00  0.00     0.049 A 
ATOM     50  N   UNL A   1      42.483  30.772  29.363  1.00  0.00    -0.248 NA
ATOM     51  C   UNL A   1      41.036  32.322  30.347  1.00  0.00     0.031 C 
ATOM     52  C   UNL A   1      39.270  27.673  29.635  1.00  0.00     0.029 A 
ATOM     53  N   UNL A   1      41.377  28.088  29.007  1.00  0.00    -0.354 N 
ATOM     54  C   UNL A   1      43.134  31.991  29.500  1.00  0.00     0.074 A 
ATOM     55  C   UNL A   1      42.186  32.919  30.076  1.00  0.00     0.031 C 
ATOM     56  C   UNL A   1      39.782  26.531  29.144  1.00  0.00     0.029 A 
ATOM     57  C   UNL A   1      41.149  26.774  28.685  1.00  0.00     0.049 A 
ATOM     58  H   UNL A   1      42.241  28.538  28.861  1.00  0.00     0.167 HD
ATOM     59  C   UNL A   1      44.411  32.312  29.179  1.00  0.00     0.031 A 
ATOM     60  C   UNL A   1      41.944  25.877  28.069  1.00  0.00     0.031 A 
ATOM     61  C   UNL A   1      45.354  31.399  28.591  1.00  0.00     0.049 A 
ATOM     62  C   UNL A   1      43.335  26.279  27.650  1.00  0.00     0.074 A 
ATOM     63  C   UNL A   1      46.674  31.628  28.246  1.00  0.00     0.029 A 
ATOM     64  N   UNL A   1      45.072  30.086  28.251  1.00  0.00    -0.354 N 
ATOM     65  N   UNL A   1      43.952  27.425  27.812  1.00  0.00    -0.248 NA
ATOM     66  C   UNL A   1      44.144  25.254  26.971  1.00  0.00     0.031 C 
ATOM     67  C   UNL A   1      47.174  30.470  27.641  1.00  0.00     0.029 A 
ATOM     68  C   UNL A   1      46.185  29.500  27.673  1.00  0.00     0.049 A 
ATOM     69  H   UNL A   1      44.208  29.636  28.399  1.00  0.00     0.167 HD
ATOM     70  C   UNL A   1      45.227  27.249  27.286  1.00  0.00     0.074 A 
ATOM     71  C   UNL A   1      45.301  25.882  26.813  1.00  0.00     0.031 C 
ATOM     72  C   UNL A   1      46.248  28.139  27.207  1.00  0.00     0.031 A 
BRANCH  59  73
ATOM     73  C   UNL A   1      44.846  33.731  29.424  1.00  0.00    -0.014 A 
ATOM     74  C   UNL A   1      45.305  34.150  30.684  1.00  0.00     0.009 A 
ATOM     75  C   UNL A   1      44.816  34.657  28.371  1.00  0.00     0.009 A 
ATOM     76  C   UNL A   1      45.688  35.476  30.892  1.00  0.00     0.001 A 
ATOM     77  C   UNL A   1      45.230  35.975  28.572  1.00  0.00     0.001 A 
ATOM     78  C   UNL A   1      45.656  36.386  29.835  1.00  0.00     0.000 A 
ENDBRANCH  59  73
BRANCH  60  79
ATOM     79  C   UNL A   1      41.443  24.504  27.786  1.00  0.00    -0.014 A 
ATOM     80  C   UNL A   1      40.544  24.270  26.734  1.00  0.00     0.009 A 
ATOM     81  C   UNL A   1      41.840  23.425  28.591  1.00  0.00     0.009 A 
ATOM     82  C   UNL A   1      40.034  22.988  26.511  1.00  0.00     0.001 A 
ATOM     83  C   UNL A   1      41.351  22.139  28.346  1.00  0.00     0.001 A 
ATOM     84  C   UNL A   1      40.442  21.924  27.314  1.00  0.00     0.000 A 
ENDBRANCH  60  79
BRANCH  72  85
ATOM     85  C   UNL A   1      47.549  27.652  26.627  1.00  0.00    -0.014 A 
ATOM     86  C   UNL A   1      47.786  27.657  25.245  1.00  0.00     0.009 A 
ATOM     87  C   UNL A   1      48.570  27.219  27.489  1.00  0.00     0.009 A 
ATOM     88  C   UNL A   1      49.005  27.204  24.735  1.00  0.00     0.001 A 
ATOM     89  C   UNL A   1      49.799  26.798  26.979  1.00  0.00     0.001 A 
ATOM     90  C   UNL A   1      50.012  26.780  25.603  1.00  0.00     0.000 A 
ENDBRANCH  72  85
ENDBRANCH  46  47
ENDBRANCH  39  41
ENDBRANCH  38  39
ENDBRANCH  37  38
ENDBRANCH  36  37
ENDBRANCH  35  36
ENDBRANCH  34  35
ENDBRANCH  33  34
ENDBRANCH  32  33
ENDBRANCH  31  32
ENDBRANCH   1  31
TORSDOF 26
ENDMDL
