MODEL 1
REMARK VINA RESULT:     -11.9      0.000      0.000
REMARK SMILES Cc1ccc(C2=NN(C(=O)CCC(=O)OCCOCCOCCOC(=O)c3ccc(-c4c5nc(c(-c6ccccc6)c6ccc([nH]6)c(-c6ccccc6)c6nc(c(-c7ccccc7)c7ccc4[nH]7)C=C6)C=C5)cc3)[C@H](C[C@@H]3C=c4cccc(C)c4=NC3=O)C2)cc1
REMARK SMILES IDX 18 1 17 2 16 3 15 4 13 5 14 6 12 7 11 8 9 9 10 10 8 11 6 12
REMARK SMILES IDX 7 13 89 14 75 15 5 16 1 17 2 18 3 19 91 20 4 21 90 22 76 23
REMARK SMILES IDX 77 24 78 25 87 26 79 27 86 28 88 29 80 30 85 31 81 32 83 33
REMARK SMILES IDX 82 34 84 35 19 36 20 37 21 38 22 39 23 40 24 41 25 42 26 43
REMARK SMILES IDX 27 44 28 45 74 46 29 47 73 48 30 49 31 50 32 51 67 52 33 53
REMARK SMILES IDX 72 54 66 55 68 56 34 57 71 58 65 59 64 60 35 62 57 63 42 64
REMARK SMILES IDX 56 65 43 66 46 67 55 68 69 69 44 70 45 71 54 73 70 74 47 75
REMARK SMILES IDX 36 76 37 77 41 78 38 79 40 80 39 81 58 82 59 83 63 84 60 85
REMARK SMILES IDX 62 86 61 87 48 88 49 89 53 90 50 91 52 92 51 93
REMARK H PARENT 68 61 46 72
REMARK Flexibility Score: inf
ROOT
ATOM      1  O   UNL A   1      37.220  22.341  24.637  1.00  0.00    -0.376 OA
ENDROOT
BRANCH   1   2
ATOM      2  C   UNL A   1      36.686  21.002  24.715  1.00  0.00     0.202 C 
BRANCH   2   3
ATOM      3  C   UNL A   1      35.039  20.725  24.962  1.00  0.00     0.261 C 
BRANCH   3   4
ATOM      4  O   UNL A   1      33.824  21.701  24.722  1.00  0.00    -0.463 OA
BRANCH   4   5
ATOM      5  C   UNL A   1      33.764  22.753  25.569  1.00  0.00     0.306 C 
ATOM      6  O   UNL A   1      33.503  22.351  26.703  1.00  0.00    -0.252 OA
BRANCH   5   7
ATOM      7  C   UNL A   1      34.211  24.553  25.235  1.00  0.00     0.132 C 
BRANCH   7   8
ATOM      8  C   UNL A   1      33.617  25.550  24.294  1.00  0.00     0.114 C 
BRANCH   8   9
ATOM      9  C   UNL A   1      32.300  26.178  24.564  1.00  0.00     0.243 C 
ATOM     10  O   UNL A   1      31.331  25.464  24.259  1.00  0.00    -0.273 OA
BRANCH   9  11
ATOM     11  N   UNL A   1      32.133  27.494  24.964  1.00  0.00    -0.230 N 
ATOM     12  C   UNL A   1      31.082  29.258  24.322  1.00  0.00     0.070 C 
ATOM     13  N   UNL A   1      31.248  28.016  24.064  1.00  0.00    -0.174 NA
ATOM     14  C   UNL A   1      31.699  29.790  25.584  1.00  0.00     0.086 C 
ATOM     15  C   UNL A   1      32.812  28.741  25.721  1.00  0.00     0.118 C 
BRANCH  12  16
ATOM     16  C   UNL A   1      30.216  30.026  23.465  1.00  0.00    -0.002 A 
ATOM     17  C   UNL A   1      27.776  32.619  21.183  1.00  0.00     0.044 C 
ATOM     18  C   UNL A   1      28.561  31.634  21.990  1.00  0.00    -0.051 A 
ATOM     19  C   UNL A   1      28.798  31.928  23.339  1.00  0.00     0.004 A 
ATOM     20  C   UNL A   1      29.075  30.458  21.416  1.00  0.00     0.004 A 
ATOM     21  C   UNL A   1      29.616  31.111  24.087  1.00  0.00     0.010 A 
ATOM     22  C   UNL A   1      29.905  29.630  22.166  1.00  0.00     0.010 A 
ENDBRANCH  12  16
BRANCH  15  23
ATOM     23  C   UNL A   1      33.995  28.877  27.029  1.00  0.00     0.045 C 
BRANCH  23  24
ATOM     24  C   UNL A   1      35.503  29.931  27.484  1.00  0.00     0.106 C 
ATOM     25  C   UNL A   1      37.206  29.179  28.649  1.00  0.00    -0.003 C 
ATOM     26  C   UNL A   1      34.928  31.660  28.391  1.00  0.00     0.253 C 
ATOM     27  C   UNL A   1      37.536  29.690  29.997  1.00  0.00    -0.003 A 
ATOM     28  N   UNL A   1      35.634  31.958  29.974  1.00  0.00    -0.212 NA
ATOM     29  O   UNL A   1      34.300  32.544  27.820  1.00  0.00    -0.272 OA
ATOM     30  C   UNL A   1      38.045  28.691  30.915  1.00  0.00     0.010 A 
ATOM     31  C   UNL A   1      36.595  31.122  30.669  1.00  0.00     0.077 A 
ATOM     32  C   UNL A   1      37.769  28.771  32.215  1.00  0.00     0.001 A 
ATOM     33  C   UNL A   1      36.657  31.023  32.198  1.00  0.00    -0.025 A 
ATOM     34  C   UNL A   1      37.154  29.927  32.817  1.00  0.00     0.005 A 
ATOM     35  C   UNL A   1      35.954  32.055  33.017  1.00  0.00     0.047 C 
ENDBRANCH  23  24
ENDBRANCH  15  23
ENDBRANCH   9  11
ENDBRANCH   8   9
ENDBRANCH   7   8
ENDBRANCH   5   7
ENDBRANCH   4   5
ENDBRANCH   3   4
ENDBRANCH   2   3
ENDBRANCH   1   2
BRANCH   1  36
ATOM     36  C   UNL A   1      37.802  23.098  25.750  1.00  0.00     0.188 C 
BRANCH  36  37
ATOM     37  C   UNL A   1      39.190  22.894  26.490  1.00  0.00     0.188 C 
BRANCH  37  38
ATOM     38  O   UNL A   1      39.514  21.533  26.833  1.00  0.00    -0.376 OA
BRANCH  38  39
ATOM     39  C   UNL A   1      40.799  20.987  26.485  1.00  0.00     0.202 C 
BRANCH  39  40
ATOM     40  C   UNL A   1      41.863  21.214  27.653  1.00  0.00     0.261 C 
BRANCH  40  41
ATOM     41  O   UNL A   1      41.967  22.625  28.068  1.00  0.00    -0.460 OA
BRANCH  41  42
ATOM     42  C   UNL A   1      43.159  23.219  28.401  1.00  0.00     0.338 C 
ATOM     43  O   UNL A   1      43.796  22.870  29.373  1.00  0.00    -0.246 OA
BRANCH  42  44
ATOM     44  C   UNL A   1      43.402  24.511  27.280  1.00  0.00     0.060 A 
ATOM     45  C   UNL A   1      44.621  24.817  25.690  1.00  0.00     0.016 A 
ATOM     46  C   UNL A   1      42.991  25.836  28.157  1.00  0.00     0.016 A 
ATOM     47  C   UNL A   1      45.395  26.437  25.405  1.00  0.00     0.010 A 
ATOM     48  C   UNL A   1      43.951  27.265  27.738  1.00  0.00     0.010 A 
ATOM     49  C   UNL A   1      45.137  27.737  26.482  1.00  0.00    -0.014 A 
BRANCH  49  50
ATOM     50  C   UNL A   1      46.087  29.323  26.611  1.00  0.00     0.031 A 
ATOM     51  C   UNL A   1      45.695  31.124  26.421  1.00  0.00     0.074 A 
ATOM     52  C   UNL A   1      47.084  29.299  27.561  1.00  0.00     0.049 A 
ATOM     53  N   UNL A   1      46.514  32.169  26.232  1.00  0.00    -0.248 NA
ATOM     54  C   UNL A   1      44.374  31.927  26.534  1.00  0.00     0.031 C 
ATOM     55  C   UNL A   1      47.357  30.425  28.486  1.00  0.00     0.029 A 
ATOM     56  N   UNL A   1      47.842  28.273  28.141  1.00  0.00    -0.354 N 
ATOM     57  C   UNL A   1      45.641  33.344  26.282  1.00  0.00     0.074 A 
ATOM     58  C   UNL A   1      44.469  32.910  25.649  1.00  0.00     0.031 C 
ATOM     59  C   UNL A   1      48.282  30.085  29.395  1.00  0.00     0.029 A 
ATOM     60  C   UNL A   1      48.893  28.892  28.884  1.00  0.00     0.049 A 
ATOM     61  H   UNL A   1      47.680  27.305  28.052  1.00  0.00     0.167 HD
ATOM     62  C   UNL A   1      45.503  34.264  27.335  1.00  0.00     0.031 A 
ATOM     63  C   UNL A   1      50.197  28.864  28.466  1.00  0.00     0.031 A 
ATOM     64  C   UNL A   1      46.628  34.174  28.210  1.00  0.00     0.049 A 
ATOM     65  C   UNL A   1      50.759  30.243  28.100  1.00  0.00     0.074 A 
ATOM     66  C   UNL A   1      46.915  34.028  29.552  1.00  0.00     0.029 A 
ATOM     67  N   UNL A   1      47.802  34.011  27.541  1.00  0.00    -0.354 N 
ATOM     68  N   UNL A   1      50.016  31.322  28.110  1.00  0.00    -0.248 NA
ATOM     69  C   UNL A   1      52.132  30.588  27.727  1.00  0.00     0.031 C 
ATOM     70  C   UNL A   1      48.324  33.735  29.638  1.00  0.00     0.029 A 
ATOM     71  C   UNL A   1      48.852  33.779  28.358  1.00  0.00     0.049 A 
ATOM     72  H   UNL A   1      47.878  34.059  26.561  1.00  0.00     0.167 HD
ATOM     73  C   UNL A   1      50.715  32.427  27.733  1.00  0.00     0.074 A 
ATOM     74  C   UNL A   1      52.039  31.915  27.479  1.00  0.00     0.031 C 
ATOM     75  C   UNL A   1      50.108  33.646  27.642  1.00  0.00     0.031 A 
BRANCH  62  76
ATOM     76  C   UNL A   1      44.257  35.183  27.652  1.00  0.00    -0.014 A 
ATOM     77  C   UNL A   1      44.206  36.484  27.113  1.00  0.00     0.009 A 
ATOM     78  C   UNL A   1      43.133  34.866  28.463  1.00  0.00     0.009 A 
ATOM     79  C   UNL A   1      43.087  37.340  27.273  1.00  0.00     0.001 A 
ATOM     80  C   UNL A   1      41.992  35.691  28.589  1.00  0.00     0.001 A 
ATOM     81  C   UNL A   1      41.962  36.929  27.976  1.00  0.00     0.000 A 
ENDBRANCH  62  76
BRANCH  63  82
ATOM     82  C   UNL A   1      50.558  27.478  28.032  1.00  0.00    -0.014 A 
ATOM     83  C   UNL A   1      50.403  26.492  29.037  1.00  0.00     0.009 A 
ATOM     84  C   UNL A   1      50.285  27.105  26.703  1.00  0.00     0.009 A 
ATOM     85  C   UNL A   1      49.722  25.296  28.768  1.00  0.00     0.001 A 
ATOM     86  C   UNL A   1      49.626  25.892  26.439  1.00  0.00     0.001 A 
ATOM     87  C   UNL A   1      49.278  25.027  27.478  1.00  0.00     0.000 A 
ENDBRANCH  63  82
BRANCH  75  88
ATOM     88  C   UNL A   1      50.473  34.763  26.652  1.00  0.00    -0.014 A 
ATOM     89  C   UNL A   1      50.316  34.654  25.271  1.00  0.00     0.009 A 
ATOM     90  C   UNL A   1      50.770  36.076  27.133  1.00  0.00     0.009 A 
ATOM     91  C   UNL A   1      50.472  35.766  24.425  1.00  0.00     0.001 A 
ATOM     92  C   UNL A   1      50.829  37.201  26.306  1.00  0.00     0.001 A 
ATOM     93  C   UNL A   1      50.705  37.038  24.940  1.00  0.00     0.000 A 
ENDBRANCH  75  88
ENDBRANCH  49  50
ENDBRANCH  42  44
ENDBRANCH  41  42
ENDBRANCH  40  41
ENDBRANCH  39  40
ENDBRANCH  38  39
ENDBRANCH  37  38
ENDBRANCH  36  37
ENDBRANCH   1  36
TORSDOF 23
ENDMDL
MODEL 2
REMARK VINA RESULT:     -11.8      3.554      9.646
REMARK SMILES Cc1ccc(C2=NN(C(=O)CCC(=O)OCCOCCOCCOC(=O)c3ccc(-c4c5nc(c(-c6ccccc6)c6ccc([nH]6)c(-c6ccccc6)c6nc(c(-c7ccccc7)c7ccc4[nH]7)C=C6)C=C5)cc3)[C@H](C[C@@H]3C=c4cccc(C)c4=NC3=O)C2)cc1
REMARK SMILES IDX 18 1 17 2 16 3 15 4 13 5 14 6 12 7 11 8 9 9 10 10 8 11 6 12
REMARK SMILES IDX 7 13 89 14 75 15 5 16 1 17 2 18 3 19 91 20 4 21 90 22 76 23
REMARK SMILES IDX 77 24 78 25 87 26 79 27 86 28 88 29 80 30 85 31 81 32 83 33
REMARK SMILES IDX 82 34 84 35 19 36 20 37 21 38 22 39 23 40 24 41 25 42 26 43
REMARK SMILES IDX 27 44 28 45 74 46 29 47 73 48 30 49 31 50 32 51 67 52 33 53
REMARK SMILES IDX 72 54 66 55 68 56 34 57 71 58 65 59 64 60 35 62 57 63 42 64
REMARK SMILES IDX 56 65 43 66 46 67 55 68 69 69 44 70 45 71 54 73 70 74 47 75
REMARK SMILES IDX 36 76 37 77 41 78 38 79 40 80 39 81 58 82 59 83 63 84 60 85
REMARK SMILES IDX 62 86 61 87 48 88 49 89 53 90 50 91 52 92 51 93
REMARK H PARENT 68 61 46 72
REMARK Flexibility Score: inf
ROOT
ATOM      1  O   UNL A   1      40.165  29.477  29.010  1.00  0.00    -0.376 OA
ENDROOT
BRANCH   1   2
ATOM      2  C   UNL A   1      40.005  28.324  28.155  1.00  0.00     0.202 C 
BRANCH   2   3
ATOM      3  C   UNL A   1      40.233  26.756  28.740  1.00  0.00     0.261 C 
BRANCH   3   4
ATOM      4  O   UNL A   1      39.338  25.477  28.519  1.00  0.00    -0.463 OA
BRANCH   4   5
ATOM      5  C   UNL A   1      39.609  24.783  27.389  1.00  0.00     0.306 C 
ATOM      6  O   UNL A   1      40.701  25.137  26.944  1.00  0.00    -0.252 OA
BRANCH   5   7
ATOM      7  C   UNL A   1      38.660  23.333  26.649  1.00  0.00     0.132 C 
BRANCH   7   8
ATOM      8  C   UNL A   1      37.569  23.297  25.629  1.00  0.00     0.114 C 
BRANCH   8   9
ATOM      9  C   UNL A   1      37.054  22.012  25.094  1.00  0.00     0.243 C 
ATOM     10  O   UNL A   1      37.942  21.184  24.835  1.00  0.00    -0.273 OA
BRANCH   9  11
ATOM     11  N   UNL A   1      35.730  21.787  24.753  1.00  0.00    -0.230 N 
ATOM     12  C   UNL A   1      34.333  20.152  24.689  1.00  0.00     0.070 C 
ATOM     13  N   UNL A   1      35.524  20.467  25.035  1.00  0.00    -0.174 NA
ATOM     14  C   UNL A   1      33.422  21.266  24.257  1.00  0.00     0.086 C 
ATOM     15  C   UNL A   1      34.510  22.255  23.814  1.00  0.00     0.118 C 
BRANCH  12  16
ATOM     16  C   UNL A   1      33.909  18.786  24.856  1.00  0.00    -0.002 A 
ATOM     17  C   UNL A   1      33.065  14.680  25.417  1.00  0.00     0.044 C 
ATOM     18  C   UNL A   1      33.301  16.131  25.135  1.00  0.00    -0.051 A 
ATOM     19  C   UNL A   1      34.561  16.511  24.654  1.00  0.00     0.004 A 
ATOM     20  C   UNL A   1      32.307  17.096  25.369  1.00  0.00     0.004 A 
ATOM     21  C   UNL A   1      34.862  17.845  24.496  1.00  0.00     0.010 A 
ATOM     22  C   UNL A   1      32.606  18.446  25.214  1.00  0.00     0.010 A 
ENDBRANCH  12  16
BRANCH  15  23
ATOM     23  C   UNL A   1      34.052  23.803  23.090  1.00  0.00     0.045 C 
BRANCH  23  24
ATOM     24  C   UNL A   1      32.565  24.977  23.058  1.00  0.00     0.106 C 
ATOM     25  C   UNL A   1      32.745  27.163  22.934  1.00  0.00    -0.003 C 
ATOM     26  C   UNL A   1      31.319  24.609  24.624  1.00  0.00     0.253 C 
ATOM     27  C   UNL A   1      32.320  28.060  24.030  1.00  0.00    -0.003 A 
ATOM     28  N   UNL A   1      30.975  25.989  25.661  1.00  0.00    -0.212 NA
ATOM     29  O   UNL A   1      30.680  23.571  24.748  1.00  0.00    -0.272 OA
ATOM     30  C   UNL A   1      33.153  29.231  24.210  1.00  0.00     0.010 A 
ATOM     31  C   UNL A   1      31.457  27.346  25.490  1.00  0.00     0.077 A 
ATOM     32  C   UNL A   1      33.350  29.735  25.427  1.00  0.00     0.001 A 
ATOM     33  C   UNL A   1      31.717  28.289  26.671  1.00  0.00    -0.025 A 
ATOM     34  C   UNL A   1      32.605  29.306  26.583  1.00  0.00     0.005 A 
ATOM     35  C   UNL A   1      31.146  27.946  28.008  1.00  0.00     0.047 C 
ENDBRANCH  23  24
ENDBRANCH  15  23
ENDBRANCH   9  11
ENDBRANCH   8   9
ENDBRANCH   7   8
ENDBRANCH   5   7
ENDBRANCH   4   5
ENDBRANCH   3   4
ENDBRANCH   2   3
ENDBRANCH   1   2
BRANCH   1  36
ATOM     36  C   UNL A   1      39.148  30.501  29.266  1.00  0.00     0.188 C 
BRANCH  36  37
ATOM     37  C   UNL A   1      37.568  30.366  29.297  1.00  0.00     0.188 C 
BRANCH  37  38
ATOM     38  O   UNL A   1      36.952  30.593  30.579  1.00  0.00    -0.376 OA
BRANCH  38  39
ATOM     39  C   UNL A   1      35.867  31.530  30.703  1.00  0.00     0.202 C 
BRANCH  39  40
ATOM     40  C   UNL A   1      35.591  31.901  32.231  1.00  0.00     0.261 C 
BRANCH  40  41
ATOM     41  O   UNL A   1      36.679  31.474  33.130  1.00  0.00    -0.460 OA
BRANCH  41  42
ATOM     42  C   UNL A   1      37.223  32.296  34.086  1.00  0.00     0.338 C 
ATOM     43  O   UNL A   1      36.572  32.696  35.029  1.00  0.00    -0.246 OA
BRANCH  42  44
ATOM     44  C   UNL A   1      38.833  32.658  33.574  1.00  0.00     0.060 A 
ATOM     45  C   UNL A   1      39.674  33.301  31.845  1.00  0.00     0.016 A 
ATOM     46  C   UNL A   1      39.745  31.669  34.512  1.00  0.00     0.016 A 
ATOM     47  C   UNL A   1      41.259  32.622  31.269  1.00  0.00     0.010 A 
ATOM     48  C   UNL A   1      41.197  31.081  33.685  1.00  0.00     0.010 A 
ATOM     49  C   UNL A   1      42.069  31.407  32.155  1.00  0.00    -0.014 A 
BRANCH  49  50
ATOM     50  C   UNL A   1      43.463  30.319  31.597  1.00  0.00     0.031 A 
ATOM     51  C   UNL A   1      44.374  28.867  32.298  1.00  0.00     0.074 A 
ATOM     52  C   UNL A   1      43.490  30.104  30.237  1.00  0.00     0.049 A 
ATOM     53  N   UNL A   1      45.562  28.348  31.954  1.00  0.00    -0.248 NA
ATOM     54  C   UNL A   1      43.996  27.805  33.361  1.00  0.00     0.031 C 
ATOM     55  C   UNL A   1      43.768  28.783  29.626  1.00  0.00     0.029 A 
ATOM     56  N   UNL A   1      43.014  30.826  29.134  1.00  0.00    -0.354 N 
ATOM     57  C   UNL A   1      45.695  27.141  32.774  1.00  0.00     0.074 A 
ATOM     58  C   UNL A   1      45.122  27.509  33.997  1.00  0.00     0.031 C 
ATOM     59  C   UNL A   1      43.596  28.823  28.297  1.00  0.00     0.029 A 
ATOM     60  C   UNL A   1      43.562  30.217  27.964  1.00  0.00     0.049 A 
ATOM     61  H   UNL A   1      42.415  31.607  29.161  1.00  0.00     0.167 HD
ATOM     62  C   UNL A   1      45.541  25.806  32.364  1.00  0.00     0.031 A 
ATOM     63  C   UNL A   1      44.550  30.814  27.225  1.00  0.00     0.031 A 
ATOM     64  C   UNL A   1      45.649  25.718  30.942  1.00  0.00     0.049 A 
ATOM     65  C   UNL A   1      45.880  30.051  27.241  1.00  0.00     0.074 A 
ATOM     66  C   UNL A   1      44.967  25.202  29.860  1.00  0.00     0.029 A 
ATOM     67  N   UNL A   1      46.627  26.520  30.439  1.00  0.00    -0.354 N 
ATOM     68  N   UNL A   1      46.057  28.978  27.971  1.00  0.00    -0.248 NA
ATOM     69  C   UNL A   1      47.096  30.342  26.481  1.00  0.00     0.031 C 
ATOM     70  C   UNL A   1      45.575  25.772  28.684  1.00  0.00     0.029 A 
ATOM     71  C   UNL A   1      46.642  26.557  29.090  1.00  0.00     0.049 A 
ATOM     72  H   UNL A   1      47.259  27.021  31.003  1.00  0.00     0.167 HD
ATOM     73  C   UNL A   1      47.316  28.478  27.847  1.00  0.00     0.074 A 
ATOM     74  C   UNL A   1      47.945  29.382  26.914  1.00  0.00     0.031 C 
ATOM     75  C   UNL A   1      47.712  27.383  28.558  1.00  0.00     0.031 A 
BRANCH  62  76
ATOM     76  C   UNL A   1      45.156  24.564  33.261  1.00  0.00    -0.014 A 
ATOM     77  C   UNL A   1      46.076  24.096  34.221  1.00  0.00     0.009 A 
ATOM     78  C   UNL A   1      43.956  23.803  33.216  1.00  0.00     0.009 A 
ATOM     79  C   UNL A   1      45.776  23.046  35.126  1.00  0.00     0.001 A 
ATOM     80  C   UNL A   1      43.627  22.788  34.144  1.00  0.00     0.001 A 
ATOM     81  C   UNL A   1      44.537  22.419  35.116  1.00  0.00     0.000 A 
ENDBRANCH  62  76
BRANCH  63  82
ATOM     82  C   UNL A   1      44.214  32.256  27.004  1.00  0.00    -0.014 A 
ATOM     83  C   UNL A   1      44.974  33.159  27.787  1.00  0.00     0.009 A 
ATOM     84  C   UNL A   1      43.849  32.663  25.707  1.00  0.00     0.009 A 
ATOM     85  C   UNL A   1      45.591  34.272  27.199  1.00  0.00     0.001 A 
ATOM     86  C   UNL A   1      44.452  33.795  25.135  1.00  0.00     0.001 A 
ATOM     87  C   UNL A   1      45.378  34.553  25.854  1.00  0.00     0.000 A 
ENDBRANCH  63  82
BRANCH  75  88
ATOM     88  C   UNL A   1      49.133  27.107  29.075  1.00  0.00    -0.014 A 
ATOM     89  C   UNL A   1      49.921  28.063  29.717  1.00  0.00     0.009 A 
ATOM     90  C   UNL A   1      49.626  25.767  29.134  1.00  0.00     0.009 A 
ATOM     91  C   UNL A   1      51.127  27.714  30.347  1.00  0.00     0.001 A 
ATOM     92  C   UNL A   1      50.773  25.402  29.843  1.00  0.00     0.001 A 
ATOM     93  C   UNL A   1      51.542  26.388  30.431  1.00  0.00     0.000 A 
ENDBRANCH  75  88
ENDBRANCH  49  50
ENDBRANCH  42  44
ENDBRANCH  41  42
ENDBRANCH  40  41
ENDBRANCH  39  40
ENDBRANCH  38  39
ENDBRANCH  37  38
ENDBRANCH  36  37
ENDBRANCH   1  36
TORSDOF 23
ENDMDL
MODEL 3
REMARK VINA RESULT:     -11.8      4.800      9.561
REMARK SMILES Cc1ccc(C2=NN(C(=O)CCC(=O)OCCOCCOCCOC(=O)c3ccc(-c4c5nc(c(-c6ccccc6)c6ccc([nH]6)c(-c6ccccc6)c6nc(c(-c7ccccc7)c7ccc4[nH]7)C=C6)C=C5)cc3)[C@H](C[C@@H]3C=c4cccc(C)c4=NC3=O)C2)cc1
REMARK SMILES IDX 18 1 17 2 16 3 15 4 13 5 14 6 12 7 11 8 9 9 10 10 8 11 6 12
REMARK SMILES IDX 7 13 89 14 75 15 5 16 1 17 2 18 3 19 91 20 4 21 90 22 76 23
REMARK SMILES IDX 77 24 78 25 87 26 79 27 86 28 88 29 80 30 85 31 81 32 83 33
REMARK SMILES IDX 82 34 84 35 19 36 20 37 21 38 22 39 23 40 24 41 25 42 26 43
REMARK SMILES IDX 27 44 28 45 74 46 29 47 73 48 30 49 31 50 32 51 67 52 33 53
REMARK SMILES IDX 72 54 66 55 68 56 34 57 71 58 65 59 64 60 35 62 57 63 42 64
REMARK SMILES IDX 56 65 43 66 46 67 55 68 69 69 44 70 45 71 54 73 70 74 47 75
REMARK SMILES IDX 36 76 37 77 41 78 38 79 40 80 39 81 58 82 59 83 63 84 60 85
REMARK SMILES IDX 62 86 61 87 48 88 49 89 53 90 50 91 52 92 51 93
REMARK H PARENT 68 61 46 72
REMARK Flexibility Score: inf
ROOT
ATOM      1  O   UNL A   1      43.055  27.824  27.016  1.00  0.00    -0.376 OA
ENDROOT
BRANCH   1   2
ATOM      2  C   UNL A   1      42.233  26.828  26.371  1.00  0.00     0.202 C 
BRANCH   2   3
ATOM      3  C   UNL A   1      41.645  25.490  27.217  1.00  0.00     0.261 C 
BRANCH   3   4
ATOM      4  O   UNL A   1      40.154  25.123  27.577  1.00  0.00    -0.463 OA
BRANCH   4   5
ATOM      5  C   UNL A   1      39.673  24.025  26.951  1.00  0.00     0.306 C 
ATOM      6  O   UNL A   1      40.472  23.097  27.079  1.00  0.00    -0.252 OA
BRANCH   5   7
ATOM      7  C   UNL A   1      37.976  23.769  26.173  1.00  0.00     0.132 C 
BRANCH   7   8
ATOM      8  C   UNL A   1      37.570  23.065  24.919  1.00  0.00     0.114 C 
BRANCH   8   9
ATOM      9  C   UNL A   1      36.930  21.727  24.957  1.00  0.00     0.243 C 
ATOM     10  O   UNL A   1      37.732  20.791  25.103  1.00  0.00    -0.273 OA
BRANCH   9  11
ATOM     11  N   UNL A   1      35.588  21.498  24.695  1.00  0.00    -0.230 N 
ATOM     12  C   UNL A   1      34.197  19.858  24.702  1.00  0.00     0.070 C 
ATOM     13  N   UNL A   1      35.405  20.175  24.978  1.00  0.00    -0.174 NA
ATOM     14  C   UNL A   1      33.256  20.972  24.338  1.00  0.00     0.086 C 
ATOM     15  C   UNL A   1      34.311  21.969  23.838  1.00  0.00     0.118 C 
BRANCH  12  16
ATOM     16  C   UNL A   1      33.789  18.489  24.882  1.00  0.00    -0.002 A 
ATOM     17  C   UNL A   1      32.998  14.371  25.434  1.00  0.00     0.044 C 
ATOM     18  C   UNL A   1      33.207  15.828  25.163  1.00  0.00    -0.051 A 
ATOM     19  C   UNL A   1      34.407  16.218  24.554  1.00  0.00     0.004 A 
ATOM     20  C   UNL A   1      32.248  16.788  25.530  1.00  0.00     0.004 A 
ATOM     21  C   UNL A   1      34.692  17.556  24.396  1.00  0.00     0.010 A 
ATOM     22  C   UNL A   1      32.533  18.141  25.375  1.00  0.00     0.010 A 
ENDBRANCH  12  16
BRANCH  15  23
ATOM     23  C   UNL A   1      33.803  23.522  23.157  1.00  0.00     0.045 C 
BRANCH  23  24
ATOM     24  C   UNL A   1      32.286  24.656  23.172  1.00  0.00     0.106 C 
ATOM     25  C   UNL A   1      32.379  26.816  22.781  1.00  0.00    -0.003 C 
ATOM     26  C   UNL A   1      31.245  24.450  24.908  1.00  0.00     0.253 C 
ATOM     27  C   UNL A   1      32.057  27.826  23.812  1.00  0.00    -0.003 A 
ATOM     28  N   UNL A   1      30.980  25.933  25.816  1.00  0.00    -0.212 NA
ATOM     29  O   UNL A   1      30.659  23.421  25.224  1.00  0.00    -0.272 OA
ATOM     30  C   UNL A   1      32.867  29.026  23.756  1.00  0.00     0.010 A 
ATOM     31  C   UNL A   1      31.395  27.271  25.436  1.00  0.00     0.077 A 
ATOM     32  C   UNL A   1      33.189  29.671  24.876  1.00  0.00     0.001 A 
ATOM     33  C   UNL A   1      31.760  28.349  26.463  1.00  0.00    -0.025 A 
ATOM     34  C   UNL A   1      32.599  29.365  26.155  1.00  0.00     0.005 A 
ATOM     35  C   UNL A   1      31.362  28.153  27.889  1.00  0.00     0.047 C 
ENDBRANCH  23  24
ENDBRANCH  15  23
ENDBRANCH   9  11
ENDBRANCH   8   9
ENDBRANCH   7   8
ENDBRANCH   5   7
ENDBRANCH   4   5
ENDBRANCH   3   4
ENDBRANCH   2   3
ENDBRANCH   1   2
BRANCH   1  36
ATOM     36  C   UNL A   1      42.597  28.802  28.007  1.00  0.00     0.188 C 
BRANCH  36  37
ATOM     37  C   UNL A   1      41.196  28.909  28.744  1.00  0.00     0.188 C 
BRANCH  37  38
ATOM     38  O   UNL A   1      41.195  28.518  30.130  1.00  0.00    -0.376 OA
BRANCH  38  39
ATOM     39  C   UNL A   1      39.950  28.358  30.834  1.00  0.00     0.202 C 
BRANCH  39  40
ATOM     40  C   UNL A   1      39.821  29.403  32.033  1.00  0.00     0.261 C 
BRANCH  40  41
ATOM     41  O   UNL A   1      40.757  30.535  31.910  1.00  0.00    -0.460 OA
BRANCH  41  42
ATOM     42  C   UNL A   1      40.385  31.759  31.408  1.00  0.00     0.338 C 
ATOM     43  O   UNL A   1      39.283  31.946  30.936  1.00  0.00    -0.246 OA
BRANCH  42  44
ATOM     44  C   UNL A   1      41.776  32.779  31.503  1.00  0.00     0.060 A 
ATOM     45  C   UNL A   1      42.431  34.188  32.805  1.00  0.00     0.016 A 
ATOM     46  C   UNL A   1      42.184  32.987  29.928  1.00  0.00     0.016 A 
ATOM     47  C   UNL A   1      43.223  35.713  32.210  1.00  0.00     0.010 A 
ATOM     48  C   UNL A   1      42.864  34.590  29.598  1.00  0.00     0.010 A 
ATOM     49  C   UNL A   1      43.415  36.010  30.540  1.00  0.00    -0.014 A 
BRANCH  49  50
ATOM     50  C   UNL A   1      43.834  37.609  29.701  1.00  0.00     0.031 A 
ATOM     51  C   UNL A   1      43.393  39.392  29.947  1.00  0.00     0.074 A 
ATOM     52  C   UNL A   1      45.113  37.651  29.191  1.00  0.00     0.049 A 
ATOM     53  N   UNL A   1      43.501  40.430  29.106  1.00  0.00    -0.248 NA
ATOM     54  C   UNL A   1      42.899  40.189  31.181  1.00  0.00     0.031 C 
ATOM     55  C   UNL A   1      45.999  38.834  29.307  1.00  0.00     0.029 A 
ATOM     56  N   UNL A   1      46.015  36.668  28.762  1.00  0.00    -0.354 N 
ATOM     57  C   UNL A   1      43.114  41.599  29.900  1.00  0.00     0.074 A 
ATOM     58  C   UNL A   1      42.077  41.118  30.709  1.00  0.00     0.031 C 
ATOM     59  C   UNL A   1      47.229  38.557  28.851  1.00  0.00     0.029 A 
ATOM     60  C   UNL A   1      47.090  37.341  28.105  1.00  0.00     0.049 A 
ATOM     61  H   UNL A   1      45.924  35.696  28.888  1.00  0.00     0.167 HD
ATOM     62  C   UNL A   1      43.958  42.580  30.447  1.00  0.00     0.031 A 
ATOM     63  C   UNL A   1      47.256  37.298  26.745  1.00  0.00     0.031 A 
ATOM     64  C   UNL A   1      45.226  42.552  29.790  1.00  0.00     0.049 A 
ATOM     65  C   UNL A   1      47.076  38.658  26.058  1.00  0.00     0.074 A 
ATOM     66  C   UNL A   1      46.571  42.491  30.090  1.00  0.00     0.029 A 
ATOM     67  N   UNL A   1      45.117  42.360  28.447  1.00  0.00    -0.354 N 
ATOM     68  N   UNL A   1      46.713  39.728  26.719  1.00  0.00    -0.248 NA
ATOM     69  C   UNL A   1      47.289  38.990  24.648  1.00  0.00     0.031 C 
ATOM     70  C   UNL A   1      47.253  42.215  28.850  1.00  0.00     0.029 A 
ATOM     71  C   UNL A   1      46.309  42.186  27.837  1.00  0.00     0.049 A 
ATOM     72  H   UNL A   1      44.256  42.349  27.970  1.00  0.00     0.167 HD
ATOM     73  C   UNL A   1      46.597  40.814  25.907  1.00  0.00     0.074 A 
ATOM     74  C   UNL A   1      46.948  40.299  24.606  1.00  0.00     0.031 C 
ATOM     75  C   UNL A   1      46.190  42.020  26.399  1.00  0.00     0.031 A 
BRANCH  62  76
ATOM     76  C   UNL A   1      43.673  43.505  31.695  1.00  0.00    -0.014 A 
ATOM     77  C   UNL A   1      44.741  44.204  32.294  1.00  0.00     0.009 A 
ATOM     78  C   UNL A   1      42.426  43.725  32.343  1.00  0.00     0.009 A 
ATOM     79  C   UNL A   1      44.560  45.123  33.358  1.00  0.00     0.001 A 
ATOM     80  C   UNL A   1      42.226  44.674  33.372  1.00  0.00     0.001 A 
ATOM     81  C   UNL A   1      43.297  45.390  33.870  1.00  0.00     0.000 A 
ENDBRANCH  62  76
BRANCH  63  82
ATOM     82  C   UNL A   1      47.093  35.891  26.260  1.00  0.00    -0.014 A 
ATOM     83  C   UNL A   1      47.851  34.935  26.980  1.00  0.00     0.009 A 
ATOM     84  C   UNL A   1      45.833  35.496  25.776  1.00  0.00     0.009 A 
ATOM     85  C   UNL A   1      47.255  33.756  27.449  1.00  0.00     0.001 A 
ATOM     86  C   UNL A   1      45.254  34.300  26.231  1.00  0.00     0.001 A 
ATOM     87  C   UNL A   1      45.934  33.471  27.124  1.00  0.00     0.000 A 
ENDBRANCH  63  82
BRANCH  75  88
ATOM     88  C   UNL A   1      45.379  43.079  25.636  1.00  0.00    -0.014 A 
ATOM     89  C   UNL A   1      45.892  44.319  25.254  1.00  0.00     0.009 A 
ATOM     90  C   UNL A   1      44.114  42.738  25.064  1.00  0.00     0.009 A 
ATOM     91  C   UNL A   1      45.184  45.170  24.389  1.00  0.00     0.001 A 
ATOM     92  C   UNL A   1      43.455  43.537  24.127  1.00  0.00     0.001 A 
ATOM     93  C   UNL A   1      43.982  44.774  23.809  1.00  0.00     0.000 A 
ENDBRANCH  75  88
ENDBRANCH  49  50
ENDBRANCH  42  44
ENDBRANCH  41  42
ENDBRANCH  40  41
ENDBRANCH  39  40
ENDBRANCH  38  39
ENDBRANCH  37  38
ENDBRANCH  36  37
ENDBRANCH   1  36
TORSDOF 23
ENDMDL
