MODEL 1
REMARK VINA RESULT:     -11.9      0.000      0.000
REMARK SMILES COc1cccc(-c2nn(-c3cc4c(cc3C(N)=O)OCO4)cc2C(=O)OCCOCCOCCOC(=O)c2ccc(-c3c4nc(c(-c5ccccc5)c5ccc([nH]5)c(-c5ccccc5)c5nc(c(-c6ccccc6)c6ccc3[nH]6)C=C5)C=C4)cc2)c1
REMARK SMILES IDX 31 1 30 2 29 3 28 4 27 5 25 6 26 7 24 8 8 9 9 10 10 11 23 12
REMARK SMILES IDX 7 13 3 14 4 15 87 16 5 17 6 18 2 19 1 20 11 21 12 22 16 23
REMARK SMILES IDX 13 24 15 25 14 26 22 27 20 28 21 29 17 30 18 31 19 32 32 35
REMARK SMILES IDX 33 36 34 37 35 38 36 39 37 40 38 41 39 42 40 43 86 44 41 45
REMARK SMILES IDX 85 46 42 47 43 48 44 49 79 50 45 51 84 52 78 53 80 54 46 55
REMARK SMILES IDX 83 56 77 57 76 58 47 60 69 61 54 62 68 63 55 64 58 65 67 66
REMARK SMILES IDX 81 67 56 68 57 69 66 71 82 72 59 73 48 74 49 75 53 76 50 77
REMARK SMILES IDX 52 78 51 79 70 80 71 81 75 82 72 83 74 84 73 85 60 86 61 87
REMARK SMILES IDX 65 88 62 89 64 90 63 91
REMARK H PARENT 18 33 18 34 80 59 58 70
REMARK Flexibility Score: inf
ROOT
ATOM      1  C   UNL A   1      39.734  21.609  26.129  1.00  0.00     0.188 C 
ENDROOT
BRANCH   1   2
ATOM      2  O   UNL A   1      38.492  21.711  25.476  1.00  0.00    -0.376 OA
BRANCH   2   3
ATOM      3  C   UNL A   1      37.714  22.880  25.675  1.00  0.00     0.202 C 
BRANCH   3   4
ATOM      4  C   UNL A   1      36.169  22.896  25.637  1.00  0.00     0.261 C 
BRANCH   4   5
ATOM      5  O   UNL A   1      35.474  21.664  25.829  1.00  0.00    -0.460 OA
BRANCH   5   6
ATOM      6  C   UNL A   1      34.270  21.718  26.480  1.00  0.00     0.342 C 
ATOM      7  O   UNL A   1      34.126  21.507  27.673  1.00  0.00    -0.246 OA
BRANCH   6   8
ATOM      8  C   UNL A   1      33.213  22.179  25.604  1.00  0.00     0.106 A 
ATOM      9  C   UNL A   1      32.507  21.480  24.581  1.00  0.00     0.107 A 
ATOM     10  N   UNL A   1      31.613  22.281  23.970  1.00  0.00    -0.167 NA
ATOM     11  N   UNL A   1      31.899  23.510  24.471  1.00  0.00    -0.239 N 
ATOM     12  C   UNL A   1      32.582  23.404  25.656  1.00  0.00     0.131 A 
BRANCH   9  13
ATOM     13  C   UNL A   1      32.616  20.064  24.264  1.00  0.00     0.007 A 
ATOM     14  C   UNL A   1      32.802  17.766  24.996  1.00  0.00     0.119 A 
ATOM     15  C   UNL A   1      32.639  17.338  23.676  1.00  0.00     0.046 A 
ATOM     16  C   UNL A   1      32.795  19.131  25.289  1.00  0.00     0.056 A 
ATOM     17  C   UNL A   1      32.474  18.263  22.647  1.00  0.00     0.005 A 
ATOM     18  C   UNL A   1      32.479  19.626  22.939  1.00  0.00     0.011 A 
BRANCH  14  19
ATOM     19  O   UNL A   1      33.008  16.770  25.911  1.00  0.00    -0.497 OA
ATOM     20  C   UNL A   1      33.983  15.801  25.543  1.00  0.00     0.278 C 
ENDBRANCH  14  19
ENDBRANCH   9  13
BRANCH  11  21
ATOM     21  C   UNL A   1      31.481  24.709  23.841  1.00  0.00     0.081 A 
ATOM     22  C   UNL A   1      30.260  25.283  24.248  1.00  0.00     0.079 A 
ATOM     23  C   UNL A   1      32.272  25.322  22.819  1.00  0.00     0.069 A 
ATOM     24  C   UNL A   1      29.903  26.487  23.682  1.00  0.00     0.167 A 
ATOM     25  C   UNL A   1      31.923  26.607  22.374  1.00  0.00     0.066 A 
ATOM     26  C   UNL A   1      30.729  27.141  22.800  1.00  0.00     0.166 A 
ATOM     27  O   UNL A   1      28.740  27.167  23.880  1.00  0.00    -0.454 OA
ATOM     28  O   UNL A   1      30.195  28.307  22.345  1.00  0.00    -0.454 OA
ATOM     29  C   UNL A   1      28.857  28.193  22.871  1.00  0.00     0.468 C 
BRANCH  23  30
ATOM     30  C   UNL A   1      33.283  24.540  22.013  1.00  0.00     0.251 C 
ATOM     31  N   UNL A   1      32.901  23.977  20.828  1.00  0.00    -0.366 N 
ATOM     32  O   UNL A   1      34.416  24.286  22.398  1.00  0.00    -0.269 OA
ATOM     33  H   UNL A   1      32.001  24.147  20.469  1.00  0.00     0.159 HD
ATOM     34  H   UNL A   1      33.528  23.401  20.333  1.00  0.00     0.159 HD
ENDBRANCH  23  30
ENDBRANCH  11  21
ENDBRANCH   6   8
ENDBRANCH   5   6
ENDBRANCH   4   5
ENDBRANCH   3   4
ENDBRANCH   2   3
ENDBRANCH   1   2
BRANCH   1  35
ATOM     35  C   UNL A   1      40.108  20.163  26.529  1.00  0.00     0.188 C 
BRANCH  35  36
ATOM     36  O   UNL A   1      41.013  19.873  27.589  1.00  0.00    -0.376 OA
BRANCH  36  37
ATOM     37  C   UNL A   1      42.300  19.325  27.349  1.00  0.00     0.202 C 
BRANCH  37  38
ATOM     38  C   UNL A   1      42.702  18.865  25.951  1.00  0.00     0.261 C 
BRANCH  38  39
ATOM     39  O   UNL A   1      43.019  19.922  25.071  1.00  0.00    -0.460 OA
BRANCH  39  40
ATOM     40  C   UNL A   1      44.256  19.856  24.548  1.00  0.00     0.338 C 
ATOM     41  O   UNL A   1      44.861  18.855  24.179  1.00  0.00    -0.246 OA
BRANCH  40  42
ATOM     42  C   UNL A   1      44.833  21.201  24.571  1.00  0.00     0.060 A 
ATOM     43  C   UNL A   1      45.825  21.420  25.527  1.00  0.00     0.016 A 
ATOM     44  C   UNL A   1      44.092  22.244  23.996  1.00  0.00     0.016 A 
ATOM     45  C   UNL A   1      45.815  22.629  26.171  1.00  0.00     0.010 A 
ATOM     46  C   UNL A   1      44.055  23.435  24.663  1.00  0.00     0.010 A 
ATOM     47  C   UNL A   1      44.831  23.554  25.812  1.00  0.00    -0.014 A 
BRANCH  47  48
ATOM     48  C   UNL A   1      44.637  24.695  26.665  1.00  0.00     0.031 A 
ATOM     49  C   UNL A   1      45.747  25.653  26.571  1.00  0.00     0.074 A 
ATOM     50  C   UNL A   1      43.513  24.873  27.380  1.00  0.00     0.049 A 
ATOM     51  N   UNL A   1      46.677  25.856  27.441  1.00  0.00    -0.248 NA
ATOM     52  C   UNL A   1      45.970  26.301  25.269  1.00  0.00     0.031 C 
ATOM     53  C   UNL A   1      42.245  24.142  27.305  1.00  0.00     0.029 A 
ATOM     54  N   UNL A   1      43.241  25.859  28.270  1.00  0.00    -0.354 N 
ATOM     55  C   UNL A   1      47.491  26.824  26.873  1.00  0.00     0.074 A 
ATOM     56  C   UNL A   1      47.156  26.871  25.473  1.00  0.00     0.031 C 
ATOM     57  C   UNL A   1      41.281  24.868  27.921  1.00  0.00     0.029 A 
ATOM     58  C   UNL A   1      41.894  26.035  28.538  1.00  0.00     0.049 A 
ATOM     59  H   UNL A   1      43.945  26.405  28.690  1.00  0.00     0.167 HD
ATOM     60  C   UNL A   1      48.140  27.734  27.647  1.00  0.00     0.031 A 
ATOM     61  C   UNL A   1      41.343  27.121  29.135  1.00  0.00     0.031 A 
ATOM     62  C   UNL A   1      48.199  27.315  29.025  1.00  0.00     0.049 A 
ATOM     63  C   UNL A   1      42.436  27.843  29.839  1.00  0.00     0.074 A 
ATOM     64  C   UNL A   1      48.711  26.212  29.682  1.00  0.00     0.029 A 
ATOM     65  N   UNL A   1      47.304  27.890  29.897  1.00  0.00    -0.354 N 
ATOM     66  N   UNL A   1      43.062  27.361  30.875  1.00  0.00    -0.248 NA
ATOM     67  C   UNL A   1      43.159  28.870  29.098  1.00  0.00     0.031 C 
ATOM     68  C   UNL A   1      47.758  25.915  30.700  1.00  0.00     0.029 A 
ATOM     69  C   UNL A   1      46.758  26.887  30.656  1.00  0.00     0.049 A 
ATOM     70  H   UNL A   1      47.093  28.850  29.965  1.00  0.00     0.167 HD
ATOM     71  C   UNL A   1      44.397  27.684  30.667  1.00  0.00     0.074 A 
ATOM     72  C   UNL A   1      44.384  28.687  29.602  1.00  0.00     0.031 C 
ATOM     73  C   UNL A   1      45.401  26.899  31.159  1.00  0.00     0.031 A 
BRANCH  60  74
ATOM     74  C   UNL A   1      48.287  29.175  27.233  1.00  0.00    -0.014 A 
ATOM     75  C   UNL A   1      49.546  29.780  27.358  1.00  0.00     0.009 A 
ATOM     76  C   UNL A   1      47.194  30.033  26.992  1.00  0.00     0.009 A 
ATOM     77  C   UNL A   1      49.687  31.171  27.323  1.00  0.00     0.001 A 
ATOM     78  C   UNL A   1      47.336  31.418  26.910  1.00  0.00     0.001 A 
ATOM     79  C   UNL A   1      48.581  31.990  27.106  1.00  0.00     0.000 A 
ENDBRANCH  60  74
BRANCH  61  80
ATOM     80  C   UNL A   1      40.039  27.758  28.833  1.00  0.00    -0.014 A 
ATOM     81  C   UNL A   1      39.038  27.857  29.814  1.00  0.00     0.009 A 
ATOM     82  C   UNL A   1      39.872  28.512  27.656  1.00  0.00     0.009 A 
ATOM     83  C   UNL A   1      37.932  28.701  29.634  1.00  0.00     0.001 A 
ATOM     84  C   UNL A   1      38.768  29.352  27.475  1.00  0.00     0.001 A 
ATOM     85  C   UNL A   1      37.804  29.457  28.471  1.00  0.00     0.000 A 
ENDBRANCH  61  80
BRANCH  73  86
ATOM     86  C   UNL A   1      45.034  25.788  32.113  1.00  0.00    -0.014 A 
ATOM     87  C   UNL A   1      44.522  24.548  31.688  1.00  0.00     0.009 A 
ATOM     88  C   UNL A   1      45.378  25.934  33.464  1.00  0.00     0.009 A 
ATOM     89  C   UNL A   1      44.340  23.498  32.596  1.00  0.00     0.001 A 
ATOM     90  C   UNL A   1      45.215  24.881  34.366  1.00  0.00     0.001 A 
ATOM     91  C   UNL A   1      44.692  23.664  33.933  1.00  0.00     0.000 A 
ENDBRANCH  73  86
ENDBRANCH  47  48
ENDBRANCH  40  42
ENDBRANCH  39  40
ENDBRANCH  38  39
ENDBRANCH  37  38
ENDBRANCH  36  37
ENDBRANCH  35  36
ENDBRANCH   1  35
TORSDOF 21
ENDMDL
MODEL 2
REMARK VINA RESULT:     -11.3      1.934      2.300
REMARK SMILES COc1cccc(-c2nn(-c3cc4c(cc3C(N)=O)OCO4)cc2C(=O)OCCOCCOCCOC(=O)c2ccc(-c3c4nc(c(-c5ccccc5)c5ccc([nH]5)c(-c5ccccc5)c5nc(c(-c6ccccc6)c6ccc3[nH]6)C=C5)C=C4)cc2)c1
REMARK SMILES IDX 31 1 30 2 29 3 28 4 27 5 25 6 26 7 24 8 8 9 9 10 10 11 23 12
REMARK SMILES IDX 7 13 3 14 4 15 87 16 5 17 6 18 2 19 1 20 11 21 12 22 16 23
REMARK SMILES IDX 13 24 15 25 14 26 22 27 20 28 21 29 17 30 18 31 19 32 32 35
REMARK SMILES IDX 33 36 34 37 35 38 36 39 37 40 38 41 39 42 40 43 86 44 41 45
REMARK SMILES IDX 85 46 42 47 43 48 44 49 79 50 45 51 84 52 78 53 80 54 46 55
REMARK SMILES IDX 83 56 77 57 76 58 47 60 69 61 54 62 68 63 55 64 58 65 67 66
REMARK SMILES IDX 81 67 56 68 57 69 66 71 82 72 59 73 48 74 49 75 53 76 50 77
REMARK SMILES IDX 52 78 51 79 70 80 71 81 75 82 72 83 74 84 73 85 60 86 61 87
REMARK SMILES IDX 65 88 62 89 64 90 63 91
REMARK H PARENT 18 33 18 34 80 59 58 70
REMARK Flexibility Score: inf
ROOT
ATOM      1  C   UNL A   1      41.081  21.387  27.341  1.00  0.00     0.188 C 
ENDROOT
BRANCH   1   2
ATOM      2  O   UNL A   1      39.817  20.983  26.871  1.00  0.00    -0.376 OA
BRANCH   2   3
ATOM      3  C   UNL A   1      39.250  21.671  25.769  1.00  0.00     0.202 C 
BRANCH   3   4
ATOM      4  C   UNL A   1      37.809  22.228  25.757  1.00  0.00     0.261 C 
BRANCH   4   5
ATOM      5  O   UNL A   1      36.918  21.781  24.735  1.00  0.00    -0.460 OA
BRANCH   5   6
ATOM      6  C   UNL A   1      36.500  22.708  23.818  1.00  0.00     0.342 C 
ATOM      7  O   UNL A   1      37.000  22.857  22.716  1.00  0.00    -0.246 OA
BRANCH   6   8
ATOM      8  C   UNL A   1      35.311  23.403  24.270  1.00  0.00     0.106 A 
ATOM      9  C   UNL A   1      33.950  22.983  24.260  1.00  0.00     0.107 A 
ATOM     10  N   UNL A   1      33.138  23.943  24.743  1.00  0.00    -0.167 NA
ATOM     11  N   UNL A   1      33.962  25.016  24.867  1.00  0.00    -0.239 N 
ATOM     12  C   UNL A   1      35.273  24.618  24.921  1.00  0.00     0.131 A 
BRANCH   9  13
ATOM     13  C   UNL A   1      33.450  21.667  23.890  1.00  0.00     0.007 A 
ATOM     14  C   UNL A   1      33.246  19.302  24.355  1.00  0.00     0.119 A 
ATOM     15  C   UNL A   1      32.346  19.176  23.293  1.00  0.00     0.046 A 
ATOM     16  C   UNL A   1      33.802  20.548  24.649  1.00  0.00     0.056 A 
ATOM     17  C   UNL A   1      32.000  20.285  22.523  1.00  0.00     0.005 A 
ATOM     18  C   UNL A   1      32.565  21.527  22.811  1.00  0.00     0.011 A 
BRANCH  14  19
ATOM     19  O   UNL A   1      33.549  18.136  25.004  1.00  0.00    -0.497 OA
ATOM     20  C   UNL A   1      32.428  17.359  25.410  1.00  0.00     0.278 C 
ENDBRANCH  14  19
ENDBRANCH   9  13
BRANCH  11  21
ATOM     21  C   UNL A   1      33.477  26.344  24.970  1.00  0.00     0.081 A 
ATOM     22  C   UNL A   1      33.246  26.868  26.259  1.00  0.00     0.079 A 
ATOM     23  C   UNL A   1      33.225  27.133  23.804  1.00  0.00     0.069 A 
ATOM     24  C   UNL A   1      32.847  28.185  26.347  1.00  0.00     0.167 A 
ATOM     25  C   UNL A   1      32.946  28.500  23.960  1.00  0.00     0.066 A 
ATOM     26  C   UNL A   1      32.737  28.980  25.233  1.00  0.00     0.166 A 
ATOM     27  O   UNL A   1      32.505  28.856  27.480  1.00  0.00    -0.454 OA
ATOM     28  O   UNL A   1      32.322  30.242  25.526  1.00  0.00    -0.454 OA
ATOM     29  C   UNL A   1      31.976  30.076  26.916  1.00  0.00     0.468 C 
BRANCH  23  30
ATOM     30  C   UNL A   1      32.974  26.505  22.453  1.00  0.00     0.251 C 
ATOM     31  N   UNL A   1      31.848  25.754  22.264  1.00  0.00    -0.366 N 
ATOM     32  O   UNL A   1      33.769  26.540  21.523  1.00  0.00    -0.269 OA
ATOM     33  H   UNL A   1      31.174  25.689  22.977  1.00  0.00     0.159 HD
ATOM     34  H   UNL A   1      31.713  25.276  21.413  1.00  0.00     0.159 HD
ENDBRANCH  23  30
ENDBRANCH  11  21
ENDBRANCH   6   8
ENDBRANCH   5   6
ENDBRANCH   4   5
ENDBRANCH   3   4
ENDBRANCH   2   3
ENDBRANCH   1   2
BRANCH   1  35
ATOM     35  C   UNL A   1      42.241  21.034  26.382  1.00  0.00     0.188 C 
BRANCH  35  36
ATOM     36  O   UNL A   1      42.251  19.846  25.598  1.00  0.00    -0.376 OA
BRANCH  36  37
ATOM     37  C   UNL A   1      43.392  19.008  25.518  1.00  0.00     0.202 C 
BRANCH  37  38
ATOM     38  C   UNL A   1      44.489  19.282  24.493  1.00  0.00     0.261 C 
BRANCH  38  39
ATOM     39  O   UNL A   1      45.307  20.387  24.814  1.00  0.00    -0.460 OA
BRANCH  39  40
ATOM     40  C   UNL A   1      44.994  21.518  24.158  1.00  0.00     0.338 C 
ATOM     41  O   UNL A   1      44.337  21.629  23.127  1.00  0.00    -0.246 OA
BRANCH  40  42
ATOM     42  C   UNL A   1      45.659  22.635  24.831  1.00  0.00     0.060 A 
ATOM     43  C   UNL A   1      46.054  22.402  26.148  1.00  0.00     0.016 A 
ATOM     44  C   UNL A   1      45.457  23.925  24.317  1.00  0.00     0.016 A 
ATOM     45  C   UNL A   1      45.885  23.427  27.041  1.00  0.00     0.010 A 
ATOM     46  C   UNL A   1      45.252  24.935  25.213  1.00  0.00     0.010 A 
ATOM     47  C   UNL A   1      45.352  24.628  26.565  1.00  0.00    -0.014 A 
BRANCH  47  48
ATOM     48  C   UNL A   1      44.912  25.597  27.532  1.00  0.00     0.031 A 
ATOM     49  C   UNL A   1      45.947  26.600  27.822  1.00  0.00     0.074 A 
ATOM     50  C   UNL A   1      43.659  25.607  28.020  1.00  0.00     0.049 A 
ATOM     51  N   UNL A   1      46.670  26.687  28.886  1.00  0.00    -0.248 NA
ATOM     52  C   UNL A   1      46.372  27.470  26.715  1.00  0.00     0.031 C 
ATOM     53  C   UNL A   1      42.488  24.850  27.569  1.00  0.00     0.029 A 
ATOM     54  N   UNL A   1      43.148  26.414  28.981  1.00  0.00    -0.354 N 
ATOM     55  C   UNL A   1      47.507  27.769  28.660  1.00  0.00     0.074 A 
ATOM     56  C   UNL A   1      47.451  28.042  27.247  1.00  0.00     0.031 C 
ATOM     57  C   UNL A   1      41.372  25.422  28.083  1.00  0.00     0.029 A 
ATOM     58  C   UNL A   1      41.765  26.489  28.991  1.00  0.00     0.049 A 
ATOM     59  H   UNL A   1      43.713  26.907  29.619  1.00  0.00     0.167 HD
ATOM     60  C   UNL A   1      47.923  28.557  29.686  1.00  0.00     0.031 A 
ATOM     61  C   UNL A   1      41.030  27.434  29.628  1.00  0.00     0.031 A 
ATOM     62  C   UNL A   1      47.742  27.911  30.962  1.00  0.00     0.049 A 
ATOM     63  C   UNL A   1      41.908  28.067  30.647  1.00  0.00     0.074 A 
ATOM     64  C   UNL A   1      48.194  26.732  31.525  1.00  0.00     0.029 A 
ATOM     65  N   UNL A   1      46.653  28.293  31.712  1.00  0.00    -0.354 N 
ATOM     66  N   UNL A   1      42.352  27.439  31.699  1.00  0.00    -0.248 NA
ATOM     67  C   UNL A   1      42.686  29.233  30.245  1.00  0.00     0.031 C 
ATOM     68  C   UNL A   1      47.085  26.228  32.265  1.00  0.00     0.029 A 
ATOM     69  C   UNL A   1      46.044  27.154  32.171  1.00  0.00     0.049 A 
ATOM     70  H   UNL A   1      46.364  29.218  31.887  1.00  0.00     0.167 HD
ATOM     71  C   UNL A   1      43.675  27.845  31.824  1.00  0.00     0.074 A 
ATOM     72  C   UNL A   1      43.798  29.015  30.954  1.00  0.00     0.031 C 
ATOM     73  C   UNL A   1      44.618  27.027  32.380  1.00  0.00     0.031 A 
BRANCH  60  74
ATOM     74  C   UNL A   1      48.043  30.053  29.547  1.00  0.00    -0.014 A 
ATOM     75  C   UNL A   1      49.282  30.651  29.821  1.00  0.00     0.009 A 
ATOM     76  C   UNL A   1      46.935  30.917  29.431  1.00  0.00     0.009 A 
ATOM     77  C   UNL A   1      49.387  32.028  30.045  1.00  0.00     0.001 A 
ATOM     78  C   UNL A   1      47.042  32.297  29.607  1.00  0.00     0.001 A 
ATOM     79  C   UNL A   1      48.266  32.849  29.945  1.00  0.00     0.000 A 
ENDBRANCH  60  74
BRANCH  61  80
ATOM     80  C   UNL A   1      39.767  28.062  29.171  1.00  0.00    -0.014 A 
ATOM     81  C   UNL A   1      38.669  28.190  30.036  1.00  0.00     0.009 A 
ATOM     82  C   UNL A   1      39.729  28.781  27.961  1.00  0.00     0.009 A 
ATOM     83  C   UNL A   1      37.591  29.029  29.714  1.00  0.00     0.001 A 
ATOM     84  C   UNL A   1      38.653  29.615  27.639  1.00  0.00     0.001 A 
ATOM     85  C   UNL A   1      37.589  29.749  28.523  1.00  0.00     0.000 A 
ENDBRANCH  61  80
BRANCH  73  86
ATOM     86  C   UNL A   1      44.153  25.755  33.049  1.00  0.00    -0.014 A 
ATOM     87  C   UNL A   1      44.241  24.490  32.439  1.00  0.00     0.009 A 
ATOM     88  C   UNL A   1      43.776  25.815  34.397  1.00  0.00     0.009 A 
ATOM     89  C   UNL A   1      43.938  23.326  33.155  1.00  0.00     0.001 A 
ATOM     90  C   UNL A   1      43.493  24.653  35.117  1.00  0.00     0.001 A 
ATOM     91  C   UNL A   1      43.570  23.409  34.495  1.00  0.00     0.000 A 
ENDBRANCH  73  86
ENDBRANCH  47  48
ENDBRANCH  40  42
ENDBRANCH  39  40
ENDBRANCH  38  39
ENDBRANCH  37  38
ENDBRANCH  36  37
ENDBRANCH  35  36
ENDBRANCH   1  35
TORSDOF 21
ENDMDL
MODEL 3
REMARK VINA RESULT:     -10.7      3.182      8.859
REMARK SMILES COc1cccc(-c2nn(-c3cc4c(cc3C(N)=O)OCO4)cc2C(=O)OCCOCCOCCOC(=O)c2ccc(-c3c4nc(c(-c5ccccc5)c5ccc([nH]5)c(-c5ccccc5)c5nc(c(-c6ccccc6)c6ccc3[nH]6)C=C5)C=C4)cc2)c1
REMARK SMILES IDX 31 1 30 2 29 3 28 4 27 5 25 6 26 7 24 8 8 9 9 10 10 11 23 12
REMARK SMILES IDX 7 13 3 14 4 15 87 16 5 17 6 18 2 19 1 20 11 21 12 22 16 23
REMARK SMILES IDX 13 24 15 25 14 26 22 27 20 28 21 29 17 30 18 31 19 32 32 35
REMARK SMILES IDX 33 36 34 37 35 38 36 39 37 40 38 41 39 42 40 43 86 44 41 45
REMARK SMILES IDX 85 46 42 47 43 48 44 49 79 50 45 51 84 52 78 53 80 54 46 55
REMARK SMILES IDX 83 56 77 57 76 58 47 60 69 61 54 62 68 63 55 64 58 65 67 66
REMARK SMILES IDX 81 67 56 68 57 69 66 71 82 72 59 73 48 74 49 75 53 76 50 77
REMARK SMILES IDX 52 78 51 79 70 80 71 81 75 82 72 83 74 84 73 85 60 86 61 87
REMARK SMILES IDX 65 88 62 89 64 90 63 91
REMARK H PARENT 18 33 18 34 80 59 58 70
REMARK Flexibility Score: inf
ROOT
ATOM      1  C   UNL A   1      34.057  30.953  28.030  1.00  0.00     0.188 C 
ENDROOT
BRANCH   1   2
ATOM      2  O   UNL A   1      34.633  30.147  27.030  1.00  0.00    -0.376 OA
BRANCH   2   3
ATOM      3  C   UNL A   1      34.116  28.842  26.827  1.00  0.00     0.202 C 
BRANCH   3   4
ATOM      4  C   UNL A   1      34.122  28.122  25.460  1.00  0.00     0.261 C 
BRANCH   4   5
ATOM      5  O   UNL A   1      33.013  28.321  24.584  1.00  0.00    -0.460 OA
BRANCH   5   6
ATOM      6  C   UNL A   1      33.069  27.723  23.354  1.00  0.00     0.342 C 
ATOM      7  O   UNL A   1      33.758  28.120  22.429  1.00  0.00    -0.246 OA
BRANCH   6   8
ATOM      8  C   UNL A   1      32.307  26.491  23.328  1.00  0.00     0.106 A 
ATOM      9  C   UNL A   1      30.896  26.292  23.283  1.00  0.00     0.107 A 
ATOM     10  N   UNL A   1      30.586  24.982  23.303  1.00  0.00    -0.167 NA
ATOM     11  N   UNL A   1      31.778  24.382  23.557  1.00  0.00    -0.239 N 
ATOM     12  C   UNL A   1      32.819  25.214  23.233  1.00  0.00     0.131 A 
BRANCH   9  13
ATOM     13  C   UNL A   1      29.879  27.322  23.127  1.00  0.00     0.007 A 
ATOM     14  C   UNL A   1      29.146  29.401  22.132  1.00  0.00     0.119 A 
ATOM     15  C   UNL A   1      27.873  29.205  22.674  1.00  0.00     0.046 A 
ATOM     16  C   UNL A   1      30.151  28.460  22.363  1.00  0.00     0.056 A 
ATOM     17  C   UNL A   1      27.598  28.078  23.447  1.00  0.00     0.005 A 
ATOM     18  C   UNL A   1      28.606  27.146  23.688  1.00  0.00     0.011 A 
BRANCH  14  19
ATOM     19  O   UNL A   1      29.310  30.567  21.436  1.00  0.00    -0.497 OA
ATOM     20  C   UNL A   1      28.106  31.245  21.095  1.00  0.00     0.278 C 
ENDBRANCH  14  19
ENDBRANCH   9  13
BRANCH  11  21
ATOM     21  C   UNL A   1      31.877  23.055  24.045  1.00  0.00     0.081 A 
ATOM     22  C   UNL A   1      32.076  22.017  23.112  1.00  0.00     0.079 A 
ATOM     23  C   UNL A   1      31.778  22.771  25.443  1.00  0.00     0.069 A 
ATOM     24  C   UNL A   1      32.246  20.742  23.605  1.00  0.00     0.167 A 
ATOM     25  C   UNL A   1      32.087  21.478  25.895  1.00  0.00     0.066 A 
ATOM     26  C   UNL A   1      32.285  20.492  24.955  1.00  0.00     0.166 A 
ATOM     27  O   UNL A   1      32.377  19.599  22.878  1.00  0.00    -0.454 OA
ATOM     28  O   UNL A   1      32.451  19.171  25.241  1.00  0.00    -0.454 OA
ATOM     29  C   UNL A   1      32.290  18.607  23.924  1.00  0.00     0.468 C 
BRANCH  23  30
ATOM     30  C   UNL A   1      31.092  23.715  26.404  1.00  0.00     0.251 C 
ATOM     31  N   UNL A   1      29.749  23.933  26.282  1.00  0.00    -0.366 N 
ATOM     32  O   UNL A   1      31.680  24.387  27.240  1.00  0.00    -0.269 OA
ATOM     33  H   UNL A   1      29.224  23.421  25.625  1.00  0.00     0.159 HD
ATOM     34  H   UNL A   1      29.306  24.604  26.851  1.00  0.00     0.159 HD
ENDBRANCH  23  30
ENDBRANCH  11  21
ENDBRANCH   6   8
ENDBRANCH   5   6
ENDBRANCH   4   5
ENDBRANCH   3   4
ENDBRANCH   2   3
ENDBRANCH   1   2
BRANCH   1  35
ATOM     35  C   UNL A   1      34.032  32.458  27.676  1.00  0.00     0.188 C 
BRANCH  35  36
ATOM     36  O   UNL A   1      33.827  33.469  28.656  1.00  0.00    -0.376 OA
BRANCH  36  37
ATOM     37  C   UNL A   1      34.885  34.296  29.116  1.00  0.00     0.202 C 
BRANCH  37  38
ATOM     38  C   UNL A   1      35.842  33.805  30.198  1.00  0.00     0.261 C 
BRANCH  38  39
ATOM     39  O   UNL A   1      36.763  32.834  29.748  1.00  0.00    -0.460 OA
BRANCH  39  40
ATOM     40  C   UNL A   1      38.050  33.212  29.825  1.00  0.00     0.338 C 
ATOM     41  O   UNL A   1      38.597  34.136  29.230  1.00  0.00    -0.246 OA
BRANCH  40  42
ATOM     42  C   UNL A   1      38.754  32.263  30.690  1.00  0.00     0.060 A 
ATOM     43  C   UNL A   1      40.142  32.395  30.732  1.00  0.00     0.016 A 
ATOM     44  C   UNL A   1      38.095  31.074  31.032  1.00  0.00     0.016 A 
ATOM     45  C   UNL A   1      40.878  31.240  30.755  1.00  0.00     0.010 A 
ATOM     46  C   UNL A   1      38.827  29.920  31.016  1.00  0.00     0.010 A 
ATOM     47  C   UNL A   1      40.188  30.024  30.755  1.00  0.00    -0.014 A 
BRANCH  47  48
ATOM     48  C   UNL A   1      40.940  28.826  30.496  1.00  0.00     0.031 A 
ATOM     49  C   UNL A   1      41.601  28.314  31.704  1.00  0.00     0.074 A 
ATOM     50  C   UNL A   1      40.935  28.222  29.294  1.00  0.00     0.049 A 
ATOM     51  N   UNL A   1      42.857  28.376  31.990  1.00  0.00    -0.248 NA
ATOM     52  C   UNL A   1      40.738  27.879  32.812  1.00  0.00     0.031 C 
ATOM     53  C   UNL A   1      40.077  28.481  28.135  1.00  0.00     0.029 A 
ATOM     54  N   UNL A   1      41.652  27.140  28.906  1.00  0.00    -0.354 N 
ATOM     55  C   UNL A   1      42.967  27.789  33.241  1.00  0.00     0.074 A 
ATOM     56  C   UNL A   1      41.635  27.734  33.786  1.00  0.00     0.031 C 
ATOM     57  C   UNL A   1      40.154  27.426  27.288  1.00  0.00     0.029 A 
ATOM     58  C   UNL A   1      41.156  26.496  27.785  1.00  0.00     0.049 A 
ATOM     59  H   UNL A   1      42.459  26.837  29.382  1.00  0.00     0.167 HD
ATOM     60  C   UNL A   1      44.084  27.100  33.594  1.00  0.00     0.031 A 
ATOM     61  C   UNL A   1      41.492  25.246  27.379  1.00  0.00     0.031 A 
ATOM     62  C   UNL A   1      45.197  27.411  32.732  1.00  0.00     0.049 A 
ATOM     63  C   UNL A   1      42.771  24.889  28.050  1.00  0.00     0.074 A 
ATOM     64  C   UNL A   1      45.871  28.571  32.398  1.00  0.00     0.029 A 
ATOM     65  N   UNL A   1      45.501  26.501  31.745  1.00  0.00    -0.354 N 
ATOM     66  N   UNL A   1      43.904  25.479  27.791  1.00  0.00    -0.248 NA
ATOM     67  C   UNL A   1      42.695  24.229  29.348  1.00  0.00     0.031 C 
ATOM     68  C   UNL A   1      46.147  28.449  31.005  1.00  0.00     0.029 A 
ATOM     69  C   UNL A   1      45.691  27.200  30.580  1.00  0.00     0.049 A 
ATOM     70  H   UNL A   1      45.570  25.526  31.855  1.00  0.00     0.167 HD
ATOM     71  C   UNL A   1      44.510  25.646  29.030  1.00  0.00     0.074 A 
ATOM     72  C   UNL A   1      43.760  24.781  29.940  1.00  0.00     0.031 C 
ATOM     73  C   UNL A   1      45.362  26.688  29.267  1.00  0.00     0.031 A 
BRANCH  60  74
ATOM     74  C   UNL A   1      44.018  25.830  34.403  1.00  0.00    -0.014 A 
ATOM     75  C   UNL A   1      44.494  25.854  35.722  1.00  0.00     0.009 A 
ATOM     76  C   UNL A   1      43.770  24.560  33.842  1.00  0.00     0.009 A 
ATOM     77  C   UNL A   1      44.780  24.669  36.409  1.00  0.00     0.001 A 
ATOM     78  C   UNL A   1      44.010  23.376  34.540  1.00  0.00     0.001 A 
ATOM     79  C   UNL A   1      44.545  23.432  35.815  1.00  0.00     0.000 A 
ENDBRANCH  60  74
BRANCH  61  80
ATOM     80  C   UNL A   1      40.613  24.226  26.759  1.00  0.00    -0.014 A 
ATOM     81  C   UNL A   1      41.058  22.909  26.564  1.00  0.00     0.009 A 
ATOM     82  C   UNL A   1      39.236  24.477  26.601  1.00  0.00     0.009 A 
ATOM     83  C   UNL A   1      40.156  21.880  26.254  1.00  0.00     0.001 A 
ATOM     84  C   UNL A   1      38.337  23.452  26.289  1.00  0.00     0.001 A 
ATOM     85  C   UNL A   1      38.795  22.150  26.129  1.00  0.00     0.000 A 
ENDBRANCH  61  80
BRANCH  73  86
ATOM     86  C   UNL A   1      45.797  27.534  28.094  1.00  0.00    -0.014 A 
ATOM     87  C   UNL A   1      45.019  28.585  27.574  1.00  0.00     0.009 A 
ATOM     88  C   UNL A   1      47.103  27.375  27.612  1.00  0.00     0.009 A 
ATOM     89  C   UNL A   1      45.531  29.435  26.586  1.00  0.00     0.001 A 
ATOM     90  C   UNL A   1      47.621  28.235  26.641  1.00  0.00     0.001 A 
ATOM     91  C   UNL A   1      46.834  29.262  26.125  1.00  0.00     0.000 A 
ENDBRANCH  73  86
ENDBRANCH  47  48
ENDBRANCH  40  42
ENDBRANCH  39  40
ENDBRANCH  38  39
ENDBRANCH  37  38
ENDBRANCH  36  37
ENDBRANCH  35  36
ENDBRANCH   1  35
TORSDOF 21
ENDMDL
