MODEL 1
REMARK VINA RESULT:      -9.2      0.000      0.000
REMARK SMILES COC(=O)c1cscc1NS(=O)(=O)c1cc(C)c(C(=O)OCCOCCOCCOC(=O)c2ccc(-c3c4nc(c(-c5ccccc5)c5ccc([nH]5)c(-c5ccccc5)c5nc(c(-c6ccccc6)c6ccc3[nH]6)C=C5)C=C4)cc2)s1
REMARK SMILES IDX 24 1 23 2 22 3 21 4 19 5 20 6 18 7 14 8 15 9 81 10 16 11
REMARK SMILES IDX 17 12 11 13 12 14 13 15 10 16 9 18 5 19 6 20 7 21 8 22 3 23
REMARK SMILES IDX 4 24 2 25 1 26 25 27 26 28 27 29 28 30 29 31 30 32 31 33
REMARK SMILES IDX 32 34 33 35 34 36 80 37 35 38 79 39 36 40 37 41 38 42 73 43
REMARK SMILES IDX 39 44 78 45 72 46 74 47 40 48 77 49 71 50 70 51 41 53 63 54
REMARK SMILES IDX 48 55 62 56 49 57 52 58 61 59 75 60 50 61 51 62 60 64 76 65
REMARK SMILES IDX 53 66 42 67 43 68 47 69 44 70 46 71 45 72 64 73 65 74 69 75
REMARK SMILES IDX 66 76 68 77 67 78 54 79 55 80 59 81 56 82 58 83 57 84
REMARK H PARENT 10 17 74 52 52 63
REMARK Flexibility Score: inf
ROOT
ATOM      1  O   UNL A   1      35.319  32.116  27.690  1.00  0.00    -0.376 OA
ENDROOT
BRANCH   1   2
ATOM      2  C   UNL A   1      35.558  30.714  27.624  1.00  0.00     0.202 C 
BRANCH   2   3
ATOM      3  C   UNL A   1      34.380  29.765  27.343  1.00  0.00     0.261 C 
BRANCH   3   4
ATOM      4  O   UNL A   1      33.590  30.111  26.189  1.00  0.00    -0.459 OA
BRANCH   4   5
ATOM      5  C   UNL A   1      32.316  29.615  26.151  1.00  0.00     0.348 C 
ATOM      6  O   UNL A   1      31.509  29.730  27.071  1.00  0.00    -0.245 OA
BRANCH   5   7
ATOM      7  C   UNL A   1      32.022  29.058  24.834  1.00  0.00     0.116 A 
ATOM      8  C   UNL A   1      32.077  27.466  22.919  1.00  0.00     0.141 A 
ATOM      9  C   UNL A   1      30.984  28.314  22.882  1.00  0.00     0.038 A 
ATOM     10  S   UNL A   1      33.151  27.940  24.164  1.00  0.00    -0.115 S 
ATOM     11  C   UNL A   1      30.961  29.272  23.959  1.00  0.00    -0.024 A 
ATOM     12  C   UNL A   1      29.903  30.322  24.096  1.00  0.00     0.046 C 
BRANCH   8  13
ATOM     13  S   UNL A   1      32.561  26.092  21.874  1.00  0.00     0.271 S 
ATOM     14  O   UNL A   1      33.954  26.292  21.541  1.00  0.00    -0.200 OA
ATOM     15  O   UNL A   1      31.547  26.080  20.839  1.00  0.00    -0.200 OA
BRANCH  13  16
ATOM     16  N   UNL A   1      32.423  24.587  22.674  1.00  0.00    -0.277 N 
ATOM     17  H   UNL A   1      31.849  23.892  22.281  1.00  0.00     0.180 HD
BRANCH  16  18
ATOM     18  C   UNL A   1      33.105  24.305  23.879  1.00  0.00     0.074 A 
ATOM     19  C   UNL A   1      32.461  23.898  25.109  1.00  0.00     0.094 A 
ATOM     20  C   UNL A   1      33.406  23.568  26.070  1.00  0.00     0.082 A 
ATOM     21  S   UNL A   1      35.003  23.823  25.534  1.00  0.00    -0.149 S 
ATOM     22  C   UNL A   1      34.443  24.540  24.102  1.00  0.00     0.092 A 
BRANCH  19  23
ATOM     23  C   UNL A   1      31.028  23.830  25.369  1.00  0.00     0.340 C 
ATOM     24  O   UNL A   1      30.499  22.858  25.906  1.00  0.00    -0.246 OA
BRANCH  23  25
ATOM     25  O   UNL A   1      30.366  24.910  24.869  1.00  0.00    -0.465 OA
ATOM     26  C   UNL A   1      30.129  26.015  25.745  1.00  0.00     0.282 C 
ENDBRANCH  23  25
ENDBRANCH  19  23
ENDBRANCH  16  18
ENDBRANCH  13  16
ENDBRANCH   8  13
ENDBRANCH   5   7
ENDBRANCH   4   5
ENDBRANCH   3   4
ENDBRANCH   2   3
ENDBRANCH   1   2
BRANCH   1  27
ATOM     27  C   UNL A   1      34.602  32.652  28.798  1.00  0.00     0.188 C 
BRANCH  27  28
ATOM     28  C   UNL A   1      33.676  33.867  28.592  1.00  0.00     0.188 C 
BRANCH  28  29
ATOM     29  O   UNL A   1      34.368  35.087  28.430  1.00  0.00    -0.376 OA
BRANCH  29  30
ATOM     30  C   UNL A   1      33.697  36.278  28.814  1.00  0.00     0.202 C 
BRANCH  30  31
ATOM     31  C   UNL A   1      32.620  36.231  29.917  1.00  0.00     0.261 C 
BRANCH  31  32
ATOM     32  O   UNL A   1      33.055  36.461  31.266  1.00  0.00    -0.460 OA
BRANCH  32  33
ATOM     33  C   UNL A   1      32.813  35.483  32.167  1.00  0.00     0.338 C 
ATOM     34  O   UNL A   1      31.730  35.148  32.613  1.00  0.00    -0.246 OA
BRANCH  33  35
ATOM     35  C   UNL A   1      34.075  34.748  32.397  1.00  0.00     0.060 A 
ATOM     36  C   UNL A   1      34.016  33.494  33.013  1.00  0.00     0.016 A 
ATOM     37  C   UNL A   1      35.308  35.291  32.023  1.00  0.00     0.016 A 
ATOM     38  C   UNL A   1      35.194  32.785  33.259  1.00  0.00     0.010 A 
ATOM     39  C   UNL A   1      36.489  34.583  32.283  1.00  0.00     0.010 A 
ATOM     40  C   UNL A   1      36.440  33.328  32.908  1.00  0.00    -0.014 A 
BRANCH  40  41
ATOM     41  C   UNL A   1      37.683  32.637  33.337  1.00  0.00     0.031 A 
ATOM     42  C   UNL A   1      38.325  31.662  32.394  1.00  0.00     0.074 A 
ATOM     43  C   UNL A   1      38.264  32.898  34.523  1.00  0.00     0.049 A 
ATOM     44  N   UNL A   1      39.429  30.972  32.536  1.00  0.00    -0.248 NA
ATOM     45  C   UNL A   1      37.621  31.423  31.124  1.00  0.00     0.031 C 
ATOM     46  C   UNL A   1      37.758  33.833  35.522  1.00  0.00     0.029 A 
ATOM     47  N   UNL A   1      39.434  32.426  35.070  1.00  0.00    -0.354 N 
ATOM     48  C   UNL A   1      39.537  30.201  31.387  1.00  0.00     0.074 A 
ATOM     49  C   UNL A   1      38.396  30.514  30.555  1.00  0.00     0.031 C 
ATOM     50  C   UNL A   1      38.650  33.931  36.523  1.00  0.00     0.029 A 
ATOM     51  C   UNL A   1      39.751  33.001  36.278  1.00  0.00     0.049 A 
ATOM     52  H   UNL A   1      39.992  31.741  34.636  1.00  0.00     0.167 HD
ATOM     53  C   UNL A   1      40.486  29.290  31.066  1.00  0.00     0.031 A 
ATOM     54  C   UNL A   1      40.801  32.789  37.099  1.00  0.00     0.031 A 
ATOM     55  C   UNL A   1      41.594  28.936  31.911  1.00  0.00     0.049 A 
ATOM     56  C   UNL A   1      41.815  31.734  36.738  1.00  0.00     0.074 A 
ATOM     57  C   UNL A   1      42.587  28.000  31.681  1.00  0.00     0.029 A 
ATOM     58  N   UNL A   1      41.845  29.490  33.156  1.00  0.00    -0.354 N 
ATOM     59  N   UNL A   1      41.912  31.016  35.645  1.00  0.00    -0.248 NA
ATOM     60  C   UNL A   1      42.852  31.442  37.741  1.00  0.00     0.031 C 
ATOM     61  C   UNL A   1      43.407  27.948  32.812  1.00  0.00     0.029 A 
ATOM     62  C   UNL A   1      42.964  28.900  33.716  1.00  0.00     0.049 A 
ATOM     63  H   UNL A   1      41.308  30.199  33.579  1.00  0.00     0.167 HD
ATOM     64  C   UNL A   1      43.019  30.195  35.827  1.00  0.00     0.074 A 
ATOM     65  C   UNL A   1      43.583  30.528  37.118  1.00  0.00     0.031 C 
ATOM     66  C   UNL A   1      43.518  29.241  35.001  1.00  0.00     0.031 A 
BRANCH  53  67
ATOM     67  C   UNL A   1      40.310  28.555  29.768  1.00  0.00    -0.014 A 
ATOM     68  C   UNL A   1      40.792  29.078  28.558  1.00  0.00     0.009 A 
ATOM     69  C   UNL A   1      39.651  27.315  29.761  1.00  0.00     0.009 A 
ATOM     70  C   UNL A   1      40.583  28.389  27.361  1.00  0.00     0.001 A 
ATOM     71  C   UNL A   1      39.469  26.617  28.568  1.00  0.00     0.001 A 
ATOM     72  C   UNL A   1      39.926  27.159  27.368  1.00  0.00     0.000 A 
ENDBRANCH  53  67
BRANCH  54  73
ATOM     73  C   UNL A   1      40.938  33.551  38.372  1.00  0.00    -0.014 A 
ATOM     74  C   UNL A   1      41.699  34.731  38.421  1.00  0.00     0.009 A 
ATOM     75  C   UNL A   1      40.352  33.080  39.557  1.00  0.00     0.009 A 
ATOM     76  C   UNL A   1      41.889  35.405  39.631  1.00  0.00     0.001 A 
ATOM     77  C   UNL A   1      40.514  33.775  40.758  1.00  0.00     0.001 A 
ATOM     78  C   UNL A   1      41.291  34.930  40.796  1.00  0.00     0.000 A 
ENDBRANCH  54  73
BRANCH  66  79
ATOM     79  C   UNL A   1      44.754  28.509  35.449  1.00  0.00    -0.014 A 
ATOM     80  C   UNL A   1      44.673  27.306  36.167  1.00  0.00     0.009 A 
ATOM     81  C   UNL A   1      46.019  29.003  35.092  1.00  0.00     0.009 A 
ATOM     82  C   UNL A   1      45.836  26.628  36.543  1.00  0.00     0.001 A 
ATOM     83  C   UNL A   1      47.178  28.308  35.444  1.00  0.00     0.001 A 
ATOM     84  C   UNL A   1      47.085  27.126  36.176  1.00  0.00     0.000 A 
ENDBRANCH  66  79
ENDBRANCH  40  41
ENDBRANCH  33  35
ENDBRANCH  32  33
ENDBRANCH  31  32
ENDBRANCH  30  31
ENDBRANCH  29  30
ENDBRANCH  28  29
ENDBRANCH  27  28
ENDBRANCH   1  27
TORSDOF 22
ENDMDL
MODEL 2
REMARK VINA RESULT:      -8.9      5.272     11.036
REMARK SMILES COC(=O)c1cscc1NS(=O)(=O)c1cc(C)c(C(=O)OCCOCCOCCOC(=O)c2ccc(-c3c4nc(c(-c5ccccc5)c5ccc([nH]5)c(-c5ccccc5)c5nc(c(-c6ccccc6)c6ccc3[nH]6)C=C5)C=C4)cc2)s1
REMARK SMILES IDX 24 1 23 2 22 3 21 4 19 5 20 6 18 7 14 8 15 9 81 10 16 11
REMARK SMILES IDX 17 12 11 13 12 14 13 15 10 16 9 18 5 19 6 20 7 21 8 22 3 23
REMARK SMILES IDX 4 24 2 25 1 26 25 27 26 28 27 29 28 30 29 31 30 32 31 33
REMARK SMILES IDX 32 34 33 35 34 36 80 37 35 38 79 39 36 40 37 41 38 42 73 43
REMARK SMILES IDX 39 44 78 45 72 46 74 47 40 48 77 49 71 50 70 51 41 53 63 54
REMARK SMILES IDX 48 55 62 56 49 57 52 58 61 59 75 60 50 61 51 62 60 64 76 65
REMARK SMILES IDX 53 66 42 67 43 68 47 69 44 70 46 71 45 72 64 73 65 74 69 75
REMARK SMILES IDX 66 76 68 77 67 78 54 79 55 80 59 81 56 82 58 83 57 84
REMARK H PARENT 10 17 74 52 52 63
REMARK Flexibility Score: inf
ROOT
ATOM      1  O   UNL A   1      42.263  21.427  27.605  1.00  0.00    -0.376 OA
ENDROOT
BRANCH   1   2
ATOM      2  C   UNL A   1      42.145  22.784  28.023  1.00  0.00     0.202 C 
BRANCH   2   3
ATOM      3  C   UNL A   1      40.983  23.636  27.487  1.00  0.00     0.261 C 
BRANCH   3   4
ATOM      4  O   UNL A   1      40.836  24.921  28.118  1.00  0.00    -0.459 OA
BRANCH   4   5
ATOM      5  C   UNL A   1      39.787  25.693  27.698  1.00  0.00     0.348 C 
ATOM      6  O   UNL A   1      38.900  25.290  26.948  1.00  0.00    -0.245 OA
BRANCH   5   7
ATOM      7  C   UNL A   1      39.808  26.992  28.362  1.00  0.00     0.116 A 
ATOM      8  C   UNL A   1      39.760  28.656  30.215  1.00  0.00     0.141 A 
ATOM      9  C   UNL A   1      40.308  29.164  29.051  1.00  0.00     0.038 A 
ATOM     10  S   UNL A   1      39.096  27.105  29.928  1.00  0.00    -0.115 S 
ATOM     11  C   UNL A   1      40.303  28.228  27.955  1.00  0.00    -0.024 A 
ATOM     12  C   UNL A   1      40.797  28.570  26.585  1.00  0.00     0.046 C 
BRANCH   8  13
ATOM     13  S   UNL A   1      39.565  29.360  31.853  1.00  0.00     0.271 S 
ATOM     14  O   UNL A   1      40.489  30.470  31.942  1.00  0.00    -0.200 OA
ATOM     15  O   UNL A   1      39.696  28.215  32.731  1.00  0.00    -0.200 OA
BRANCH  13  16
ATOM     16  N   UNL A   1      37.988  29.966  32.115  1.00  0.00    -0.277 N 
ATOM     17  H   UNL A   1      37.343  29.412  32.610  1.00  0.00     0.180 HD
BRANCH  16  18
ATOM     18  C   UNL A   1      37.578  31.235  31.650  1.00  0.00     0.074 A 
ATOM     19  C   UNL A   1      37.249  32.356  32.504  1.00  0.00     0.094 A 
ATOM     20  C   UNL A   1      37.012  33.495  31.748  1.00  0.00     0.082 A 
ATOM     21  S   UNL A   1      37.097  33.199  30.073  1.00  0.00    -0.149 S 
ATOM     22  C   UNL A   1      37.267  31.533  30.342  1.00  0.00     0.092 A 
BRANCH  19  23
ATOM     23  C   UNL A   1      37.157  32.352  33.959  1.00  0.00     0.340 C 
ATOM     24  O   UNL A   1      36.171  32.776  34.560  1.00  0.00    -0.246 OA
BRANCH  23  25
ATOM     25  O   UNL A   1      38.306  31.916  34.544  1.00  0.00    -0.465 OA
ATOM     26  C   UNL A   1      38.216  31.333  35.847  1.00  0.00     0.282 C 
ENDBRANCH  23  25
ENDBRANCH  19  23
ENDBRANCH  16  18
ENDBRANCH  13  16
ENDBRANCH   8  13
ENDBRANCH   5   7
ENDBRANCH   4   5
ENDBRANCH   3   4
ENDBRANCH   2   3
ENDBRANCH   1   2
BRANCH   1  27
ATOM     27  C   UNL A   1      42.307  21.126  26.215  1.00  0.00     0.188 C 
BRANCH  27  28
ATOM     28  C   UNL A   1      43.456  20.261  25.657  1.00  0.00     0.188 C 
BRANCH  28  29
ATOM     29  O   UNL A   1      44.120  20.844  24.554  1.00  0.00    -0.376 OA
BRANCH  29  30
ATOM     30  C   UNL A   1      45.416  21.379  24.780  1.00  0.00     0.202 C 
BRANCH  30  31
ATOM     31  C   UNL A   1      45.598  22.576  25.734  1.00  0.00     0.261 C 
BRANCH  31  32
ATOM     32  O   UNL A   1      44.941  23.803  25.379  1.00  0.00    -0.460 OA
BRANCH  32  33
ATOM     33  C   UNL A   1      45.710  24.911  25.291  1.00  0.00     0.338 C 
ATOM     34  O   UNL A   1      46.476  25.203  24.391  1.00  0.00    -0.246 OA
BRANCH  33  35
ATOM     35  C   UNL A   1      45.334  25.819  26.396  1.00  0.00     0.060 A 
ATOM     36  C   UNL A   1      43.978  25.990  26.690  1.00  0.00     0.016 A 
ATOM     37  C   UNL A   1      46.305  26.508  27.129  1.00  0.00     0.016 A 
ATOM     38  C   UNL A   1      43.593  26.856  27.716  1.00  0.00     0.010 A 
ATOM     39  C   UNL A   1      45.916  27.386  28.149  1.00  0.00     0.010 A 
ATOM     40  C   UNL A   1      44.557  27.570  28.446  1.00  0.00    -0.014 A 
BRANCH  40  41
ATOM     41  C   UNL A   1      44.117  28.611  29.409  1.00  0.00     0.031 A 
ATOM     42  C   UNL A   1      43.850  28.208  30.830  1.00  0.00     0.074 A 
ATOM     43  C   UNL A   1      43.997  29.903  29.049  1.00  0.00     0.049 A 
ATOM     44  N   UNL A   1      43.495  28.948  31.850  1.00  0.00    -0.248 NA
ATOM     45  C   UNL A   1      43.990  26.777  31.139  1.00  0.00     0.031 C 
ATOM     46  C   UNL A   1      44.244  30.431  27.711  1.00  0.00     0.029 A 
ATOM     47  N   UNL A   1      43.677  31.013  29.793  1.00  0.00    -0.354 N 
ATOM     48  C   UNL A   1      43.346  28.069  32.914  1.00  0.00     0.074 A 
ATOM     49  C   UNL A   1      43.658  26.745  32.420  1.00  0.00     0.031 C 
ATOM     50  C   UNL A   1      44.147  31.771  27.745  1.00  0.00     0.029 A 
ATOM     51  C   UNL A   1      43.748  32.191  29.087  1.00  0.00     0.049 A 
ATOM     52  H   UNL A   1      43.422  30.969  30.742  1.00  0.00     0.167 HD
ATOM     53  C   UNL A   1      42.954  28.335  34.183  1.00  0.00     0.031 A 
ATOM     54  C   UNL A   1      43.503  33.460  29.475  1.00  0.00     0.031 A 
ATOM     55  C   UNL A   1      42.593  29.639  34.667  1.00  0.00     0.049 A 
ATOM     56  C   UNL A   1      43.022  33.719  30.880  1.00  0.00     0.074 A 
ATOM     57  C   UNL A   1      42.153  29.997  35.929  1.00  0.00     0.029 A 
ATOM     58  N   UNL A   1      42.612  30.796  33.906  1.00  0.00    -0.354 N 
ATOM     59  N   UNL A   1      42.892  32.881  31.880  1.00  0.00    -0.248 NA
ATOM     60  C   UNL A   1      42.627  35.100  31.201  1.00  0.00     0.031 C 
ATOM     61  C   UNL A   1      41.851  31.362  35.915  1.00  0.00     0.029 A 
ATOM     62  C   UNL A   1      42.169  31.866  34.664  1.00  0.00     0.049 A 
ATOM     63  H   UNL A   1      42.898  30.850  32.965  1.00  0.00     0.167 HD
ATOM     64  C   UNL A   1      42.408  33.633  32.945  1.00  0.00     0.074 A 
ATOM     65  C   UNL A   1      42.301  35.000  32.482  1.00  0.00     0.031 C 
ATOM     66  C   UNL A   1      42.070  33.223  34.193  1.00  0.00     0.031 A 
BRANCH  53  67
ATOM     67  C   UNL A   1      42.823  27.162  35.113  1.00  0.00    -0.014 A 
ATOM     68  C   UNL A   1      41.650  26.393  35.162  1.00  0.00     0.009 A 
ATOM     69  C   UNL A   1      43.896  26.825  35.953  1.00  0.00     0.009 A 
ATOM     70  C   UNL A   1      41.543  25.329  36.061  1.00  0.00     0.001 A 
ATOM     71  C   UNL A   1      43.796  25.746  36.830  1.00  0.00     0.001 A 
ATOM     72  C   UNL A   1      42.616  25.005  36.891  1.00  0.00     0.000 A 
ENDBRANCH  53  67
BRANCH  54  73
ATOM     73  C   UNL A   1      43.659  34.593  28.519  1.00  0.00    -0.014 A 
ATOM     74  C   UNL A   1      44.892  35.251  28.385  1.00  0.00     0.009 A 
ATOM     75  C   UNL A   1      42.565  35.055  27.771  1.00  0.00     0.009 A 
ATOM     76  C   UNL A   1      45.018  36.361  27.544  1.00  0.00     0.001 A 
ATOM     77  C   UNL A   1      42.703  36.141  26.904  1.00  0.00     0.001 A 
ATOM     78  C   UNL A   1      43.925  36.801  26.800  1.00  0.00     0.000 A 
ENDBRANCH  54  73
BRANCH  66  79
ATOM     79  C   UNL A   1      41.585  34.268  35.162  1.00  0.00    -0.014 A 
ATOM     80  C   UNL A   1      42.462  34.900  36.057  1.00  0.00     0.009 A 
ATOM     81  C   UNL A   1      40.240  34.669  35.132  1.00  0.00     0.009 A 
ATOM     82  C   UNL A   1      41.993  35.891  36.924  1.00  0.00     0.001 A 
ATOM     83  C   UNL A   1      39.782  35.680  35.978  1.00  0.00     0.001 A 
ATOM     84  C   UNL A   1      40.656  36.283  36.879  1.00  0.00     0.000 A 
ENDBRANCH  66  79
ENDBRANCH  40  41
ENDBRANCH  33  35
ENDBRANCH  32  33
ENDBRANCH  31  32
ENDBRANCH  30  31
ENDBRANCH  29  30
ENDBRANCH  28  29
ENDBRANCH  27  28
ENDBRANCH   1  27
TORSDOF 22
ENDMDL
MODEL 3
REMARK VINA RESULT:      -8.8      1.692      2.249
REMARK SMILES COC(=O)c1cscc1NS(=O)(=O)c1cc(C)c(C(=O)OCCOCCOCCOC(=O)c2ccc(-c3c4nc(c(-c5ccccc5)c5ccc([nH]5)c(-c5ccccc5)c5nc(c(-c6ccccc6)c6ccc3[nH]6)C=C5)C=C4)cc2)s1
REMARK SMILES IDX 24 1 23 2 22 3 21 4 19 5 20 6 18 7 14 8 15 9 81 10 16 11
REMARK SMILES IDX 17 12 11 13 12 14 13 15 10 16 9 18 5 19 6 20 7 21 8 22 3 23
REMARK SMILES IDX 4 24 2 25 1 26 25 27 26 28 27 29 28 30 29 31 30 32 31 33
REMARK SMILES IDX 32 34 33 35 34 36 80 37 35 38 79 39 36 40 37 41 38 42 73 43
REMARK SMILES IDX 39 44 78 45 72 46 74 47 40 48 77 49 71 50 70 51 41 53 63 54
REMARK SMILES IDX 48 55 62 56 49 57 52 58 61 59 75 60 50 61 51 62 60 64 76 65
REMARK SMILES IDX 53 66 42 67 43 68 47 69 44 70 46 71 45 72 64 73 65 74 69 75
REMARK SMILES IDX 66 76 68 77 67 78 54 79 55 80 59 81 56 82 58 83 57 84
REMARK H PARENT 10 17 74 52 52 63
REMARK Flexibility Score: inf
ROOT
ATOM      1  O   UNL A   1      34.296  31.535  27.384  1.00  0.00    -0.376 OA
ENDROOT
BRANCH   1   2
ATOM      2  C   UNL A   1      33.745  30.255  27.090  1.00  0.00     0.202 C 
BRANCH   2   3
ATOM      3  C   UNL A   1      32.790  30.107  25.894  1.00  0.00     0.261 C 
BRANCH   3   4
ATOM      4  O   UNL A   1      32.868  28.841  25.213  1.00  0.00    -0.459 OA
BRANCH   4   5
ATOM      5  C   UNL A   1      31.890  27.929  25.503  1.00  0.00     0.348 C 
ATOM      6  O   UNL A   1      31.083  28.061  26.420  1.00  0.00    -0.245 OA
BRANCH   5   7
ATOM      7  C   UNL A   1      31.866  26.867  24.502  1.00  0.00     0.116 A 
ATOM      8  C   UNL A   1      32.629  24.890  23.193  1.00  0.00     0.141 A 
ATOM      9  C   UNL A   1      31.264  25.095  23.111  1.00  0.00     0.038 A 
ATOM     10  S   UNL A   1      33.376  26.201  24.001  1.00  0.00    -0.115 S 
ATOM     11  C   UNL A   1      30.811  26.261  23.826  1.00  0.00    -0.024 A 
ATOM     12  C   UNL A   1      29.384  26.710  23.838  1.00  0.00     0.046 C 
BRANCH   8  13
ATOM     13  S   UNL A   1      33.687  23.595  22.545  1.00  0.00     0.271 S 
ATOM     14  O   UNL A   1      35.035  23.906  22.969  1.00  0.00    -0.200 OA
ATOM     15  O   UNL A   1      33.346  23.552  21.137  1.00  0.00    -0.200 OA
BRANCH  13  16
ATOM     16  N   UNL A   1      33.283  22.054  23.166  1.00  0.00    -0.277 N 
ATOM     17  H   UNL A   1      33.031  21.340  22.538  1.00  0.00     0.180 HD
BRANCH  16  18
ATOM     18  C   UNL A   1      33.299  21.768  24.550  1.00  0.00     0.074 A 
ATOM     19  C   UNL A   1      33.394  20.437  25.111  1.00  0.00     0.094 A 
ATOM     20  C   UNL A   1      33.520  20.495  26.491  1.00  0.00     0.082 A 
ATOM     21  S   UNL A   1      33.438  22.088  27.090  1.00  0.00    -0.149 S 
ATOM     22  C   UNL A   1      33.055  22.684  25.548  1.00  0.00     0.092 A 
BRANCH  19  23
ATOM     23  C   UNL A   1      33.361  19.174  24.383  1.00  0.00     0.340 C 
ATOM     24  O   UNL A   1      34.182  18.278  24.576  1.00  0.00    -0.246 OA
BRANCH  23  25
ATOM     25  O   UNL A   1      32.390  19.158  23.428  1.00  0.00    -0.465 OA
ATOM     26  C   UNL A   1      32.396  18.083  22.485  1.00  0.00     0.282 C 
ENDBRANCH  23  25
ENDBRANCH  19  23
ENDBRANCH  16  18
ENDBRANCH  13  16
ENDBRANCH   8  13
ENDBRANCH   5   7
ENDBRANCH   4   5
ENDBRANCH   3   4
ENDBRANCH   2   3
ENDBRANCH   1   2
BRANCH   1  27
ATOM     27  C   UNL A   1      34.508  31.910  28.740  1.00  0.00     0.188 C 
BRANCH  27  28
ATOM     28  C   UNL A   1      34.844  33.375  29.085  1.00  0.00     0.188 C 
BRANCH  28  29
ATOM     29  O   UNL A   1      34.120  34.317  28.321  1.00  0.00    -0.376 OA
BRANCH  29  30
ATOM     30  C   UNL A   1      34.067  35.651  28.804  1.00  0.00     0.202 C 
BRANCH  30  31
ATOM     31  C   UNL A   1      32.926  36.083  29.747  1.00  0.00     0.261 C 
BRANCH  31  32
ATOM     32  O   UNL A   1      33.275  36.374  31.109  1.00  0.00    -0.460 OA
BRANCH  32  33
ATOM     33  C   UNL A   1      32.879  35.489  32.050  1.00  0.00     0.338 C 
ATOM     34  O   UNL A   1      31.735  35.183  32.335  1.00  0.00    -0.246 OA
BRANCH  33  35
ATOM     35  C   UNL A   1      34.082  34.803  32.570  1.00  0.00     0.060 A 
ATOM     36  C   UNL A   1      35.311  35.465  32.502  1.00  0.00     0.016 A 
ATOM     37  C   UNL A   1      34.005  33.514  33.107  1.00  0.00     0.016 A 
ATOM     38  C   UNL A   1      36.467  34.834  32.969  1.00  0.00     0.010 A 
ATOM     39  C   UNL A   1      35.167  32.879  33.564  1.00  0.00     0.010 A 
ATOM     40  C   UNL A   1      36.407  33.533  33.492  1.00  0.00    -0.014 A 
BRANCH  40  41
ATOM     41  C   UNL A   1      37.669  32.820  33.818  1.00  0.00     0.031 A 
ATOM     42  C   UNL A   1      38.244  31.876  32.803  1.00  0.00     0.074 A 
ATOM     43  C   UNL A   1      38.324  33.036  34.975  1.00  0.00     0.049 A 
ATOM     44  N   UNL A   1      39.350  31.177  32.853  1.00  0.00    -0.248 NA
ATOM     45  C   UNL A   1      37.462  31.687  31.572  1.00  0.00     0.031 C 
ATOM     46  C   UNL A   1      37.886  33.937  36.036  1.00  0.00     0.029 A 
ATOM     47  N   UNL A   1      39.521  32.539  35.431  1.00  0.00    -0.354 N 
ATOM     48  C   UNL A   1      39.382  30.446  31.673  1.00  0.00     0.074 A 
ATOM     49  C   UNL A   1      38.194  30.794  30.924  1.00  0.00     0.031 C 
ATOM     50  C   UNL A   1      38.839  33.995  36.982  1.00  0.00     0.029 A 
ATOM     51  C   UNL A   1      39.916  33.068  36.638  1.00  0.00     0.049 A 
ATOM     52  H   UNL A   1      40.047  31.867  34.940  1.00  0.00     0.167 HD
ATOM     53  C   UNL A   1      40.303  29.542  31.262  1.00  0.00     0.031 A 
ATOM     54  C   UNL A   1      41.013  32.822  37.384  1.00  0.00     0.031 A 
ATOM     55  C   UNL A   1      41.458  29.153  32.024  1.00  0.00     0.049 A 
ATOM     56  C   UNL A   1      41.996  31.776  36.924  1.00  0.00     0.074 A 
ATOM     57  C   UNL A   1      42.428  28.221  31.700  1.00  0.00     0.029 A 
ATOM     58  N   UNL A   1      41.789  29.661  33.270  1.00  0.00    -0.354 N 
ATOM     59  N   UNL A   1      42.020  31.096  35.802  1.00  0.00    -0.248 NA
ATOM     60  C   UNL A   1      43.090  31.442  37.850  1.00  0.00     0.031 C 
ATOM     61  C   UNL A   1      43.316  28.124  32.776  1.00  0.00     0.029 A 
ATOM     62  C   UNL A   1      42.937  29.045  33.739  1.00  0.00     0.049 A 
ATOM     63  H   UNL A   1      41.284  30.357  33.750  1.00  0.00     0.167 HD
ATOM     64  C   UNL A   1      43.130  30.264  35.887  1.00  0.00     0.074 A 
ATOM     65  C   UNL A   1      43.775  30.547  37.151  1.00  0.00     0.031 C 
ATOM     66  C   UNL A   1      43.571  29.338  34.999  1.00  0.00     0.031 A 
BRANCH  53  67
ATOM     67  C   UNL A   1      40.043  28.855  29.952  1.00  0.00    -0.014 A 
ATOM     68  C   UNL A   1      39.730  27.489  29.889  1.00  0.00     0.009 A 
ATOM     69  C   UNL A   1      40.112  29.595  28.760  1.00  0.00     0.009 A 
ATOM     70  C   UNL A   1      39.527  26.869  28.654  1.00  0.00     0.001 A 
ATOM     71  C   UNL A   1      39.881  28.979  27.531  1.00  0.00     0.001 A 
ATOM     72  C   UNL A   1      39.600  27.615  27.478  1.00  0.00     0.000 A 
ENDBRANCH  53  67
BRANCH  54  73
ATOM     73  C   UNL A   1      41.234  33.537  38.672  1.00  0.00    -0.014 A 
ATOM     74  C   UNL A   1      40.684  33.045  39.867  1.00  0.00     0.009 A 
ATOM     75  C   UNL A   1      41.954  34.741  38.710  1.00  0.00     0.009 A 
ATOM     76  C   UNL A   1      40.828  33.755  41.063  1.00  0.00     0.001 A 
ATOM     77  C   UNL A   1      42.128  35.431  39.912  1.00  0.00     0.001 A 
ATOM     78  C   UNL A   1      41.555  34.944  41.085  1.00  0.00     0.000 A 
ENDBRANCH  54  73
BRANCH  66  79
ATOM     79  C   UNL A   1      44.827  28.584  35.343  1.00  0.00    -0.014 A 
ATOM     80  C   UNL A   1      44.781  27.353  36.016  1.00  0.00     0.009 A 
ATOM     81  C   UNL A   1      46.071  29.087  34.931  1.00  0.00     0.009 A 
ATOM     82  C   UNL A   1      45.960  26.657  36.296  1.00  0.00     0.001 A 
ATOM     83  C   UNL A   1      47.244  28.374  35.186  1.00  0.00     0.001 A 
ATOM     84  C   UNL A   1      47.188  27.165  35.876  1.00  0.00     0.000 A 
ENDBRANCH  66  79
ENDBRANCH  40  41
ENDBRANCH  33  35
ENDBRANCH  32  33
ENDBRANCH  31  32
ENDBRANCH  30  31
ENDBRANCH  29  30
ENDBRANCH  28  29
ENDBRANCH  27  28
ENDBRANCH   1  27
TORSDOF 22
ENDMDL
