MODEL 1
REMARK VINA RESULT:      -9.3      0.000      0.000
REMARK SMILES CCOc1ccc(-c2cnc(N)cc2C(=O)OCCOCCOCCOC(=O)c2ccc(-c3c4nc(c(-c5ccccc5)c5ccc([nH]5)c(-c5ccccc5)c5nc(c(-c6ccccc6)c6ccc3[nH]6)C=C5)C=C4)cc2)c(Cl)c1
REMARK SMILES IDX 21 1 20 2 19 3 18 4 17 5 15 6 16 7 14 8 8 9 9 10 10 11 13 12
REMARK SMILES IDX 11 13 7 14 4 15 5 16 79 17 6 18 77 19 78 20 3 21 2 22 1 23
REMARK SMILES IDX 12 24 22 27 23 28 24 29 25 30 26 31 27 32 28 33 29 34 30 35
REMARK SMILES IDX 76 36 31 37 75 38 32 39 33 40 34 41 69 42 35 43 74 44 68 45
REMARK SMILES IDX 70 46 36 47 73 48 67 49 66 50 37 52 59 53 44 54 58 55 45 56
REMARK SMILES IDX 48 57 57 58 71 59 46 60 47 61 56 63 72 64 49 65 38 66 39 67
REMARK SMILES IDX 43 68 40 69 42 70 41 71 60 72 61 73 65 74 62 75 64 76 63 77
REMARK SMILES IDX 50 78 51 79 55 80 52 81 54 82 53 83
REMARK H PARENT 12 25 12 26 70 51 48 62
REMARK Flexibility Score: inf
ROOT
ATOM      1  C   UNL A   1      31.692  28.475  23.168  1.00  0.00     0.188 C 
ENDROOT
BRANCH   1   2
ATOM      2  O   UNL A   1      33.003  28.165  22.766  1.00  0.00    -0.376 OA
BRANCH   2   3
ATOM      3  C   UNL A   1      33.296  26.961  22.088  1.00  0.00     0.202 C 
BRANCH   3   4
ATOM      4  C   UNL A   1      33.316  25.551  22.709  1.00  0.00     0.261 C 
BRANCH   4   5
ATOM      5  O   UNL A   1      32.171  24.706  22.546  1.00  0.00    -0.460 OA
BRANCH   5   6
ATOM      6  C   UNL A   1      32.239  23.481  23.133  1.00  0.00     0.339 C 
ATOM      7  O   UNL A   1      32.566  22.443  22.584  1.00  0.00    -0.246 OA
BRANCH   6   8
ATOM      8  C   UNL A   1      31.882  23.567  24.578  1.00  0.00     0.073 A 
ATOM      9  C   UNL A   1      32.773  23.113  25.571  1.00  0.00     0.016 A 
ATOM     10  C   UNL A   1      32.325  23.194  26.882  1.00  0.00     0.123 A 
ATOM     11  N   UNL A   1      31.132  23.709  27.251  1.00  0.00    -0.239 NA
ATOM     12  C   UNL A   1      30.653  24.123  24.944  1.00  0.00     0.062 A 
ATOM     13  C   UNL A   1      30.327  24.184  26.287  1.00  0.00     0.124 A 
BRANCH   9  14
ATOM     14  C   UNL A   1      34.188  22.854  25.289  1.00  0.00     0.003 A 
ATOM     15  C   UNL A   1      36.932  22.232  25.163  1.00  0.00     0.120 A 
ATOM     16  C   UNL A   1      36.495  23.544  25.003  1.00  0.00     0.047 A 
ATOM     17  C   UNL A   1      35.988  21.219  25.282  1.00  0.00     0.067 A 
ATOM     18  C   UNL A   1      35.134  23.864  25.117  1.00  0.00     0.014 A 
ATOM     19  C   UNL A   1      34.638  21.529  25.222  1.00  0.00     0.052 A 
ATOM     20  Cl  UNL A   1      33.514  20.260  24.921  1.00  0.00    -0.084 Cl
BRANCH  15  21
ATOM     21  O   UNL A   1      38.213  21.798  25.000  1.00  0.00    -0.494 OA
BRANCH  21  22
ATOM     22  C   UNL A   1      39.081  21.713  26.126  1.00  0.00     0.226 C 
ATOM     23  C   UNL A   1      39.470  23.058  26.709  1.00  0.00     0.049 C 
ENDBRANCH  21  22
ENDBRANCH  15  21
ENDBRANCH   9  14
BRANCH  13  24
ATOM     24  N   UNL A   1      29.187  24.828  26.711  1.00  0.00    -0.384 N 
ATOM     25  H   UNL A   1      28.458  25.008  26.075  1.00  0.00     0.158 HD
ATOM     26  H   UNL A   1      29.100  25.109  27.651  1.00  0.00     0.158 HD
ENDBRANCH  13  24
ENDBRANCH   6   8
ENDBRANCH   5   6
ENDBRANCH   4   5
ENDBRANCH   3   4
ENDBRANCH   2   3
ENDBRANCH   1   2
BRANCH   1  27
ATOM     27  C   UNL A   1      31.379  28.666  24.668  1.00  0.00     0.188 C 
BRANCH  27  28
ATOM     28  O   UNL A   1      31.573  27.599  25.579  1.00  0.00    -0.376 OA
BRANCH  28  29
ATOM     29  C   UNL A   1      32.826  27.483  26.227  1.00  0.00     0.202 C 
BRANCH  29  30
ATOM     30  C   UNL A   1      33.254  28.547  27.249  1.00  0.00     0.261 C 
BRANCH  30  31
ATOM     31  O   UNL A   1      33.865  29.734  26.709  1.00  0.00    -0.460 OA
BRANCH  31  32
ATOM     32  C   UNL A   1      34.411  30.576  27.628  1.00  0.00     0.338 C 
ATOM     33  O   UNL A   1      33.879  31.551  28.122  1.00  0.00    -0.246 OA
BRANCH  32  34
ATOM     34  C   UNL A   1      35.752  30.104  28.064  1.00  0.00     0.060 A 
ATOM     35  C   UNL A   1      35.901  29.728  29.405  1.00  0.00     0.016 A 
ATOM     36  C   UNL A   1      36.866  30.081  27.219  1.00  0.00     0.016 A 
ATOM     37  C   UNL A   1      37.141  29.302  29.894  1.00  0.00     0.010 A 
ATOM     38  C   UNL A   1      38.123  29.700  27.724  1.00  0.00     0.010 A 
ATOM     39  C   UNL A   1      38.272  29.315  29.068  1.00  0.00    -0.014 A 
BRANCH  39  40
ATOM     40  C   UNL A   1      39.616  29.114  29.683  1.00  0.00     0.031 A 
ATOM     41  C   UNL A   1      40.382  27.879  29.328  1.00  0.00     0.074 A 
ATOM     42  C   UNL A   1      40.205  30.025  30.480  1.00  0.00     0.049 A 
ATOM     43  N   UNL A   1      41.594  27.538  29.677  1.00  0.00    -0.248 NA
ATOM     44  C   UNL A   1      39.705  26.920  28.444  1.00  0.00     0.031 C 
ATOM     45  C   UNL A   1      39.624  31.306  30.813  1.00  0.00     0.029 A 
ATOM     46  N   UNL A   1      41.412  30.038  31.137  1.00  0.00    -0.354 N 
ATOM     47  C   UNL A   1      41.840  26.341  29.027  1.00  0.00     0.074 A 
ATOM     48  C   UNL A   1      40.641  25.996  28.293  1.00  0.00     0.031 C 
ATOM     49  C   UNL A   1      40.449  31.990  31.621  1.00  0.00     0.029 A 
ATOM     50  C   UNL A   1      41.617  31.172  31.894  1.00  0.00     0.049 A 
ATOM     51  H   UNL A   1      42.069  29.308  31.074  1.00  0.00     0.167 HD
ATOM     52  C   UNL A   1      42.969  25.597  29.039  1.00  0.00     0.031 A 
ATOM     53  C   UNL A   1      42.616  31.519  32.727  1.00  0.00     0.031 A 
ATOM     54  C   UNL A   1      44.133  25.898  29.830  1.00  0.00     0.049 A 
ATOM     55  C   UNL A   1      43.787  30.591  32.855  1.00  0.00     0.074 A 
ATOM     56  C   UNL A   1      45.307  25.175  29.940  1.00  0.00     0.029 A 
ATOM     57  N   UNL A   1      44.258  26.997  30.668  1.00  0.00    -0.354 N 
ATOM     58  N   UNL A   1      44.012  29.466  32.222  1.00  0.00    -0.248 NA
ATOM     59  C   UNL A   1      44.851  30.987  33.786  1.00  0.00     0.031 C 
ATOM     60  C   UNL A   1      46.114  25.797  30.899  1.00  0.00     0.029 A 
ATOM     61  C   UNL A   1      45.476  26.950  31.328  1.00  0.00     0.049 A 
ATOM     62  H   UNL A   1      43.582  27.704  30.779  1.00  0.00     0.167 HD
ATOM     63  C   UNL A   1      45.262  29.042  32.642  1.00  0.00     0.074 A 
ATOM     64  C   UNL A   1      45.749  30.033  33.581  1.00  0.00     0.031 C 
ATOM     65  C   UNL A   1      45.949  27.935  32.269  1.00  0.00     0.031 A 
BRANCH  52  66
ATOM     66  C   UNL A   1      42.949  24.345  28.214  1.00  0.00    -0.014 A 
ATOM     67  C   UNL A   1      42.590  23.107  28.774  1.00  0.00     0.009 A 
ATOM     68  C   UNL A   1      43.322  24.402  26.863  1.00  0.00     0.009 A 
ATOM     69  C   UNL A   1      42.646  21.944  28.004  1.00  0.00     0.001 A 
ATOM     70  C   UNL A   1      43.348  23.241  26.090  1.00  0.00     0.001 A 
ATOM     71  C   UNL A   1      43.022  22.014  26.663  1.00  0.00     0.000 A 
ENDBRANCH  52  66
BRANCH  53  72
ATOM     72  C   UNL A   1      42.558  32.777  33.525  1.00  0.00    -0.014 A 
ATOM     73  C   UNL A   1      41.939  32.809  34.786  1.00  0.00     0.009 A 
ATOM     74  C   UNL A   1      43.070  33.973  32.998  1.00  0.00     0.009 A 
ATOM     75  C   UNL A   1      41.808  34.015  35.482  1.00  0.00     0.001 A 
ATOM     76  C   UNL A   1      42.955  35.173  33.706  1.00  0.00     0.001 A 
ATOM     77  C   UNL A   1      42.317  35.196  34.943  1.00  0.00     0.000 A 
ENDBRANCH  53  72
BRANCH  65  78
ATOM     78  C   UNL A   1      47.327  27.765  32.841  1.00  0.00    -0.014 A 
ATOM     79  C   UNL A   1      47.553  27.038  34.020  1.00  0.00     0.009 A 
ATOM     80  C   UNL A   1      48.423  28.331  32.170  1.00  0.00     0.009 A 
ATOM     81  C   UNL A   1      48.844  26.916  34.536  1.00  0.00     0.001 A 
ATOM     82  C   UNL A   1      49.716  28.177  32.669  1.00  0.00     0.001 A 
ATOM     83  C   UNL A   1      49.923  27.480  33.857  1.00  0.00     0.000 A 
ENDBRANCH  65  78
ENDBRANCH  39  40
ENDBRANCH  32  34
ENDBRANCH  31  32
ENDBRANCH  30  31
ENDBRANCH  29  30
ENDBRANCH  28  29
ENDBRANCH  27  28
ENDBRANCH   1  27
TORSDOF 21
ENDMDL
MODEL 2
REMARK VINA RESULT:      -9.2      2.166      6.415
REMARK SMILES CCOc1ccc(-c2cnc(N)cc2C(=O)OCCOCCOCCOC(=O)c2ccc(-c3c4nc(c(-c5ccccc5)c5ccc([nH]5)c(-c5ccccc5)c5nc(c(-c6ccccc6)c6ccc3[nH]6)C=C5)C=C4)cc2)c(Cl)c1
REMARK SMILES IDX 21 1 20 2 19 3 18 4 17 5 15 6 16 7 14 8 8 9 9 10 10 11 13 12
REMARK SMILES IDX 11 13 7 14 4 15 5 16 79 17 6 18 77 19 78 20 3 21 2 22 1 23
REMARK SMILES IDX 12 24 22 27 23 28 24 29 25 30 26 31 27 32 28 33 29 34 30 35
REMARK SMILES IDX 76 36 31 37 75 38 32 39 33 40 34 41 69 42 35 43 74 44 68 45
REMARK SMILES IDX 70 46 36 47 73 48 67 49 66 50 37 52 59 53 44 54 58 55 45 56
REMARK SMILES IDX 48 57 57 58 71 59 46 60 47 61 56 63 72 64 49 65 38 66 39 67
REMARK SMILES IDX 43 68 40 69 42 70 41 71 60 72 61 73 65 74 62 75 64 76 63 77
REMARK SMILES IDX 50 78 51 79 55 80 52 81 54 82 53 83
REMARK H PARENT 12 25 12 26 70 51 48 62
REMARK Flexibility Score: inf
ROOT
ATOM      1  C   UNL A   1      30.390  26.442  24.516  1.00  0.00     0.188 C 
ENDROOT
BRANCH   1   2
ATOM      2  O   UNL A   1      29.692  25.620  25.417  1.00  0.00    -0.376 OA
BRANCH   2   3
ATOM      3  C   UNL A   1      30.358  24.626  26.169  1.00  0.00     0.202 C 
BRANCH   3   4
ATOM      4  C   UNL A   1      31.794  24.715  26.720  1.00  0.00     0.261 C 
BRANCH   4   5
ATOM      5  O   UNL A   1      32.739  23.701  26.357  1.00  0.00    -0.460 OA
BRANCH   5   6
ATOM      6  C   UNL A   1      33.883  24.132  25.762  1.00  0.00     0.339 C 
ATOM      7  O   UNL A   1      34.931  24.388  26.330  1.00  0.00    -0.246 OA
BRANCH   6   8
ATOM      8  C   UNL A   1      33.706  24.230  24.285  1.00  0.00     0.073 A 
ATOM      9  C   UNL A   1      33.728  23.076  23.476  1.00  0.00     0.016 A 
ATOM     10  C   UNL A   1      33.602  23.280  22.109  1.00  0.00     0.123 A 
ATOM     11  N   UNL A   1      33.421  24.489  21.532  1.00  0.00    -0.239 NA
ATOM     12  C   UNL A   1      33.498  25.484  23.705  1.00  0.00     0.062 A 
ATOM     13  C   UNL A   1      33.350  25.564  22.332  1.00  0.00     0.124 A 
BRANCH   9  14
ATOM     14  C   UNL A   1      33.588  21.728  24.037  1.00  0.00     0.003 A 
ATOM     15  C   UNL A   1      33.465  19.001  24.727  1.00  0.00     0.120 A 
ATOM     16  C   UNL A   1      32.303  19.762  24.639  1.00  0.00     0.047 A 
ATOM     17  C   UNL A   1      34.694  19.630  24.572  1.00  0.00     0.067 A 
ATOM     18  C   UNL A   1      32.357  21.107  24.244  1.00  0.00     0.014 A 
ATOM     19  C   UNL A   1      34.741  20.998  24.350  1.00  0.00     0.052 A 
ATOM     20  Cl  UNL A   1      36.231  21.823  24.605  1.00  0.00    -0.084 Cl
BRANCH  15  21
ATOM     21  O   UNL A   1      33.538  17.714  25.170  1.00  0.00    -0.494 OA
BRANCH  21  22
ATOM     22  C   UNL A   1      34.301  16.758  24.443  1.00  0.00     0.226 C 
ATOM     23  C   UNL A   1      35.159  15.860  25.314  1.00  0.00     0.049 C 
ENDBRANCH  21  22
ENDBRANCH  15  21
ENDBRANCH   9  14
BRANCH  13  24
ATOM     24  N   UNL A   1      33.024  26.753  21.722  1.00  0.00    -0.384 N 
ATOM     25  H   UNL A   1      32.112  27.115  21.805  1.00  0.00     0.158 HD
ATOM     26  H   UNL A   1      33.702  27.244  21.203  1.00  0.00     0.158 HD
ENDBRANCH  13  24
ENDBRANCH   6   8
ENDBRANCH   5   6
ENDBRANCH   4   5
ENDBRANCH   3   4
ENDBRANCH   2   3
ENDBRANCH   1   2
BRANCH   1  27
ATOM     27  C   UNL A   1      30.857  27.844  24.967  1.00  0.00     0.188 C 
BRANCH  27  28
ATOM     28  O   UNL A   1      31.941  28.479  24.315  1.00  0.00    -0.376 OA
BRANCH  28  29
ATOM     29  C   UNL A   1      32.807  29.294  25.083  1.00  0.00     0.202 C 
BRANCH  29  30
ATOM     30  C   UNL A   1      33.846  28.639  26.005  1.00  0.00     0.261 C 
BRANCH  30  31
ATOM     31  O   UNL A   1      33.811  29.046  27.387  1.00  0.00    -0.460 OA
BRANCH  31  32
ATOM     32  C   UNL A   1      34.458  30.209  27.666  1.00  0.00     0.338 C 
ATOM     33  O   UNL A   1      33.986  31.328  27.624  1.00  0.00    -0.246 OA
BRANCH  32  34
ATOM     34  C   UNL A   1      35.843  29.956  28.148  1.00  0.00     0.060 A 
ATOM     35  C   UNL A   1      36.888  30.136  27.233  1.00  0.00     0.016 A 
ATOM     36  C   UNL A   1      36.131  29.495  29.436  1.00  0.00     0.016 A 
ATOM     37  C   UNL A   1      38.215  29.889  27.607  1.00  0.00     0.010 A 
ATOM     38  C   UNL A   1      37.459  29.200  29.795  1.00  0.00     0.010 A 
ATOM     39  C   UNL A   1      38.511  29.386  28.881  1.00  0.00    -0.014 A 
BRANCH  39  40
ATOM     40  C   UNL A   1      39.889  28.885  29.155  1.00  0.00     0.031 A 
ATOM     41  C   UNL A   1      40.831  29.771  29.904  1.00  0.00     0.074 A 
ATOM     42  C   UNL A   1      40.299  27.645  28.828  1.00  0.00     0.049 A 
ATOM     43  N   UNL A   1      42.042  29.513  30.322  1.00  0.00    -0.248 NA
ATOM     44  C   UNL A   1      40.334  31.110  30.252  1.00  0.00     0.031 C 
ATOM     45  C   UNL A   1      39.457  26.651  28.201  1.00  0.00     0.029 A 
ATOM     46  N   UNL A   1      41.501  26.996  28.986  1.00  0.00    -0.354 N 
ATOM     47  C   UNL A   1      42.441  30.644  31.013  1.00  0.00     0.074 A 
ATOM     48  C   UNL A   1      41.360  31.603  30.928  1.00  0.00     0.031 C 
ATOM     49  C   UNL A   1      40.149  25.518  28.006  1.00  0.00     0.029 A 
ATOM     50  C   UNL A   1      41.511  25.718  28.467  1.00  0.00     0.049 A 
ATOM     51  H   UNL A   1      42.281  27.403  29.426  1.00  0.00     0.167 HD
ATOM     52  C   UNL A   1      43.606  30.861  31.665  1.00  0.00     0.031 A 
ATOM     53  C   UNL A   1      42.498  24.809  28.357  1.00  0.00     0.031 A 
ATOM     54  C   UNL A   1      44.710  29.940  31.683  1.00  0.00     0.049 A 
ATOM     55  C   UNL A   1      43.837  25.144  28.940  1.00  0.00     0.074 A 
ATOM     56  C   UNL A   1      45.949  30.096  32.280  1.00  0.00     0.029 A 
ATOM     57  N   UNL A   1      44.722  28.704  31.053  1.00  0.00    -0.354 N 
ATOM     58  N   UNL A   1      44.197  26.214  29.604  1.00  0.00    -0.248 NA
ATOM     59  C   UNL A   1      44.899  24.141  28.785  1.00  0.00     0.031 C 
ATOM     60  C   UNL A   1      46.734  28.986  31.952  1.00  0.00     0.029 A 
ATOM     61  C   UNL A   1      45.960  28.102  31.216  1.00  0.00     0.049 A 
ATOM     62  H   UNL A   1      43.963  28.312  30.563  1.00  0.00     0.167 HD
ATOM     63  C   UNL A   1      45.511  25.997  29.987  1.00  0.00     0.074 A 
ATOM     64  C   UNL A   1      45.883  24.689  29.484  1.00  0.00     0.031 C 
ATOM     65  C   UNL A   1      46.327  26.805  30.704  1.00  0.00     0.031 A 
BRANCH  52  66
ATOM     66  C   UNL A   1      43.748  32.189  32.347  1.00  0.00    -0.014 A 
ATOM     67  C   UNL A   1      43.353  32.371  33.682  1.00  0.00     0.009 A 
ATOM     68  C   UNL A   1      44.259  33.281  31.630  1.00  0.00     0.009 A 
ATOM     69  C   UNL A   1      43.430  33.634  34.273  1.00  0.00     0.001 A 
ATOM     70  C   UNL A   1      44.362  34.534  32.233  1.00  0.00     0.001 A 
ATOM     71  C   UNL A   1      43.937  34.712  33.548  1.00  0.00     0.000 A 
ENDBRANCH  52  66
BRANCH  53  72
ATOM     72  C   UNL A   1      42.282  23.514  27.651  1.00  0.00    -0.014 A 
ATOM     73  C   UNL A   1      42.588  23.369  26.288  1.00  0.00     0.009 A 
ATOM     74  C   UNL A   1      41.707  22.427  28.328  1.00  0.00     0.009 A 
ATOM     75  C   UNL A   1      42.293  22.178  25.616  1.00  0.00     0.001 A 
ATOM     76  C   UNL A   1      41.431  21.231  27.659  1.00  0.00     0.001 A 
ATOM     77  C   UNL A   1      41.716  21.110  26.301  1.00  0.00     0.000 A 
ENDBRANCH  53  72
BRANCH  65  78
ATOM     78  C   UNL A   1      47.693  26.274  31.032  1.00  0.00    -0.014 A 
ATOM     79  C   UNL A   1      47.972  25.668  32.267  1.00  0.00     0.009 A 
ATOM     80  C   UNL A   1      48.713  26.365  30.072  1.00  0.00     0.009 A 
ATOM     81  C   UNL A   1      49.258  25.203  32.548  1.00  0.00     0.001 A 
ATOM     82  C   UNL A   1      49.987  25.868  30.342  1.00  0.00     0.001 A 
ATOM     83  C   UNL A   1      50.261  25.297  31.584  1.00  0.00     0.000 A 
ENDBRANCH  65  78
ENDBRANCH  39  40
ENDBRANCH  32  34
ENDBRANCH  31  32
ENDBRANCH  30  31
ENDBRANCH  29  30
ENDBRANCH  28  29
ENDBRANCH  27  28
ENDBRANCH   1  27
TORSDOF 21
ENDMDL
MODEL 3
REMARK VINA RESULT:      -8.9      1.756      6.159
REMARK SMILES CCOc1ccc(-c2cnc(N)cc2C(=O)OCCOCCOCCOC(=O)c2ccc(-c3c4nc(c(-c5ccccc5)c5ccc([nH]5)c(-c5ccccc5)c5nc(c(-c6ccccc6)c6ccc3[nH]6)C=C5)C=C4)cc2)c(Cl)c1
REMARK SMILES IDX 21 1 20 2 19 3 18 4 17 5 15 6 16 7 14 8 8 9 9 10 10 11 13 12
REMARK SMILES IDX 11 13 7 14 4 15 5 16 79 17 6 18 77 19 78 20 3 21 2 22 1 23
REMARK SMILES IDX 12 24 22 27 23 28 24 29 25 30 26 31 27 32 28 33 29 34 30 35
REMARK SMILES IDX 76 36 31 37 75 38 32 39 33 40 34 41 69 42 35 43 74 44 68 45
REMARK SMILES IDX 70 46 36 47 73 48 67 49 66 50 37 52 59 53 44 54 58 55 45 56
REMARK SMILES IDX 48 57 57 58 71 59 46 60 47 61 56 63 72 64 49 65 38 66 39 67
REMARK SMILES IDX 43 68 40 69 42 70 41 71 60 72 61 73 65 74 62 75 64 76 63 77
REMARK SMILES IDX 50 78 51 79 55 80 52 81 54 82 53 83
REMARK H PARENT 12 25 12 26 70 51 48 62
REMARK Flexibility Score: inf
ROOT
ATOM      1  C   UNL A   1      31.351  28.681  23.067  1.00  0.00     0.188 C 
ENDROOT
BRANCH   1   2
ATOM      2  O   UNL A   1      32.291  27.638  23.025  1.00  0.00    -0.376 OA
BRANCH   2   3
ATOM      3  C   UNL A   1      32.339  26.738  21.937  1.00  0.00     0.202 C 
BRANCH   3   4
ATOM      4  C   UNL A   1      33.380  25.621  21.728  1.00  0.00     0.261 C 
BRANCH   4   5
ATOM      5  O   UNL A   1      33.147  24.338  22.321  1.00  0.00    -0.460 OA
BRANCH   5   6
ATOM      6  C   UNL A   1      33.801  24.087  23.486  1.00  0.00     0.339 C 
ATOM      7  O   UNL A   1      35.004  23.938  23.613  1.00  0.00    -0.246 OA
BRANCH   6   8
ATOM      8  C   UNL A   1      32.844  24.041  24.629  1.00  0.00     0.073 A 
ATOM      9  C   UNL A   1      32.324  22.813  25.088  1.00  0.00     0.016 A 
ATOM     10  C   UNL A   1      31.405  22.884  26.125  1.00  0.00     0.123 A 
ATOM     11  N   UNL A   1      31.024  24.031  26.731  1.00  0.00    -0.239 NA
ATOM     12  C   UNL A   1      32.477  25.233  25.259  1.00  0.00     0.062 A 
ATOM     13  C   UNL A   1      31.578  25.178  26.308  1.00  0.00     0.124 A 
BRANCH   9  14
ATOM     14  C   UNL A   1      32.922  21.527  24.717  1.00  0.00     0.003 A 
ATOM     15  C   UNL A   1      33.718  18.878  24.190  1.00  0.00     0.120 A 
ATOM     16  C   UNL A   1      34.451  19.676  25.064  1.00  0.00     0.047 A 
ATOM     17  C   UNL A   1      32.649  19.439  23.503  1.00  0.00     0.067 A 
ATOM     18  C   UNL A   1      34.027  20.979  25.368  1.00  0.00     0.014 A 
ATOM     19  C   UNL A   1      32.344  20.779  23.685  1.00  0.00     0.052 A 
ATOM     20  Cl  UNL A   1      31.338  21.559  22.525  1.00  0.00    -0.084 Cl
BRANCH  15  21
ATOM     21  O   UNL A   1      34.075  17.632  23.767  1.00  0.00    -0.494 OA
BRANCH  21  22
ATOM     22  C   UNL A   1      34.748  16.748  24.656  1.00  0.00     0.226 C 
ATOM     23  C   UNL A   1      33.830  15.782  25.380  1.00  0.00     0.049 C 
ENDBRANCH  21  22
ENDBRANCH  15  21
ENDBRANCH   9  14
BRANCH  13  24
ATOM     24  N   UNL A   1      31.274  26.303  27.041  1.00  0.00    -0.384 N 
ATOM     25  H   UNL A   1      30.525  26.287  27.680  1.00  0.00     0.158 HD
ATOM     26  H   UNL A   1      31.806  27.124  26.928  1.00  0.00     0.158 HD
ENDBRANCH  13  24
ENDBRANCH   6   8
ENDBRANCH   5   6
ENDBRANCH   4   5
ENDBRANCH   3   4
ENDBRANCH   2   3
ENDBRANCH   1   2
BRANCH   1  27
ATOM     27  C   UNL A   1      30.810  29.167  24.430  1.00  0.00     0.188 C 
BRANCH  27  28
ATOM     28  O   UNL A   1      31.474  30.201  25.133  1.00  0.00    -0.376 OA
BRANCH  28  29
ATOM     29  C   UNL A   1      32.839  30.025  25.463  1.00  0.00     0.202 C 
BRANCH  29  30
ATOM     30  C   UNL A   1      33.220  29.400  26.814  1.00  0.00     0.261 C 
BRANCH  30  31
ATOM     31  O   UNL A   1      33.331  30.311  27.924  1.00  0.00    -0.460 OA
BRANCH  31  32
ATOM     32  C   UNL A   1      34.403  31.147  27.884  1.00  0.00     0.338 C 
ATOM     33  O   UNL A   1      34.374  32.356  27.762  1.00  0.00    -0.246 OA
BRANCH  32  34
ATOM     34  C   UNL A   1      35.674  30.409  28.114  1.00  0.00     0.060 A 
ATOM     35  C   UNL A   1      35.884  29.865  29.387  1.00  0.00     0.016 A 
ATOM     36  C   UNL A   1      36.676  30.294  27.145  1.00  0.00     0.016 A 
ATOM     37  C   UNL A   1      37.069  29.183  29.686  1.00  0.00     0.010 A 
ATOM     38  C   UNL A   1      37.887  29.651  27.462  1.00  0.00     0.010 A 
ATOM     39  C   UNL A   1      38.097  29.097  28.737  1.00  0.00    -0.014 A 
BRANCH  39  40
ATOM     40  C   UNL A   1      39.437  28.604  29.169  1.00  0.00     0.031 A 
ATOM     41  C   UNL A   1      40.238  29.450  30.105  1.00  0.00     0.074 A 
ATOM     42  C   UNL A   1      39.926  27.399  28.818  1.00  0.00     0.049 A 
ATOM     43  N   UNL A   1      41.385  29.187  30.671  1.00  0.00    -0.248 NA
ATOM     44  C   UNL A   1      39.657  30.750  30.471  1.00  0.00     0.031 C 
ATOM     45  C   UNL A   1      39.210  26.438  28.009  1.00  0.00     0.029 A 
ATOM     46  N   UNL A   1      41.112  26.764  29.098  1.00  0.00    -0.354 N 
ATOM     47  C   UNL A   1      41.649  30.270  31.490  1.00  0.00     0.074 A 
ATOM     48  C   UNL A   1      40.563  31.212  31.319  1.00  0.00     0.031 C 
ATOM     49  C   UNL A   1      39.956  25.336  27.835  1.00  0.00     0.029 A 
ATOM     50  C   UNL A   1      41.233  25.529  28.498  1.00  0.00     0.049 A 
ATOM     51  H   UNL A   1      41.810  27.153  29.672  1.00  0.00     0.167 HD
ATOM     52  C   UNL A   1      42.704  30.462  32.314  1.00  0.00     0.031 A 
ATOM     53  C   UNL A   1      42.252  24.650  28.465  1.00  0.00     0.031 A 
ATOM     54  C   UNL A   1      43.822  29.564  32.424  1.00  0.00     0.049 A 
ATOM     55  C   UNL A   1      43.486  24.967  29.255  1.00  0.00     0.074 A 
ATOM     56  C   UNL A   1      44.960  29.699  33.200  1.00  0.00     0.029 A 
ATOM     57  N   UNL A   1      43.959  28.378  31.717  1.00  0.00    -0.354 N 
ATOM     58  N   UNL A   1      43.717  25.992  30.037  1.00  0.00    -0.248 NA
ATOM     59  C   UNL A   1      44.589  23.999  29.182  1.00  0.00     0.031 C 
ATOM     60  C   UNL A   1      45.816  28.633  32.910  1.00  0.00     0.029 A 
ATOM     61  C   UNL A   1      45.179  27.790  32.012  1.00  0.00     0.049 A 
ATOM     62  H   UNL A   1      43.289  28.008  31.098  1.00  0.00     0.167 HD
ATOM     63  C   UNL A   1      44.970  25.773  30.586  1.00  0.00     0.074 A 
ATOM     64  C   UNL A   1      45.448  24.513  30.051  1.00  0.00     0.031 C 
ATOM     65  C   UNL A   1      45.653  26.542  31.467  1.00  0.00     0.031 A 
BRANCH  52  66
ATOM     66  C   UNL A   1      42.710  31.739  33.100  1.00  0.00    -0.014 A 
ATOM     67  C   UNL A   1      43.288  32.911  32.586  1.00  0.00     0.009 A 
ATOM     68  C   UNL A   1      42.153  31.759  34.387  1.00  0.00     0.009 A 
ATOM     69  C   UNL A   1      43.344  34.068  33.364  1.00  0.00     0.001 A 
ATOM     70  C   UNL A   1      42.185  32.927  35.151  1.00  0.00     0.001 A 
ATOM     71  C   UNL A   1      42.790  34.075  34.644  1.00  0.00     0.000 A 
ENDBRANCH  52  66
BRANCH  53  72
ATOM     72  C   UNL A   1      42.176  23.406  27.647  1.00  0.00    -0.014 A 
ATOM     73  C   UNL A   1      41.714  22.200  28.197  1.00  0.00     0.009 A 
ATOM     74  C   UNL A   1      42.629  23.407  26.317  1.00  0.00     0.009 A 
ATOM     75  C   UNL A   1      41.737  21.020  27.446  1.00  0.00     0.001 A 
ATOM     76  C   UNL A   1      42.632  22.230  25.562  1.00  0.00     0.001 A 
ATOM     77  C   UNL A   1      42.194  21.036  26.129  1.00  0.00     0.000 A 
ENDBRANCH  53  72
BRANCH  65  78
ATOM     78  C   UNL A   1      46.975  26.015  31.948  1.00  0.00    -0.014 A 
ATOM     79  C   UNL A   1      47.103  25.358  33.181  1.00  0.00     0.009 A 
ATOM     80  C   UNL A   1      48.109  26.163  31.134  1.00  0.00     0.009 A 
ATOM     81  C   UNL A   1      48.350  24.898  33.608  1.00  0.00     0.001 A 
ATOM     82  C   UNL A   1      49.347  25.670  31.547  1.00  0.00     0.001 A 
ATOM     83  C   UNL A   1      49.468  25.049  32.788  1.00  0.00     0.000 A 
ENDBRANCH  65  78
ENDBRANCH  39  40
ENDBRANCH  32  34
ENDBRANCH  31  32
ENDBRANCH  30  31
ENDBRANCH  29  30
ENDBRANCH  28  29
ENDBRANCH  27  28
ENDBRANCH   1  27
TORSDOF 21
ENDMDL
