MODEL 1
REMARK VINA RESULT:     -10.8      0.000      0.000
REMARK SMILES O=C(OCCOCCOCCOC(=O)c1cccn1CC(=O)N1CC[C@H]2CCCC[C@H]2C1)c1ccc(-c2c3nc(c(-c4ccccc4)c4ccc([nH]4)c(-c4ccccc4)c4nc(c(-c5ccccc5)c5ccc2[nH]5)C=C4)C=C3)cc1
REMARK SMILES IDX 8 1 7 2 6 3 5 4 4 5 3 6 2 7 1 8 33 9 34 10 80 11 35 12 79 13
REMARK SMILES IDX 36 14 37 15 38 16 73 17 39 18 78 19 72 20 74 21 40 22 77 23
REMARK SMILES IDX 71 24 70 25 41 27 63 28 48 29 62 30 49 31 52 32 61 33 75 34
REMARK SMILES IDX 50 35 51 36 60 38 76 39 53 40 42 41 43 42 47 43 44 44 46 45
REMARK SMILES IDX 45 46 64 47 65 48 69 49 66 50 68 51 67 52 54 53 55 54 59 55
REMARK SMILES IDX 56 56 58 57 57 58 9 59 10 60 11 61 12 62 13 63 14 64 15 65
REMARK SMILES IDX 16 66 19 67 17 68 18 69 20 70 21 71 22 72 23 73 24 74 32 75
REMARK SMILES IDX 25 76 31 77 26 78 30 79 27 80 29 81 28 82
REMARK H PARENT 74 26 52 37
REMARK Flexibility Score: inf
ROOT
ATOM      1  C   UNL A   1      34.242  32.863  27.995  1.00  0.00     0.188 C 
ENDROOT
BRANCH   1   2
ATOM      2  C   UNL A   1      34.172  33.815  29.179  1.00  0.00     0.188 C 
BRANCH   2   3
ATOM      3  O   UNL A   1      34.526  33.451  30.510  1.00  0.00    -0.376 OA
BRANCH   3   4
ATOM      4  C   UNL A   1      35.875  33.162  30.897  1.00  0.00     0.202 C 
BRANCH   4   5
ATOM      5  C   UNL A   1      37.126  33.477  30.042  1.00  0.00     0.261 C 
BRANCH   5   6
ATOM      6  O   UNL A   1      37.583  32.509  29.102  1.00  0.00    -0.460 OA
BRANCH   6   7
ATOM      7  C   UNL A   1      38.362  31.463  29.468  1.00  0.00     0.338 C 
ATOM      8  O   UNL A   1      39.403  31.657  30.078  1.00  0.00    -0.246 OA
BRANCH   7   9
ATOM      9  C   UNL A   1      37.904  30.162  28.884  1.00  0.00     0.060 A 
ATOM     10  C   UNL A   1      38.099  28.917  28.446  1.00  0.00     0.016 A 
ATOM     11  C   UNL A   1      38.737  29.747  27.960  1.00  0.00     0.016 A 
ATOM     12  C   UNL A   1      39.383  27.578  28.016  1.00  0.00     0.010 A 
ATOM     13  C   UNL A   1      40.001  28.396  27.357  1.00  0.00     0.010 A 
ATOM     14  C   UNL A   1      40.700  27.403  27.858  1.00  0.00    -0.014 A 
BRANCH  14  15
ATOM     15  C   UNL A   1      42.165  27.244  27.684  1.00  0.00     0.031 A 
ATOM     16  C   UNL A   1      42.148  25.755  27.423  1.00  0.00     0.074 A 
ATOM     17  C   UNL A   1      43.237  28.086  28.130  1.00  0.00     0.049 A 
ATOM     18  N   UNL A   1      42.023  24.838  28.327  1.00  0.00    -0.248 NA
ATOM     19  C   UNL A   1      41.645  25.281  26.090  1.00  0.00     0.031 C 
ATOM     20  C   UNL A   1      43.414  29.561  27.968  1.00  0.00     0.029 A 
ATOM     21  N   UNL A   1      44.454  27.884  28.839  1.00  0.00    -0.354 N 
ATOM     22  C   UNL A   1      41.751  23.667  27.626  1.00  0.00     0.074 A 
ATOM     23  C   UNL A   1      41.138  24.082  26.405  1.00  0.00     0.031 C 
ATOM     24  C   UNL A   1      44.435  30.090  28.717  1.00  0.00     0.029 A 
ATOM     25  C   UNL A   1      45.154  29.046  29.428  1.00  0.00     0.049 A 
ATOM     26  H   UNL A   1      44.827  26.979  28.937  1.00  0.00     0.167 HD
ATOM     27  C   UNL A   1      42.430  22.508  27.852  1.00  0.00     0.031 A 
ATOM     28  C   UNL A   1      46.191  29.113  30.392  1.00  0.00     0.031 A 
ATOM     29  C   UNL A   1      43.438  22.732  28.844  1.00  0.00     0.049 A 
ATOM     30  C   UNL A   1      46.538  27.695  30.520  1.00  0.00     0.074 A 
ATOM     31  C   UNL A   1      43.321  23.095  30.164  1.00  0.00     0.029 A 
ATOM     32  N   UNL A   1      44.656  23.183  28.358  1.00  0.00    -0.354 N 
ATOM     33  N   UNL A   1      47.151  27.020  29.599  1.00  0.00    -0.248 NA
ATOM     34  C   UNL A   1      46.083  26.949  31.695  1.00  0.00     0.031 C 
ATOM     35  C   UNL A   1      44.125  24.253  30.207  1.00  0.00     0.029 A 
ATOM     36  C   UNL A   1      45.069  24.202  29.178  1.00  0.00     0.049 A 
ATOM     37  H   UNL A   1      45.135  22.838  27.571  1.00  0.00     0.167 HD
ATOM     38  C   UNL A   1      46.704  25.751  29.841  1.00  0.00     0.074 A 
ATOM     39  C   UNL A   1      46.309  25.714  31.245  1.00  0.00     0.031 C 
ATOM     40  C   UNL A   1      46.179  25.034  28.808  1.00  0.00     0.031 A 
BRANCH  27  41
ATOM     41  C   UNL A   1      42.542  21.305  26.987  1.00  0.00    -0.014 A 
ATOM     42  C   UNL A   1      41.936  20.125  27.458  1.00  0.00     0.009 A 
ATOM     43  C   UNL A   1      43.392  21.210  25.879  1.00  0.00     0.009 A 
ATOM     44  C   UNL A   1      42.222  18.889  26.885  1.00  0.00     0.001 A 
ATOM     45  C   UNL A   1      43.655  19.978  25.285  1.00  0.00     0.001 A 
ATOM     46  C   UNL A   1      43.088  18.816  25.800  1.00  0.00     0.000 A 
ENDBRANCH  27  41
BRANCH  28  47
ATOM     47  C   UNL A   1      47.126  29.961  31.387  1.00  0.00    -0.014 A 
ATOM     48  C   UNL A   1      48.480  29.806  31.716  1.00  0.00     0.009 A 
ATOM     49  C   UNL A   1      46.559  31.130  32.034  1.00  0.00     0.009 A 
ATOM     50  C   UNL A   1      49.201  30.791  32.491  1.00  0.00     0.001 A 
ATOM     51  C   UNL A   1      47.267  32.133  32.734  1.00  0.00     0.001 A 
ATOM     52  C   UNL A   1      48.615  31.977  32.944  1.00  0.00     0.000 A 
ENDBRANCH  28  47
BRANCH  40  53
ATOM     53  C   UNL A   1      46.564  25.500  27.401  1.00  0.00    -0.014 A 
ATOM     54  C   UNL A   1      45.575  26.036  26.556  1.00  0.00     0.009 A 
ATOM     55  C   UNL A   1      47.831  25.297  26.820  1.00  0.00     0.009 A 
ATOM     56  C   UNL A   1      45.832  26.352  25.212  1.00  0.00     0.001 A 
ATOM     57  C   UNL A   1      48.092  25.597  25.467  1.00  0.00     0.001 A 
ATOM     58  C   UNL A   1      47.091  26.134  24.665  1.00  0.00     0.000 A 
ENDBRANCH  40  53
ENDBRANCH  14  15
ENDBRANCH   7   9
ENDBRANCH   6   7
ENDBRANCH   5   6
ENDBRANCH   4   5
ENDBRANCH   3   4
ENDBRANCH   2   3
ENDBRANCH   1   2
BRANCH   1  59
ATOM     59  O   UNL A   1      34.285  31.490  28.288  1.00  0.00    -0.376 OA
BRANCH  59  60
ATOM     60  C   UNL A   1      33.329  30.708  27.594  1.00  0.00     0.202 C 
BRANCH  60  61
ATOM     61  C   UNL A   1      33.839  29.695  26.527  1.00  0.00     0.261 C 
BRANCH  61  62
ATOM     62  O   UNL A   1      33.261  28.339  26.459  1.00  0.00    -0.459 OA
BRANCH  62  63
ATOM     63  C   UNL A   1      31.926  28.168  26.744  1.00  0.00     0.355 C 
ATOM     64  O   UNL A   1      31.500  28.033  27.884  1.00  0.00    -0.244 OA
BRANCH  63  65
ATOM     65  C   UNL A   1      31.109  27.913  25.544  1.00  0.00     0.128 A 
ATOM     66  C   UNL A   1      31.287  28.760  24.446  1.00  0.00     0.035 A 
ATOM     67  N   UNL A   1      30.327  26.813  25.067  1.00  0.00    -0.333 N 
ATOM     68  C   UNL A   1      30.828  28.114  23.288  1.00  0.00     0.020 A 
ATOM     69  C   UNL A   1      30.286  26.915  23.683  1.00  0.00     0.087 A 
BRANCH  67  70
ATOM     70  C   UNL A   1      29.752  25.602  25.763  1.00  0.00     0.222 C 
BRANCH  70  71
ATOM     71  C   UNL A   1      30.627  24.334  26.393  1.00  0.00     0.242 C 
ATOM     72  O   UNL A   1      30.085  23.568  27.197  1.00  0.00    -0.273 OA
BRANCH  71  73
ATOM     73  N   UNL A   1      31.928  23.988  25.840  1.00  0.00    -0.341 N 
ATOM     74  C   UNL A   1      31.921  22.050  25.475  1.00  0.00     0.120 C 
ATOM     75  C   UNL A   1      33.760  24.971  26.074  1.00  0.00     0.123 C 
ATOM     76  C   UNL A   1      33.444  20.661  25.601  1.00  0.00     0.025 C 
ATOM     77  C   UNL A   1      35.408  23.579  26.189  1.00  0.00     0.012 C 
ATOM     78  C   UNL A   1      35.307  21.484  26.066  1.00  0.00    -0.005 C 
ATOM     79  C   UNL A   1      36.923  23.635  25.683  1.00  0.00     0.006 C 
ATOM     80  C   UNL A   1      36.323  20.660  25.275  1.00  0.00     0.004 C 
ATOM     81  C   UNL A   1      37.515  22.763  24.515  1.00  0.00     0.000 C 
ATOM     82  C   UNL A   1      36.956  21.393  24.138  1.00  0.00     0.000 C 
ENDBRANCH  71  73
ENDBRANCH  70  71
ENDBRANCH  67  70
ENDBRANCH  63  65
ENDBRANCH  62  63
ENDBRANCH  61  62
ENDBRANCH  60  61
ENDBRANCH  59  60
ENDBRANCH   1  59
TORSDOF 20
ENDMDL
MODEL 2
REMARK VINA RESULT:     -10.7      3.477      8.725
REMARK SMILES O=C(OCCOCCOCCOC(=O)c1cccn1CC(=O)N1CC[C@H]2CCCC[C@H]2C1)c1ccc(-c2c3nc(c(-c4ccccc4)c4ccc([nH]4)c(-c4ccccc4)c4nc(c(-c5ccccc5)c5ccc2[nH]5)C=C4)C=C3)cc1
REMARK SMILES IDX 8 1 7 2 6 3 5 4 4 5 3 6 2 7 1 8 33 9 34 10 80 11 35 12 79 13
REMARK SMILES IDX 36 14 37 15 38 16 73 17 39 18 78 19 72 20 74 21 40 22 77 23
REMARK SMILES IDX 71 24 70 25 41 27 63 28 48 29 62 30 49 31 52 32 61 33 75 34
REMARK SMILES IDX 50 35 51 36 60 38 76 39 53 40 42 41 43 42 47 43 44 44 46 45
REMARK SMILES IDX 45 46 64 47 65 48 69 49 66 50 68 51 67 52 54 53 55 54 59 55
REMARK SMILES IDX 56 56 58 57 57 58 9 59 10 60 11 61 12 62 13 63 14 64 15 65
REMARK SMILES IDX 16 66 19 67 17 68 18 69 20 70 21 71 22 72 23 73 24 74 32 75
REMARK SMILES IDX 25 76 31 77 26 78 30 79 27 80 29 81 28 82
REMARK H PARENT 74 26 52 37
REMARK Flexibility Score: inf
ROOT
ATOM      1  C   UNL A   1      37.628  23.581  25.957  1.00  0.00     0.188 C 
ENDROOT
BRANCH   1   2
ATOM      2  C   UNL A   1      38.591  24.407  26.795  1.00  0.00     0.188 C 
BRANCH   2   3
ATOM      3  O   UNL A   1      39.952  24.050  27.020  1.00  0.00    -0.376 OA
BRANCH   3   4
ATOM      4  C   UNL A   1      40.370  22.694  27.216  1.00  0.00     0.202 C 
BRANCH   4   5
ATOM      5  C   UNL A   1      41.006  21.799  26.126  1.00  0.00     0.261 C 
BRANCH   5   6
ATOM      6  O   UNL A   1      42.227  22.212  25.517  1.00  0.00    -0.460 OA
BRANCH   6   7
ATOM      7  C   UNL A   1      42.784  23.421  25.772  1.00  0.00     0.338 C 
ATOM      8  O   UNL A   1      42.775  24.293  24.916  1.00  0.00    -0.246 OA
BRANCH   7   9
ATOM      9  C   UNL A   1      43.532  23.456  27.069  1.00  0.00     0.060 A 
ATOM     10  C   UNL A   1      43.835  23.983  28.256  1.00  0.00     0.016 A 
ATOM     11  C   UNL A   1      43.945  24.671  27.336  1.00  0.00     0.016 A 
ATOM     12  C   UNL A   1      43.611  25.466  29.429  1.00  0.00     0.010 A 
ATOM     13  C   UNL A   1      43.881  26.221  28.511  1.00  0.00     0.010 A 
ATOM     14  C   UNL A   1      43.116  26.710  29.461  1.00  0.00    -0.014 A 
BRANCH  14  15
ATOM     15  C   UNL A   1      42.566  28.087  29.462  1.00  0.00     0.031 A 
ATOM     16  C   UNL A   1      43.176  28.517  30.777  1.00  0.00     0.074 A 
ATOM     17  C   UNL A   1      41.441  28.624  28.751  1.00  0.00     0.049 A 
ATOM     18  N   UNL A   1      42.729  28.197  31.948  1.00  0.00    -0.248 NA
ATOM     19  C   UNL A   1      44.651  28.796  30.810  1.00  0.00     0.031 C 
ATOM     20  C   UNL A   1      41.104  28.528  27.299  1.00  0.00     0.029 A 
ATOM     21  N   UNL A   1      40.298  29.394  29.103  1.00  0.00    -0.354 N 
ATOM     22  C   UNL A   1      43.749  28.538  32.833  1.00  0.00     0.074 A 
ATOM     23  C   UNL A   1      44.956  28.476  32.074  1.00  0.00     0.031 C 
ATOM     24  C   UNL A   1      39.837  28.952  26.987  1.00  0.00     0.029 A 
ATOM     25  C   UNL A   1      39.160  29.476  28.162  1.00  0.00     0.049 A 
ATOM     26  H   UNL A   1      40.264  29.869  29.964  1.00  0.00     0.167 HD
ATOM     27  C   UNL A   1      43.521  29.274  33.957  1.00  0.00     0.031 A 
ATOM     28  C   UNL A   1      37.826  29.915  28.356  1.00  0.00     0.031 A 
ATOM     29  C   UNL A   1      42.138  29.642  34.014  1.00  0.00     0.049 A 
ATOM     30  C   UNL A   1      37.913  30.466  29.711  1.00  0.00     0.074 A 
ATOM     31  C   UNL A   1      41.014  28.859  34.120  1.00  0.00     0.029 A 
ATOM     32  N   UNL A   1      41.810  30.815  33.353  1.00  0.00    -0.354 N 
ATOM     33  N   UNL A   1      38.540  31.562  30.001  1.00  0.00    -0.248 NA
ATOM     34  C   UNL A   1      37.365  29.701  30.832  1.00  0.00     0.031 C 
ATOM     35  C   UNL A   1      40.275  29.280  32.994  1.00  0.00     0.029 A 
ATOM     36  C   UNL A   1      40.662  30.575  32.642  1.00  0.00     0.049 A 
ATOM     37  H   UNL A   1      42.309  31.663  33.385  1.00  0.00     0.167 HD
ATOM     38  C   UNL A   1      38.894  31.344  31.304  1.00  0.00     0.074 A 
ATOM     39  C   UNL A   1      37.943  30.371  31.831  1.00  0.00     0.031 C 
ATOM     40  C   UNL A   1      40.195  31.519  31.666  1.00  0.00     0.031 A 
BRANCH  27  41
ATOM     41  C   UNL A   1      44.490  30.029  34.793  1.00  0.00    -0.014 A 
ATOM     42  C   UNL A   1      44.514  29.725  36.168  1.00  0.00     0.009 A 
ATOM     43  C   UNL A   1      45.191  31.158  34.358  1.00  0.00     0.009 A 
ATOM     44  C   UNL A   1      45.158  30.557  37.080  1.00  0.00     0.001 A 
ATOM     45  C   UNL A   1      45.863  31.975  35.266  1.00  0.00     0.001 A 
ATOM     46  C   UNL A   1      45.829  31.687  36.626  1.00  0.00     0.000 A 
ENDBRANCH  27  41
BRANCH  28  47
ATOM     47  C   UNL A   1      36.316  30.082  27.831  1.00  0.00    -0.014 A 
ATOM     48  C   UNL A   1      35.401  29.123  27.373  1.00  0.00     0.009 A 
ATOM     49  C   UNL A   1      35.716  31.403  27.869  1.00  0.00     0.009 A 
ATOM     50  C   UNL A   1      34.014  29.442  27.121  1.00  0.00     0.001 A 
ATOM     51  C   UNL A   1      34.348  31.715  27.692  1.00  0.00     0.001 A 
ATOM     52  C   UNL A   1      33.476  30.715  27.338  1.00  0.00     0.000 A 
ENDBRANCH  28  47
BRANCH  40  53
ATOM     53  C   UNL A   1      41.042  32.392  30.736  1.00  0.00    -0.014 A 
ATOM     54  C   UNL A   1      42.234  31.873  30.197  1.00  0.00     0.009 A 
ATOM     55  C   UNL A   1      40.791  33.755  30.484  1.00  0.00     0.009 A 
ATOM     56  C   UNL A   1      43.123  32.663  29.451  1.00  0.00     0.001 A 
ATOM     57  C   UNL A   1      41.687  34.559  29.750  1.00  0.00     0.001 A 
ATOM     58  C   UNL A   1      42.851  34.008  29.226  1.00  0.00     0.000 A 
ENDBRANCH  40  53
ENDBRANCH  14  15
ENDBRANCH   7   9
ENDBRANCH   6   7
ENDBRANCH   5   6
ENDBRANCH   4   5
ENDBRANCH   3   4
ENDBRANCH   2   3
ENDBRANCH   1   2
BRANCH   1  59
ATOM     59  O   UNL A   1      36.286  23.996  25.943  1.00  0.00    -0.376 OA
BRANCH  59  60
ATOM     60  C   UNL A   1      35.679  23.989  24.662  1.00  0.00     0.202 C 
BRANCH  60  61
ATOM     61  C   UNL A   1      34.487  24.958  24.407  1.00  0.00     0.261 C 
BRANCH  61  62
ATOM     62  O   UNL A   1      33.672  24.821  23.185  1.00  0.00    -0.459 OA
BRANCH  62  63
ATOM     63  C   UNL A   1      33.411  25.940  22.428  1.00  0.00     0.355 C 
ATOM     64  O   UNL A   1      33.664  26.010  21.232  1.00  0.00    -0.244 OA
BRANCH  63  65
ATOM     65  C   UNL A   1      33.040  27.112  23.242  1.00  0.00     0.128 A 
ATOM     66  C   UNL A   1      33.841  28.254  23.137  1.00  0.00     0.035 A 
ATOM     67  N   UNL A   1      31.867  27.520  23.954  1.00  0.00    -0.333 N 
ATOM     68  C   UNL A   1      33.107  29.370  23.566  1.00  0.00     0.020 A 
ATOM     69  C   UNL A   1      31.895  28.906  24.020  1.00  0.00     0.087 A 
BRANCH  67  70
ATOM     70  C   UNL A   1      30.658  26.755  24.435  1.00  0.00     0.222 C 
BRANCH  70  71
ATOM     71  C   UNL A   1      30.656  25.569  25.603  1.00  0.00     0.242 C 
ATOM     72  O   UNL A   1      30.307  25.855  26.753  1.00  0.00    -0.273 OA
BRANCH  71  73
ATOM     73  N   UNL A   1      30.837  24.172  25.237  1.00  0.00    -0.341 N 
ATOM     74  C   UNL A   1      31.926  23.326  26.647  1.00  0.00     0.120 C 
ATOM     75  C   UNL A   1      30.762  23.288  23.342  1.00  0.00     0.123 C 
ATOM     76  C   UNL A   1      33.343  21.828  26.522  1.00  0.00     0.025 C 
ATOM     77  C   UNL A   1      32.204  21.691  23.145  1.00  0.00     0.012 C 
ATOM     78  C   UNL A   1      33.543  21.007  24.611  1.00  0.00    -0.005 C 
ATOM     79  C   UNL A   1      32.189  20.297  22.365  1.00  0.00     0.006 C 
ATOM     80  C   UNL A   1      33.822  19.520  24.836  1.00  0.00     0.004 C 
ATOM     81  C   UNL A   1      32.142  18.881  23.051  1.00  0.00     0.000 C 
ATOM     82  C   UNL A   1      32.696  18.619  24.449  1.00  0.00     0.000 C 
ENDBRANCH  71  73
ENDBRANCH  70  71
ENDBRANCH  67  70
ENDBRANCH  63  65
ENDBRANCH  62  63
ENDBRANCH  61  62
ENDBRANCH  60  61
ENDBRANCH  59  60
ENDBRANCH   1  59
TORSDOF 20
ENDMDL
MODEL 3
REMARK VINA RESULT:     -10.6      3.137      7.291
REMARK SMILES O=C(OCCOCCOCCOC(=O)c1cccn1CC(=O)N1CC[C@H]2CCCC[C@H]2C1)c1ccc(-c2c3nc(c(-c4ccccc4)c4ccc([nH]4)c(-c4ccccc4)c4nc(c(-c5ccccc5)c5ccc2[nH]5)C=C4)C=C3)cc1
REMARK SMILES IDX 8 1 7 2 6 3 5 4 4 5 3 6 2 7 1 8 33 9 34 10 80 11 35 12 79 13
REMARK SMILES IDX 36 14 37 15 38 16 73 17 39 18 78 19 72 20 74 21 40 22 77 23
REMARK SMILES IDX 71 24 70 25 41 27 63 28 48 29 62 30 49 31 52 32 61 33 75 34
REMARK SMILES IDX 50 35 51 36 60 38 76 39 53 40 42 41 43 42 47 43 44 44 46 45
REMARK SMILES IDX 45 46 64 47 65 48 69 49 66 50 68 51 67 52 54 53 55 54 59 55
REMARK SMILES IDX 56 56 58 57 57 58 9 59 10 60 11 61 12 62 13 63 14 64 15 65
REMARK SMILES IDX 16 66 19 67 17 68 18 69 20 70 21 71 22 72 23 73 24 74 32 75
REMARK SMILES IDX 25 76 31 77 26 78 30 79 27 80 29 81 28 82
REMARK H PARENT 74 26 52 37
REMARK Flexibility Score: inf
ROOT
ATOM      1  C   UNL A   1      36.860  22.628  25.728  1.00  0.00     0.188 C 
ENDROOT
BRANCH   1   2
ATOM      2  C   UNL A   1      38.372  22.784  25.774  1.00  0.00     0.188 C 
BRANCH   2   3
ATOM      3  O   UNL A   1      39.247  21.850  26.400  1.00  0.00    -0.376 OA
BRANCH   3   4
ATOM      4  C   UNL A   1      39.361  20.490  25.963  1.00  0.00     0.202 C 
BRANCH   4   5
ATOM      5  C   UNL A   1      40.658  19.648  26.025  1.00  0.00     0.261 C 
BRANCH   5   6
ATOM      6  O   UNL A   1      41.582  19.878  27.085  1.00  0.00    -0.460 OA
BRANCH   6   7
ATOM      7  C   UNL A   1      42.328  21.006  27.158  1.00  0.00     0.338 C 
ATOM      8  O   UNL A   1      42.303  21.695  28.167  1.00  0.00    -0.246 OA
BRANCH   7   9
ATOM      9  C   UNL A   1      42.970  21.366  25.853  1.00  0.00     0.060 A 
ATOM     10  C   UNL A   1      43.653  22.177  25.044  1.00  0.00     0.016 A 
ATOM     11  C   UNL A   1      42.693  22.604  25.523  1.00  0.00     0.016 A 
ATOM     12  C   UNL A   1      44.397  23.914  24.812  1.00  0.00     0.010 A 
ATOM     13  C   UNL A   1      43.339  24.404  25.163  1.00  0.00     0.010 A 
ATOM     14  C   UNL A   1      44.414  25.129  25.372  1.00  0.00    -0.014 A 
BRANCH  14  15
ATOM     15  C   UNL A   1      44.406  26.467  26.014  1.00  0.00     0.031 A 
ATOM     16  C   UNL A   1      45.694  26.297  26.787  1.00  0.00     0.074 A 
ATOM     17  C   UNL A   1      43.313  27.369  26.236  1.00  0.00     0.049 A 
ATOM     18  N   UNL A   1      45.824  25.626  27.885  1.00  0.00    -0.248 NA
ATOM     19  C   UNL A   1      46.985  26.351  26.022  1.00  0.00     0.031 C 
ATOM     20  C   UNL A   1      42.281  27.862  25.275  1.00  0.00     0.029 A 
ATOM     21  N   UNL A   1      42.813  28.095  27.353  1.00  0.00    -0.354 N 
ATOM     22  C   UNL A   1      47.197  25.481  28.065  1.00  0.00     0.074 A 
ATOM     23  C   UNL A   1      47.766  25.549  26.758  1.00  0.00     0.031 C 
ATOM     24  C   UNL A   1      41.238  28.531  25.865  1.00  0.00     0.029 A 
ATOM     25  C   UNL A   1      41.449  28.665  27.297  1.00  0.00     0.049 A 
ATOM     26  H   UNL A   1      43.369  28.217  28.156  1.00  0.00     0.167 HD
ATOM     27  C   UNL A   1      47.811  25.770  29.246  1.00  0.00     0.031 A 
ATOM     28  C   UNL A   1      40.613  29.169  28.325  1.00  0.00     0.031 A 
ATOM     29  C   UNL A   1      46.843  26.266  30.178  1.00  0.00     0.049 A 
ATOM     30  C   UNL A   1      41.538  29.163  29.460  1.00  0.00     0.074 A 
ATOM     31  C   UNL A   1      45.745  25.651  30.730  1.00  0.00     0.029 A 
ATOM     32  N   UNL A   1      46.617  27.633  30.125  1.00  0.00    -0.354 N 
ATOM     33  N   UNL A   1      42.534  29.983  29.579  1.00  0.00    -0.248 NA
ATOM     34  C   UNL A   1      41.421  28.114  30.475  1.00  0.00     0.031 C 
ATOM     35  C   UNL A   1      44.717  26.551  30.378  1.00  0.00     0.029 A 
ATOM     36  C   UNL A   1      45.260  27.823  30.180  1.00  0.00     0.049 A 
ATOM     37  H   UNL A   1      47.301  28.336  30.059  1.00  0.00     0.167 HD
ATOM     38  C   UNL A   1      43.406  29.254  30.340  1.00  0.00     0.074 A 
ATOM     39  C   UNL A   1      42.599  28.286  31.076  1.00  0.00     0.031 C 
ATOM     40  C   UNL A   1      44.691  29.113  29.909  1.00  0.00     0.031 A 
BRANCH  27  41
ATOM     41  C   UNL A   1      49.249  26.030  29.513  1.00  0.00    -0.014 A 
ATOM     42  C   UNL A   1      49.854  25.267  30.531  1.00  0.00     0.009 A 
ATOM     43  C   UNL A   1      49.961  27.119  28.998  1.00  0.00     0.009 A 
ATOM     44  C   UNL A   1      51.092  25.622  31.059  1.00  0.00     0.001 A 
ATOM     45  C   UNL A   1      51.215  27.456  29.503  1.00  0.00     0.001 A 
ATOM     46  C   UNL A   1      51.770  26.723  30.546  1.00  0.00     0.000 A 
ENDBRANCH  27  41
BRANCH  28  47
ATOM     47  C   UNL A   1      39.186  29.712  28.829  1.00  0.00    -0.014 A 
ATOM     48  C   UNL A   1      37.905  29.160  28.695  1.00  0.00     0.009 A 
ATOM     49  C   UNL A   1      39.152  30.934  29.611  1.00  0.00     0.009 A 
ATOM     50  C   UNL A   1      36.757  29.704  29.387  1.00  0.00     0.001 A 
ATOM     51  C   UNL A   1      38.053  31.436  30.346  1.00  0.00     0.001 A 
ATOM     52  C   UNL A   1      36.842  30.796  30.255  1.00  0.00     0.000 A 
ENDBRANCH  28  47
BRANCH  40  53
ATOM     53  C   UNL A   1      45.179  30.151  28.895  1.00  0.00    -0.014 A 
ATOM     54  C   UNL A   1      45.431  29.756  27.568  1.00  0.00     0.009 A 
ATOM     55  C   UNL A   1      45.541  31.472  29.227  1.00  0.00     0.009 A 
ATOM     56  C   UNL A   1      46.010  30.623  26.628  1.00  0.00     0.001 A 
ATOM     57  C   UNL A   1      46.138  32.343  28.292  1.00  0.00     0.001 A 
ATOM     58  C   UNL A   1      46.363  31.918  26.987  1.00  0.00     0.000 A 
ENDBRANCH  40  53
ENDBRANCH  14  15
ENDBRANCH   7   9
ENDBRANCH   6   7
ENDBRANCH   5   6
ENDBRANCH   4   5
ENDBRANCH   3   4
ENDBRANCH   2   3
ENDBRANCH   1   2
BRANCH   1  59
ATOM     59  O   UNL A   1      36.118  23.755  25.339  1.00  0.00    -0.376 OA
BRANCH  59  60
ATOM     60  C   UNL A   1      35.680  23.737  23.992  1.00  0.00     0.202 C 
BRANCH  60  61
ATOM     61  C   UNL A   1      34.376  24.507  23.631  1.00  0.00     0.261 C 
BRANCH  61  62
ATOM     62  O   UNL A   1      34.089  24.859  22.227  1.00  0.00    -0.459 OA
BRANCH  62  63
ATOM     63  C   UNL A   1      33.067  25.739  21.955  1.00  0.00     0.355 C 
ATOM     64  O   UNL A   1      32.416  25.705  20.917  1.00  0.00    -0.244 OA
BRANCH  63  65
ATOM     65  C   UNL A   1      33.005  26.862  22.907  1.00  0.00     0.128 A 
ATOM     66  C   UNL A   1      33.948  27.885  22.765  1.00  0.00     0.035 A 
ATOM     67  N   UNL A   1      32.027  27.355  23.829  1.00  0.00    -0.333 N 
ATOM     68  C   UNL A   1      33.466  29.043  23.394  1.00  0.00     0.020 A 
ATOM     69  C   UNL A   1      32.278  28.710  23.998  1.00  0.00     0.087 A 
BRANCH  67  70
ATOM     70  C   UNL A   1      30.798  26.723  24.437  1.00  0.00     0.222 C 
BRANCH  70  71
ATOM     71  C   UNL A   1      30.789  25.539  25.606  1.00  0.00     0.242 C 
ATOM     72  O   UNL A   1      30.460  25.833  26.760  1.00  0.00    -0.273 OA
BRANCH  71  73
ATOM     73  N   UNL A   1      30.938  24.138  25.240  1.00  0.00    -0.341 N 
ATOM     74  C   UNL A   1      32.023  23.271  26.640  1.00  0.00     0.120 C 
ATOM     75  C   UNL A   1      30.828  23.254  23.346  1.00  0.00     0.123 C 
ATOM     76  C   UNL A   1      33.408  21.746  26.503  1.00  0.00     0.025 C 
ATOM     77  C   UNL A   1      32.235  21.628  23.137  1.00  0.00     0.012 C 
ATOM     78  C   UNL A   1      33.574  20.919  24.592  1.00  0.00    -0.005 C 
ATOM     79  C   UNL A   1      32.185  20.234  22.359  1.00  0.00     0.006 C 
ATOM     80  C   UNL A   1      33.826  19.427  24.815  1.00  0.00     0.004 C 
ATOM     81  C   UNL A   1      32.116  18.820  23.047  1.00  0.00     0.000 C 
ATOM     82  C   UNL A   1      32.678  18.548  24.440  1.00  0.00     0.000 C 
ENDBRANCH  71  73
ENDBRANCH  70  71
ENDBRANCH  67  70
ENDBRANCH  63  65
ENDBRANCH  62  63
ENDBRANCH  61  62
ENDBRANCH  60  61
ENDBRANCH  59  60
ENDBRANCH   1  59
TORSDOF 20
ENDMDL
