MODEL 1
REMARK VINA RESULT:      -7.6      0.000      0.000
REMARK SMILES COc1ccccc1-c1ccc(C(=O)OCCOCCOCCOC(=O)c2ccc(-c3c4nc(c(-c5ccccc5)c5ccc([nH]5)c(-c5ccccc5)c5nc(c(-c6ccccc6)c6ccc3[nH]6)C=C5)C=C4)cc2)c(O)c1
REMARK SMILES IDX 19 1 18 2 17 3 16 4 15 5 13 6 14 7 12 8 9 9 10 10 77 11
REMARK SMILES IDX 11 12 75 13 8 14 3 15 4 16 5 17 7 18 6 19 2 20 1 21 76 22
REMARK SMILES IDX 20 24 21 25 22 26 23 27 24 28 25 29 26 30 27 31 28 32 74 33
REMARK SMILES IDX 29 34 73 35 30 36 31 37 32 38 67 39 33 40 72 41 66 42 68 43
REMARK SMILES IDX 34 44 71 45 65 46 64 47 35 49 57 50 42 51 56 52 43 53 46 54
REMARK SMILES IDX 55 55 69 56 44 57 45 58 54 60 70 61 47 62 36 63 37 64 41 65
REMARK SMILES IDX 38 66 40 67 39 68 58 69 59 70 63 71 60 72 62 73 61 74 48 75
REMARK SMILES IDX 49 76 53 77 50 78 52 79 51 80
REMARK H PARENT 76 23 68 48 46 59
REMARK Flexibility Score: inf
ROOT
ATOM      1  C   UNL A   1      35.754  34.593  33.148  1.00  0.00     0.188 C 
ENDROOT
BRANCH   1   2
ATOM      2  O   UNL A   1      36.404  33.346  33.300  1.00  0.00    -0.376 OA
BRANCH   2   3
ATOM      3  C   UNL A   1      37.348  33.146  34.345  1.00  0.00     0.202 C 
BRANCH   3   4
ATOM      4  C   UNL A   1      37.876  31.756  34.696  1.00  0.00     0.261 C 
BRANCH   4   5
ATOM      5  O   UNL A   1      39.082  31.421  34.004  1.00  0.00    -0.460 OA
BRANCH   5   6
ATOM      6  C   UNL A   1      40.179  31.311  34.790  1.00  0.00     0.341 C 
ATOM      7  O   UNL A   1      40.617  32.154  35.557  1.00  0.00    -0.246 OA
BRANCH   6   8
ATOM      8  C   UNL A   1      40.683  29.925  34.791  1.00  0.00     0.101 A 
ATOM      9  C   UNL A   1      41.940  27.421  34.910  1.00  0.00    -0.011 A 
ATOM     10  C   UNL A   1      41.784  28.188  36.074  1.00  0.00     0.010 A 
ATOM     11  C   UNL A   1      41.346  27.868  33.715  1.00  0.00     0.056 A 
ATOM     12  C   UNL A   1      41.172  29.439  36.012  1.00  0.00     0.020 A 
ATOM     13  C   UNL A   1      40.730  29.119  33.653  1.00  0.00     0.130 A 
BRANCH   9  14
ATOM     14  C   UNL A   1      42.874  26.286  34.905  1.00  0.00     0.024 A 
ATOM     15  C   UNL A   1      43.222  25.623  36.103  1.00  0.00     0.126 A 
ATOM     16  C   UNL A   1      44.102  24.539  36.098  1.00  0.00     0.047 A 
ATOM     17  C   UNL A   1      44.618  24.068  34.895  1.00  0.00     0.004 A 
ATOM     18  C   UNL A   1      43.409  25.794  33.703  1.00  0.00     0.012 A 
ATOM     19  C   UNL A   1      44.272  24.693  33.698  1.00  0.00     0.001 A 
BRANCH  15  20
ATOM     20  O   UNL A   1      42.789  26.039  37.340  1.00  0.00    -0.496 OA
ATOM     21  C   UNL A   1      43.855  26.123  38.289  1.00  0.00     0.278 C 
ENDBRANCH  15  20
ENDBRANCH   9  14
BRANCH  13  22
ATOM     22  O   UNL A   1      40.238  29.567  32.461  1.00  0.00    -0.507 OA
ATOM     23  H   UNL A   1      39.387  29.957  32.421  1.00  0.00     0.293 HD
ENDBRANCH  13  22
ENDBRANCH   6   8
ENDBRANCH   5   6
ENDBRANCH   4   5
ENDBRANCH   3   4
ENDBRANCH   2   3
ENDBRANCH   1   2
BRANCH   1  24
ATOM     24  C   UNL A   1      34.219  34.680  33.009  1.00  0.00     0.188 C 
BRANCH  24  25
ATOM     25  O   UNL A   1      33.589  35.773  32.374  1.00  0.00    -0.376 OA
BRANCH  25  26
ATOM     26  C   UNL A   1      32.928  35.591  31.136  1.00  0.00     0.202 C 
BRANCH  26  27
ATOM     27  C   UNL A   1      33.205  36.503  29.937  1.00  0.00     0.261 C 
BRANCH  27  28
ATOM     28  O   UNL A   1      33.507  35.817  28.715  1.00  0.00    -0.460 OA
BRANCH  28  29
ATOM     29  C   UNL A   1      33.264  34.483  28.741  1.00  0.00     0.338 C 
ATOM     30  O   UNL A   1      32.210  33.912  28.532  1.00  0.00    -0.246 OA
BRANCH  29  31
ATOM     31  C   UNL A   1      34.537  33.761  28.906  1.00  0.00     0.060 A 
ATOM     32  C   UNL A   1      34.644  32.835  29.952  1.00  0.00     0.016 A 
ATOM     33  C   UNL A   1      35.632  34.048  28.091  1.00  0.00     0.016 A 
ATOM     34  C   UNL A   1      35.861  32.204  30.200  1.00  0.00     0.010 A 
ATOM     35  C   UNL A   1      36.856  33.433  28.357  1.00  0.00     0.010 A 
ATOM     36  C   UNL A   1      36.983  32.530  29.428  1.00  0.00    -0.014 A 
BRANCH  36  37
ATOM     37  C   UNL A   1      38.326  32.060  29.841  1.00  0.00     0.031 A 
ATOM     38  C   UNL A   1      38.788  30.705  29.384  1.00  0.00     0.074 A 
ATOM     39  C   UNL A   1      39.129  32.831  30.595  1.00  0.00     0.049 A 
ATOM     40  N   UNL A   1      39.888  30.061  29.681  1.00  0.00    -0.248 NA
ATOM     41  C   UNL A   1      37.891  29.981  28.468  1.00  0.00     0.031 C 
ATOM     42  C   UNL A   1      38.826  34.187  31.048  1.00  0.00     0.029 A 
ATOM     43  N   UNL A   1      40.369  32.568  31.120  1.00  0.00    -0.354 N 
ATOM     44  C   UNL A   1      39.817  28.860  28.985  1.00  0.00     0.074 A 
ATOM     45  C   UNL A   1      38.556  28.851  28.276  1.00  0.00     0.031 C 
ATOM     46  C   UNL A   1      39.852  34.635  31.795  1.00  0.00     0.029 A 
ATOM     47  C   UNL A   1      40.861  33.584  31.904  1.00  0.00     0.049 A 
ATOM     48  H   UNL A   1      40.861  31.732  30.950  1.00  0.00     0.167 HD
ATOM     49  C   UNL A   1      40.724  27.856  28.936  1.00  0.00     0.031 A 
ATOM     50  C   UNL A   1      41.983  33.641  32.646  1.00  0.00     0.031 A 
ATOM     51  C   UNL A   1      41.963  27.846  29.664  1.00  0.00     0.049 A 
ATOM     52  C   UNL A   1      42.915  32.455  32.672  1.00  0.00     0.074 A 
ATOM     53  C   UNL A   1      42.935  26.861  29.699  1.00  0.00     0.029 A 
ATOM     54  N   UNL A   1      42.398  28.869  30.491  1.00  0.00    -0.354 N 
ATOM     55  N   UNL A   1      42.839  31.326  32.010  1.00  0.00    -0.248 NA
ATOM     56  C   UNL A   1      44.089  32.557  33.553  1.00  0.00     0.031 C 
ATOM     57  C   UNL A   1      43.938  27.270  30.584  1.00  0.00     0.029 A 
ATOM     58  C   UNL A   1      43.615  28.532  31.057  1.00  0.00     0.049 A 
ATOM     59  H   UNL A   1      41.912  29.710  30.652  1.00  0.00     0.167 HD
ATOM     60  C   UNL A   1      43.971  30.601  32.366  1.00  0.00     0.074 A 
ATOM     61  C   UNL A   1      44.723  31.424  33.291  1.00  0.00     0.031 C 
ATOM     62  C   UNL A   1      44.357  29.366  31.964  1.00  0.00     0.031 A 
BRANCH  49  63
ATOM     63  C   UNL A   1      40.390  26.669  28.079  1.00  0.00    -0.014 A 
ATOM     64  C   UNL A   1      40.896  26.555  26.774  1.00  0.00     0.009 A 
ATOM     65  C   UNL A   1      39.594  25.635  28.594  1.00  0.00     0.009 A 
ATOM     66  C   UNL A   1      40.589  25.437  25.994  1.00  0.00     0.001 A 
ATOM     67  C   UNL A   1      39.310  24.509  27.821  1.00  0.00     0.001 A 
ATOM     68  C   UNL A   1      39.802  24.414  26.520  1.00  0.00     0.000 A 
ENDBRANCH  49  63
BRANCH  50  69
ATOM     69  C   UNL A   1      42.290  34.844  33.464  1.00  0.00    -0.014 A 
ATOM     70  C   UNL A   1      43.100  35.869  32.951  1.00  0.00     0.009 A 
ATOM     71  C   UNL A   1      41.828  34.943  34.786  1.00  0.00     0.009 A 
ATOM     72  C   UNL A   1      43.472  36.948  33.757  1.00  0.00     0.001 A 
ATOM     73  C   UNL A   1      42.175  36.039  35.578  1.00  0.00     0.001 A 
ATOM     74  C   UNL A   1      43.009  37.032  35.068  1.00  0.00     0.000 A 
ENDBRANCH  50  69
BRANCH  62  75
ATOM     75  C   UNL A   1      45.672  28.851  32.478  1.00  0.00    -0.014 A 
ATOM     76  C   UNL A   1      45.765  28.174  33.704  1.00  0.00     0.009 A 
ATOM     77  C   UNL A   1      46.829  29.010  31.699  1.00  0.00     0.009 A 
ATOM     78  C   UNL A   1      46.998  27.700  34.156  1.00  0.00     0.001 A 
ATOM     79  C   UNL A   1      48.055  28.509  32.140  1.00  0.00     0.001 A 
ATOM     80  C   UNL A   1      48.140  27.863  33.372  1.00  0.00     0.000 A 
ENDBRANCH  62  75
ENDBRANCH  36  37
ENDBRANCH  29  31
ENDBRANCH  28  29
ENDBRANCH  27  28
ENDBRANCH  26  27
ENDBRANCH  25  26
ENDBRANCH  24  25
ENDBRANCH   1  24
TORSDOF 20
ENDMDL
MODEL 2
REMARK VINA RESULT:      -7.5      4.608      8.207
REMARK SMILES COc1ccccc1-c1ccc(C(=O)OCCOCCOCCOC(=O)c2ccc(-c3c4nc(c(-c5ccccc5)c5ccc([nH]5)c(-c5ccccc5)c5nc(c(-c6ccccc6)c6ccc3[nH]6)C=C5)C=C4)cc2)c(O)c1
REMARK SMILES IDX 19 1 18 2 17 3 16 4 15 5 13 6 14 7 12 8 9 9 10 10 77 11
REMARK SMILES IDX 11 12 75 13 8 14 3 15 4 16 5 17 7 18 6 19 2 20 1 21 76 22
REMARK SMILES IDX 20 24 21 25 22 26 23 27 24 28 25 29 26 30 27 31 28 32 74 33
REMARK SMILES IDX 29 34 73 35 30 36 31 37 32 38 67 39 33 40 72 41 66 42 68 43
REMARK SMILES IDX 34 44 71 45 65 46 64 47 35 49 57 50 42 51 56 52 43 53 46 54
REMARK SMILES IDX 55 55 69 56 44 57 45 58 54 60 70 61 47 62 36 63 37 64 41 65
REMARK SMILES IDX 38 66 40 67 39 68 58 69 59 70 63 71 60 72 62 73 61 74 48 75
REMARK SMILES IDX 49 76 53 77 50 78 52 79 51 80
REMARK H PARENT 76 23 68 48 46 59
REMARK Flexibility Score: inf
ROOT
ATOM      1  C   UNL A   1      33.021  28.377  25.108  1.00  0.00     0.188 C 
ENDROOT
BRANCH   1   2
ATOM      2  O   UNL A   1      32.307  29.093  24.119  1.00  0.00    -0.376 OA
BRANCH   2   3
ATOM      3  C   UNL A   1      31.061  29.703  24.430  1.00  0.00     0.202 C 
BRANCH   3   4
ATOM      4  C   UNL A   1      29.873  29.639  23.471  1.00  0.00     0.261 C 
BRANCH   4   5
ATOM      5  O   UNL A   1      29.861  28.455  22.670  1.00  0.00    -0.460 OA
BRANCH   5   6
ATOM      6  C   UNL A   1      29.371  27.353  23.287  1.00  0.00     0.341 C 
ATOM      7  O   UNL A   1      28.198  27.111  23.526  1.00  0.00    -0.246 OA
BRANCH   6   8
ATOM      8  C   UNL A   1      30.422  26.331  23.445  1.00  0.00     0.101 A 
ATOM      9  C   UNL A   1      32.520  24.564  24.027  1.00  0.00    -0.011 A 
ATOM     10  C   UNL A   1      31.480  24.754  24.950  1.00  0.00     0.010 A 
ATOM     11  C   UNL A   1      32.427  25.173  22.761  1.00  0.00     0.056 A 
ATOM     12  C   UNL A   1      30.446  25.643  24.666  1.00  0.00     0.020 A 
ATOM     13  C   UNL A   1      31.388  26.060  22.475  1.00  0.00     0.130 A 
BRANCH   9  14
ATOM     14  C   UNL A   1      33.765  23.912  24.456  1.00  0.00     0.024 A 
ATOM     15  C   UNL A   1      33.978  22.532  24.238  1.00  0.00     0.126 A 
ATOM     16  C   UNL A   1      35.164  21.913  24.637  1.00  0.00     0.047 A 
ATOM     17  C   UNL A   1      36.178  22.666  25.223  1.00  0.00     0.004 A 
ATOM     18  C   UNL A   1      34.801  24.650  25.051  1.00  0.00     0.012 A 
ATOM     19  C   UNL A   1      35.999  24.032  25.429  1.00  0.00     0.001 A 
BRANCH  15  20
ATOM     20  O   UNL A   1      33.021  21.704  23.698  1.00  0.00    -0.496 OA
ATOM     21  C   UNL A   1      32.424  20.854  24.681  1.00  0.00     0.278 C 
ENDBRANCH  15  20
ENDBRANCH   9  14
BRANCH  13  22
ATOM     22  O   UNL A   1      31.368  26.704  21.272  1.00  0.00    -0.507 OA
ATOM     23  H   UNL A   1      31.572  27.618  21.225  1.00  0.00     0.293 HD
ENDBRANCH  13  22
ENDBRANCH   6   8
ENDBRANCH   5   6
ENDBRANCH   4   5
ENDBRANCH   3   4
ENDBRANCH   2   3
ENDBRANCH   1   2
BRANCH   1  24
ATOM     24  C   UNL A   1      32.602  28.433  26.593  1.00  0.00     0.188 C 
BRANCH  24  25
ATOM     25  O   UNL A   1      33.059  29.452  27.457  1.00  0.00    -0.376 OA
BRANCH  25  26
ATOM     26  C   UNL A   1      33.498  30.690  26.928  1.00  0.00     0.202 C 
BRANCH  26  27
ATOM     27  C   UNL A   1      33.804  31.887  27.834  1.00  0.00     0.261 C 
BRANCH  27  28
ATOM     28  O   UNL A   1      32.957  33.025  27.634  1.00  0.00    -0.460 OA
BRANCH  28  29
ATOM     29  C   UNL A   1      33.254  34.096  28.411  1.00  0.00     0.338 C 
ATOM     30  O   UNL A   1      32.591  35.102  28.581  1.00  0.00    -0.246 OA
BRANCH  29  31
ATOM     31  C   UNL A   1      34.471  33.808  29.188  1.00  0.00     0.060 A 
ATOM     32  C   UNL A   1      35.708  34.193  28.653  1.00  0.00     0.016 A 
ATOM     33  C   UNL A   1      34.401  33.102  30.389  1.00  0.00     0.016 A 
ATOM     34  C   UNL A   1      36.887  33.853  29.312  1.00  0.00     0.010 A 
ATOM     35  C   UNL A   1      35.585  32.742  31.035  1.00  0.00     0.010 A 
ATOM     36  C   UNL A   1      36.832  33.091  30.486  1.00  0.00    -0.014 A 
BRANCH  36  37
ATOM     37  C   UNL A   1      38.074  32.514  31.051  1.00  0.00     0.031 A 
ATOM     38  C   UNL A   1      38.649  31.279  30.415  1.00  0.00     0.074 A 
ATOM     39  C   UNL A   1      38.690  33.085  32.101  1.00  0.00     0.049 A 
ATOM     40  N   UNL A   1      39.680  30.562  30.782  1.00  0.00    -0.248 NA
ATOM     41  C   UNL A   1      37.972  30.791  29.203  1.00  0.00     0.031 C 
ATOM     42  C   UNL A   1      38.271  34.318  32.765  1.00  0.00     0.029 A 
ATOM     43  N   UNL A   1      39.804  32.687  32.796  1.00  0.00    -0.354 N 
ATOM     44  C   UNL A   1      39.778  29.542  29.844  1.00  0.00     0.074 A 
ATOM     45  C   UNL A   1      38.687  29.714  28.910  1.00  0.00     0.031 C 
ATOM     46  C   UNL A   1      39.114  34.570  33.783  1.00  0.00     0.029 A 
ATOM     47  C   UNL A   1      40.103  33.498  33.864  1.00  0.00     0.049 A 
ATOM     48  H   UNL A   1      40.338  31.897  32.553  1.00  0.00     0.167 HD
ATOM     49  C   UNL A   1      40.699  28.552  29.763  1.00  0.00     0.031 A 
ATOM     50  C   UNL A   1      41.051  33.368  34.812  1.00  0.00     0.031 A 
ATOM     51  C   UNL A   1      41.764  28.357  30.707  1.00  0.00     0.049 A 
ATOM     52  C   UNL A   1      41.984  32.184  34.769  1.00  0.00     0.074 A 
ATOM     53  C   UNL A   1      42.732  27.367  30.724  1.00  0.00     0.029 A 
ATOM     54  N   UNL A   1      42.000  29.167  31.806  1.00  0.00    -0.354 N 
ATOM     55  N   UNL A   1      42.070  31.227  33.878  1.00  0.00    -0.248 NA
ATOM     56  C   UNL A   1      42.954  32.068  35.870  1.00  0.00     0.031 C 
ATOM     57  C   UNL A   1      43.525  27.552  31.861  1.00  0.00     0.029 A 
ATOM     58  C   UNL A   1      43.085  28.689  32.520  1.00  0.00     0.049 A 
ATOM     59  H   UNL A   1      41.473  29.964  32.044  1.00  0.00     0.167 HD
ATOM     60  C   UNL A   1      43.122  30.418  34.291  1.00  0.00     0.074 A 
ATOM     61  C   UNL A   1      43.652  31.004  35.504  1.00  0.00     0.031 C 
ATOM     62  C   UNL A   1      43.609  29.290  33.717  1.00  0.00     0.031 A 
BRANCH  49  63
ATOM     63  C   UNL A   1      40.572  27.586  28.621  1.00  0.00    -0.014 A 
ATOM     64  C   UNL A   1      41.265  27.795  27.418  1.00  0.00     0.009 A 
ATOM     65  C   UNL A   1      39.782  26.435  28.761  1.00  0.00     0.009 A 
ATOM     66  C   UNL A   1      41.150  26.879  26.369  1.00  0.00     0.001 A 
ATOM     67  C   UNL A   1      39.688  25.510  27.720  1.00  0.00     0.001 A 
ATOM     68  C   UNL A   1      40.367  25.737  26.523  1.00  0.00     0.000 A 
ENDBRANCH  49  63
BRANCH  50  69
ATOM     69  C   UNL A   1      41.160  34.359  35.916  1.00  0.00    -0.014 A 
ATOM     70  C   UNL A   1      40.390  34.219  37.080  1.00  0.00     0.009 A 
ATOM     71  C   UNL A   1      41.987  35.486  35.781  1.00  0.00     0.009 A 
ATOM     72  C   UNL A   1      40.416  35.205  38.069  1.00  0.00     0.001 A 
ATOM     73  C   UNL A   1      42.035  36.454  36.786  1.00  0.00     0.001 A 
ATOM     74  C   UNL A   1      41.238  36.321  37.922  1.00  0.00     0.000 A 
ENDBRANCH  50  69
BRANCH  62  75
ATOM     75  C   UNL A   1      44.804  28.647  34.363  1.00  0.00    -0.014 A 
ATOM     76  C   UNL A   1      44.660  27.634  35.323  1.00  0.00     0.009 A 
ATOM     77  C   UNL A   1      46.095  29.035  33.971  1.00  0.00     0.009 A 
ATOM     78  C   UNL A   1      45.787  27.048  35.904  1.00  0.00     0.001 A 
ATOM     79  C   UNL A   1      47.219  28.426  34.531  1.00  0.00     0.001 A 
ATOM     80  C   UNL A   1      47.064  27.440  35.503  1.00  0.00     0.000 A 
ENDBRANCH  62  75
ENDBRANCH  36  37
ENDBRANCH  29  31
ENDBRANCH  28  29
ENDBRANCH  27  28
ENDBRANCH  26  27
ENDBRANCH  25  26
ENDBRANCH  24  25
ENDBRANCH   1  24
TORSDOF 20
ENDMDL
MODEL 3
REMARK VINA RESULT:      -7.3      4.584      9.966
REMARK SMILES COc1ccccc1-c1ccc(C(=O)OCCOCCOCCOC(=O)c2ccc(-c3c4nc(c(-c5ccccc5)c5ccc([nH]5)c(-c5ccccc5)c5nc(c(-c6ccccc6)c6ccc3[nH]6)C=C5)C=C4)cc2)c(O)c1
REMARK SMILES IDX 19 1 18 2 17 3 16 4 15 5 13 6 14 7 12 8 9 9 10 10 77 11
REMARK SMILES IDX 11 12 75 13 8 14 3 15 4 16 5 17 7 18 6 19 2 20 1 21 76 22
REMARK SMILES IDX 20 24 21 25 22 26 23 27 24 28 25 29 26 30 27 31 28 32 74 33
REMARK SMILES IDX 29 34 73 35 30 36 31 37 32 38 67 39 33 40 72 41 66 42 68 43
REMARK SMILES IDX 34 44 71 45 65 46 64 47 35 49 57 50 42 51 56 52 43 53 46 54
REMARK SMILES IDX 55 55 69 56 44 57 45 58 54 60 70 61 47 62 36 63 37 64 41 65
REMARK SMILES IDX 38 66 40 67 39 68 58 69 59 70 63 71 60 72 62 73 61 74 48 75
REMARK SMILES IDX 49 76 53 77 50 78 52 79 51 80
REMARK H PARENT 76 23 68 48 46 59
REMARK Flexibility Score: inf
ROOT
ATOM      1  C   UNL A   1      32.884  28.507  25.225  1.00  0.00     0.188 C 
ENDROOT
BRANCH   1   2
ATOM      2  O   UNL A   1      32.142  29.168  24.219  1.00  0.00    -0.376 OA
BRANCH   2   3
ATOM      3  C   UNL A   1      30.834  29.657  24.491  1.00  0.00     0.202 C 
BRANCH   3   4
ATOM      4  C   UNL A   1      29.674  29.429  23.522  1.00  0.00     0.261 C 
BRANCH   4   5
ATOM      5  O   UNL A   1      29.792  28.212  22.781  1.00  0.00    -0.460 OA
BRANCH   5   6
ATOM      6  C   UNL A   1      29.367  27.103  23.434  1.00  0.00     0.341 C 
ATOM      7  O   UNL A   1      28.218  26.839  23.753  1.00  0.00    -0.246 OA
BRANCH   6   8
ATOM      8  C   UNL A   1      30.448  26.104  23.523  1.00  0.00     0.101 A 
ATOM      9  C   UNL A   1      32.595  24.361  23.988  1.00  0.00    -0.011 A 
ATOM     10  C   UNL A   1      31.545  24.452  24.915  1.00  0.00     0.010 A 
ATOM     11  C   UNL A   1      32.489  25.058  22.770  1.00  0.00     0.056 A 
ATOM     12  C   UNL A   1      30.486  25.329  24.691  1.00  0.00     0.020 A 
ATOM     13  C   UNL A   1      31.425  25.934  22.543  1.00  0.00     0.130 A 
BRANCH   9  14
ATOM     14  C   UNL A   1      33.857  23.716  24.376  1.00  0.00     0.024 A 
ATOM     15  C   UNL A   1      34.033  22.320  24.241  1.00  0.00     0.126 A 
ATOM     16  C   UNL A   1      35.235  21.707  24.601  1.00  0.00     0.047 A 
ATOM     17  C   UNL A   1      36.298  22.478  25.062  1.00  0.00     0.004 A 
ATOM     18  C   UNL A   1      34.942  24.472  24.847  1.00  0.00     0.012 A 
ATOM     19  C   UNL A   1      36.153  23.859  25.185  1.00  0.00     0.001 A 
BRANCH  15  20
ATOM     20  O   UNL A   1      33.030  21.476  23.826  1.00  0.00    -0.496 OA
ATOM     21  C   UNL A   1      32.469  20.729  24.909  1.00  0.00     0.278 C 
ENDBRANCH  15  20
ENDBRANCH   9  14
BRANCH  13  22
ATOM     22  O   UNL A   1      31.391  26.663  21.390  1.00  0.00    -0.507 OA
ATOM     23  H   UNL A   1      31.568  27.583  21.412  1.00  0.00     0.293 HD
ENDBRANCH  13  22
ENDBRANCH   6   8
ENDBRANCH   5   6
ENDBRANCH   4   5
ENDBRANCH   3   4
ENDBRANCH   2   3
ENDBRANCH   1   2
BRANCH   1  24
ATOM     24  C   UNL A   1      32.463  28.584  26.709  1.00  0.00     0.188 C 
BRANCH  24  25
ATOM     25  O   UNL A   1      32.813  29.680  27.527  1.00  0.00    -0.376 OA
BRANCH  25  26
ATOM     26  C   UNL A   1      32.983  30.966  26.958  1.00  0.00     0.202 C 
BRANCH  26  27
ATOM     27  C   UNL A   1      33.572  32.128  27.764  1.00  0.00     0.261 C 
BRANCH  27  28
ATOM     28  O   UNL A   1      32.749  33.299  27.820  1.00  0.00    -0.460 OA
BRANCH  28  29
ATOM     29  C   UNL A   1      33.263  34.319  28.551  1.00  0.00     0.338 C 
ATOM     30  O   UNL A   1      32.788  35.425  28.728  1.00  0.00    -0.246 OA
BRANCH  29  31
ATOM     31  C   UNL A   1      34.457  33.844  29.272  1.00  0.00     0.060 A 
ATOM     32  C   UNL A   1      35.717  34.109  28.717  1.00  0.00     0.016 A 
ATOM     33  C   UNL A   1      34.334  33.086  30.435  1.00  0.00     0.016 A 
ATOM     34  C   UNL A   1      36.863  33.594  29.318  1.00  0.00     0.010 A 
ATOM     35  C   UNL A   1      35.482  32.551  31.023  1.00  0.00     0.010 A 
ATOM     36  C   UNL A   1      36.748  32.780  30.452  1.00  0.00    -0.014 A 
BRANCH  36  37
ATOM     37  C   UNL A   1      37.925  32.028  30.944  1.00  0.00     0.031 A 
ATOM     38  C   UNL A   1      38.648  32.536  32.160  1.00  0.00     0.074 A 
ATOM     39  C   UNL A   1      38.336  30.904  30.332  1.00  0.00     0.049 A 
ATOM     40  N   UNL A   1      39.739  32.084  32.724  1.00  0.00    -0.248 NA
ATOM     41  C   UNL A   1      38.059  33.706  32.832  1.00  0.00     0.031 C 
ATOM     42  C   UNL A   1      37.685  30.272  29.186  1.00  0.00     0.029 A 
ATOM     43  N   UNL A   1      39.415  30.098  30.594  1.00  0.00    -0.354 N 
ATOM     44  C   UNL A   1      39.965  32.911  33.817  1.00  0.00     0.074 A 
ATOM     45  C   UNL A   1      38.917  33.909  33.822  1.00  0.00     0.031 C 
ATOM     46  C   UNL A   1      38.387  29.180  28.835  1.00  0.00     0.029 A 
ATOM     47  C   UNL A   1      39.555  29.060  29.704  1.00  0.00     0.049 A 
ATOM     48  H   UNL A   1      40.031  30.249  31.347  1.00  0.00     0.167 HD
ATOM     49  C   UNL A   1      40.953  32.844  34.740  1.00  0.00     0.031 A 
ATOM     50  C   UNL A   1      40.532  28.139  29.592  1.00  0.00     0.031 A 
ATOM     51  C   UNL A   1      42.015  31.876  34.721  1.00  0.00     0.049 A 
ATOM     52  C   UNL A   1      41.689  28.166  30.559  1.00  0.00     0.074 A 
ATOM     53  C   UNL A   1      43.078  31.744  35.599  1.00  0.00     0.029 A 
ATOM     54  N   UNL A   1      42.152  30.876  33.772  1.00  0.00    -0.354 N 
ATOM     55  N   UNL A   1      41.892  28.951  31.589  1.00  0.00    -0.248 NA
ATOM     56  C   UNL A   1      42.753  27.174  30.341  1.00  0.00     0.031 C 
ATOM     57  C   UNL A   1      43.883  30.692  35.152  1.00  0.00     0.029 A 
ATOM     58  C   UNL A   1      43.291  30.135  34.030  1.00  0.00     0.049 A 
ATOM     59  H   UNL A   1      41.530  30.718  33.025  1.00  0.00     0.167 HD
ATOM     60  C   UNL A   1      43.085  28.525  32.161  1.00  0.00     0.074 A 
ATOM     61  C   UNL A   1      43.552  27.405  31.373  1.00  0.00     0.031 C 
ATOM     62  C   UNL A   1      43.736  29.015  33.244  1.00  0.00     0.031 A 
BRANCH  49  63
ATOM     63  C   UNL A   1      40.942  33.870  35.837  1.00  0.00    -0.014 A 
ATOM     64  C   UNL A   1      40.243  33.642  37.032  1.00  0.00     0.009 A 
ATOM     65  C   UNL A   1      41.670  35.061  35.689  1.00  0.00     0.009 A 
ATOM     66  C   UNL A   1      40.254  34.599  38.050  1.00  0.00     0.001 A 
ATOM     67  C   UNL A   1      41.699  36.004  36.717  1.00  0.00     0.001 A 
ATOM     68  C   UNL A   1      40.986  35.775  37.893  1.00  0.00     0.000 A 
ENDBRANCH  49  63
BRANCH  50  69
ATOM     69  C   UNL A   1      40.495  27.125  28.506  1.00  0.00    -0.014 A 
ATOM     70  C   UNL A   1      41.024  27.415  27.239  1.00  0.00     0.009 A 
ATOM     71  C   UNL A   1      39.872  25.883  28.713  1.00  0.00     0.009 A 
ATOM     72  C   UNL A   1      40.895  26.499  26.192  1.00  0.00     0.001 A 
ATOM     73  C   UNL A   1      39.774  24.957  27.672  1.00  0.00     0.001 A 
ATOM     74  C   UNL A   1      40.272  25.272  26.409  1.00  0.00     0.000 A 
ENDBRANCH  50  69
BRANCH  62  75
ATOM     75  C   UNL A   1      44.994  28.311  33.671  1.00  0.00    -0.014 A 
ATOM     76  C   UNL A   1      46.254  28.718  33.207  1.00  0.00     0.009 A 
ATOM     77  C   UNL A   1      44.916  27.249  34.586  1.00  0.00     0.009 A 
ATOM     78  C   UNL A   1      47.408  28.051  33.624  1.00  0.00     0.001 A 
ATOM     79  C   UNL A   1      46.073  26.604  35.024  1.00  0.00     0.001 A 
ATOM     80  C   UNL A   1      47.317  26.999  34.536  1.00  0.00     0.000 A 
ENDBRANCH  62  75
ENDBRANCH  36  37
ENDBRANCH  29  31
ENDBRANCH  28  29
ENDBRANCH  27  28
ENDBRANCH  26  27
ENDBRANCH  25  26
ENDBRANCH  24  25
ENDBRANCH   1  24
TORSDOF 20
ENDMDL
