MODEL 1
REMARK VINA RESULT:     -10.2      0.000      0.000
REMARK SMILES O=C(Cc1cccc(-c2ccn(C(F)F)c(=O)c2)c1)OCCOCCOCCOC(=O)c1ccc(-c2c3nc(c(-c4ccccc4)c4ccc([nH]4)c(-c4ccccc4)c4nc(c(-c5ccccc5)c5ccc2[nH]5)C=C4)C=C3)cc1
REMARK SMILES IDX 24 1 23 2 22 3 21 4 20 5 2 6 1 7 3 8 4 9 5 10 19 11 6 12
REMARK SMILES IDX 8 13 7 14 9 15 10 16 18 17 11 18 16 19 12 20 17 21 13 22
REMARK SMILES IDX 14 23 15 24 25 25 26 26 27 27 28 28 29 29 30 30 31 31 32 32
REMARK SMILES IDX 33 33 79 34 34 35 78 36 35 37 36 38 37 39 72 40 38 41 77 42
REMARK SMILES IDX 71 43 73 44 39 45 76 46 70 47 69 48 40 50 62 51 47 52 61 53
REMARK SMILES IDX 48 54 51 55 60 56 74 57 49 58 50 59 59 61 75 62 52 63 41 64
REMARK SMILES IDX 42 65 46 66 43 67 45 68 44 69 63 70 64 71 68 72 65 73 67 74
REMARK SMILES IDX 66 75 53 76 54 77 58 78 55 79 57 80 56 81
REMARK H PARENT 73 49 51 60
REMARK Flexibility Score: inf
ROOT
ATOM      1  C   UNL A   1      41.316  21.668  26.215  1.00  0.00     0.188 C 
ENDROOT
BRANCH   1   2
ATOM      2  O   UNL A   1      40.034  21.217  26.615  1.00  0.00    -0.376 OA
BRANCH   2   3
ATOM      3  C   UNL A   1      38.942  21.645  25.826  1.00  0.00     0.202 C 
BRANCH   3   4
ATOM      4  C   UNL A   1      38.470  23.037  26.232  1.00  0.00     0.261 C 
BRANCH   4   5
ATOM      5  O   UNL A   1      37.052  23.281  26.090  1.00  0.00    -0.463 OA
BRANCH   5   6
ATOM      6  C   UNL A   1      36.117  22.489  25.529  1.00  0.00     0.310 C 
ATOM      7  O   UNL A   1      35.774  21.459  26.110  1.00  0.00    -0.252 OA
BRANCH   6   8
ATOM      8  C   UNL A   1      35.606  22.774  24.140  1.00  0.00     0.158 C 
BRANCH   8   9
ATOM      9  C   UNL A   1      34.128  22.990  23.956  1.00  0.00    -0.036 A 
ATOM     10  C   UNL A   1      33.278  21.953  23.563  1.00  0.00     0.004 A 
ATOM     11  C   UNL A   1      33.603  24.289  24.092  1.00  0.00     0.013 A 
ATOM     12  C   UNL A   1      31.923  22.200  23.355  1.00  0.00     0.001 A 
ATOM     13  C   UNL A   1      32.247  24.555  23.861  1.00  0.00    -0.018 A 
ATOM     14  C   UNL A   1      31.411  23.491  23.498  1.00  0.00     0.009 A 
BRANCH  13  15
ATOM     15  C   UNL A   1      31.740  25.945  23.927  1.00  0.00    -0.011 A 
ATOM     16  C   UNL A   1      31.949  26.791  25.091  1.00  0.00     0.027 A 
ATOM     17  C   UNL A   1      31.085  26.459  22.871  1.00  0.00     0.080 A 
ATOM     18  C   UNL A   1      31.538  28.065  25.097  1.00  0.00     0.095 A 
ATOM     19  C   UNL A   1      30.620  27.875  22.861  1.00  0.00     0.255 A 
ATOM     20  N   UNL A   1      30.896  28.610  24.002  1.00  0.00    -0.258 N 
ATOM     21  O   UNL A   1      30.046  28.294  21.862  1.00  0.00    -0.269 OA
BRANCH  20  22
ATOM     22  C   UNL A   1      30.507  29.997  23.999  1.00  0.00     0.451 C 
ATOM     23  F   UNL A   1      29.172  30.125  23.800  1.00  0.00    -0.185 F 
ATOM     24  F   UNL A   1      30.819  30.596  25.172  1.00  0.00    -0.185 F 
ENDBRANCH  20  22
ENDBRANCH  13  15
ENDBRANCH   8   9
ENDBRANCH   6   8
ENDBRANCH   5   6
ENDBRANCH   4   5
ENDBRANCH   3   4
ENDBRANCH   2   3
ENDBRANCH   1   2
BRANCH   1  25
ATOM     25  C   UNL A   1      42.349  20.533  26.130  1.00  0.00     0.188 C 
BRANCH  25  26
ATOM     26  O   UNL A   1      43.414  20.596  25.189  1.00  0.00    -0.376 OA
BRANCH  26  27
ATOM     27  C   UNL A   1      44.435  21.574  25.324  1.00  0.00     0.202 C 
BRANCH  27  28
ATOM     28  C   UNL A   1      44.517  22.658  24.246  1.00  0.00     0.261 C 
BRANCH  28  29
ATOM     29  O   UNL A   1      43.668  23.795  24.491  1.00  0.00    -0.460 OA
BRANCH  29  30
ATOM     30  C   UNL A   1      44.298  24.887  24.986  1.00  0.00     0.338 C 
ATOM     31  O   UNL A   1      45.421  25.278  24.717  1.00  0.00    -0.246 OA
BRANCH  30  32
ATOM     32  C   UNL A   1      43.391  25.677  25.845  1.00  0.00     0.060 A 
ATOM     33  C   UNL A   1      43.738  27.009  26.097  1.00  0.00     0.016 A 
ATOM     34  C   UNL A   1      42.299  25.099  26.497  1.00  0.00     0.016 A 
ATOM     35  C   UNL A   1      43.039  27.749  27.050  1.00  0.00     0.010 A 
ATOM     36  C   UNL A   1      41.604  25.839  27.465  1.00  0.00     0.010 A 
ATOM     37  C   UNL A   1      42.001  27.153  27.780  1.00  0.00    -0.014 A 
BRANCH  37  38
ATOM     38  C   UNL A   1      41.478  27.853  28.982  1.00  0.00     0.031 A 
ATOM     39  C   UNL A   1      42.200  27.692  30.295  1.00  0.00     0.074 A 
ATOM     40  C   UNL A   1      40.426  28.688  28.905  1.00  0.00     0.049 A 
ATOM     41  N   UNL A   1      41.967  28.272  31.447  1.00  0.00    -0.248 NA
ATOM     42  C   UNL A   1      43.337  26.759  30.310  1.00  0.00     0.031 C 
ATOM     43  C   UNL A   1      39.653  28.969  27.697  1.00  0.00     0.029 A 
ATOM     44  N   UNL A   1      39.834  29.463  29.872  1.00  0.00    -0.354 N 
ATOM     45  C   UNL A   1      42.938  27.788  32.316  1.00  0.00     0.074 A 
ATOM     46  C   UNL A   1      43.733  26.834  31.572  1.00  0.00     0.031 C 
ATOM     47  C   UNL A   1      38.686  29.855  27.996  1.00  0.00     0.029 A 
ATOM     48  C   UNL A   1      38.764  30.192  29.417  1.00  0.00     0.049 A 
ATOM     49  H   UNL A   1      40.148  29.493  30.804  1.00  0.00     0.167 HD
ATOM     50  C   UNL A   1      43.163  28.114  33.611  1.00  0.00     0.031 A 
ATOM     51  C   UNL A   1      37.938  31.034  30.069  1.00  0.00     0.031 A 
ATOM     52  C   UNL A   1      42.369  29.038  34.375  1.00  0.00     0.049 A 
ATOM     53  C   UNL A   1      38.165  31.327  31.530  1.00  0.00     0.074 A 
ATOM     54  C   UNL A   1      42.521  29.422  35.696  1.00  0.00     0.029 A 
ATOM     55  N   UNL A   1      41.266  29.720  33.886  1.00  0.00    -0.354 N 
ATOM     56  N   UNL A   1      39.105  30.882  32.327  1.00  0.00    -0.248 NA
ATOM     57  C   UNL A   1      37.223  32.258  32.171  1.00  0.00     0.031 C 
ATOM     58  C   UNL A   1      41.483  30.302  36.021  1.00  0.00     0.029 A 
ATOM     59  C   UNL A   1      40.716  30.506  34.885  1.00  0.00     0.049 A 
ATOM     60  H   UNL A   1      40.925  29.656  32.965  1.00  0.00     0.167 HD
ATOM     61  C   UNL A   1      38.880  31.494  33.555  1.00  0.00     0.074 A 
ATOM     62  C   UNL A   1      37.730  32.359  33.391  1.00  0.00     0.031 C 
ATOM     63  C   UNL A   1      39.567  31.355  34.716  1.00  0.00     0.031 A 
BRANCH  50  64
ATOM     64  C   UNL A   1      44.321  27.443  34.296  1.00  0.00    -0.014 A 
ATOM     65  C   UNL A   1      45.574  28.071  34.378  1.00  0.00     0.009 A 
ATOM     66  C   UNL A   1      44.149  26.184  34.892  1.00  0.00     0.009 A 
ATOM     67  C   UNL A   1      46.640  27.439  35.020  1.00  0.00     0.001 A 
ATOM     68  C   UNL A   1      45.211  25.565  35.555  1.00  0.00     0.001 A 
ATOM     69  C   UNL A   1      46.457  26.189  35.611  1.00  0.00     0.000 A 
ENDBRANCH  50  64
BRANCH  51  70
ATOM     70  C   UNL A   1      36.796  31.661  29.354  1.00  0.00    -0.014 A 
ATOM     71  C   UNL A   1      35.539  31.038  29.316  1.00  0.00     0.009 A 
ATOM     72  C   UNL A   1      36.976  32.871  28.666  1.00  0.00     0.009 A 
ATOM     73  C   UNL A   1      34.494  31.599  28.578  1.00  0.00     0.001 A 
ATOM     74  C   UNL A   1      35.923  33.444  27.951  1.00  0.00     0.001 A 
ATOM     75  C   UNL A   1      34.686  32.802  27.899  1.00  0.00     0.000 A 
ENDBRANCH  51  70
BRANCH  63  76
ATOM     76  C   UNL A   1      39.105  32.171  35.892  1.00  0.00    -0.014 A 
ATOM     77  C   UNL A   1      38.125  31.689  36.774  1.00  0.00     0.009 A 
ATOM     78  C   UNL A   1      39.674  33.432  36.133  1.00  0.00     0.009 A 
ATOM     79  C   UNL A   1      37.695  32.470  37.849  1.00  0.00     0.001 A 
ATOM     80  C   UNL A   1      39.262  34.199  37.224  1.00  0.00     0.001 A 
ATOM     81  C   UNL A   1      38.265  33.724  38.074  1.00  0.00     0.000 A 
ENDBRANCH  63  76
ENDBRANCH  37  38
ENDBRANCH  30  32
ENDBRANCH  29  30
ENDBRANCH  28  29
ENDBRANCH  27  28
ENDBRANCH  26  27
ENDBRANCH  25  26
ENDBRANCH   1  25
TORSDOF 20
ENDMDL
MODEL 2
REMARK VINA RESULT:     -10.1      4.950     10.255
REMARK SMILES O=C(Cc1cccc(-c2ccn(C(F)F)c(=O)c2)c1)OCCOCCOCCOC(=O)c1ccc(-c2c3nc(c(-c4ccccc4)c4ccc([nH]4)c(-c4ccccc4)c4nc(c(-c5ccccc5)c5ccc2[nH]5)C=C4)C=C3)cc1
REMARK SMILES IDX 24 1 23 2 22 3 21 4 20 5 2 6 1 7 3 8 4 9 5 10 19 11 6 12
REMARK SMILES IDX 8 13 7 14 9 15 10 16 18 17 11 18 16 19 12 20 17 21 13 22
REMARK SMILES IDX 14 23 15 24 25 25 26 26 27 27 28 28 29 29 30 30 31 31 32 32
REMARK SMILES IDX 33 33 79 34 34 35 78 36 35 37 36 38 37 39 72 40 38 41 77 42
REMARK SMILES IDX 71 43 73 44 39 45 76 46 70 47 69 48 40 50 62 51 47 52 61 53
REMARK SMILES IDX 48 54 51 55 60 56 74 57 49 58 50 59 59 61 75 62 52 63 41 64
REMARK SMILES IDX 42 65 46 66 43 67 45 68 44 69 63 70 64 71 68 72 65 73 67 74
REMARK SMILES IDX 66 75 53 76 54 77 58 78 55 79 57 80 56 81
REMARK H PARENT 73 49 51 60
REMARK Flexibility Score: inf
ROOT
ATOM      1  C   UNL A   1      33.228  35.297  29.766  1.00  0.00     0.188 C 
ENDROOT
BRANCH   1   2
ATOM      2  O   UNL A   1      33.989  34.122  29.541  1.00  0.00    -0.376 OA
BRANCH   2   3
ATOM      3  C   UNL A   1      35.159  34.270  28.763  1.00  0.00     0.202 C 
BRANCH   3   4
ATOM      4  C   UNL A   1      35.515  32.977  28.038  1.00  0.00     0.261 C 
BRANCH   4   5
ATOM      5  O   UNL A   1      35.014  31.762  28.644  1.00  0.00    -0.463 OA
BRANCH   5   6
ATOM      6  C   UNL A   1      35.478  30.505  28.507  1.00  0.00     0.310 C 
ATOM      7  O   UNL A   1      36.047  29.967  29.457  1.00  0.00    -0.252 OA
BRANCH   6   8
ATOM      8  C   UNL A   1      35.440  29.817  27.166  1.00  0.00     0.158 C 
BRANCH   8   9
ATOM      9  C   UNL A   1      34.133  29.231  26.704  1.00  0.00    -0.036 A 
ATOM     10  C   UNL A   1      32.987  30.018  26.555  1.00  0.00     0.004 A 
ATOM     11  C   UNL A   1      34.037  27.841  26.508  1.00  0.00     0.013 A 
ATOM     12  C   UNL A   1      31.782  29.434  26.173  1.00  0.00     0.001 A 
ATOM     13  C   UNL A   1      32.824  27.238  26.147  1.00  0.00    -0.018 A 
ATOM     14  C   UNL A   1      31.699  28.054  25.974  1.00  0.00     0.009 A 
BRANCH  13  15
ATOM     15  C   UNL A   1      32.732  25.765  26.031  1.00  0.00    -0.011 A 
ATOM     16  C   UNL A   1      33.786  24.968  25.423  1.00  0.00     0.027 A 
ATOM     17  C   UNL A   1      31.653  25.130  26.524  1.00  0.00     0.080 A 
ATOM     18  C   UNL A   1      33.706  23.632  25.392  1.00  0.00     0.095 A 
ATOM     19  C   UNL A   1      31.548  23.644  26.497  1.00  0.00     0.255 A 
ATOM     20  N   UNL A   1      32.618  22.972  25.928  1.00  0.00    -0.258 N 
ATOM     21  O   UNL A   1      30.550  23.120  26.980  1.00  0.00    -0.269 OA
BRANCH  20  22
ATOM     22  C   UNL A   1      32.568  21.533  25.938  1.00  0.00     0.451 C 
ATOM     23  F   UNL A   1      31.812  21.067  24.914  1.00  0.00    -0.185 F 
ATOM     24  F   UNL A   1      33.807  20.999  25.825  1.00  0.00    -0.185 F 
ENDBRANCH  20  22
ENDBRANCH  13  15
ENDBRANCH   8   9
ENDBRANCH   6   8
ENDBRANCH   5   6
ENDBRANCH   4   5
ENDBRANCH   3   4
ENDBRANCH   2   3
ENDBRANCH   1   2
BRANCH   1  25
ATOM     25  C   UNL A   1      33.186  35.707  31.246  1.00  0.00     0.188 C 
BRANCH  25  26
ATOM     26  O   UNL A   1      32.918  34.741  32.256  1.00  0.00    -0.376 OA
BRANCH  26  27
ATOM     27  C   UNL A   1      33.907  34.420  33.223  1.00  0.00     0.202 C 
BRANCH  27  28
ATOM     28  C   UNL A   1      34.648  33.090  33.055  1.00  0.00     0.261 C 
BRANCH  28  29
ATOM     29  O   UNL A   1      35.741  32.906  33.975  1.00  0.00    -0.460 OA
BRANCH  29  30
ATOM     30  C   UNL A   1      36.917  33.453  33.586  1.00  0.00     0.338 C 
ATOM     31  O   UNL A   1      37.448  34.457  34.028  1.00  0.00    -0.246 OA
BRANCH  30  32
ATOM     32  C   UNL A   1      37.599  32.591  32.596  1.00  0.00     0.060 A 
ATOM     33  C   UNL A   1      38.452  31.596  33.087  1.00  0.00     0.016 A 
ATOM     34  C   UNL A   1      37.514  32.831  31.223  1.00  0.00     0.016 A 
ATOM     35  C   UNL A   1      39.272  30.882  32.214  1.00  0.00     0.010 A 
ATOM     36  C   UNL A   1      38.349  32.122  30.347  1.00  0.00     0.010 A 
ATOM     37  C   UNL A   1      39.266  31.177  30.843  1.00  0.00    -0.014 A 
BRANCH  37  38
ATOM     38  C   UNL A   1      40.348  30.623  29.988  1.00  0.00     0.031 A 
ATOM     39  C   UNL A   1      41.580  31.455  29.736  1.00  0.00     0.074 A 
ATOM     40  C   UNL A   1      40.286  29.370  29.501  1.00  0.00     0.049 A 
ATOM     41  N   UNL A   1      42.676  31.140  29.091  1.00  0.00    -0.248 NA
ATOM     42  C   UNL A   1      41.578  32.817  30.291  1.00  0.00     0.031 C 
ATOM     43  C   UNL A   1      39.175  28.440  29.692  1.00  0.00     0.029 A 
ATOM     44  N   UNL A   1      41.193  28.663  28.750  1.00  0.00    -0.354 N 
ATOM     45  C   UNL A   1      43.499  32.258  29.178  1.00  0.00     0.074 A 
ATOM     46  C   UNL A   1      42.759  33.272  29.898  1.00  0.00     0.031 C 
ATOM     47  C   UNL A   1      39.467  27.282  29.073  1.00  0.00     0.029 A 
ATOM     48  C   UNL A   1      40.777  27.395  28.432  1.00  0.00     0.049 A 
ATOM     49  H   UNL A   1      42.062  29.031  28.469  1.00  0.00     0.167 HD
ATOM     50  C   UNL A   1      44.761  32.425  28.717  1.00  0.00     0.031 A 
ATOM     51  C   UNL A   1      41.378  26.433  27.705  1.00  0.00     0.031 A 
ATOM     52  C   UNL A   1      45.502  31.440  27.976  1.00  0.00     0.049 A 
ATOM     53  C   UNL A   1      42.755  26.670  27.140  1.00  0.00     0.074 A 
ATOM     54  C   UNL A   1      46.785  31.530  27.463  1.00  0.00     0.029 A 
ATOM     55  N   UNL A   1      45.023  30.186  27.637  1.00  0.00    -0.354 N 
ATOM     56  N   UNL A   1      43.529  27.721  27.256  1.00  0.00    -0.248 NA
ATOM     57  C   UNL A   1      43.347  25.572  26.359  1.00  0.00     0.031 C 
ATOM     58  C   UNL A   1      47.066  30.345  26.773  1.00  0.00     0.029 A 
ATOM     59  C   UNL A   1      45.977  29.499  26.904  1.00  0.00     0.049 A 
ATOM     60  H   UNL A   1      44.137  29.834  27.881  1.00  0.00     0.167 HD
ATOM     61  C   UNL A   1      44.703  27.403  26.584  1.00  0.00     0.074 A 
ATOM     62  C   UNL A   1      44.550  26.054  26.082  1.00  0.00     0.031 C 
ATOM     63  C   UNL A   1      45.812  28.161  26.400  1.00  0.00     0.031 A 
BRANCH  50  64
ATOM     64  C   UNL A   1      45.420  33.749  28.990  1.00  0.00    -0.014 A 
ATOM     65  C   UNL A   1      45.319  34.808  28.074  1.00  0.00     0.009 A 
ATOM     66  C   UNL A   1      46.122  33.948  30.189  1.00  0.00     0.009 A 
ATOM     67  C   UNL A   1      45.932  36.033  28.342  1.00  0.00     0.001 A 
ATOM     68  C   UNL A   1      46.713  35.183  30.465  1.00  0.00     0.001 A 
ATOM     69  C   UNL A   1      46.625  36.221  29.538  1.00  0.00     0.000 A 
ENDBRANCH  50  64
BRANCH  51  70
ATOM     70  C   UNL A   1      40.679  25.147  27.446  1.00  0.00    -0.014 A 
ATOM     71  C   UNL A   1      41.140  23.950  28.014  1.00  0.00     0.009 A 
ATOM     72  C   UNL A   1      39.568  25.111  26.589  1.00  0.00     0.009 A 
ATOM     73  C   UNL A   1      40.519  22.737  27.704  1.00  0.00     0.001 A 
ATOM     74  C   UNL A   1      38.934  23.902  26.302  1.00  0.00     0.001 A 
ATOM     75  C   UNL A   1      39.415  22.714  26.851  1.00  0.00     0.000 A 
ENDBRANCH  51  70
BRANCH  63  76
ATOM     76  C   UNL A   1      46.953  27.540  25.643  1.00  0.00    -0.014 A 
ATOM     77  C   UNL A   1      47.933  26.777  26.298  1.00  0.00     0.009 A 
ATOM     78  C   UNL A   1      47.038  27.702  24.251  1.00  0.00     0.009 A 
ATOM     79  C   UNL A   1      48.997  26.225  25.580  1.00  0.00     0.001 A 
ATOM     80  C   UNL A   1      48.088  27.127  23.532  1.00  0.00     0.001 A 
ATOM     81  C   UNL A   1      49.072  26.398  24.198  1.00  0.00     0.000 A 
ENDBRANCH  63  76
ENDBRANCH  37  38
ENDBRANCH  30  32
ENDBRANCH  29  30
ENDBRANCH  28  29
ENDBRANCH  27  28
ENDBRANCH  26  27
ENDBRANCH  25  26
ENDBRANCH   1  25
TORSDOF 20
ENDMDL
MODEL 3
REMARK VINA RESULT:     -10.0      5.611     11.648
REMARK SMILES O=C(Cc1cccc(-c2ccn(C(F)F)c(=O)c2)c1)OCCOCCOCCOC(=O)c1ccc(-c2c3nc(c(-c4ccccc4)c4ccc([nH]4)c(-c4ccccc4)c4nc(c(-c5ccccc5)c5ccc2[nH]5)C=C4)C=C3)cc1
REMARK SMILES IDX 24 1 23 2 22 3 21 4 20 5 2 6 1 7 3 8 4 9 5 10 19 11 6 12
REMARK SMILES IDX 8 13 7 14 9 15 10 16 18 17 11 18 16 19 12 20 17 21 13 22
REMARK SMILES IDX 14 23 15 24 25 25 26 26 27 27 28 28 29 29 30 30 31 31 32 32
REMARK SMILES IDX 33 33 79 34 34 35 78 36 35 37 36 38 37 39 72 40 38 41 77 42
REMARK SMILES IDX 71 43 73 44 39 45 76 46 70 47 69 48 40 50 62 51 47 52 61 53
REMARK SMILES IDX 48 54 51 55 60 56 74 57 49 58 50 59 59 61 75 62 52 63 41 64
REMARK SMILES IDX 42 65 46 66 43 67 45 68 44 69 63 70 64 71 68 72 65 73 67 74
REMARK SMILES IDX 66 75 53 76 54 77 58 78 55 79 57 80 56 81
REMARK H PARENT 73 49 51 60
REMARK Flexibility Score: inf
ROOT
ATOM      1  C   UNL A   1      33.012  35.614  29.520  1.00  0.00     0.188 C 
ENDROOT
BRANCH   1   2
ATOM      2  O   UNL A   1      33.939  34.608  29.151  1.00  0.00    -0.376 OA
BRANCH   2   3
ATOM      3  C   UNL A   1      33.515  33.693  28.160  1.00  0.00     0.202 C 
BRANCH   3   4
ATOM      4  C   UNL A   1      34.331  32.406  28.201  1.00  0.00     0.261 C 
BRANCH   4   5
ATOM      5  O   UNL A   1      35.497  32.432  29.056  1.00  0.00    -0.463 OA
BRANCH   5   6
ATOM      6  C   UNL A   1      36.713  31.897  28.831  1.00  0.00     0.310 C 
ATOM      7  O   UNL A   1      37.719  32.532  29.150  1.00  0.00    -0.252 OA
BRANCH   6   8
ATOM      8  C   UNL A   1      36.851  30.609  28.062  1.00  0.00     0.158 C 
BRANCH   8   9
ATOM      9  C   UNL A   1      37.761  29.545  28.613  1.00  0.00    -0.036 A 
ATOM     10  C   UNL A   1      37.486  28.896  29.821  1.00  0.00     0.004 A 
ATOM     11  C   UNL A   1      38.967  29.260  27.946  1.00  0.00     0.013 A 
ATOM     12  C   UNL A   1      38.375  27.951  30.327  1.00  0.00     0.001 A 
ATOM     13  C   UNL A   1      39.881  28.330  28.457  1.00  0.00    -0.018 A 
ATOM     14  C   UNL A   1      39.566  27.672  29.654  1.00  0.00     0.009 A 
BRANCH  13  15
ATOM     15  C   UNL A   1      41.180  28.115  27.780  1.00  0.00    -0.011 A 
ATOM     16  C   UNL A   1      42.375  27.710  28.505  1.00  0.00     0.027 A 
ATOM     17  C   UNL A   1      41.263  28.272  26.446  1.00  0.00     0.080 A 
ATOM     18  C   UNL A   1      43.519  27.458  27.859  1.00  0.00     0.095 A 
ATOM     19  C   UNL A   1      42.530  27.996  25.711  1.00  0.00     0.255 A 
ATOM     20  N   UNL A   1      43.602  27.583  26.485  1.00  0.00    -0.258 N 
ATOM     21  O   UNL A   1      42.540  28.137  24.493  1.00  0.00    -0.269 OA
BRANCH  20  22
ATOM     22  C   UNL A   1      44.823  27.257  25.794  1.00  0.00     0.451 C 
ATOM     23  F   UNL A   1      45.516  28.378  25.479  1.00  0.00    -0.185 F 
ATOM     24  F   UNL A   1      45.619  26.467  26.553  1.00  0.00    -0.185 F 
ENDBRANCH  20  22
ENDBRANCH  13  15
ENDBRANCH   8   9
ENDBRANCH   6   8
ENDBRANCH   5   6
ENDBRANCH   4   5
ENDBRANCH   3   4
ENDBRANCH   2   3
ENDBRANCH   1   2
BRANCH   1  25
ATOM     25  C   UNL A   1      33.371  36.301  30.846  1.00  0.00     0.188 C 
BRANCH  25  26
ATOM     26  O   UNL A   1      33.332  35.574  32.069  1.00  0.00    -0.376 OA
BRANCH  26  27
ATOM     27  C   UNL A   1      34.253  34.519  32.308  1.00  0.00     0.202 C 
BRANCH  27  28
ATOM     28  C   UNL A   1      35.522  34.860  33.094  1.00  0.00     0.261 C 
BRANCH  28  29
ATOM     29  O   UNL A   1      36.589  33.905  32.930  1.00  0.00    -0.460 OA
BRANCH  29  30
ATOM     30  C   UNL A   1      36.892  33.187  34.037  1.00  0.00     0.338 C 
ATOM     31  O   UNL A   1      36.334  33.226  35.120  1.00  0.00    -0.246 OA
BRANCH  30  32
ATOM     32  C   UNL A   1      37.954  32.199  33.751  1.00  0.00     0.060 A 
ATOM     33  C   UNL A   1      39.220  32.435  34.299  1.00  0.00     0.016 A 
ATOM     34  C   UNL A   1      37.758  31.138  32.863  1.00  0.00     0.016 A 
ATOM     35  C   UNL A   1      40.309  31.655  33.911  1.00  0.00     0.010 A 
ATOM     36  C   UNL A   1      38.856  30.362  32.464  1.00  0.00     0.010 A 
ATOM     37  C   UNL A   1      40.146  30.648  32.950  1.00  0.00    -0.014 A 
BRANCH  37  38
ATOM     38  C   UNL A   1      41.357  30.040  32.339  1.00  0.00     0.031 A 
ATOM     39  C   UNL A   1      42.004  30.724  31.161  1.00  0.00     0.074 A 
ATOM     40  C   UNL A   1      41.931  28.942  32.862  1.00  0.00     0.049 A 
ATOM     41  N   UNL A   1      43.107  30.415  30.525  1.00  0.00    -0.248 NA
ATOM     42  C   UNL A   1      41.319  31.915  30.635  1.00  0.00     0.031 C 
ATOM     43  C   UNL A   1      41.439  28.196  34.018  1.00  0.00     0.029 A 
ATOM     44  N   UNL A   1      43.068  28.269  32.486  1.00  0.00    -0.354 N 
ATOM     45  C   UNL A   1      43.257  31.383  29.538  1.00  0.00     0.074 A 
ATOM     46  C   UNL A   1      42.110  32.261  29.630  1.00  0.00     0.031 C 
ATOM     47  C   UNL A   1      42.270  27.167  34.258  1.00  0.00     0.029 A 
ATOM     48  C   UNL A   1      43.344  27.174  33.265  1.00  0.00     0.049 A 
ATOM     49  H   UNL A   1      43.633  28.548  31.730  1.00  0.00     0.167 HD
ATOM     50  C   UNL A   1      44.263  31.541  28.645  1.00  0.00     0.031 A 
ATOM     51  C   UNL A   1      44.345  26.275  33.187  1.00  0.00     0.031 A 
ATOM     52  C   UNL A   1      45.396  30.664  28.520  1.00  0.00     0.049 A 
ATOM     53  C   UNL A   1      45.415  26.431  32.138  1.00  0.00     0.074 A 
ATOM     54  C   UNL A   1      46.458  30.745  27.636  1.00  0.00     0.029 A 
ATOM     55  N   UNL A   1      45.611  29.540  29.301  1.00  0.00    -0.354 N 
ATOM     56  N   UNL A   1      45.556  27.367  31.232  1.00  0.00    -0.248 NA
ATOM     57  C   UNL A   1      46.476  25.411  32.118  1.00  0.00     0.031 C 
ATOM     58  C   UNL A   1      47.294  29.644  27.852  1.00  0.00     0.029 A 
ATOM     59  C   UNL A   1      46.779  28.908  28.905  1.00  0.00     0.049 A 
ATOM     60  H   UNL A   1      45.023  29.236  30.028  1.00  0.00     0.167 HD
ATOM     61  C   UNL A   1      46.729  27.062  30.551  1.00  0.00     0.074 A 
ATOM     62  C   UNL A   1      47.273  25.868  31.162  1.00  0.00     0.031 C 
ATOM     63  C   UNL A   1      47.306  27.714  29.512  1.00  0.00     0.031 A 
BRANCH  50  64
ATOM     64  C   UNL A   1      44.168  32.713  27.708  1.00  0.00    -0.014 A 
ATOM     65  C   UNL A   1      43.935  32.523  26.336  1.00  0.00     0.009 A 
ATOM     66  C   UNL A   1      44.282  34.019  28.207  1.00  0.00     0.009 A 
ATOM     67  C   UNL A   1      43.846  33.621  25.478  1.00  0.00     0.001 A 
ATOM     68  C   UNL A   1      44.167  35.116  27.349  1.00  0.00     0.001 A 
ATOM     69  C   UNL A   1      43.958  34.915  25.984  1.00  0.00     0.000 A 
ENDBRANCH  50  64
BRANCH  51  70
ATOM     70  C   UNL A   1      44.386  25.122  34.125  1.00  0.00    -0.014 A 
ATOM     71  C   UNL A   1      44.953  25.251  35.401  1.00  0.00     0.009 A 
ATOM     72  C   UNL A   1      43.894  23.871  33.722  1.00  0.00     0.009 A 
ATOM     73  C   UNL A   1      45.053  24.142  36.245  1.00  0.00     0.001 A 
ATOM     74  C   UNL A   1      43.970  22.770  34.577  1.00  0.00     0.001 A 
ATOM     75  C   UNL A   1      44.559  22.904  35.834  1.00  0.00     0.000 A 
ENDBRANCH  51  70
BRANCH  63  76
ATOM     76  C   UNL A   1      48.603  27.162  28.987  1.00  0.00    -0.014 A 
ATOM     77  C   UNL A   1      48.626  26.228  27.938  1.00  0.00     0.009 A 
ATOM     78  C   UNL A   1      49.820  27.598  29.534  1.00  0.00     0.009 A 
ATOM     79  C   UNL A   1      49.839  25.711  27.478  1.00  0.00     0.001 A 
ATOM     80  C   UNL A   1      51.033  27.100  29.053  1.00  0.00     0.001 A 
ATOM     81  C   UNL A   1      51.041  26.150  28.035  1.00  0.00     0.000 A 
ENDBRANCH  63  76
ENDBRANCH  37  38
ENDBRANCH  30  32
ENDBRANCH  29  30
ENDBRANCH  28  29
ENDBRANCH  27  28
ENDBRANCH  26  27
ENDBRANCH  25  26
ENDBRANCH   1  25
TORSDOF 20
ENDMDL
