MODEL 1
REMARK VINA RESULT:      -9.5      0.000      0.000
REMARK SMILES CS(=O)(=O)c1ccc(C2=NN(c3ccc(C(=O)OCCOCCOCCOC(=O)c4ccc(-c5c6nc(c(-c7ccccc7)c7ccc([nH]7)c(-c7ccccc7)c7nc(c(-c8ccccc8)c8ccc5[nH]8)C=C7)C=C6)cc4)cc3)[C@H](c3cccs3)C2)cc1
REMARK SMILES IDX 22 1 21 2 20 3 19 4 18 5 16 6 17 7 15 8 12 9 13 10 79 11
REMARK SMILES IDX 14 12 78 13 11 14 9 15 10 16 86 17 80 18 8 19 5 20 6 21
REMARK SMILES IDX 88 22 7 23 87 24 2 25 1 26 3 27 4 28 81 29 82 30 85 31 83 32
REMARK SMILES IDX 84 33 23 34 24 35 25 36 26 37 27 38 28 39 29 40 30 41 31 42
REMARK SMILES IDX 77 43 32 44 76 45 33 46 34 47 35 48 70 49 36 50 75 51 69 52
REMARK SMILES IDX 71 53 37 54 74 55 68 56 67 57 38 59 60 60 45 61 59 62 46 63
REMARK SMILES IDX 49 64 58 65 72 66 47 67 48 68 57 70 73 71 50 72 39 73 40 74
REMARK SMILES IDX 44 75 41 76 43 77 42 78 61 79 62 80 66 81 63 82 65 83 64 84
REMARK SMILES IDX 51 85 52 86 56 87 53 88 55 89 54 90
REMARK H PARENT 71 58 49 69
REMARK Flexibility Score: inf
ROOT
ATOM      1  C   UNL A   1      40.251  21.856  26.317  1.00  0.00     0.188 C 
ENDROOT
BRANCH   1   2
ATOM      2  O   UNL A   1      38.854  21.631  26.393  1.00  0.00    -0.376 OA
BRANCH   2   3
ATOM      3  C   UNL A   1      37.979  22.203  25.435  1.00  0.00     0.202 C 
BRANCH   3   4
ATOM      4  C   UNL A   1      36.874  21.395  24.734  1.00  0.00     0.261 C 
BRANCH   4   5
ATOM      5  O   UNL A   1      35.646  21.266  25.460  1.00  0.00    -0.460 OA
BRANCH   5   6
ATOM      6  C   UNL A   1      34.517  21.545  24.759  1.00  0.00     0.338 C 
ATOM      7  O   UNL A   1      33.814  20.749  24.158  1.00  0.00    -0.246 OA
BRANCH   6   8
ATOM      8  C   UNL A   1      34.135  22.964  24.956  1.00  0.00     0.060 A 
ATOM      9  C   UNL A   1      33.537  25.694  25.281  1.00  0.00     0.060 A 
ATOM     10  C   UNL A   1      34.148  25.240  24.108  1.00  0.00     0.029 A 
ATOM     11  C   UNL A   1      33.137  24.745  26.237  1.00  0.00     0.029 A 
ATOM     12  C   UNL A   1      34.459  23.885  23.949  1.00  0.00     0.018 A 
ATOM     13  C   UNL A   1      33.441  23.390  26.089  1.00  0.00     0.018 A 
BRANCH   9  14
ATOM     14  N   UNL A   1      33.430  27.057  25.576  1.00  0.00    -0.257 N 
ATOM     15  C   UNL A   1      33.839  28.726  26.835  1.00  0.00     0.071 C 
ATOM     16  N   UNL A   1      34.406  27.704  26.268  1.00  0.00    -0.176 NA
ATOM     17  C   UNL A   1      32.343  28.810  26.713  1.00  0.00     0.091 C 
ATOM     18  C   UNL A   1      32.078  27.607  25.802  1.00  0.00     0.154 C 
BRANCH  15  19
ATOM     19  C   UNL A   1      34.592  29.783  27.527  1.00  0.00    -0.002 A 
ATOM     20  C   UNL A   1      36.117  31.758  28.764  1.00  0.00     0.067 A 
ATOM     21  C   UNL A   1      36.711  30.538  28.431  1.00  0.00     0.021 A 
ATOM     22  C   UNL A   1      34.762  31.991  28.483  1.00  0.00     0.021 A 
ATOM     23  C   UNL A   1      35.939  29.546  27.821  1.00  0.00     0.011 A 
ATOM     24  C   UNL A   1      33.999  31.004  27.851  1.00  0.00     0.011 A 
BRANCH  20  25
ATOM     25  S   UNL A   1      37.027  33.064  29.558  1.00  0.00     0.175 S 
ATOM     26  C   UNL A   1      36.637  33.013  31.285  1.00  0.00     0.163 C 
ATOM     27  O   UNL A   1      36.493  34.309  29.036  1.00  0.00    -0.224 OA
ATOM     28  O   UNL A   1      38.430  32.729  29.410  1.00  0.00    -0.224 OA
ENDBRANCH  20  25
ENDBRANCH  15  19
BRANCH  18  29
ATOM     29  C   UNL A   1      31.282  27.871  24.536  1.00  0.00     0.030 A 
ATOM     30  C   UNL A   1      31.000  26.944  23.542  1.00  0.00     0.017 A 
ATOM     31  S   UNL A   1      30.700  29.422  24.096  1.00  0.00    -0.147 S 
ATOM     32  C   UNL A   1      30.364  27.522  22.408  1.00  0.00     0.012 A 
ATOM     33  C   UNL A   1      30.109  28.860  22.596  1.00  0.00     0.065 A 
ENDBRANCH  18  29
ENDBRANCH   9  14
ENDBRANCH   6   8
ENDBRANCH   5   6
ENDBRANCH   4   5
ENDBRANCH   3   4
ENDBRANCH   2   3
ENDBRANCH   1   2
BRANCH   1  34
ATOM     34  C   UNL A   1      41.101  21.944  27.601  1.00  0.00     0.188 C 
BRANCH  34  35
ATOM     35  O   UNL A   1      42.498  22.022  27.451  1.00  0.00    -0.376 OA
BRANCH  35  36
ATOM     36  C   UNL A   1      43.084  23.087  26.724  1.00  0.00     0.202 C 
BRANCH  36  37
ATOM     37  C   UNL A   1      42.664  24.571  26.775  1.00  0.00     0.261 C 
BRANCH  37  38
ATOM     38  O   UNL A   1      41.937  25.039  27.913  1.00  0.00    -0.460 OA
BRANCH  38  39
ATOM     39  C   UNL A   1      40.848  25.798  27.647  1.00  0.00     0.338 C 
ATOM     40  O   UNL A   1      39.853  25.479  27.010  1.00  0.00    -0.246 OA
BRANCH  39  41
ATOM     41  C   UNL A   1      40.962  27.063  28.393  1.00  0.00     0.060 A 
ATOM     42  C   UNL A   1      40.184  28.161  28.000  1.00  0.00     0.016 A 
ATOM     43  C   UNL A   1      41.853  27.168  29.461  1.00  0.00     0.016 A 
ATOM     44  C   UNL A   1      40.301  29.375  28.676  1.00  0.00     0.010 A 
ATOM     45  C   UNL A   1      41.986  28.392  30.120  1.00  0.00     0.010 A 
ATOM     46  C   UNL A   1      41.228  29.507  29.717  1.00  0.00    -0.014 A 
BRANCH  46  47
ATOM     47  C   UNL A   1      41.524  30.841  30.290  1.00  0.00     0.031 A 
ATOM     48  C   UNL A   1      42.605  31.674  29.657  1.00  0.00     0.074 A 
ATOM     49  C   UNL A   1      40.856  31.306  31.361  1.00  0.00     0.049 A 
ATOM     50  N   UNL A   1      43.097  32.825  30.038  1.00  0.00    -0.248 NA
ATOM     51  C   UNL A   1      43.217  31.130  28.434  1.00  0.00     0.031 C 
ATOM     52  C   UNL A   1      39.757  30.621  32.037  1.00  0.00     0.029 A 
ATOM     53  N   UNL A   1      41.023  32.467  32.075  1.00  0.00    -0.354 N 
ATOM     54  C   UNL A   1      44.083  33.137  29.111  1.00  0.00     0.074 A 
ATOM     55  C   UNL A   1      44.137  32.044  28.165  1.00  0.00     0.031 C 
ATOM     56  C   UNL A   1      39.356  31.368  33.081  1.00  0.00     0.029 A 
ATOM     57  C   UNL A   1      40.197  32.561  33.168  1.00  0.00     0.049 A 
ATOM     58  H   UNL A   1      41.671  33.164  31.827  1.00  0.00     0.167 HD
ATOM     59  C   UNL A   1      44.870  34.237  29.049  1.00  0.00     0.031 A 
ATOM     60  C   UNL A   1      40.147  33.489  34.145  1.00  0.00     0.031 A 
ATOM     61  C   UNL A   1      44.829  35.315  30.001  1.00  0.00     0.049 A 
ATOM     62  C   UNL A   1      41.096  34.659  34.106  1.00  0.00     0.074 A 
ATOM     63  C   UNL A   1      45.580  36.478  30.015  1.00  0.00     0.029 A 
ATOM     64  N   UNL A   1      44.003  35.356  31.112  1.00  0.00    -0.354 N 
ATOM     65  N   UNL A   1      42.007  34.958  33.210  1.00  0.00    -0.248 NA
ATOM     66  C   UNL A   1      41.006  35.623  35.213  1.00  0.00     0.031 C 
ATOM     67  C   UNL A   1      45.252  37.193  31.172  1.00  0.00     0.029 A 
ATOM     68  C   UNL A   1      44.247  36.511  31.838  1.00  0.00     0.049 A 
ATOM     69  H   UNL A   1      43.340  34.669  31.350  1.00  0.00     0.167 HD
ATOM     70  C   UNL A   1      42.573  36.158  33.629  1.00  0.00     0.074 A 
ATOM     71  C   UNL A   1      41.893  36.538  34.849  1.00  0.00     0.031 C 
ATOM     72  C   UNL A   1      43.564  36.880  33.051  1.00  0.00     0.031 A 
BRANCH  59  73
ATOM     73  C   UNL A   1      45.875  34.307  27.933  1.00  0.00    -0.014 A 
ATOM     74  C   UNL A   1      47.163  33.766  28.072  1.00  0.00     0.009 A 
ATOM     75  C   UNL A   1      45.512  34.892  26.711  1.00  0.00     0.009 A 
ATOM     76  C   UNL A   1      48.077  33.840  27.019  1.00  0.00     0.001 A 
ATOM     77  C   UNL A   1      46.418  34.936  25.649  1.00  0.00     0.001 A 
ATOM     78  C   UNL A   1      47.702  34.420  25.807  1.00  0.00     0.000 A 
ENDBRANCH  59  73
BRANCH  60  79
ATOM     79  C   UNL A   1      39.182  33.340  35.268  1.00  0.00    -0.014 A 
ATOM     80  C   UNL A   1      37.876  33.839  35.162  1.00  0.00     0.009 A 
ATOM     81  C   UNL A   1      39.576  32.720  36.465  1.00  0.00     0.009 A 
ATOM     82  C   UNL A   1      36.992  33.746  36.241  1.00  0.00     0.001 A 
ATOM     83  C   UNL A   1      38.680  32.599  37.530  1.00  0.00     0.001 A 
ATOM     84  C   UNL A   1      37.393  33.122  37.421  1.00  0.00     0.000 A 
ENDBRANCH  60  79
BRANCH  72  85
ATOM     85  C   UNL A   1      43.948  38.181  33.703  1.00  0.00    -0.014 A 
ATOM     86  C   UNL A   1      44.918  38.237  34.717  1.00  0.00     0.009 A 
ATOM     87  C   UNL A   1      43.365  39.378  33.255  1.00  0.00     0.009 A 
ATOM     88  C   UNL A   1      45.270  39.461  35.289  1.00  0.00     0.001 A 
ATOM     89  C   UNL A   1      43.744  40.603  33.806  1.00  0.00     0.001 A 
ATOM     90  C   UNL A   1      44.689  40.643  34.830  1.00  0.00     0.000 A 
ENDBRANCH  72  85
ENDBRANCH  46  47
ENDBRANCH  39  41
ENDBRANCH  38  39
ENDBRANCH  37  38
ENDBRANCH  36  37
ENDBRANCH  35  36
ENDBRANCH  34  35
ENDBRANCH   1  34
TORSDOF 21
ENDMDL
MODEL 2
REMARK VINA RESULT:      -9.4      3.928      7.186
REMARK SMILES CS(=O)(=O)c1ccc(C2=NN(c3ccc(C(=O)OCCOCCOCCOC(=O)c4ccc(-c5c6nc(c(-c7ccccc7)c7ccc([nH]7)c(-c7ccccc7)c7nc(c(-c8ccccc8)c8ccc5[nH]8)C=C7)C=C6)cc4)cc3)[C@H](c3cccs3)C2)cc1
REMARK SMILES IDX 22 1 21 2 20 3 19 4 18 5 16 6 17 7 15 8 12 9 13 10 79 11
REMARK SMILES IDX 14 12 78 13 11 14 9 15 10 16 86 17 80 18 8 19 5 20 6 21
REMARK SMILES IDX 88 22 7 23 87 24 2 25 1 26 3 27 4 28 81 29 82 30 85 31 83 32
REMARK SMILES IDX 84 33 23 34 24 35 25 36 26 37 27 38 28 39 29 40 30 41 31 42
REMARK SMILES IDX 77 43 32 44 76 45 33 46 34 47 35 48 70 49 36 50 75 51 69 52
REMARK SMILES IDX 71 53 37 54 74 55 68 56 67 57 38 59 60 60 45 61 59 62 46 63
REMARK SMILES IDX 49 64 58 65 72 66 47 67 48 68 57 70 73 71 50 72 39 73 40 74
REMARK SMILES IDX 44 75 41 76 43 77 42 78 61 79 62 80 66 81 63 82 65 83 64 84
REMARK SMILES IDX 51 85 52 86 56 87 53 88 55 89 54 90
REMARK H PARENT 71 58 49 69
REMARK Flexibility Score: inf
ROOT
ATOM      1  C   UNL A   1      37.950  21.737  25.315  1.00  0.00     0.188 C 
ENDROOT
BRANCH   1   2
ATOM      2  O   UNL A   1      37.132  20.818  24.614  1.00  0.00    -0.376 OA
BRANCH   2   3
ATOM      3  C   UNL A   1      35.807  20.558  25.048  1.00  0.00     0.202 C 
BRANCH   3   4
ATOM      4  C   UNL A   1      35.153  21.316  26.216  1.00  0.00     0.261 C 
BRANCH   4   5
ATOM      5  O   UNL A   1      33.762  21.048  26.427  1.00  0.00    -0.460 OA
BRANCH   5   6
ATOM      6  C   UNL A   1      32.925  21.476  25.448  1.00  0.00     0.338 C 
ATOM      7  O   UNL A   1      32.255  20.780  24.703  1.00  0.00    -0.246 OA
BRANCH   6   8
ATOM      8  C   UNL A   1      32.792  22.952  25.504  1.00  0.00     0.060 A 
ATOM      9  C   UNL A   1      32.671  25.763  25.560  1.00  0.00     0.060 A 
ATOM     10  C   UNL A   1      33.199  25.101  24.448  1.00  0.00     0.029 A 
ATOM     11  C   UNL A   1      32.110  24.992  26.592  1.00  0.00     0.029 A 
ATOM     12  C   UNL A   1      33.273  23.704  24.423  1.00  0.00     0.018 A 
ATOM     13  C   UNL A   1      32.177  23.597  26.578  1.00  0.00     0.018 A 
BRANCH   9  14
ATOM     14  N   UNL A   1      32.798  27.145  25.724  1.00  0.00    -0.257 N 
ATOM     15  C   UNL A   1      33.427  28.834  26.859  1.00  0.00     0.071 C 
ATOM     16  N   UNL A   1      33.831  27.676  26.433  1.00  0.00    -0.176 NA
ATOM     17  C   UNL A   1      31.983  29.169  26.610  1.00  0.00     0.091 C 
ATOM     18  C   UNL A   1      31.559  27.946  25.790  1.00  0.00     0.154 C 
BRANCH  15  19
ATOM     19  C   UNL A   1      34.317  29.806  27.515  1.00  0.00    -0.002 A 
ATOM     20  C   UNL A   1      35.902  31.687  28.820  1.00  0.00     0.067 A 
ATOM     21  C   UNL A   1      34.622  32.046  28.390  1.00  0.00     0.021 A 
ATOM     22  C   UNL A   1      36.392  30.392  28.594  1.00  0.00     0.021 A 
ATOM     23  C   UNL A   1      33.834  31.102  27.726  1.00  0.00     0.011 A 
ATOM     24  C   UNL A   1      35.592  29.443  27.950  1.00  0.00     0.011 A 
BRANCH  20  25
ATOM     25  S   UNL A   1      36.972  32.836  29.656  1.00  0.00     0.175 S 
ATOM     26  C   UNL A   1      37.940  31.915  30.819  1.00  0.00     0.163 C 
ATOM     27  O   UNL A   1      36.108  33.715  30.421  1.00  0.00    -0.224 OA
ATOM     28  O   UNL A   1      37.871  33.360  28.647  1.00  0.00    -0.224 OA
ENDBRANCH  20  25
ENDBRANCH  15  19
BRANCH  18  29
ATOM     29  C   UNL A   1      30.907  28.218  24.446  1.00  0.00     0.030 A 
ATOM     30  C   UNL A   1      31.162  29.303  23.621  1.00  0.00     0.017 A 
ATOM     31  S   UNL A   1      29.648  27.251  23.798  1.00  0.00    -0.147 S 
ATOM     32  C   UNL A   1      30.290  29.365  22.498  1.00  0.00     0.012 A 
ATOM     33  C   UNL A   1      29.441  28.285  22.455  1.00  0.00     0.065 A 
ENDBRANCH  18  29
ENDBRANCH   9  14
ENDBRANCH   6   8
ENDBRANCH   5   6
ENDBRANCH   4   5
ENDBRANCH   3   4
ENDBRANCH   2   3
ENDBRANCH   1   2
BRANCH   1  34
ATOM     34  C   UNL A   1      39.183  21.246  26.104  1.00  0.00     0.188 C 
BRANCH  34  35
ATOM     35  O   UNL A   1      40.433  21.787  25.756  1.00  0.00    -0.376 OA
BRANCH  35  36
ATOM     36  C   UNL A   1      41.629  21.217  26.260  1.00  0.00     0.202 C 
BRANCH  36  37
ATOM     37  C   UNL A   1      42.607  21.873  27.256  1.00  0.00     0.261 C 
BRANCH  37  38
ATOM     38  O   UNL A   1      42.840  23.280  27.164  1.00  0.00    -0.460 OA
BRANCH  38  39
ATOM     39  C   UNL A   1      43.282  23.881  28.294  1.00  0.00     0.338 C 
ATOM     40  O   UNL A   1      43.064  23.548  29.451  1.00  0.00    -0.246 OA
BRANCH  39  41
ATOM     41  C   UNL A   1      44.230  24.944  27.921  1.00  0.00     0.060 A 
ATOM     42  C   UNL A   1      44.890  25.657  28.932  1.00  0.00     0.016 A 
ATOM     43  C   UNL A   1      44.446  25.251  26.578  1.00  0.00     0.016 A 
ATOM     44  C   UNL A   1      45.769  26.687  28.598  1.00  0.00     0.010 A 
ATOM     45  C   UNL A   1      45.307  26.300  26.247  1.00  0.00     0.010 A 
ATOM     46  C   UNL A   1      45.956  27.037  27.255  1.00  0.00    -0.014 A 
BRANCH  46  47
ATOM     47  C   UNL A   1      46.703  28.266  26.899  1.00  0.00     0.031 A 
ATOM     48  C   UNL A   1      48.179  28.161  26.632  1.00  0.00     0.074 A 
ATOM     49  C   UNL A   1      46.088  29.460  26.825  1.00  0.00     0.049 A 
ATOM     50  N   UNL A   1      49.049  29.109  26.394  1.00  0.00    -0.248 NA
ATOM     51  C   UNL A   1      48.749  26.805  26.642  1.00  0.00     0.031 C 
ATOM     52  C   UNL A   1      44.658  29.691  27.013  1.00  0.00     0.029 A 
ATOM     53  N   UNL A   1      46.604  30.709  26.582  1.00  0.00    -0.354 N 
ATOM     54  C   UNL A   1      50.271  28.466  26.238  1.00  0.00     0.074 A 
ATOM     55  C   UNL A   1      50.034  27.052  26.434  1.00  0.00     0.031 C 
ATOM     56  C   UNL A   1      44.411  31.007  26.896  1.00  0.00     0.029 A 
ATOM     57  C   UNL A   1      45.671  31.713  26.664  1.00  0.00     0.049 A 
ATOM     58  H   UNL A   1      47.551  30.870  26.370  1.00  0.00     0.167 HD
ATOM     59  C   UNL A   1      51.481  29.003  25.954  1.00  0.00     0.031 A 
ATOM     60  C   UNL A   1      45.820  33.051  26.591  1.00  0.00     0.031 A 
ATOM     61  C   UNL A   1      51.719  30.411  25.778  1.00  0.00     0.049 A 
ATOM     62  C   UNL A   1      47.192  33.632  26.365  1.00  0.00     0.074 A 
ATOM     63  C   UNL A   1      52.909  31.050  25.476  1.00  0.00     0.029 A 
ATOM     64  N   UNL A   1      50.754  31.397  25.903  1.00  0.00    -0.354 N 
ATOM     65  N   UNL A   1      48.337  33.014  26.193  1.00  0.00    -0.248 NA
ATOM     66  C   UNL A   1      47.292  35.099  26.319  1.00  0.00     0.031 C 
ATOM     67  C   UNL A   1      52.677  32.429  25.480  1.00  0.00     0.029 A 
ATOM     68  C   UNL A   1      51.328  32.644  25.714  1.00  0.00     0.049 A 
ATOM     69  H   UNL A   1      49.803  31.235  26.095  1.00  0.00     0.167 HD
ATOM     70  C   UNL A   1      49.282  34.013  25.987  1.00  0.00     0.074 A 
ATOM     71  C   UNL A   1      48.576  35.275  26.040  1.00  0.00     0.031 C 
ATOM     72  C   UNL A   1      50.615  33.894  25.768  1.00  0.00     0.031 A 
BRANCH  59  73
ATOM     73  C   UNL A   1      52.650  28.063  25.856  1.00  0.00    -0.014 A 
ATOM     74  C   UNL A   1      53.392  27.697  26.990  1.00  0.00     0.009 A 
ATOM     75  C   UNL A   1      52.989  27.505  24.614  1.00  0.00     0.009 A 
ATOM     76  C   UNL A   1      54.472  26.818  26.874  1.00  0.00     0.001 A 
ATOM     77  C   UNL A   1      54.048  26.603  24.507  1.00  0.00     0.001 A 
ATOM     78  C   UNL A   1      54.795  26.268  25.634  1.00  0.00     0.000 A 
ENDBRANCH  59  73
BRANCH  60  79
ATOM     79  C   UNL A   1      44.644  33.945  26.764  1.00  0.00    -0.014 A 
ATOM     80  C   UNL A   1      43.901  34.377  25.655  1.00  0.00     0.009 A 
ATOM     81  C   UNL A   1      44.275  34.395  28.042  1.00  0.00     0.009 A 
ATOM     82  C   UNL A   1      42.832  35.261  25.818  1.00  0.00     0.001 A 
ATOM     83  C   UNL A   1      43.185  35.253  28.206  1.00  0.00     0.001 A 
ATOM     84  C   UNL A   1      42.472  35.694  27.094  1.00  0.00     0.000 A 
ENDBRANCH  60  79
BRANCH  72  85
ATOM     85  C   UNL A   1      51.396  35.156  25.525  1.00  0.00    -0.014 A 
ATOM     86  C   UNL A   1      51.583  35.668  24.231  1.00  0.00     0.009 A 
ATOM     87  C   UNL A   1      51.910  35.874  26.618  1.00  0.00     0.009 A 
ATOM     88  C   UNL A   1      52.295  36.854  24.037  1.00  0.00     0.001 A 
ATOM     89  C   UNL A   1      52.593  37.075  26.423  1.00  0.00     0.001 A 
ATOM     90  C   UNL A   1      52.794  37.559  25.131  1.00  0.00     0.000 A 
ENDBRANCH  72  85
ENDBRANCH  46  47
ENDBRANCH  39  41
ENDBRANCH  38  39
ENDBRANCH  37  38
ENDBRANCH  36  37
ENDBRANCH  35  36
ENDBRANCH  34  35
ENDBRANCH   1  34
TORSDOF 21
ENDMDL
MODEL 3
REMARK VINA RESULT:      -9.3      6.450     13.319
REMARK SMILES CS(=O)(=O)c1ccc(C2=NN(c3ccc(C(=O)OCCOCCOCCOC(=O)c4ccc(-c5c6nc(c(-c7ccccc7)c7ccc([nH]7)c(-c7ccccc7)c7nc(c(-c8ccccc8)c8ccc5[nH]8)C=C7)C=C6)cc4)cc3)[C@H](c3cccs3)C2)cc1
REMARK SMILES IDX 22 1 21 2 20 3 19 4 18 5 16 6 17 7 15 8 12 9 13 10 79 11
REMARK SMILES IDX 14 12 78 13 11 14 9 15 10 16 86 17 80 18 8 19 5 20 6 21
REMARK SMILES IDX 88 22 7 23 87 24 2 25 1 26 3 27 4 28 81 29 82 30 85 31 83 32
REMARK SMILES IDX 84 33 23 34 24 35 25 36 26 37 27 38 28 39 29 40 30 41 31 42
REMARK SMILES IDX 77 43 32 44 76 45 33 46 34 47 35 48 70 49 36 50 75 51 69 52
REMARK SMILES IDX 71 53 37 54 74 55 68 56 67 57 38 59 60 60 45 61 59 62 46 63
REMARK SMILES IDX 49 64 58 65 72 66 47 67 48 68 57 70 73 71 50 72 39 73 40 74
REMARK SMILES IDX 44 75 41 76 43 77 42 78 61 79 62 80 66 81 63 82 65 83 64 84
REMARK SMILES IDX 51 85 52 86 56 87 53 88 55 89 54 90
REMARK H PARENT 71 58 49 69
REMARK Flexibility Score: inf
ROOT
ATOM      1  C   UNL A   1      35.355  34.628  34.316  1.00  0.00     0.188 C 
ENDROOT
BRANCH   1   2
ATOM      2  O   UNL A   1      35.834  33.401  34.837  1.00  0.00    -0.376 OA
BRANCH   2   3
ATOM      3  C   UNL A   1      37.160  33.297  35.329  1.00  0.00     0.202 C 
BRANCH   3   4
ATOM      4  C   UNL A   1      37.496  33.376  36.828  1.00  0.00     0.261 C 
BRANCH   4   5
ATOM      5  O   UNL A   1      37.952  32.158  37.427  1.00  0.00    -0.460 OA
BRANCH   5   6
ATOM      6  C   UNL A   1      38.434  32.268  38.691  1.00  0.00     0.338 C 
ATOM      7  O   UNL A   1      39.604  32.371  39.020  1.00  0.00    -0.246 OA
BRANCH   6   8
ATOM      8  C   UNL A   1      37.314  32.421  39.650  1.00  0.00     0.060 A 
ATOM      9  C   UNL A   1      35.282  32.735  41.571  1.00  0.00     0.060 A 
ATOM     10  C   UNL A   1      36.349  33.638  41.517  1.00  0.00     0.029 A 
ATOM     11  C   UNL A   1      35.198  31.741  40.582  1.00  0.00     0.029 A 
ATOM     12  C   UNL A   1      37.367  33.476  40.572  1.00  0.00     0.018 A 
ATOM     13  C   UNL A   1      36.208  31.571  39.633  1.00  0.00     0.018 A 
BRANCH   9  14
ATOM     14  N   UNL A   1      34.382  32.722  42.641  1.00  0.00    -0.257 N 
ATOM     15  C   UNL A   1      32.628  33.450  43.606  1.00  0.00     0.071 C 
ATOM     16  N   UNL A   1      33.070  33.032  42.458  1.00  0.00    -0.176 NA
ATOM     17  C   UNL A   1      33.652  33.619  44.693  1.00  0.00     0.091 C 
ATOM     18  C   UNL A   1      34.897  33.084  43.977  1.00  0.00     0.154 C 
BRANCH  15  19
ATOM     19  C   UNL A   1      31.205  33.712  43.873  1.00  0.00    -0.002 A 
ATOM     20  C   UNL A   1      28.485  34.165  44.263  1.00  0.00     0.067 A 
ATOM     21  C   UNL A   1      29.067  34.487  43.035  1.00  0.00     0.021 A 
ATOM     22  C   UNL A   1      29.261  33.621  45.298  1.00  0.00     0.021 A 
ATOM     23  C   UNL A   1      30.434  34.269  42.847  1.00  0.00     0.011 A 
ATOM     24  C   UNL A   1      30.625  33.381  45.099  1.00  0.00     0.011 A 
BRANCH  20  25
ATOM     25  S   UNL A   1      26.756  34.430  44.586  1.00  0.00     0.175 S 
ATOM     26  C   UNL A   1      26.589  36.037  45.313  1.00  0.00     0.163 C 
ATOM     27  O   UNL A   1      26.377  33.462  45.599  1.00  0.00    -0.224 OA
ATOM     28  O   UNL A   1      26.102  34.458  43.292  1.00  0.00    -0.224 OA
ENDBRANCH  20  25
ENDBRANCH  15  19
BRANCH  18  29
ATOM     29  C   UNL A   1      35.668  31.980  44.679  1.00  0.00     0.030 A 
ATOM     30  C   UNL A   1      35.251  30.666  44.835  1.00  0.00     0.017 A 
ATOM     31  S   UNL A   1      37.152  32.242  45.496  1.00  0.00    -0.147 S 
ATOM     32  C   UNL A   1      36.116  29.903  45.667  1.00  0.00     0.012 A 
ATOM     33  C   UNL A   1      37.212  30.632  46.063  1.00  0.00     0.065 A 
ENDBRANCH  18  29
ENDBRANCH   9  14
ENDBRANCH   6   8
ENDBRANCH   5   6
ENDBRANCH   4   5
ENDBRANCH   3   4
ENDBRANCH   2   3
ENDBRANCH   1   2
BRANCH   1  34
ATOM     34  C   UNL A   1      34.552  34.659  32.998  1.00  0.00     0.188 C 
BRANCH  34  35
ATOM     35  O   UNL A   1      34.670  35.807  32.194  1.00  0.00    -0.376 OA
BRANCH  35  36
ATOM     36  C   UNL A   1      33.514  36.485  31.734  1.00  0.00     0.202 C 
BRANCH  36  37
ATOM     37  C   UNL A   1      32.638  36.085  30.528  1.00  0.00     0.261 C 
BRANCH  37  38
ATOM     38  O   UNL A   1      33.268  35.873  29.263  1.00  0.00    -0.460 OA
BRANCH  38  39
ATOM     39  C   UNL A   1      33.204  34.611  28.775  1.00  0.00     0.338 C 
ATOM     40  O   UNL A   1      32.325  34.124  28.076  1.00  0.00    -0.246 OA
BRANCH  39  41
ATOM     41  C   UNL A   1      34.468  33.922  29.086  1.00  0.00     0.060 A 
ATOM     42  C   UNL A   1      34.468  32.889  30.033  1.00  0.00     0.016 A 
ATOM     43  C   UNL A   1      35.651  34.314  28.460  1.00  0.00     0.016 A 
ATOM     44  C   UNL A   1      35.661  32.245  30.362  1.00  0.00     0.010 A 
ATOM     45  C   UNL A   1      36.848  33.684  28.809  1.00  0.00     0.010 A 
ATOM     46  C   UNL A   1      36.863  32.663  29.777  1.00  0.00    -0.014 A 
BRANCH  46  47
ATOM     47  C   UNL A   1      38.158  32.148  30.279  1.00  0.00     0.031 A 
ATOM     48  C   UNL A   1      38.683  30.852  29.724  1.00  0.00     0.074 A 
ATOM     49  C   UNL A   1      38.855  32.809  31.221  1.00  0.00     0.049 A 
ATOM     50  N   UNL A   1      39.742  30.167  30.075  1.00  0.00    -0.248 NA
ATOM     51  C   UNL A   1      37.906  30.247  28.631  1.00  0.00     0.031 C 
ATOM     52  C   UNL A   1      38.481  34.094  31.806  1.00  0.00     0.029 A 
ATOM     53  N   UNL A   1      40.022  32.472  31.861  1.00  0.00    -0.354 N 
ATOM     54  C   UNL A   1      39.751  29.045  29.255  1.00  0.00     0.074 A 
ATOM     55  C   UNL A   1      38.580  29.129  28.409  1.00  0.00     0.031 C 
ATOM     56  C   UNL A   1      39.395  34.432  32.733  1.00  0.00     0.029 A 
ATOM     57  C   UNL A   1      40.393  33.367  32.833  1.00  0.00     0.049 A 
ATOM     58  H   UNL A   1      40.544  31.666  31.643  1.00  0.00     0.167 HD
ATOM     59  C   UNL A   1      40.653  28.037  29.209  1.00  0.00     0.031 A 
ATOM     60  C   UNL A   1      41.404  33.318  33.723  1.00  0.00     0.031 A 
ATOM     61  C   UNL A   1      41.807  27.944  30.064  1.00  0.00     0.049 A 
ATOM     62  C   UNL A   1      42.345  32.141  33.713  1.00  0.00     0.074 A 
ATOM     63  C   UNL A   1      42.786  26.967  30.083  1.00  0.00     0.029 A 
ATOM     64  N   UNL A   1      42.127  28.854  31.058  1.00  0.00    -0.354 N 
ATOM     65  N   UNL A   1      42.359  31.098  32.917  1.00  0.00    -0.248 NA
ATOM     66  C   UNL A   1      43.412  32.137  34.725  1.00  0.00     0.031 C 
ATOM     67  C   UNL A   1      43.665  27.252  31.133  1.00  0.00     0.029 A 
ATOM     68  C   UNL A   1      43.274  28.444  31.720  1.00  0.00     0.049 A 
ATOM     69  H   UNL A   1      41.618  29.671  31.264  1.00  0.00     0.167 HD
ATOM     70  C   UNL A   1      43.453  30.334  33.311  1.00  0.00     0.074 A 
ATOM     71  C   UNL A   1      44.085  31.040  34.405  1.00  0.00     0.031 C 
ATOM     72  C   UNL A   1      43.895  29.156  32.807  1.00  0.00     0.031 A 
BRANCH  59  73
ATOM     73  C   UNL A   1      40.404  26.929  28.224  1.00  0.00    -0.014 A 
ATOM     74  C   UNL A   1      40.977  26.946  26.943  1.00  0.00     0.009 A 
ATOM     75  C   UNL A   1      39.612  25.833  28.599  1.00  0.00     0.009 A 
ATOM     76  C   UNL A   1      40.733  25.902  26.046  1.00  0.00     0.001 A 
ATOM     77  C   UNL A   1      39.397  24.777  27.713  1.00  0.00     0.001 A 
ATOM     78  C   UNL A   1      39.949  24.817  26.434  1.00  0.00     0.000 A 
ENDBRANCH  59  73
BRANCH  60  79
ATOM     79  C   UNL A   1      41.569  34.405  34.726  1.00  0.00    -0.014 A 
ATOM     80  C   UNL A   1      40.828  34.400  35.917  1.00  0.00     0.009 A 
ATOM     81  C   UNL A   1      42.453  35.469  34.482  1.00  0.00     0.009 A 
ATOM     82  C   UNL A   1      40.946  35.452  36.830  1.00  0.00     0.001 A 
ATOM     83  C   UNL A   1      42.594  36.502  35.412  1.00  0.00     0.001 A 
ATOM     84  C   UNL A   1      41.833  36.499  36.578  1.00  0.00     0.000 A 
ENDBRANCH  60  79
BRANCH  72  85
ATOM     85  C   UNL A   1      45.148  28.571  33.401  1.00  0.00    -0.014 A 
ATOM     86  C   UNL A   1      46.422  29.014  33.013  1.00  0.00     0.009 A 
ATOM     87  C   UNL A   1      45.047  27.593  34.405  1.00  0.00     0.009 A 
ATOM     88  C   UNL A   1      47.568  28.468  33.596  1.00  0.00     0.001 A 
ATOM     89  C   UNL A   1      46.192  27.074  35.009  1.00  0.00     0.001 A 
ATOM     90  C   UNL A   1      47.452  27.504  34.597  1.00  0.00     0.000 A 
ENDBRANCH  72  85
ENDBRANCH  46  47
ENDBRANCH  39  41
ENDBRANCH  38  39
ENDBRANCH  37  38
ENDBRANCH  36  37
ENDBRANCH  35  36
ENDBRANCH  34  35
ENDBRANCH   1  34
TORSDOF 21
ENDMDL
