MODEL 1
REMARK VINA RESULT:     -11.9      0.000      0.000
REMARK SMILES CN1C(=O)C[C@@H](C(=O)OCCOCCOCCOC(=O)c2ccc(-c3c4nc(c(-c5ccccc5)c5ccc([nH]5)c(-c5ccccc5)c5nc(c(-c6ccccc6)c6ccc3[nH]6)C=C5)C=C4)cc2)C12CCN(C(=O)c1cccc3ccccc13)CC2
REMARK SMILES IDX 14 1 13 2 12 3 11 4 10 5 9 6 7 7 8 8 6 9 1 10 2 11 3 12
REMARK SMILES IDX 69 13 4 14 5 15 70 16 86 17 71 18 85 19 72 20 73 21 74 22
REMARK SMILES IDX 75 23 76 24 84 25 77 26 79 27 83 28 78 29 80 30 82 31 81 32
REMARK SMILES IDX 15 33 16 34 17 35 18 36 19 37 20 38 21 39 22 40 68 41 23 42
REMARK SMILES IDX 67 43 24 44 25 45 26 46 61 47 27 48 66 49 60 50 62 51 28 52
REMARK SMILES IDX 65 53 59 54 58 55 29 57 51 58 36 59 50 60 37 61 40 62 49 63
REMARK SMILES IDX 63 64 38 65 39 66 48 68 64 69 41 70 30 71 31 72 35 73 32 74
REMARK SMILES IDX 34 75 33 76 52 77 53 78 57 79 54 80 56 81 55 82 42 83 43 84
REMARK SMILES IDX 47 85 44 86 46 87 45 88
REMARK H PARENT 62 56 40 67
REMARK Flexibility Score: inf
ROOT
ATOM      1  C   UNL A   1      41.252  21.980  26.127  1.00  0.00     0.188 C 
ENDROOT
BRANCH   1   2
ATOM      2  C   UNL A   1      39.989  22.359  26.887  1.00  0.00     0.188 C 
BRANCH   2   3
ATOM      3  O   UNL A   1      39.399  23.628  26.650  1.00  0.00    -0.376 OA
BRANCH   3   4
ATOM      4  C   UNL A   1      38.084  23.700  26.120  1.00  0.00     0.202 C 
BRANCH   4   5
ATOM      5  C   UNL A   1      37.378  22.364  25.815  1.00  0.00     0.261 C 
BRANCH   5   6
ATOM      6  O   UNL A   1      35.920  22.341  25.780  1.00  0.00    -0.463 OA
BRANCH   6   7
ATOM      7  C   UNL A   1      35.370  21.156  25.425  1.00  0.00     0.311 C 
ATOM      8  O   UNL A   1      36.035  20.215  24.994  1.00  0.00    -0.252 OA
BRANCH   7   9
ATOM      9  C   UNL A   1      33.845  21.015  25.476  1.00  0.00     0.134 C 
ATOM     10  C   UNL A   1      31.775  20.946  22.330  1.00  0.00     0.147 C 
ATOM     11  N   UNL A   1      32.565  20.710  23.527  1.00  0.00    -0.339 N 
ATOM     12  C   UNL A   1      33.050  19.448  23.842  1.00  0.00     0.223 C 
ATOM     13  C   UNL A   1      32.727  21.691  24.612  1.00  0.00     0.060 C 
ATOM     14  O   UNL A   1      32.990  18.453  23.162  1.00  0.00    -0.275 OA
ATOM     15  C   UNL A   1      33.616  19.508  25.238  1.00  0.00     0.118 C 
ATOM     16  C   UNL A   1      32.956  23.114  24.062  1.00  0.00     0.051 C 
ATOM     17  C   UNL A   1      31.386  21.717  25.440  1.00  0.00     0.051 C 
ATOM     18  C   UNL A   1      32.843  24.190  25.137  1.00  0.00     0.122 C 
ATOM     19  C   UNL A   1      31.199  22.911  26.381  1.00  0.00     0.122 C 
ATOM     20  N   UNL A   1      31.543  24.194  25.769  1.00  0.00    -0.338 N 
ATOM     21  C   UNL A   1      30.747  25.309  26.099  1.00  0.00     0.254 C 
ATOM     22  O   UNL A   1      29.689  25.155  26.717  1.00  0.00    -0.269 OA
BRANCH  21  23
ATOM     23  C   UNL A   1      31.141  26.742  25.886  1.00  0.00     0.047 A 
ATOM     24  C   UNL A   1      31.797  27.308  27.004  1.00  0.00     0.014 A 
ATOM     25  C   UNL A   1      30.807  27.579  24.782  1.00  0.00    -0.006 A 
ATOM     26  C   UNL A   1      32.133  28.659  27.052  1.00  0.00     0.001 A 
ATOM     27  C   UNL A   1      31.163  28.964  24.856  1.00  0.00    -0.018 A 
ATOM     28  C   UNL A   1      30.163  27.159  23.596  1.00  0.00     0.009 A 
ATOM     29  C   UNL A   1      31.805  29.482  25.988  1.00  0.00     0.009 A 
ATOM     30  C   UNL A   1      30.913  29.832  23.785  1.00  0.00     0.009 A 
ATOM     31  C   UNL A   1      29.983  28.025  22.509  1.00  0.00     0.001 A 
ATOM     32  C   UNL A   1      30.353  29.360  22.605  1.00  0.00     0.001 A 
ENDBRANCH  21  23
ENDBRANCH   7   9
ENDBRANCH   6   7
ENDBRANCH   5   6
ENDBRANCH   4   5
ENDBRANCH   3   4
ENDBRANCH   2   3
ENDBRANCH   1   2
BRANCH   1  33
ATOM     33  O   UNL A   1      42.113  21.099  26.818  1.00  0.00    -0.376 OA
BRANCH  33  34
ATOM     34  C   UNL A   1      41.725  19.735  26.766  1.00  0.00     0.202 C 
BRANCH  34  35
ATOM     35  C   UNL A   1      42.794  18.912  26.032  1.00  0.00     0.261 C 
BRANCH  35  36
ATOM     36  O   UNL A   1      43.116  19.386  24.698  1.00  0.00    -0.460 OA
BRANCH  36  37
ATOM     37  C   UNL A   1      44.441  19.511  24.470  1.00  0.00     0.338 C 
ATOM     38  O   UNL A   1      45.156  18.630  24.036  1.00  0.00    -0.246 OA
BRANCH  37  39
ATOM     39  C   UNL A   1      44.929  20.892  24.649  1.00  0.00     0.060 A 
ATOM     40  C   UNL A   1      45.528  21.255  25.860  1.00  0.00     0.016 A 
ATOM     41  C   UNL A   1      44.585  21.876  23.731  1.00  0.00     0.016 A 
ATOM     42  C   UNL A   1      45.728  22.591  26.195  1.00  0.00     0.010 A 
ATOM     43  C   UNL A   1      44.818  23.221  24.050  1.00  0.00     0.010 A 
ATOM     44  C   UNL A   1      45.356  23.592  25.299  1.00  0.00    -0.014 A 
BRANCH  44  45
ATOM     45  C   UNL A   1      45.437  25.022  25.695  1.00  0.00     0.031 A 
ATOM     46  C   UNL A   1      46.761  25.737  25.646  1.00  0.00     0.074 A 
ATOM     47  C   UNL A   1      44.336  25.693  26.077  1.00  0.00     0.049 A 
ATOM     48  N   UNL A   1      47.095  26.914  26.111  1.00  0.00    -0.248 NA
ATOM     49  C   UNL A   1      47.857  25.026  24.977  1.00  0.00     0.031 C 
ATOM     50  C   UNL A   1      42.970  25.167  26.072  1.00  0.00     0.029 A 
ATOM     51  N   UNL A   1      44.201  26.969  26.566  1.00  0.00    -0.354 N 
ATOM     52  C   UNL A   1      48.445  27.068  25.815  1.00  0.00     0.074 A 
ATOM     53  C   UNL A   1      48.870  25.864  25.135  1.00  0.00     0.031 C 
ATOM     54  C   UNL A   1      42.139  26.105  26.551  1.00  0.00     0.029 A 
ATOM     55  C   UNL A   1      42.922  27.264  26.967  1.00  0.00     0.049 A 
ATOM     56  H   UNL A   1      44.948  27.607  26.625  1.00  0.00     0.167 HD
ATOM     57  C   UNL A   1      49.262  28.111  26.099  1.00  0.00     0.031 A 
ATOM     58  C   UNL A   1      42.443  28.323  27.647  1.00  0.00     0.031 A 
ATOM     59  C   UNL A   1      48.839  29.294  26.797  1.00  0.00     0.049 A 
ATOM     60  C   UNL A   1      43.390  29.411  28.072  1.00  0.00     0.074 A 
ATOM     61  C   UNL A   1      49.591  30.395  27.170  1.00  0.00     0.029 A 
ATOM     62  N   UNL A   1      47.543  29.529  27.230  1.00  0.00    -0.354 N 
ATOM     63  N   UNL A   1      44.675  29.527  27.841  1.00  0.00    -0.248 NA
ATOM     64  C   UNL A   1      42.816  30.512  28.857  1.00  0.00     0.031 C 
ATOM     65  C   UNL A   1      48.763  31.267  27.884  1.00  0.00     0.029 A 
ATOM     66  C   UNL A   1      47.480  30.743  27.893  1.00  0.00     0.049 A 
ATOM     67  H   UNL A   1      46.781  28.922  27.088  1.00  0.00     0.167 HD
ATOM     68  C   UNL A   1      45.058  30.729  28.422  1.00  0.00     0.074 A 
ATOM     69  C   UNL A   1      43.865  31.309  29.006  1.00  0.00     0.031 C 
ATOM     70  C   UNL A   1      46.285  31.306  28.463  1.00  0.00     0.031 A 
BRANCH  57  71
ATOM     71  C   UNL A   1      50.712  27.980  25.718  1.00  0.00    -0.014 A 
ATOM     72  C   UNL A   1      51.660  27.436  26.596  1.00  0.00     0.009 A 
ATOM     73  C   UNL A   1      51.129  28.395  24.442  1.00  0.00     0.009 A 
ATOM     74  C   UNL A   1      53.002  27.341  26.217  1.00  0.00     0.001 A 
ATOM     75  C   UNL A   1      52.464  28.273  24.055  1.00  0.00     0.001 A 
ATOM     76  C   UNL A   1      53.402  27.753  24.947  1.00  0.00     0.000 A 
ENDBRANCH  57  71
BRANCH  58  77
ATOM     77  C   UNL A   1      41.007  28.372  28.028  1.00  0.00    -0.014 A 
ATOM     78  C   UNL A   1      40.082  29.074  27.240  1.00  0.00     0.009 A 
ATOM     79  C   UNL A   1      40.555  27.724  29.189  1.00  0.00     0.009 A 
ATOM     80  C   UNL A   1      38.740  29.143  27.621  1.00  0.00     0.001 A 
ATOM     81  C   UNL A   1      39.207  27.768  29.549  1.00  0.00     0.001 A 
ATOM     82  C   UNL A   1      38.302  28.486  28.769  1.00  0.00     0.000 A 
ENDBRANCH  58  77
BRANCH  70  83
ATOM     83  C   UNL A   1      46.385  32.658  29.112  1.00  0.00    -0.014 A 
ATOM     84  C   UNL A   1      46.672  32.799  30.478  1.00  0.00     0.009 A 
ATOM     85  C   UNL A   1      46.219  33.811  28.329  1.00  0.00     0.009 A 
ATOM     86  C   UNL A   1      46.751  34.070  31.054  1.00  0.00     0.001 A 
ATOM     87  C   UNL A   1      46.330  35.078  28.900  1.00  0.00     0.001 A 
ATOM     88  C   UNL A   1      46.584  35.207  30.263  1.00  0.00     0.000 A 
ENDBRANCH  70  83
ENDBRANCH  44  45
ENDBRANCH  37  39
ENDBRANCH  36  37
ENDBRANCH  35  36
ENDBRANCH  34  35
ENDBRANCH  33  34
ENDBRANCH   1  33
TORSDOF 18
ENDMDL
MODEL 2
REMARK VINA RESULT:     -11.2      1.638      2.806
REMARK SMILES CN1C(=O)C[C@@H](C(=O)OCCOCCOCCOC(=O)c2ccc(-c3c4nc(c(-c5ccccc5)c5ccc([nH]5)c(-c5ccccc5)c5nc(c(-c6ccccc6)c6ccc3[nH]6)C=C5)C=C4)cc2)C12CCN(C(=O)c1cccc3ccccc13)CC2
REMARK SMILES IDX 14 1 13 2 12 3 11 4 10 5 9 6 7 7 8 8 6 9 1 10 2 11 3 12
REMARK SMILES IDX 69 13 4 14 5 15 70 16 86 17 71 18 85 19 72 20 73 21 74 22
REMARK SMILES IDX 75 23 76 24 84 25 77 26 79 27 83 28 78 29 80 30 82 31 81 32
REMARK SMILES IDX 15 33 16 34 17 35 18 36 19 37 20 38 21 39 22 40 68 41 23 42
REMARK SMILES IDX 67 43 24 44 25 45 26 46 61 47 27 48 66 49 60 50 62 51 28 52
REMARK SMILES IDX 65 53 59 54 58 55 29 57 51 58 36 59 50 60 37 61 40 62 49 63
REMARK SMILES IDX 63 64 38 65 39 66 48 68 64 69 41 70 30 71 31 72 35 73 32 74
REMARK SMILES IDX 34 75 33 76 52 77 53 78 57 79 54 80 56 81 55 82 42 83 43 84
REMARK SMILES IDX 47 85 44 86 46 87 45 88
REMARK H PARENT 62 56 40 67
REMARK Flexibility Score: inf
ROOT
ATOM      1  C   UNL A   1      41.117  21.973  26.376  1.00  0.00     0.188 C 
ENDROOT
BRANCH   1   2
ATOM      2  C   UNL A   1      39.609  22.028  26.576  1.00  0.00     0.188 C 
BRANCH   2   3
ATOM      3  O   UNL A   1      39.029  23.210  27.107  1.00  0.00    -0.376 OA
BRANCH   3   4
ATOM      4  C   UNL A   1      38.224  24.030  26.272  1.00  0.00     0.202 C 
BRANCH   4   5
ATOM      5  C   UNL A   1      37.251  23.312  25.315  1.00  0.00     0.261 C 
BRANCH   5   6
ATOM      6  O   UNL A   1      35.901  23.022  25.786  1.00  0.00    -0.463 OA
BRANCH   6   7
ATOM      7  C   UNL A   1      35.469  21.760  25.553  1.00  0.00     0.311 C 
ATOM      8  O   UNL A   1      36.220  20.853  25.193  1.00  0.00    -0.252 OA
BRANCH   7   9
ATOM      9  C   UNL A   1      33.967  21.474  25.654  1.00  0.00     0.134 C 
ATOM     10  C   UNL A   1      31.902  20.725  22.594  1.00  0.00     0.147 C 
ATOM     11  N   UNL A   1      32.718  20.753  23.797  1.00  0.00    -0.339 N 
ATOM     12  C   UNL A   1      33.332  19.607  24.287  1.00  0.00     0.223 C 
ATOM     13  C   UNL A   1      32.782  21.896  24.721  1.00  0.00     0.060 C 
ATOM     14  O   UNL A   1      33.373  18.521  23.762  1.00  0.00    -0.275 OA
ATOM     15  C   UNL A   1      33.894  19.933  25.647  1.00  0.00     0.118 C 
ATOM     16  C   UNL A   1      32.860  23.236  23.961  1.00  0.00     0.051 C 
ATOM     17  C   UNL A   1      31.448  21.908  25.561  1.00  0.00     0.051 C 
ATOM     18  C   UNL A   1      32.641  24.444  24.868  1.00  0.00     0.122 C 
ATOM     19  C   UNL A   1      31.142  23.204  26.319  1.00  0.00     0.122 C 
ATOM     20  N   UNL A   1      31.349  24.410  25.517  1.00  0.00    -0.338 N 
ATOM     21  C   UNL A   1      30.444  25.475  25.693  1.00  0.00     0.254 C 
ATOM     22  O   UNL A   1      29.409  25.308  26.347  1.00  0.00    -0.269 OA
BRANCH  21  23
ATOM     23  C   UNL A   1      30.686  26.893  25.262  1.00  0.00     0.047 A 
ATOM     24  C   UNL A   1      30.008  27.232  24.068  1.00  0.00     0.014 A 
ATOM     25  C   UNL A   1      31.598  27.829  25.831  1.00  0.00    -0.006 A 
ATOM     26  C   UNL A   1      30.200  28.459  23.438  1.00  0.00     0.001 A 
ATOM     27  C   UNL A   1      31.776  29.083  25.165  1.00  0.00    -0.018 A 
ATOM     28  C   UNL A   1      32.338  27.638  27.020  1.00  0.00     0.009 A 
ATOM     29  C   UNL A   1      31.089  29.373  23.979  1.00  0.00     0.009 A 
ATOM     30  C   UNL A   1      32.617  30.071  25.697  1.00  0.00     0.009 A 
ATOM     31  C   UNL A   1      33.119  28.661  27.573  1.00  0.00     0.001 A 
ATOM     32  C   UNL A   1      33.262  29.874  26.911  1.00  0.00     0.001 A 
ENDBRANCH  21  23
ENDBRANCH   7   9
ENDBRANCH   6   7
ENDBRANCH   5   6
ENDBRANCH   4   5
ENDBRANCH   3   4
ENDBRANCH   2   3
ENDBRANCH   1   2
BRANCH   1  33
ATOM     33  O   UNL A   1      41.727  20.779  26.821  1.00  0.00    -0.376 OA
BRANCH  33  34
ATOM     34  C   UNL A   1      41.976  19.828  25.799  1.00  0.00     0.202 C 
BRANCH  34  35
ATOM     35  C   UNL A   1      43.489  19.673  25.582  1.00  0.00     0.261 C 
BRANCH  35  36
ATOM     36  O   UNL A   1      44.076  20.648  24.681  1.00  0.00    -0.460 OA
BRANCH  36  37
ATOM     37  C   UNL A   1      45.039  21.404  25.251  1.00  0.00     0.338 C 
ATOM     38  O   UNL A   1      46.228  21.153  25.217  1.00  0.00    -0.246 OA
BRANCH  37  39
ATOM     39  C   UNL A   1      44.527  22.676  25.796  1.00  0.00     0.060 A 
ATOM     40  C   UNL A   1      44.215  23.720  24.920  1.00  0.00     0.016 A 
ATOM     41  C   UNL A   1      44.582  22.919  27.163  1.00  0.00     0.016 A 
ATOM     42  C   UNL A   1      44.023  25.019  25.381  1.00  0.00     0.010 A 
ATOM     43  C   UNL A   1      44.353  24.219  27.635  1.00  0.00     0.010 A 
ATOM     44  C   UNL A   1      44.109  25.287  26.747  1.00  0.00    -0.014 A 
BRANCH  44  45
ATOM     45  C   UNL A   1      44.041  26.685  27.244  1.00  0.00     0.031 A 
ATOM     46  C   UNL A   1      45.310  27.469  27.450  1.00  0.00     0.074 A 
ATOM     47  C   UNL A   1      42.855  27.268  27.494  1.00  0.00     0.049 A 
ATOM     48  N   UNL A   1      45.496  28.623  28.038  1.00  0.00    -0.248 NA
ATOM     49  C   UNL A   1      46.537  26.866  26.914  1.00  0.00     0.031 C 
ATOM     50  C   UNL A   1      41.541  26.675  27.242  1.00  0.00     0.029 A 
ATOM     51  N   UNL A   1      42.568  28.495  28.040  1.00  0.00    -0.354 N 
ATOM     52  C   UNL A   1      46.864  28.867  27.966  1.00  0.00     0.074 A 
ATOM     53  C   UNL A   1      47.460  27.741  27.282  1.00  0.00     0.031 C 
ATOM     54  C   UNL A   1      40.590  27.531  27.646  1.00  0.00     0.029 A 
ATOM     55  C   UNL A   1      41.227  28.694  28.255  1.00  0.00     0.049 A 
ATOM     56  H   UNL A   1      43.257  29.164  28.256  1.00  0.00     0.167 HD
ATOM     57  C   UNL A   1      47.561  29.926  28.442  1.00  0.00     0.031 A 
ATOM     58  C   UNL A   1      40.587  29.673  28.921  1.00  0.00     0.031 A 
ATOM     59  C   UNL A   1      46.965  31.031  29.142  1.00  0.00     0.049 A 
ATOM     60  C   UNL A   1      41.389  30.773  29.559  1.00  0.00     0.074 A 
ATOM     61  C   UNL A   1      47.582  32.137  29.700  1.00  0.00     0.029 A 
ATOM     62  N   UNL A   1      45.606  31.166  29.383  1.00  0.00    -0.354 N 
ATOM     63  N   UNL A   1      42.684  30.972  29.539  1.00  0.00    -0.248 NA
ATOM     64  C   UNL A   1      40.636  31.782  30.316  1.00  0.00     0.031 C 
ATOM     65  C   UNL A   1      46.602  32.910  30.332  1.00  0.00     0.029 A 
ATOM     66  C   UNL A   1      45.368  32.322  30.107  1.00  0.00     0.049 A 
ATOM     67  H   UNL A   1      44.913  30.534  29.085  1.00  0.00     0.167 HD
ATOM     68  C   UNL A   1      42.899  32.145  30.250  1.00  0.00     0.074 A 
ATOM     69  C   UNL A   1      41.598  32.618  30.679  1.00  0.00     0.031 C 
ATOM     70  C   UNL A   1      44.067  32.779  30.520  1.00  0.00     0.031 A 
BRANCH  57  71
ATOM     71  C   UNL A   1      49.057  29.899  28.283  1.00  0.00    -0.014 A 
ATOM     72  C   UNL A   1      49.889  29.280  29.228  1.00  0.00     0.009 A 
ATOM     73  C   UNL A   1      49.641  30.491  27.151  1.00  0.00     0.009 A 
ATOM     74  C   UNL A   1      51.276  29.283  29.059  1.00  0.00     0.001 A 
ATOM     75  C   UNL A   1      51.025  30.468  26.969  1.00  0.00     0.001 A 
ATOM     76  C   UNL A   1      51.842  29.872  27.928  1.00  0.00     0.000 A 
ENDBRANCH  57  71
BRANCH  58  77
ATOM     77  C   UNL A   1      39.109  29.620  29.076  1.00  0.00    -0.014 A 
ATOM     78  C   UNL A   1      38.530  29.153  30.266  1.00  0.00     0.009 A 
ATOM     79  C   UNL A   1      38.268  30.031  28.029  1.00  0.00     0.009 A 
ATOM     80  C   UNL A   1      37.142  29.075  30.393  1.00  0.00     0.001 A 
ATOM     81  C   UNL A   1      36.880  29.984  28.172  1.00  0.00     0.001 A 
ATOM     82  C   UNL A   1      36.318  29.497  29.350  1.00  0.00     0.000 A 
ENDBRANCH  58  77
BRANCH  70  83
ATOM     83  C   UNL A   1      43.984  34.082  31.265  1.00  0.00    -0.014 A 
ATOM     84  C   UNL A   1      43.815  35.303  30.595  1.00  0.00     0.009 A 
ATOM     85  C   UNL A   1      44.044  34.078  32.668  1.00  0.00     0.009 A 
ATOM     86  C   UNL A   1      43.749  36.498  31.316  1.00  0.00     0.001 A 
ATOM     87  C   UNL A   1      43.946  35.269  33.386  1.00  0.00     0.001 A 
ATOM     88  C   UNL A   1      43.810  36.479  32.709  1.00  0.00     0.000 A 
ENDBRANCH  70  83
ENDBRANCH  44  45
ENDBRANCH  37  39
ENDBRANCH  36  37
ENDBRANCH  35  36
ENDBRANCH  34  35
ENDBRANCH  33  34
ENDBRANCH   1  33
TORSDOF 18
ENDMDL
MODEL 3
REMARK VINA RESULT:     -10.8      4.485      7.794
REMARK SMILES CN1C(=O)C[C@@H](C(=O)OCCOCCOCCOC(=O)c2ccc(-c3c4nc(c(-c5ccccc5)c5ccc([nH]5)c(-c5ccccc5)c5nc(c(-c6ccccc6)c6ccc3[nH]6)C=C5)C=C4)cc2)C12CCN(C(=O)c1cccc3ccccc13)CC2
REMARK SMILES IDX 14 1 13 2 12 3 11 4 10 5 9 6 7 7 8 8 6 9 1 10 2 11 3 12
REMARK SMILES IDX 69 13 4 14 5 15 70 16 86 17 71 18 85 19 72 20 73 21 74 22
REMARK SMILES IDX 75 23 76 24 84 25 77 26 79 27 83 28 78 29 80 30 82 31 81 32
REMARK SMILES IDX 15 33 16 34 17 35 18 36 19 37 20 38 21 39 22 40 68 41 23 42
REMARK SMILES IDX 67 43 24 44 25 45 26 46 61 47 27 48 66 49 60 50 62 51 28 52
REMARK SMILES IDX 65 53 59 54 58 55 29 57 51 58 36 59 50 60 37 61 40 62 49 63
REMARK SMILES IDX 63 64 38 65 39 66 48 68 64 69 41 70 30 71 31 72 35 73 32 74
REMARK SMILES IDX 34 75 33 76 52 77 53 78 57 79 54 80 56 81 55 82 42 83 43 84
REMARK SMILES IDX 47 85 44 86 46 87 45 88
REMARK H PARENT 62 56 40 67
REMARK Flexibility Score: inf
ROOT
ATOM      1  C   UNL A   1      41.754  21.748  26.077  1.00  0.00     0.188 C 
ENDROOT
BRANCH   1   2
ATOM      2  C   UNL A   1      40.821  20.634  26.529  1.00  0.00     0.188 C 
BRANCH   2   3
ATOM      3  O   UNL A   1      39.753  20.244  25.680  1.00  0.00    -0.376 OA
BRANCH   3   4
ATOM      4  C   UNL A   1      38.571  21.032  25.635  1.00  0.00     0.202 C 
BRANCH   4   5
ATOM      5  C   UNL A   1      37.432  20.534  24.724  1.00  0.00     0.261 C 
BRANCH   5   6
ATOM      6  O   UNL A   1      36.121  20.296  25.317  1.00  0.00    -0.463 OA
BRANCH   6   7
ATOM      7  C   UNL A   1      35.366  21.404  25.507  1.00  0.00     0.311 C 
ATOM      8  O   UNL A   1      35.852  22.517  25.705  1.00  0.00    -0.252 OA
BRANCH   7   9
ATOM      9  C   UNL A   1      33.843  21.245  25.570  1.00  0.00     0.134 C 
ATOM     10  C   UNL A   1      31.756  21.082  22.439  1.00  0.00     0.147 C 
ATOM     11  N   UNL A   1      32.556  20.882  23.636  1.00  0.00    -0.339 N 
ATOM     12  C   UNL A   1      33.059  19.633  23.976  1.00  0.00     0.223 C 
ATOM     13  C   UNL A   1      32.712  21.888  24.698  1.00  0.00     0.060 C 
ATOM     14  O   UNL A   1      33.007  18.623  23.317  1.00  0.00    -0.275 OA
ATOM     15  C   UNL A   1      33.631  19.730  25.367  1.00  0.00     0.118 C 
ATOM     16  C   UNL A   1      32.920  23.302  24.116  1.00  0.00     0.051 C 
ATOM     17  C   UNL A   1      31.375  21.915  25.533  1.00  0.00     0.051 C 
ATOM     18  C   UNL A   1      32.800  24.399  25.169  1.00  0.00     0.122 C 
ATOM     19  C   UNL A   1      31.178  23.127  26.450  1.00  0.00     0.122 C 
ATOM     20  N   UNL A   1      31.502  24.401  25.808  1.00  0.00    -0.338 N 
ATOM     21  C   UNL A   1      30.695  25.513  26.118  1.00  0.00     0.254 C 
ATOM     22  O   UNL A   1      29.642  25.360  26.745  1.00  0.00    -0.269 OA
BRANCH  21  23
ATOM     23  C   UNL A   1      31.070  26.946  25.872  1.00  0.00     0.047 A 
ATOM     24  C   UNL A   1      31.663  27.565  26.997  1.00  0.00     0.014 A 
ATOM     25  C   UNL A   1      30.770  27.736  24.725  1.00  0.00    -0.006 A 
ATOM     26  C   UNL A   1      31.969  28.923  27.012  1.00  0.00     0.001 A 
ATOM     27  C   UNL A   1      31.095  29.130  24.765  1.00  0.00    -0.018 A 
ATOM     28  C   UNL A   1      30.190  27.261  23.526  1.00  0.00     0.009 A 
ATOM     29  C   UNL A   1      31.674  29.701  25.905  1.00  0.00     0.009 A 
ATOM     30  C   UNL A   1      30.876  29.955  23.653  1.00  0.00     0.009 A 
ATOM     31  C   UNL A   1      30.042  28.084  22.402  1.00  0.00     0.001 A 
ATOM     32  C   UNL A   1      30.381  29.430  22.467  1.00  0.00     0.001 A 
ENDBRANCH  21  23
ENDBRANCH   7   9
ENDBRANCH   6   7
ENDBRANCH   5   6
ENDBRANCH   4   5
ENDBRANCH   3   4
ENDBRANCH   2   3
ENDBRANCH   1   2
BRANCH   1  33
ATOM     33  O   UNL A   1      43.125  21.496  26.302  1.00  0.00    -0.376 OA
BRANCH  33  34
ATOM     34  C   UNL A   1      43.912  21.424  25.124  1.00  0.00     0.202 C 
BRANCH  34  35
ATOM     35  C   UNL A   1      44.678  22.741  24.923  1.00  0.00     0.261 C 
BRANCH  35  36
ATOM     36  O   UNL A   1      43.881  23.940  25.102  1.00  0.00    -0.460 OA
BRANCH  36  37
ATOM     37  C   UNL A   1      44.610  25.038  25.398  1.00  0.00     0.338 C 
ATOM     38  O   UNL A   1      45.333  25.622  24.615  1.00  0.00    -0.246 OA
BRANCH  37  39
ATOM     39  C   UNL A   1      44.324  25.576  26.742  1.00  0.00     0.060 A 
ATOM     40  C   UNL A   1      43.512  24.842  27.614  1.00  0.00     0.016 A 
ATOM     41  C   UNL A   1      44.650  26.891  27.050  1.00  0.00     0.016 A 
ATOM     42  C   UNL A   1      42.968  25.423  28.755  1.00  0.00     0.010 A 
ATOM     43  C   UNL A   1      44.133  27.468  28.218  1.00  0.00     0.010 A 
ATOM     44  C   UNL A   1      43.258  26.753  29.060  1.00  0.00    -0.014 A 
BRANCH  44  45
ATOM     45  C   UNL A   1      42.580  27.428  30.198  1.00  0.00     0.031 A 
ATOM     46  C   UNL A   1      41.264  28.124  29.977  1.00  0.00     0.074 A 
ATOM     47  C   UNL A   1      43.120  27.407  31.429  1.00  0.00     0.049 A 
ATOM     48  N   UNL A   1      40.594  28.920  30.770  1.00  0.00    -0.248 NA
ATOM     49  C   UNL A   1      40.614  27.885  28.682  1.00  0.00     0.031 C 
ATOM     50  C   UNL A   1      44.330  26.684  31.819  1.00  0.00     0.029 A 
ATOM     51  N   UNL A   1      42.719  28.035  32.583  1.00  0.00    -0.354 N 
ATOM     52  C   UNL A   1      39.460  29.297  30.057  1.00  0.00     0.074 A 
ATOM     53  C   UNL A   1      39.534  28.647  28.768  1.00  0.00     0.031 C 
ATOM     54  C   UNL A   1      44.584  26.922  33.115  1.00  0.00     0.029 A 
ATOM     55  C   UNL A   1      43.599  27.873  33.623  1.00  0.00     0.049 A 
ATOM     56  H   UNL A   1      41.884  28.551  32.655  1.00  0.00     0.167 HD
ATOM     57  C   UNL A   1      38.456  30.124  30.437  1.00  0.00     0.031 A 
ATOM     58  C   UNL A   1      43.644  28.469  34.829  1.00  0.00     0.031 A 
ATOM     59  C   UNL A   1      38.400  30.786  31.712  1.00  0.00     0.049 A 
ATOM     60  C   UNL A   1      42.594  29.486  35.184  1.00  0.00     0.074 A 
ATOM     61  C   UNL A   1      37.451  31.674  32.186  1.00  0.00     0.029 A 
ATOM     62  N   UNL A   1      39.342  30.633  32.718  1.00  0.00    -0.354 N 
ATOM     63  N   UNL A   1      41.557  29.883  34.488  1.00  0.00    -0.248 NA
ATOM     64  C   UNL A   1      42.728  30.140  36.493  1.00  0.00     0.031 C 
ATOM     65  C   UNL A   1      37.851  32.105  33.455  1.00  0.00     0.029 A 
ATOM     66  C   UNL A   1      39.012  31.431  33.799  1.00  0.00     0.049 A 
ATOM     67  H   UNL A   1      40.130  30.044  32.670  1.00  0.00     0.167 HD
ATOM     68  C   UNL A   1      40.895  30.807  35.286  1.00  0.00     0.074 A 
ATOM     69  C   UNL A   1      41.645  30.902  36.523  1.00  0.00     0.031 C 
ATOM     70  C   UNL A   1      39.766  31.510  35.023  1.00  0.00     0.031 A 
BRANCH  57  71
ATOM     71  C   UNL A   1      37.377  30.413  29.429  1.00  0.00    -0.014 A 
ATOM     72  C   UNL A   1      37.221  31.685  28.859  1.00  0.00     0.009 A 
ATOM     73  C   UNL A   1      36.513  29.380  29.030  1.00  0.00     0.009 A 
ATOM     74  C   UNL A   1      36.200  31.925  27.935  1.00  0.00     0.001 A 
ATOM     75  C   UNL A   1      35.511  29.615  28.086  1.00  0.00     0.001 A 
ATOM     76  C   UNL A   1      35.350  30.890  27.546  1.00  0.00     0.000 A 
ENDBRANCH  57  71
BRANCH  58  77
ATOM     77  C   UNL A   1      44.760  28.169  35.765  1.00  0.00    -0.014 A 
ATOM     78  C   UNL A   1      46.037  28.709  35.551  1.00  0.00     0.009 A 
ATOM     79  C   UNL A   1      44.554  27.332  36.873  1.00  0.00     0.009 A 
ATOM     80  C   UNL A   1      47.089  28.397  36.415  1.00  0.00     0.001 A 
ATOM     81  C   UNL A   1      45.600  27.049  37.754  1.00  0.00     0.001 A 
ATOM     82  C   UNL A   1      46.868  27.574  37.519  1.00  0.00     0.000 A 
ENDBRANCH  58  77
BRANCH  70  83
ATOM     83  C   UNL A   1      39.241  32.398  36.116  1.00  0.00    -0.014 A 
ATOM     84  C   UNL A   1      39.586  33.756  36.190  1.00  0.00     0.009 A 
ATOM     85  C   UNL A   1      38.358  31.866  37.069  1.00  0.00     0.009 A 
ATOM     86  C   UNL A   1      39.087  34.553  37.224  1.00  0.00     0.001 A 
ATOM     87  C   UNL A   1      37.837  32.672  38.081  1.00  0.00     0.001 A 
ATOM     88  C   UNL A   1      38.211  34.012  38.164  1.00  0.00     0.000 A 
ENDBRANCH  70  83
ENDBRANCH  44  45
ENDBRANCH  37  39
ENDBRANCH  36  37
ENDBRANCH  35  36
ENDBRANCH  34  35
ENDBRANCH  33  34
ENDBRANCH   1  33
TORSDOF 18
ENDMDL
