MODEL 1
REMARK VINA RESULT:     -10.1      0.000      0.000
REMARK SMILES Cc1cc(C)c2c(O[C@@H](C)C(=O)OCCOCCOCCOC(=O)c3ccc(-c4c5nc(c(-c6ccccc6)c6ccc([nH]6)c(-c6ccccc6)c6nc(c(-c7ccccc7)c7ccc4[nH]7)C=C6)C=C5)cc3)nsc2n1
REMARK SMILES IDX 17 1 16 2 15 3 14 4 13 5 11 6 12 7 9 8 10 9 8 10 7 11 1 12
REMARK SMILES IDX 2 13 3 14 76 15 4 16 75 17 5 18 6 19 74 20 73 21 18 22 19 23
REMARK SMILES IDX 20 24 21 25 22 26 23 27 24 28 25 29 26 30 72 31 27 32 71 33
REMARK SMILES IDX 28 34 29 35 30 36 65 37 31 38 70 39 64 40 66 41 32 42 69 43
REMARK SMILES IDX 63 44 62 45 33 47 55 48 40 49 54 50 41 51 44 52 53 53 67 54
REMARK SMILES IDX 42 55 43 56 52 58 68 59 45 60 34 61 35 62 39 63 36 64 38 65
REMARK SMILES IDX 37 66 56 67 57 68 61 69 58 70 60 71 59 72 46 73 47 74 51 75
REMARK SMILES IDX 48 76 50 77 49 78
REMARK H PARENT 66 46 44 57
REMARK Flexibility Score: inf
ROOT
ATOM      1  C   UNL A   1      34.157  31.536  27.966  1.00  0.00     0.188 C 
ENDROOT
BRANCH   1   2
ATOM      2  O   UNL A   1      33.386  30.419  27.556  1.00  0.00    -0.376 OA
BRANCH   2   3
ATOM      3  C   UNL A   1      34.058  29.243  27.119  1.00  0.00     0.202 C 
BRANCH   3   4
ATOM      4  C   UNL A   1      33.535  28.411  25.931  1.00  0.00     0.261 C 
BRANCH   4   5
ATOM      5  O   UNL A   1      33.155  27.061  26.244  1.00  0.00    -0.461 OA
BRANCH   5   6
ATOM      6  C   UNL A   1      31.860  26.795  26.545  1.00  0.00     0.347 C 
ATOM      7  O   UNL A   1      31.236  27.345  27.444  1.00  0.00    -0.248 OA
BRANCH   6   8
ATOM      8  C   UNL A   1      31.231  25.750  25.588  1.00  0.00     0.281 C 
ATOM      9  C   UNL A   1      29.741  25.950  25.320  1.00  0.00     0.066 C 
BRANCH   8  10
ATOM     10  O   UNL A   1      31.465  24.375  25.554  1.00  0.00    -0.462 OA
BRANCH  10  11
ATOM     11  C   UNL A   1      32.508  23.800  24.920  1.00  0.00     0.236 A 
ATOM     12  C   UNL A   1      37.407  20.908  24.949  1.00  0.00     0.067 C 
ATOM     13  C   UNL A   1      36.119  21.661  25.084  1.00  0.00     0.039 A 
ATOM     14  C   UNL A   1      35.457  21.673  26.296  1.00  0.00     0.027 A 
ATOM     15  N   UNL A   1      35.619  22.215  23.976  1.00  0.00    -0.240 NA
ATOM     16  C   UNL A   1      34.191  22.282  26.444  1.00  0.00    -0.034 A 
ATOM     17  C   UNL A   1      34.435  22.835  24.139  1.00  0.00     0.147 A 
ATOM     18  C   UNL A   1      33.620  22.102  27.826  1.00  0.00     0.045 C 
ATOM     19  C   UNL A   1      33.652  22.964  25.300  1.00  0.00     0.078 A 
ATOM     20  S   UNL A   1      33.686  23.564  22.802  1.00  0.00    -0.012 S 
ATOM     21  N   UNL A   1      32.384  24.109  23.627  1.00  0.00    -0.153 NA
ENDBRANCH  10  11
ENDBRANCH   8  10
ENDBRANCH   6   8
ENDBRANCH   5   6
ENDBRANCH   4   5
ENDBRANCH   3   4
ENDBRANCH   2   3
ENDBRANCH   1   2
BRANCH   1  22
ATOM     22  C   UNL A   1      33.507  32.938  27.982  1.00  0.00     0.188 C 
BRANCH  22  23
ATOM     23  O   UNL A   1      34.333  33.995  28.422  1.00  0.00    -0.376 OA
BRANCH  23  24
ATOM     24  C   UNL A   1      33.894  35.322  28.649  1.00  0.00     0.202 C 
BRANCH  24  25
ATOM     25  C   UNL A   1      33.100  35.785  29.868  1.00  0.00     0.261 C 
BRANCH  25  26
ATOM     26  O   UNL A   1      32.986  34.838  30.899  1.00  0.00    -0.460 OA
BRANCH  26  27
ATOM     27  C   UNL A   1      32.940  35.383  32.129  1.00  0.00     0.338 C 
ATOM     28  O   UNL A   1      32.160  36.211  32.553  1.00  0.00    -0.246 OA
BRANCH  27  29
ATOM     29  C   UNL A   1      34.034  34.796  32.903  1.00  0.00     0.060 A 
ATOM     30  C   UNL A   1      35.170  35.586  33.063  1.00  0.00     0.016 A 
ATOM     31  C   UNL A   1      34.036  33.406  33.073  1.00  0.00     0.016 A 
ATOM     32  C   UNL A   1      36.380  34.943  33.046  1.00  0.00     0.010 A 
ATOM     33  C   UNL A   1      35.241  32.767  33.023  1.00  0.00     0.010 A 
ATOM     34  C   UNL A   1      36.377  33.553  32.882  1.00  0.00    -0.014 A 
BRANCH  34  35
ATOM     35  C   UNL A   1      37.630  32.909  32.595  1.00  0.00     0.031 A 
ATOM     36  C   UNL A   1      38.498  32.866  33.782  1.00  0.00     0.074 A 
ATOM     37  C   UNL A   1      37.900  32.377  31.391  1.00  0.00     0.049 A 
ATOM     38  N   UNL A   1      39.555  33.574  33.990  1.00  0.00    -0.248 NA
ATOM     39  C   UNL A   1      38.010  32.129  34.960  1.00  0.00     0.031 C 
ATOM     40  C   UNL A   1      36.999  32.159  30.255  1.00  0.00     0.029 A 
ATOM     41  N   UNL A   1      39.057  31.812  30.966  1.00  0.00    -0.354 N 
ATOM     42  C   UNL A   1      39.992  33.205  35.252  1.00  0.00     0.074 A 
ATOM     43  C   UNL A   1      38.901  32.503  35.876  1.00  0.00     0.031 C 
ATOM     44  C   UNL A   1      37.579  31.297  29.385  1.00  0.00     0.029 A 
ATOM     45  C   UNL A   1      38.935  31.022  29.832  1.00  0.00     0.049 A 
ATOM     46  H   UNL A   1      39.916  31.953  31.426  1.00  0.00     0.167 HD
ATOM     47  C   UNL A   1      41.315  33.232  35.560  1.00  0.00     0.031 A 
ATOM     48  C   UNL A   1      39.875  30.161  29.365  1.00  0.00     0.031 A 
ATOM     49  C   UNL A   1      42.057  34.042  34.626  1.00  0.00     0.049 A 
ATOM     50  C   UNL A   1      41.169  30.559  29.972  1.00  0.00     0.074 A 
ATOM     51  C   UNL A   1      42.035  35.375  34.268  1.00  0.00     0.029 A 
ATOM     52  N   UNL A   1      42.698  33.379  33.607  1.00  0.00    -0.354 N 
ATOM     53  N   UNL A   1      41.785  31.668  29.683  1.00  0.00    -0.248 NA
ATOM     54  C   UNL A   1      41.544  29.946  31.238  1.00  0.00     0.031 C 
ATOM     55  C   UNL A   1      42.269  35.386  32.863  1.00  0.00     0.029 A 
ATOM     56  C   UNL A   1      42.493  34.073  32.444  1.00  0.00     0.049 A 
ATOM     57  H   UNL A   1      43.217  32.547  33.698  1.00  0.00     0.167 HD
ATOM     58  C   UNL A   1      42.275  32.124  30.898  1.00  0.00     0.074 A 
ATOM     59  C   UNL A   1      42.185  30.975  31.799  1.00  0.00     0.031 C 
ATOM     60  C   UNL A   1      42.426  33.460  31.134  1.00  0.00     0.031 A 
BRANCH  47  61
ATOM     61  C   UNL A   1      41.963  32.162  36.398  1.00  0.00    -0.014 A 
ATOM     62  C   UNL A   1      42.579  32.540  37.601  1.00  0.00     0.009 A 
ATOM     63  C   UNL A   1      42.232  30.859  35.932  1.00  0.00     0.009 A 
ATOM     64  C   UNL A   1      43.467  31.683  38.261  1.00  0.00     0.001 A 
ATOM     65  C   UNL A   1      43.084  29.986  36.607  1.00  0.00     0.001 A 
ATOM     66  C   UNL A   1      43.724  30.409  37.760  1.00  0.00     0.000 A 
ENDBRANCH  47  61
BRANCH  48  67
ATOM     67  C   UNL A   1      39.708  28.838  28.720  1.00  0.00    -0.014 A 
ATOM     68  C   UNL A   1      40.341  28.568  27.492  1.00  0.00     0.009 A 
ATOM     69  C   UNL A   1      39.202  27.746  29.444  1.00  0.00     0.009 A 
ATOM     70  C   UNL A   1      40.517  27.253  27.042  1.00  0.00     0.001 A 
ATOM     71  C   UNL A   1      39.374  26.432  28.992  1.00  0.00     0.001 A 
ATOM     72  C   UNL A   1      40.050  26.184  27.802  1.00  0.00     0.000 A 
ENDBRANCH  48  67
BRANCH  60  73
ATOM     73  C   UNL A   1      42.277  34.404  29.962  1.00  0.00    -0.014 A 
ATOM     74  C   UNL A   1      43.354  34.815  29.155  1.00  0.00     0.009 A 
ATOM     75  C   UNL A   1      40.978  34.750  29.563  1.00  0.00     0.009 A 
ATOM     76  C   UNL A   1      43.131  35.562  27.992  1.00  0.00     0.001 A 
ATOM     77  C   UNL A   1      40.755  35.478  28.391  1.00  0.00     0.001 A 
ATOM     78  C   UNL A   1      41.831  35.885  27.607  1.00  0.00     0.000 A 
ENDBRANCH  60  73
ENDBRANCH  34  35
ENDBRANCH  27  29
ENDBRANCH  26  27
ENDBRANCH  25  26
ENDBRANCH  24  25
ENDBRANCH  23  24
ENDBRANCH  22  23
ENDBRANCH   1  22
TORSDOF 19
ENDMDL
MODEL 2
REMARK VINA RESULT:      -9.9      5.310      9.949
REMARK SMILES Cc1cc(C)c2c(O[C@@H](C)C(=O)OCCOCCOCCOC(=O)c3ccc(-c4c5nc(c(-c6ccccc6)c6ccc([nH]6)c(-c6ccccc6)c6nc(c(-c7ccccc7)c7ccc4[nH]7)C=C6)C=C5)cc3)nsc2n1
REMARK SMILES IDX 17 1 16 2 15 3 14 4 13 5 11 6 12 7 9 8 10 9 8 10 7 11 1 12
REMARK SMILES IDX 2 13 3 14 76 15 4 16 75 17 5 18 6 19 74 20 73 21 18 22 19 23
REMARK SMILES IDX 20 24 21 25 22 26 23 27 24 28 25 29 26 30 72 31 27 32 71 33
REMARK SMILES IDX 28 34 29 35 30 36 65 37 31 38 70 39 64 40 66 41 32 42 69 43
REMARK SMILES IDX 63 44 62 45 33 47 55 48 40 49 54 50 41 51 44 52 53 53 67 54
REMARK SMILES IDX 42 55 43 56 52 58 68 59 45 60 34 61 35 62 39 63 36 64 38 65
REMARK SMILES IDX 37 66 56 67 57 68 61 69 58 70 60 71 59 72 46 73 47 74 51 75
REMARK SMILES IDX 48 76 50 77 49 78
REMARK H PARENT 66 46 44 57
REMARK Flexibility Score: inf
ROOT
ATOM      1  C   UNL A   1      33.538  19.884  25.121  1.00  0.00     0.188 C 
ENDROOT
BRANCH   1   2
ATOM      2  O   UNL A   1      32.277  20.017  24.486  1.00  0.00    -0.376 OA
BRANCH   2   3
ATOM      3  C   UNL A   1      32.229  20.116  23.067  1.00  0.00     0.202 C 
BRANCH   3   4
ATOM      4  C   UNL A   1      32.184  21.484  22.357  1.00  0.00     0.261 C 
BRANCH   4   5
ATOM      5  O   UNL A   1      32.392  22.625  23.206  1.00  0.00    -0.461 OA
BRANCH   5   6
ATOM      6  C   UNL A   1      33.066  23.696  22.718  1.00  0.00     0.347 C 
ATOM      7  O   UNL A   1      34.285  23.750  22.611  1.00  0.00    -0.248 OA
BRANCH   6   8
ATOM      8  C   UNL A   1      32.118  24.832  22.254  1.00  0.00     0.281 C 
ATOM      9  C   UNL A   1      32.790  25.916  21.413  1.00  0.00     0.066 C 
BRANCH   8  10
ATOM     10  O   UNL A   1      31.114  25.459  22.992  1.00  0.00    -0.462 OA
BRANCH  10  11
ATOM     11  C   UNL A   1      31.207  26.713  23.484  1.00  0.00     0.236 A 
ATOM     12  C   UNL A   1      33.284  30.494  27.192  1.00  0.00     0.067 C 
ATOM     13  C   UNL A   1      32.814  29.399  26.283  1.00  0.00     0.039 A 
ATOM     14  C   UNL A   1      33.459  28.178  26.294  1.00  0.00     0.027 A 
ATOM     15  N   UNL A   1      31.836  29.698  25.425  1.00  0.00    -0.240 NA
ATOM     16  C   UNL A   1      33.118  27.152  25.384  1.00  0.00    -0.034 A 
ATOM     17  C   UNL A   1      31.485  28.697  24.595  1.00  0.00     0.147 A 
ATOM     18  C   UNL A   1      34.005  25.942  25.519  1.00  0.00     0.045 C 
ATOM     19  C   UNL A   1      32.015  27.398  24.498  1.00  0.00     0.078 A 
ATOM     20  S   UNL A   1      30.265  28.957  23.446  1.00  0.00    -0.012 S 
ATOM     21  N   UNL A   1      30.316  27.449  22.817  1.00  0.00    -0.153 NA
ENDBRANCH  10  11
ENDBRANCH   8  10
ENDBRANCH   6   8
ENDBRANCH   5   6
ENDBRANCH   4   5
ENDBRANCH   3   4
ENDBRANCH   2   3
ENDBRANCH   1   2
BRANCH   1  22
ATOM     22  C   UNL A   1      34.113  21.078  25.915  1.00  0.00     0.188 C 
BRANCH  22  23
ATOM     23  O   UNL A   1      35.450  21.425  25.623  1.00  0.00    -0.376 OA
BRANCH  23  24
ATOM     24  C   UNL A   1      36.433  20.524  25.150  1.00  0.00     0.202 C 
BRANCH  24  25
ATOM     25  C   UNL A   1      37.848  20.913  24.729  1.00  0.00     0.261 C 
BRANCH  25  26
ATOM     26  O   UNL A   1      38.747  21.119  25.788  1.00  0.00    -0.460 OA
BRANCH  26  27
ATOM     27  C   UNL A   1      39.752  20.223  25.823  1.00  0.00     0.338 C 
ATOM     28  O   UNL A   1      39.733  19.062  25.469  1.00  0.00    -0.246 OA
BRANCH  27  29
ATOM     29  C   UNL A   1      40.917  20.902  26.391  1.00  0.00     0.060 A 
ATOM     30  C   UNL A   1      41.125  20.733  27.757  1.00  0.00     0.016 A 
ATOM     31  C   UNL A   1      41.481  21.950  25.652  1.00  0.00     0.016 A 
ATOM     32  C   UNL A   1      41.607  21.813  28.449  1.00  0.00     0.010 A 
ATOM     33  C   UNL A   1      41.930  23.037  26.344  1.00  0.00     0.010 A 
ATOM     34  C   UNL A   1      41.862  22.987  27.731  1.00  0.00    -0.014 A 
BRANCH  34  35
ATOM     35  C   UNL A   1      42.107  24.191  28.477  1.00  0.00     0.031 A 
ATOM     36  C   UNL A   1      41.107  25.225  28.175  1.00  0.00     0.074 A 
ATOM     37  C   UNL A   1      43.106  24.285  29.372  1.00  0.00     0.049 A 
ATOM     38  N   UNL A   1      41.289  26.293  27.477  1.00  0.00    -0.248 NA
ATOM     39  C   UNL A   1      39.698  24.926  28.485  1.00  0.00     0.031 C 
ATOM     40  C   UNL A   1      43.972  23.227  29.903  1.00  0.00     0.029 A 
ATOM     41  N   UNL A   1      43.492  25.373  30.083  1.00  0.00    -0.354 N 
ATOM     42  C   UNL A   1      40.052  26.917  27.445  1.00  0.00     0.074 A 
ATOM     43  C   UNL A   1      39.086  25.938  27.875  1.00  0.00     0.031 C 
ATOM     44  C   UNL A   1      44.598  23.682  31.017  1.00  0.00     0.029 A 
ATOM     45  C   UNL A   1      44.287  25.093  31.186  1.00  0.00     0.049 A 
ATOM     46  H   UNL A   1      43.230  26.288  29.835  1.00  0.00     0.167 HD
ATOM     47  C   UNL A   1      39.963  28.270  27.370  1.00  0.00     0.031 A 
ATOM     48  C   UNL A   1      44.587  25.963  32.183  1.00  0.00     0.031 A 
ATOM     49  C   UNL A   1      41.201  28.856  26.923  1.00  0.00     0.049 A 
ATOM     50  C   UNL A   1      44.331  27.327  31.662  1.00  0.00     0.074 A 
ATOM     51  C   UNL A   1      41.956  28.766  25.772  1.00  0.00     0.029 A 
ATOM     52  N   UNL A   1      42.039  29.346  27.896  1.00  0.00    -0.354 N 
ATOM     53  N   UNL A   1      45.043  27.881  30.723  1.00  0.00    -0.248 NA
ATOM     54  C   UNL A   1      43.005  27.893  31.858  1.00  0.00     0.031 C 
ATOM     55  C   UNL A   1      43.311  28.789  26.212  1.00  0.00     0.029 A 
ATOM     56  C   UNL A   1      43.320  28.963  27.598  1.00  0.00     0.049 A 
ATOM     57  H   UNL A   1      41.765  29.883  28.676  1.00  0.00     0.167 HD
ATOM     58  C   UNL A   1      44.119  28.541  29.926  1.00  0.00     0.074 A 
ATOM     59  C   UNL A   1      42.898  28.599  30.728  1.00  0.00     0.031 C 
ATOM     60  C   UNL A   1      44.344  28.709  28.589  1.00  0.00     0.031 A 
BRANCH  47  61
ATOM     61  C   UNL A   1      38.930  29.047  28.144  1.00  0.00    -0.014 A 
ATOM     62  C   UNL A   1      38.898  28.905  29.540  1.00  0.00     0.009 A 
ATOM     63  C   UNL A   1      37.827  29.690  27.548  1.00  0.00     0.009 A 
ATOM     64  C   UNL A   1      37.790  29.324  30.285  1.00  0.00     0.001 A 
ATOM     65  C   UNL A   1      36.738  30.147  28.290  1.00  0.00     0.001 A 
ATOM     66  C   UNL A   1      36.708  29.939  29.660  1.00  0.00     0.000 A 
ENDBRANCH  47  61
BRANCH  48  67
ATOM     67  C   UNL A   1      44.749  25.717  33.635  1.00  0.00    -0.014 A 
ATOM     68  C   UNL A   1      43.985  24.719  34.270  1.00  0.00     0.009 A 
ATOM     69  C   UNL A   1      45.859  26.227  34.329  1.00  0.00     0.009 A 
ATOM     70  C   UNL A   1      44.359  24.208  35.520  1.00  0.00     0.001 A 
ATOM     71  C   UNL A   1      46.228  25.719  35.581  1.00  0.00     0.001 A 
ATOM     72  C   UNL A   1      45.491  24.695  36.166  1.00  0.00     0.000 A 
ENDBRANCH  48  67
BRANCH  60  73
ATOM     73  C   UNL A   1      45.720  28.377  28.059  1.00  0.00    -0.014 A 
ATOM     74  C   UNL A   1      46.717  29.344  27.828  1.00  0.00     0.009 A 
ATOM     75  C   UNL A   1      46.070  27.024  27.951  1.00  0.00     0.009 A 
ATOM     76  C   UNL A   1      48.019  28.960  27.486  1.00  0.00     0.001 A 
ATOM     77  C   UNL A   1      47.375  26.641  27.632  1.00  0.00     0.001 A 
ATOM     78  C   UNL A   1      48.349  27.609  27.398  1.00  0.00     0.000 A 
ENDBRANCH  60  73
ENDBRANCH  34  35
ENDBRANCH  27  29
ENDBRANCH  26  27
ENDBRANCH  25  26
ENDBRANCH  24  25
ENDBRANCH  23  24
ENDBRANCH  22  23
ENDBRANCH   1  22
TORSDOF 19
ENDMDL
MODEL 3
REMARK VINA RESULT:      -9.6      2.262      6.343
REMARK SMILES Cc1cc(C)c2c(O[C@@H](C)C(=O)OCCOCCOCCOC(=O)c3ccc(-c4c5nc(c(-c6ccccc6)c6ccc([nH]6)c(-c6ccccc6)c6nc(c(-c7ccccc7)c7ccc4[nH]7)C=C6)C=C5)cc3)nsc2n1
REMARK SMILES IDX 17 1 16 2 15 3 14 4 13 5 11 6 12 7 9 8 10 9 8 10 7 11 1 12
REMARK SMILES IDX 2 13 3 14 76 15 4 16 75 17 5 18 6 19 74 20 73 21 18 22 19 23
REMARK SMILES IDX 20 24 21 25 22 26 23 27 24 28 25 29 26 30 72 31 27 32 71 33
REMARK SMILES IDX 28 34 29 35 30 36 65 37 31 38 70 39 64 40 66 41 32 42 69 43
REMARK SMILES IDX 63 44 62 45 33 47 55 48 40 49 54 50 41 51 44 52 53 53 67 54
REMARK SMILES IDX 42 55 43 56 52 58 68 59 45 60 34 61 35 62 39 63 36 64 38 65
REMARK SMILES IDX 37 66 56 67 57 68 61 69 58 70 60 71 59 72 46 73 47 74 51 75
REMARK SMILES IDX 48 76 50 77 49 78
REMARK H PARENT 66 46 44 57
REMARK Flexibility Score: inf
ROOT
ATOM      1  C   UNL A   1      32.536  27.065  25.574  1.00  0.00     0.188 C 
ENDROOT
BRANCH   1   2
ATOM      2  O   UNL A   1      31.471  26.367  24.950  1.00  0.00    -0.376 OA
BRANCH   2   3
ATOM      3  C   UNL A   1      31.218  26.590  23.568  1.00  0.00     0.202 C 
BRANCH   3   4
ATOM      4  C   UNL A   1      31.336  25.453  22.534  1.00  0.00     0.261 C 
BRANCH   4   5
ATOM      5  O   UNL A   1      32.455  24.569  22.716  1.00  0.00    -0.461 OA
BRANCH   5   6
ATOM      6  C   UNL A   1      33.710  25.083  22.698  1.00  0.00     0.347 C 
ATOM      7  O   UNL A   1      34.059  26.018  21.988  1.00  0.00    -0.248 OA
BRANCH   6   8
ATOM      8  C   UNL A   1      34.649  24.391  23.718  1.00  0.00     0.281 C 
ATOM      9  C   UNL A   1      35.665  23.432  23.099  1.00  0.00     0.066 C 
BRANCH   8  10
ATOM     10  O   UNL A   1      34.315  23.870  24.968  1.00  0.00    -0.462 OA
BRANCH  10  11
ATOM     11  C   UNL A   1      33.529  22.788  25.153  1.00  0.00     0.236 A 
ATOM     12  C   UNL A   1      32.633  17.172  25.017  1.00  0.00     0.067 C 
ATOM     13  C   UNL A   1      33.000  18.625  25.005  1.00  0.00     0.039 A 
ATOM     14  C   UNL A   1      34.323  18.994  24.854  1.00  0.00     0.027 A 
ATOM     15  N   UNL A   1      32.021  19.502  25.238  1.00  0.00    -0.240 NA
ATOM     16  C   UNL A   1      34.729  20.345  24.938  1.00  0.00    -0.034 A 
ATOM     17  C   UNL A   1      32.412  20.791  25.267  1.00  0.00     0.147 A 
ATOM     18  C   UNL A   1      36.223  20.507  24.830  1.00  0.00     0.045 C 
ATOM     19  C   UNL A   1      33.699  21.332  25.105  1.00  0.00     0.078 A 
ATOM     20  S   UNL A   1      31.264  22.003  25.572  1.00  0.00    -0.012 S 
ATOM     21  N   UNL A   1      32.316  23.249  25.465  1.00  0.00    -0.153 NA
ENDBRANCH  10  11
ENDBRANCH   8  10
ENDBRANCH   6   8
ENDBRANCH   5   6
ENDBRANCH   4   5
ENDBRANCH   3   4
ENDBRANCH   2   3
ENDBRANCH   1   2
BRANCH   1  22
ATOM     22  C   UNL A   1      33.015  28.406  24.974  1.00  0.00     0.188 C 
BRANCH  22  23
ATOM     23  O   UNL A   1      32.093  29.473  25.036  1.00  0.00    -0.376 OA
BRANCH  23  24
ATOM     24  C   UNL A   1      32.033  30.430  26.078  1.00  0.00     0.202 C 
BRANCH  24  25
ATOM     25  C   UNL A   1      33.245  31.014  26.800  1.00  0.00     0.261 C 
BRANCH  25  26
ATOM     26  O   UNL A   1      32.970  31.590  28.051  1.00  0.00    -0.460 OA
BRANCH  26  27
ATOM     27  C   UNL A   1      33.021  32.936  28.047  1.00  0.00     0.338 C 
ATOM     28  O   UNL A   1      32.235  33.714  27.547  1.00  0.00    -0.246 OA
BRANCH  27  29
ATOM     29  C   UNL A   1      34.233  33.324  28.769  1.00  0.00     0.060 A 
ATOM     30  C   UNL A   1      35.212  33.976  28.023  1.00  0.00     0.016 A 
ATOM     31  C   UNL A   1      34.493  32.689  29.990  1.00  0.00     0.016 A 
ATOM     32  C   UNL A   1      36.517  33.687  28.327  1.00  0.00     0.010 A 
ATOM     33  C   UNL A   1      35.791  32.374  30.272  1.00  0.00     0.010 A 
ATOM     34  C   UNL A   1      36.759  32.776  29.361  1.00  0.00    -0.014 A 
BRANCH  34  35
ATOM     35  C   UNL A   1      38.096  32.267  29.506  1.00  0.00     0.031 A 
ATOM     36  C   UNL A   1      38.161  30.830  29.201  1.00  0.00     0.074 A 
ATOM     37  C   UNL A   1      39.132  33.061  29.826  1.00  0.00     0.049 A 
ATOM     38  N   UNL A   1      38.308  29.868  30.046  1.00  0.00    -0.248 NA
ATOM     39  C   UNL A   1      37.791  30.402  27.841  1.00  0.00     0.031 C 
ATOM     40  C   UNL A   1      39.186  34.525  29.894  1.00  0.00     0.029 A 
ATOM     41  N   UNL A   1      40.418  32.703  30.066  1.00  0.00    -0.354 N 
ATOM     42  C   UNL A   1      38.266  28.710  29.285  1.00  0.00     0.074 A 
ATOM     43  C   UNL A   1      37.729  29.082  28.002  1.00  0.00     0.031 C 
ATOM     44  C   UNL A   1      40.483  34.922  29.910  1.00  0.00     0.029 A 
ATOM     45  C   UNL A   1      41.332  33.745  29.999  1.00  0.00     0.049 A 
ATOM     46  H   UNL A   1      40.681  31.778  30.271  1.00  0.00     0.167 HD
ATOM     47  C   UNL A   1      38.966  27.610  29.663  1.00  0.00     0.031 A 
ATOM     48  C   UNL A   1      42.682  33.609  29.950  1.00  0.00     0.031 A 
ATOM     49  C   UNL A   1      39.347  27.679  31.052  1.00  0.00     0.049 A 
ATOM     50  C   UNL A   1      42.999  32.248  30.446  1.00  0.00     0.074 A 
ATOM     51  C   UNL A   1      38.655  27.743  32.245  1.00  0.00     0.029 A 
ATOM     52  N   UNL A   1      40.622  28.114  31.322  1.00  0.00    -0.354 N 
ATOM     53  N   UNL A   1      42.829  31.877  31.682  1.00  0.00    -0.248 NA
ATOM     54  C   UNL A   1      43.069  31.168  29.472  1.00  0.00     0.031 C 
ATOM     55  C   UNL A   1      39.416  28.621  33.069  1.00  0.00     0.029 A 
ATOM     56  C   UNL A   1      40.567  28.994  32.371  1.00  0.00     0.049 A 
ATOM     57  H   UNL A   1      41.438  27.839  30.843  1.00  0.00     0.167 HD
ATOM     58  C   UNL A   1      42.325  30.587  31.595  1.00  0.00     0.074 A 
ATOM     59  C   UNL A   1      42.592  30.168  30.219  1.00  0.00     0.031 C 
ATOM     60  C   UNL A   1      41.482  30.100  32.552  1.00  0.00     0.031 A 
BRANCH  47  61
ATOM     61  C   UNL A   1      39.685  26.738  28.668  1.00  0.00    -0.014 A 
ATOM     62  C   UNL A   1      40.605  27.342  27.795  1.00  0.00     0.009 A 
ATOM     63  C   UNL A   1      39.302  25.416  28.367  1.00  0.00     0.009 A 
ATOM     64  C   UNL A   1      41.060  26.679  26.650  1.00  0.00     0.001 A 
ATOM     65  C   UNL A   1      39.785  24.735  27.249  1.00  0.00     0.001 A 
ATOM     66  C   UNL A   1      40.645  25.378  26.375  1.00  0.00     0.000 A 
ENDBRANCH  47  61
BRANCH  48  67
ATOM     67  C   UNL A   1      43.686  34.406  29.208  1.00  0.00    -0.014 A 
ATOM     68  C   UNL A   1      43.826  34.244  27.817  1.00  0.00     0.009 A 
ATOM     69  C   UNL A   1      44.276  35.538  29.794  1.00  0.00     0.009 A 
ATOM     70  C   UNL A   1      44.475  35.210  27.037  1.00  0.00     0.001 A 
ATOM     71  C   UNL A   1      44.930  36.501  29.015  1.00  0.00     0.001 A 
ATOM     72  C   UNL A   1      45.010  36.348  27.634  1.00  0.00     0.000 A 
ENDBRANCH  48  67
BRANCH  60  73
ATOM     73  C   UNL A   1      41.310  30.909  33.817  1.00  0.00    -0.014 A 
ATOM     74  C   UNL A   1      40.369  31.947  33.952  1.00  0.00     0.009 A 
ATOM     75  C   UNL A   1      42.006  30.491  34.961  1.00  0.00     0.009 A 
ATOM     76  C   UNL A   1      40.148  32.555  35.194  1.00  0.00     0.001 A 
ATOM     77  C   UNL A   1      41.769  31.082  36.203  1.00  0.00     0.001 A 
ATOM     78  C   UNL A   1      40.842  32.115  36.320  1.00  0.00     0.000 A 
ENDBRANCH  60  73
ENDBRANCH  34  35
ENDBRANCH  27  29
ENDBRANCH  26  27
ENDBRANCH  25  26
ENDBRANCH  24  25
ENDBRANCH  23  24
ENDBRANCH  22  23
ENDBRANCH   1  22
TORSDOF 19
ENDMDL
