MODEL 1
REMARK VINA RESULT:      -9.8      0.000      0.000
REMARK SMILES O=C(OCCOCCOCCOC(=O)[C@@H]1[C@H](C(=O)Nc2ccccc2OC(F)F)[C@@H]2C=C[C@H]1C2)c1ccc(-c2c3nc(c(-c4ccccc4)c4ccc([nH]4)c(-c4ccccc4)c4nc(c(-c5ccccc5)c5ccc2[nH]5)C=C4)C=C3)cc1
REMARK SMILES IDX 8 1 7 2 6 3 5 4 4 5 3 6 2 7 1 8 35 9 36 10 82 11 37 12 81 13
REMARK SMILES IDX 38 14 39 15 40 16 75 17 41 18 80 19 74 20 76 21 42 22 79 23
REMARK SMILES IDX 73 24 72 25 43 27 65 28 50 29 64 30 51 31 54 32 63 33 77 34
REMARK SMILES IDX 52 35 53 36 62 38 78 39 55 40 44 41 45 42 49 43 46 44 48 45
REMARK SMILES IDX 47 46 66 47 67 48 71 49 68 50 70 51 69 52 56 53 57 54 61 55
REMARK SMILES IDX 58 56 60 57 59 58 9 59 10 60 11 61 12 62 13 63 14 64 15 65
REMARK SMILES IDX 16 66 33 67 30 68 32 69 34 70 31 71 17 72 18 73 19 74 20 76
REMARK SMILES IDX 21 77 25 78 22 79 24 80 23 81 26 82 27 83 28 84 29 85
REMARK H PARENT 76 26 54 37 19 75
REMARK Flexibility Score: inf
ROOT
ATOM      1  C   UNL A   1      34.181  32.680  28.348  1.00  0.00     0.188 C 
ENDROOT
BRANCH   1   2
ATOM      2  C   UNL A   1      34.011  34.160  27.946  1.00  0.00     0.188 C 
BRANCH   2   3
ATOM      3  O   UNL A   1      32.935  34.814  28.610  1.00  0.00    -0.376 OA
BRANCH   3   4
ATOM      4  C   UNL A   1      33.255  36.120  29.114  1.00  0.00     0.202 C 
BRANCH   4   5
ATOM      5  C   UNL A   1      32.878  36.427  30.582  1.00  0.00     0.261 C 
BRANCH   5   6
ATOM      6  O   UNL A   1      33.882  35.920  31.464  1.00  0.00    -0.460 OA
BRANCH   6   7
ATOM      7  C   UNL A   1      33.620  34.744  32.083  1.00  0.00     0.338 C 
ATOM      8  O   UNL A   1      32.669  34.520  32.797  1.00  0.00    -0.246 OA
BRANCH   7   9
ATOM      9  C   UNL A   1      34.822  33.888  31.967  1.00  0.00     0.060 A 
ATOM     10  C   UNL A   1      34.860  32.632  32.594  1.00  0.00     0.016 A 
ATOM     11  C   UNL A   1      35.879  34.307  31.159  1.00  0.00     0.016 A 
ATOM     12  C   UNL A   1      35.915  31.761  32.369  1.00  0.00     0.010 A 
ATOM     13  C   UNL A   1      36.950  33.440  30.943  1.00  0.00     0.010 A 
ATOM     14  C   UNL A   1      36.974  32.171  31.559  1.00  0.00    -0.014 A 
BRANCH  14  15
ATOM     15  C   UNL A   1      38.252  31.443  31.679  1.00  0.00     0.031 A 
ATOM     16  C   UNL A   1      39.180  31.951  32.741  1.00  0.00     0.074 A 
ATOM     17  C   UNL A   1      38.554  30.360  30.943  1.00  0.00     0.049 A 
ATOM     18  N   UNL A   1      40.350  31.509  33.108  1.00  0.00    -0.248 NA
ATOM     19  C   UNL A   1      38.705  33.117  33.511  1.00  0.00     0.031 C 
ATOM     20  C   UNL A   1      37.686  29.732  29.952  1.00  0.00     0.029 A 
ATOM     21  N   UNL A   1      39.696  29.602  30.909  1.00  0.00    -0.354 N 
ATOM     22  C   UNL A   1      40.734  32.330  34.157  1.00  0.00     0.074 A 
ATOM     23  C   UNL A   1      39.717  33.338  34.325  1.00  0.00     0.031 C 
ATOM     24  C   UNL A   1      38.347  28.726  29.354  1.00  0.00     0.029 A 
ATOM     25  C   UNL A   1      39.681  28.629  29.937  1.00  0.00     0.049 A 
ATOM     26  H   UNL A   1      40.453  29.740  31.522  1.00  0.00     0.167 HD
ATOM     27  C   UNL A   1      41.832  32.240  34.936  1.00  0.00     0.031 A 
ATOM     28  C   UNL A   1      40.649  27.772  29.565  1.00  0.00     0.031 A 
ATOM     29  C   UNL A   1      42.869  31.282  34.709  1.00  0.00     0.049 A 
ATOM     30  C   UNL A   1      41.935  27.775  30.348  1.00  0.00     0.074 A 
ATOM     31  C   UNL A   1      44.065  31.121  35.377  1.00  0.00     0.029 A 
ATOM     32  N   UNL A   1      42.831  30.333  33.695  1.00  0.00    -0.354 N 
ATOM     33  N   UNL A   1      42.278  28.527  31.369  1.00  0.00    -0.248 NA
ATOM     34  C   UNL A   1      42.955  26.792  29.958  1.00  0.00     0.031 C 
ATOM     35  C   UNL A   1      44.777  30.104  34.731  1.00  0.00     0.029 A 
ATOM     36  C   UNL A   1      43.995  29.593  33.702  1.00  0.00     0.049 A 
ATOM     37  H   UNL A   1      42.084  30.206  33.065  1.00  0.00     0.167 HD
ATOM     38  C   UNL A   1      43.526  28.078  31.776  1.00  0.00     0.074 A 
ATOM     39  C   UNL A   1      43.885  26.991  30.884  1.00  0.00     0.031 C 
ATOM     40  C   UNL A   1      44.300  28.509  32.802  1.00  0.00     0.031 A 
BRANCH  27  41
ATOM     41  C   UNL A   1      41.940  33.265  36.026  1.00  0.00    -0.014 A 
ATOM     42  C   UNL A   1      42.599  34.488  35.804  1.00  0.00     0.009 A 
ATOM     43  C   UNL A   1      41.527  32.940  37.325  1.00  0.00     0.009 A 
ATOM     44  C   UNL A   1      42.908  35.329  36.874  1.00  0.00     0.001 A 
ATOM     45  C   UNL A   1      41.809  33.799  38.389  1.00  0.00     0.001 A 
ATOM     46  C   UNL A   1      42.517  34.981  38.166  1.00  0.00     0.000 A 
ENDBRANCH  27  41
BRANCH  28  47
ATOM     47  C   UNL A   1      40.433  26.836  28.428  1.00  0.00    -0.014 A 
ATOM     48  C   UNL A   1      39.731  25.634  28.608  1.00  0.00     0.009 A 
ATOM     49  C   UNL A   1      40.929  27.139  27.150  1.00  0.00     0.009 A 
ATOM     50  C   UNL A   1      39.553  24.746  27.541  1.00  0.00     0.001 A 
ATOM     51  C   UNL A   1      40.731  26.261  26.079  1.00  0.00     0.001 A 
ATOM     52  C   UNL A   1      40.050  25.061  26.278  1.00  0.00     0.000 A 
ENDBRANCH  28  47
BRANCH  40  53
ATOM     53  C   UNL A   1      45.581  27.771  33.057  1.00  0.00    -0.014 A 
ATOM     54  C   UNL A   1      45.616  26.629  33.867  1.00  0.00     0.009 A 
ATOM     55  C   UNL A   1      46.742  28.170  32.376  1.00  0.00     0.009 A 
ATOM     56  C   UNL A   1      46.799  25.902  33.999  1.00  0.00     0.001 A 
ATOM     57  C   UNL A   1      47.915  27.425  32.487  1.00  0.00     0.001 A 
ATOM     58  C   UNL A   1      47.943  26.294  33.302  1.00  0.00     0.000 A 
ENDBRANCH  40  53
ENDBRANCH  14  15
ENDBRANCH   7   9
ENDBRANCH   6   7
ENDBRANCH   5   6
ENDBRANCH   4   5
ENDBRANCH   3   4
ENDBRANCH   2   3
ENDBRANCH   1   2
BRANCH   1  59
ATOM     59  O   UNL A   1      33.329  31.710  27.757  1.00  0.00    -0.376 OA
BRANCH  59  60
ATOM     60  C   UNL A   1      33.977  30.528  27.229  1.00  0.00     0.202 C 
BRANCH  60  61
ATOM     61  C   UNL A   1      33.268  29.741  26.066  1.00  0.00     0.261 C 
BRANCH  61  62
ATOM     62  O   UNL A   1      34.054  28.654  25.437  1.00  0.00    -0.463 OA
BRANCH  62  63
ATOM     63  C   UNL A   1      33.629  27.354  25.673  1.00  0.00     0.310 C 
ATOM     64  O   UNL A   1      32.845  27.102  26.588  1.00  0.00    -0.252 OA
BRANCH  63  65
ATOM     65  C   UNL A   1      34.315  26.213  24.830  1.00  0.00     0.119 C 
ATOM     66  C   UNL A   1      34.075  25.405  23.453  1.00  0.00     0.100 C 
ATOM     67  C   UNL A   1      34.593  25.003  25.802  1.00  0.00     0.027 C 
ATOM     68  C   UNL A   1      34.444  23.932  23.860  1.00  0.00     0.025 C 
ATOM     69  C   UNL A   1      33.386  24.087  25.876  1.00  0.00    -0.027 C 
ATOM     70  C   UNL A   1      35.497  24.122  24.935  1.00  0.00     0.017 C 
ATOM     71  C   UNL A   1      33.324  23.410  24.722  1.00  0.00    -0.027 C 
BRANCH  66  72
ATOM     72  C   UNL A   1      33.043  25.126  22.317  1.00  0.00     0.229 C 
ATOM     73  O   UNL A   1      33.286  24.152  21.581  1.00  0.00    -0.274 OA
ATOM     74  N   UNL A   1      31.783  25.615  22.168  1.00  0.00    -0.323 N 
ATOM     75  H   UNL A   1      31.206  25.091  21.567  1.00  0.00     0.170 HD
BRANCH  74  76
ATOM     76  C   UNL A   1      31.181  26.731  22.724  1.00  0.00     0.084 A 
ATOM     77  C   UNL A   1      31.619  28.013  22.400  1.00  0.00     0.030 A 
ATOM     78  C   UNL A   1      30.104  26.589  23.553  1.00  0.00     0.149 A 
ATOM     79  C   UNL A   1      30.792  29.110  22.663  1.00  0.00     0.002 A 
ATOM     80  C   UNL A   1      29.190  27.641  23.657  1.00  0.00     0.049 A 
ATOM     81  C   UNL A   1      29.532  28.909  23.212  1.00  0.00     0.004 A 
BRANCH  78  82
ATOM     82  O   UNL A   1      29.858  25.471  24.268  1.00  0.00    -0.433 OA
BRANCH  82  83
ATOM     83  C   UNL A   1      29.602  25.423  25.669  1.00  0.00     0.542 C 
ATOM     84  F   UNL A   1      30.088  24.255  26.154  1.00  0.00    -0.167 F 
ATOM     85  F   UNL A   1      30.190  26.436  26.308  1.00  0.00    -0.167 F 
ENDBRANCH  82  83
ENDBRANCH  78  82
ENDBRANCH  74  76
ENDBRANCH  66  72
ENDBRANCH  63  65
ENDBRANCH  62  63
ENDBRANCH  61  62
ENDBRANCH  60  61
ENDBRANCH  59  60
ENDBRANCH   1  59
TORSDOF 21
ENDMDL
MODEL 2
REMARK VINA RESULT:      -9.7      2.005      6.615
REMARK SMILES O=C(OCCOCCOCCOC(=O)[C@@H]1[C@H](C(=O)Nc2ccccc2OC(F)F)[C@@H]2C=C[C@H]1C2)c1ccc(-c2c3nc(c(-c4ccccc4)c4ccc([nH]4)c(-c4ccccc4)c4nc(c(-c5ccccc5)c5ccc2[nH]5)C=C4)C=C3)cc1
REMARK SMILES IDX 8 1 7 2 6 3 5 4 4 5 3 6 2 7 1 8 35 9 36 10 82 11 37 12 81 13
REMARK SMILES IDX 38 14 39 15 40 16 75 17 41 18 80 19 74 20 76 21 42 22 79 23
REMARK SMILES IDX 73 24 72 25 43 27 65 28 50 29 64 30 51 31 54 32 63 33 77 34
REMARK SMILES IDX 52 35 53 36 62 38 78 39 55 40 44 41 45 42 49 43 46 44 48 45
REMARK SMILES IDX 47 46 66 47 67 48 71 49 68 50 70 51 69 52 56 53 57 54 61 55
REMARK SMILES IDX 58 56 60 57 59 58 9 59 10 60 11 61 12 62 13 63 14 64 15 65
REMARK SMILES IDX 16 66 33 67 30 68 32 69 34 70 31 71 17 72 18 73 19 74 20 76
REMARK SMILES IDX 21 77 25 78 22 79 24 80 23 81 26 82 27 83 28 84 29 85
REMARK H PARENT 76 26 54 37 19 75
REMARK Flexibility Score: inf
ROOT
ATOM      1  C   UNL A   1      35.408  31.388  28.177  1.00  0.00     0.188 C 
ENDROOT
BRANCH   1   2
ATOM      2  C   UNL A   1      35.107  32.768  28.799  1.00  0.00     0.188 C 
BRANCH   2   3
ATOM      3  O   UNL A   1      34.509  33.688  27.891  1.00  0.00    -0.376 OA
BRANCH   3   4
ATOM      4  C   UNL A   1      34.441  35.038  28.373  1.00  0.00     0.202 C 
BRANCH   4   5
ATOM      5  C   UNL A   1      33.156  35.464  29.118  1.00  0.00     0.261 C 
BRANCH   5   6
ATOM      6  O   UNL A   1      32.951  34.629  30.260  1.00  0.00    -0.460 OA
BRANCH   6   7
ATOM      7  C   UNL A   1      33.079  35.209  31.477  1.00  0.00     0.338 C 
ATOM      8  O   UNL A   1      32.461  36.174  31.867  1.00  0.00    -0.246 OA
BRANCH   7   9
ATOM      9  C   UNL A   1      34.284  34.646  32.129  1.00  0.00     0.060 A 
ATOM     10  C   UNL A   1      35.527  35.282  31.988  1.00  0.00     0.016 A 
ATOM     11  C   UNL A   1      34.150  33.527  32.952  1.00  0.00     0.016 A 
ATOM     12  C   UNL A   1      36.627  34.850  32.713  1.00  0.00     0.010 A 
ATOM     13  C   UNL A   1      35.259  33.082  33.671  1.00  0.00     0.010 A 
ATOM     14  C   UNL A   1      36.501  33.735  33.541  1.00  0.00    -0.014 A 
BRANCH  14  15
ATOM     15  C   UNL A   1      37.737  33.040  33.950  1.00  0.00     0.031 A 
ATOM     16  C   UNL A   1      38.213  31.976  33.008  1.00  0.00     0.074 A 
ATOM     17  C   UNL A   1      38.436  33.367  35.051  1.00  0.00     0.049 A 
ATOM     18  N   UNL A   1      39.272  31.218  33.071  1.00  0.00    -0.248 NA
ATOM     19  C   UNL A   1      37.379  31.751  31.811  1.00  0.00     0.031 C 
ATOM     20  C   UNL A   1      38.112  34.444  35.980  1.00  0.00     0.029 A 
ATOM     21  N   UNL A   1      39.569  32.804  35.580  1.00  0.00    -0.354 N 
ATOM     22  C   UNL A   1      39.233  30.447  31.919  1.00  0.00     0.074 A 
ATOM     23  C   UNL A   1      38.021  30.771  31.210  1.00  0.00     0.031 C 
ATOM     24  C   UNL A   1      38.980  34.424  37.005  1.00  0.00     0.029 A 
ATOM     25  C   UNL A   1      39.934  33.341  36.792  1.00  0.00     0.049 A 
ATOM     26  H   UNL A   1      40.072  32.084  35.136  1.00  0.00     0.167 HD
ATOM     27  C   UNL A   1      40.146  29.560  31.471  1.00  0.00     0.031 A 
ATOM     28  C   UNL A   1      40.926  32.981  37.627  1.00  0.00     0.031 A 
ATOM     29  C   UNL A   1      41.306  29.193  32.222  1.00  0.00     0.049 A 
ATOM     30  C   UNL A   1      41.859  31.885  37.186  1.00  0.00     0.074 A 
ATOM     31  C   UNL A   1      42.278  28.262  31.921  1.00  0.00     0.029 A 
ATOM     32  N   UNL A   1      41.626  29.739  33.460  1.00  0.00    -0.354 N 
ATOM     33  N   UNL A   1      41.843  31.186  36.074  1.00  0.00    -0.248 NA
ATOM     34  C   UNL A   1      42.965  31.548  38.091  1.00  0.00     0.031 C 
ATOM     35  C   UNL A   1      43.160  28.205  33.006  1.00  0.00     0.029 A 
ATOM     36  C   UNL A   1      42.771  29.147  33.951  1.00  0.00     0.049 A 
ATOM     37  H   UNL A   1      41.113  30.443  33.918  1.00  0.00     0.167 HD
ATOM     38  C   UNL A   1      42.961  30.366  36.120  1.00  0.00     0.074 A 
ATOM     39  C   UNL A   1      43.629  30.647  37.377  1.00  0.00     0.031 C 
ATOM     40  C   UNL A   1      43.407  29.472  35.202  1.00  0.00     0.031 A 
BRANCH  27  41
ATOM     41  C   UNL A   1      39.831  28.914  30.155  1.00  0.00    -0.014 A 
ATOM     42  C   UNL A   1      39.274  27.623  30.098  1.00  0.00     0.009 A 
ATOM     43  C   UNL A   1      40.244  29.530  28.965  1.00  0.00     0.009 A 
ATOM     44  C   UNL A   1      39.208  26.934  28.886  1.00  0.00     0.001 A 
ATOM     45  C   UNL A   1      40.147  28.851  27.750  1.00  0.00     0.001 A 
ATOM     46  C   UNL A   1      39.650  27.547  27.714  1.00  0.00     0.000 A 
ENDBRANCH  27  41
BRANCH  28  47
ATOM     47  C   UNL A   1      41.100  33.671  38.935  1.00  0.00    -0.014 A 
ATOM     48  C   UNL A   1      40.460  33.197  40.091  1.00  0.00     0.009 A 
ATOM     49  C   UNL A   1      41.910  34.814  39.036  1.00  0.00     0.009 A 
ATOM     50  C   UNL A   1      40.608  33.865  41.312  1.00  0.00     0.001 A 
ATOM     51  C   UNL A   1      42.074  35.468  40.262  1.00  0.00     0.001 A 
ATOM     52  C   UNL A   1      41.416  34.997  41.397  1.00  0.00     0.000 A 
ENDBRANCH  28  47
BRANCH  40  53
ATOM     53  C   UNL A   1      44.705  28.778  35.490  1.00  0.00    -0.014 A 
ATOM     54  C   UNL A   1      45.931  29.325  35.085  1.00  0.00     0.009 A 
ATOM     55  C   UNL A   1      44.696  27.619  36.282  1.00  0.00     0.009 A 
ATOM     56  C   UNL A   1      47.126  28.713  35.461  1.00  0.00     0.001 A 
ATOM     57  C   UNL A   1      45.893  27.027  36.680  1.00  0.00     0.001 A 
ATOM     58  C   UNL A   1      47.107  27.572  36.265  1.00  0.00     0.000 A 
ENDBRANCH  40  53
ENDBRANCH  14  15
ENDBRANCH   7   9
ENDBRANCH   6   7
ENDBRANCH   5   6
ENDBRANCH   4   5
ENDBRANCH   3   4
ENDBRANCH   2   3
ENDBRANCH   1   2
BRANCH   1  59
ATOM     59  O   UNL A   1      34.633  30.955  27.069  1.00  0.00    -0.376 OA
BRANCH  59  60
ATOM     60  C   UNL A   1      33.283  30.523  27.366  1.00  0.00     0.202 C 
BRANCH  60  61
ATOM     61  C   UNL A   1      32.954  28.987  27.285  1.00  0.00     0.261 C 
BRANCH  61  62
ATOM     62  O   UNL A   1      33.942  28.142  26.574  1.00  0.00    -0.463 OA
BRANCH  62  63
ATOM     63  C   UNL A   1      33.452  27.293  25.593  1.00  0.00     0.310 C 
ATOM     64  O   UNL A   1      34.029  26.240  25.321  1.00  0.00    -0.252 OA
BRANCH  63  65
ATOM     65  C   UNL A   1      32.229  27.810  24.745  1.00  0.00     0.119 C 
ATOM     66  C   UNL A   1      30.741  27.333  24.337  1.00  0.00     0.100 C 
ATOM     67  C   UNL A   1      32.773  28.223  23.325  1.00  0.00     0.027 C 
ATOM     68  C   UNL A   1      30.664  27.738  22.819  1.00  0.00     0.025 C 
ATOM     69  C   UNL A   1      32.790  27.030  22.389  1.00  0.00    -0.027 C 
ATOM     70  C   UNL A   1      31.563  28.958  22.740  1.00  0.00     0.017 C 
ATOM     71  C   UNL A   1      31.521  26.767  22.050  1.00  0.00    -0.027 C 
BRANCH  66  72
ATOM     72  C   UNL A   1      29.756  26.124  24.348  1.00  0.00     0.229 C 
ATOM     73  O   UNL A   1      28.624  26.333  23.875  1.00  0.00    -0.274 OA
ATOM     74  N   UNL A   1      30.023  24.806  24.548  1.00  0.00    -0.323 N 
ATOM     75  H   UNL A   1      29.329  24.190  24.219  1.00  0.00     0.170 HD
BRANCH  74  76
ATOM     76  C   UNL A   1      31.113  24.190  25.140  1.00  0.00     0.084 A 
ATOM     77  C   UNL A   1      31.363  24.339  26.503  1.00  0.00     0.030 A 
ATOM     78  C   UNL A   1      31.924  23.374  24.403  1.00  0.00     0.149 A 
ATOM     79  C   UNL A   1      32.219  23.441  27.148  1.00  0.00     0.002 A 
ATOM     80  C   UNL A   1      32.633  22.362  25.055  1.00  0.00     0.049 A 
ATOM     81  C   UNL A   1      32.785  22.392  26.433  1.00  0.00     0.004 A 
BRANCH  78  82
ATOM     82  O   UNL A   1      32.065  23.477  23.065  1.00  0.00    -0.433 OA
BRANCH  82  83
ATOM     83  C   UNL A   1      33.292  23.364  22.350  1.00  0.00     0.542 C 
ATOM     84  F   UNL A   1      33.095  23.810  21.085  1.00  0.00    -0.167 F 
ATOM     85  F   UNL A   1      34.258  24.088  22.918  1.00  0.00    -0.167 F 
ENDBRANCH  82  83
ENDBRANCH  78  82
ENDBRANCH  74  76
ENDBRANCH  66  72
ENDBRANCH  63  65
ENDBRANCH  62  63
ENDBRANCH  61  62
ENDBRANCH  60  61
ENDBRANCH  59  60
ENDBRANCH   1  59
TORSDOF 21
ENDMDL
MODEL 3
REMARK VINA RESULT:      -9.7      3.590      4.833
REMARK SMILES O=C(OCCOCCOCCOC(=O)[C@@H]1[C@H](C(=O)Nc2ccccc2OC(F)F)[C@@H]2C=C[C@H]1C2)c1ccc(-c2c3nc(c(-c4ccccc4)c4ccc([nH]4)c(-c4ccccc4)c4nc(c(-c5ccccc5)c5ccc2[nH]5)C=C4)C=C3)cc1
REMARK SMILES IDX 8 1 7 2 6 3 5 4 4 5 3 6 2 7 1 8 35 9 36 10 82 11 37 12 81 13
REMARK SMILES IDX 38 14 39 15 40 16 75 17 41 18 80 19 74 20 76 21 42 22 79 23
REMARK SMILES IDX 73 24 72 25 43 27 65 28 50 29 64 30 51 31 54 32 63 33 77 34
REMARK SMILES IDX 52 35 53 36 62 38 78 39 55 40 44 41 45 42 49 43 46 44 48 45
REMARK SMILES IDX 47 46 66 47 67 48 71 49 68 50 70 51 69 52 56 53 57 54 61 55
REMARK SMILES IDX 58 56 60 57 59 58 9 59 10 60 11 61 12 62 13 63 14 64 15 65
REMARK SMILES IDX 16 66 33 67 30 68 32 69 34 70 31 71 17 72 18 73 19 74 20 76
REMARK SMILES IDX 21 77 25 78 22 79 24 80 23 81 26 82 27 83 28 84 29 85
REMARK H PARENT 76 26 54 37 19 75
REMARK Flexibility Score: inf
ROOT
ATOM      1  C   UNL A   1      34.152  30.937  27.890  1.00  0.00     0.188 C 
ENDROOT
BRANCH   1   2
ATOM      2  C   UNL A   1      34.732  32.367  27.913  1.00  0.00     0.188 C 
BRANCH   2   3
ATOM      3  O   UNL A   1      33.816  33.349  28.382  1.00  0.00    -0.376 OA
BRANCH   3   4
ATOM      4  C   UNL A   1      34.259  34.068  29.543  1.00  0.00     0.202 C 
BRANCH   4   5
ATOM      5  C   UNL A   1      34.529  33.250  30.826  1.00  0.00     0.261 C 
BRANCH   5   6
ATOM      6  O   UNL A   1      35.871  33.462  31.271  1.00  0.00    -0.460 OA
BRANCH   6   7
ATOM      7  C   UNL A   1      36.364  32.585  32.179  1.00  0.00     0.338 C 
ATOM      8  O   UNL A   1      36.163  32.620  33.372  1.00  0.00    -0.246 OA
BRANCH   7   9
ATOM      9  C   UNL A   1      37.398  31.765  31.509  1.00  0.00     0.060 A 
ATOM     10  C   UNL A   1      38.271  30.968  32.268  1.00  0.00     0.016 A 
ATOM     11  C   UNL A   1      37.438  31.728  30.115  1.00  0.00     0.016 A 
ATOM     12  C   UNL A   1      39.141  30.085  31.648  1.00  0.00     0.010 A 
ATOM     13  C   UNL A   1      38.323  30.851  29.488  1.00  0.00     0.010 A 
ATOM     14  C   UNL A   1      39.184  30.039  30.255  1.00  0.00    -0.014 A 
BRANCH  14  15
ATOM     15  C   UNL A   1      40.378  29.443  29.624  1.00  0.00     0.031 A 
ATOM     16  C   UNL A   1      41.537  30.376  29.442  1.00  0.00     0.074 A 
ATOM     17  C   UNL A   1      40.463  28.144  29.289  1.00  0.00     0.049 A 
ATOM     18  N   UNL A   1      42.723  30.147  28.953  1.00  0.00    -0.248 NA
ATOM     19  C   UNL A   1      41.328  31.764  29.898  1.00  0.00     0.031 C 
ATOM     20  C   UNL A   1      39.431  27.136  29.508  1.00  0.00     0.029 A 
ATOM     21  N   UNL A   1      41.474  27.453  28.673  1.00  0.00    -0.354 N 
ATOM     22  C   UNL A   1      43.397  31.354  29.062  1.00  0.00     0.074 A 
ATOM     23  C   UNL A   1      42.478  32.328  29.592  1.00  0.00     0.031 C 
ATOM     24  C   UNL A   1      39.828  25.969  28.972  1.00  0.00     0.029 A 
ATOM     25  C   UNL A   1      41.153  26.146  28.389  1.00  0.00     0.049 A 
ATOM     26  H   UNL A   1      42.346  27.853  28.454  1.00  0.00     0.167 HD
ATOM     27  C   UNL A   1      44.686  31.626  28.769  1.00  0.00     0.031 A 
ATOM     28  C   UNL A   1      41.857  25.214  27.723  1.00  0.00     0.031 A 
ATOM     29  C   UNL A   1      45.565  30.669  28.171  1.00  0.00     0.049 A 
ATOM     30  C   UNL A   1      43.247  25.570  27.266  1.00  0.00     0.074 A 
ATOM     31  C   UNL A   1      46.873  30.827  27.762  1.00  0.00     0.029 A 
ATOM     32  N   UNL A   1      45.193  29.364  27.873  1.00  0.00    -0.354 N 
ATOM     33  N   UNL A   1      43.897  26.702  27.409  1.00  0.00    -0.248 NA
ATOM     34  C   UNL A   1      44.017  24.518  26.590  1.00  0.00     0.031 C 
ATOM     35  C   UNL A   1      47.276  29.628  27.163  1.00  0.00     0.029 A 
ATOM     36  C   UNL A   1      46.240  28.707  27.259  1.00  0.00     0.049 A 
ATOM     37  H   UNL A   1      44.314  28.966  28.069  1.00  0.00     0.167 HD
ATOM     38  C   UNL A   1      45.166  26.485  26.890  1.00  0.00     0.074 A 
ATOM     39  C   UNL A   1      45.190  25.113  26.419  1.00  0.00     0.031 C 
ATOM     40  C   UNL A   1      46.222  27.334  26.822  1.00  0.00     0.031 A 
BRANCH  27  41
ATOM     41  C   UNL A   1      45.131  33.032  29.040  1.00  0.00    -0.014 A 
ATOM     42  C   UNL A   1      45.541  33.425  30.327  1.00  0.00     0.009 A 
ATOM     43  C   UNL A   1      44.984  34.008  28.045  1.00  0.00     0.009 A 
ATOM     44  C   UNL A   1      45.721  34.776  30.631  1.00  0.00     0.001 A 
ATOM     45  C   UNL A   1      45.196  35.355  28.343  1.00  0.00     0.001 A 
ATOM     46  C   UNL A   1      45.542  35.740  29.639  1.00  0.00     0.000 A 
ENDBRANCH  27  41
BRANCH  28  47
ATOM     47  C   UNL A   1      41.279  23.865  27.474  1.00  0.00    -0.014 A 
ATOM     48  C   UNL A   1      40.308  23.670  26.479  1.00  0.00     0.009 A 
ATOM     49  C   UNL A   1      41.696  22.759  28.231  1.00  0.00     0.009 A 
ATOM     50  C   UNL A   1      39.749  22.404  26.267  1.00  0.00     0.001 A 
ATOM     51  C   UNL A   1      41.153  21.490  28.003  1.00  0.00     0.001 A 
ATOM     52  C   UNL A   1      40.174  21.315  27.026  1.00  0.00     0.000 A 
ENDBRANCH  28  47
BRANCH  40  53
ATOM     53  C   UNL A   1      47.508  26.791  26.275  1.00  0.00    -0.014 A 
ATOM     54  C   UNL A   1      47.822  26.891  24.913  1.00  0.00     0.009 A 
ATOM     55  C   UNL A   1      48.463  26.278  27.167  1.00  0.00     0.009 A 
ATOM     56  C   UNL A   1      49.070  26.474  24.452  1.00  0.00     0.001 A 
ATOM     57  C   UNL A   1      49.720  25.889  26.707  1.00  0.00     0.001 A 
ATOM     58  C   UNL A   1      50.021  25.984  25.349  1.00  0.00     0.000 A 
ENDBRANCH  40  53
ENDBRANCH  14  15
ENDBRANCH   7   9
ENDBRANCH   6   7
ENDBRANCH   5   6
ENDBRANCH   4   5
ENDBRANCH   3   4
ENDBRANCH   2   3
ENDBRANCH   1   2
BRANCH   1  59
ATOM     59  O   UNL A   1      32.961  30.695  27.155  1.00  0.00    -0.376 OA
BRANCH  59  60
ATOM     60  C   UNL A   1      33.006  29.596  26.213  1.00  0.00     0.202 C 
BRANCH  60  61
ATOM     61  C   UNL A   1      33.567  28.211  26.704  1.00  0.00     0.261 C 
BRANCH  61  62
ATOM     62  O   UNL A   1      34.277  27.395  25.691  1.00  0.00    -0.463 OA
BRANCH  62  63
ATOM     63  C   UNL A   1      33.901  26.065  25.580  1.00  0.00     0.310 C 
ATOM     64  O   UNL A   1      33.295  25.501  26.491  1.00  0.00    -0.252 OA
BRANCH  63  65
ATOM     65  C   UNL A   1      34.422  25.277  24.318  1.00  0.00     0.119 C 
ATOM     66  C   UNL A   1      34.040  25.081  22.761  1.00  0.00     0.100 C 
ATOM     67  C   UNL A   1      34.601  23.768  24.738  1.00  0.00     0.027 C 
ATOM     68  C   UNL A   1      34.258  23.538  22.555  1.00  0.00     0.025 C 
ATOM     69  C   UNL A   1      33.304  23.003  24.557  1.00  0.00    -0.027 C 
ATOM     70  C   UNL A   1      35.368  23.210  23.535  1.00  0.00     0.017 C 
ATOM     71  C   UNL A   1      33.122  22.827  23.242  1.00  0.00    -0.027 C 
BRANCH  66  72
ATOM     72  C   UNL A   1      32.940  25.349  21.689  1.00  0.00     0.229 C 
ATOM     73  O   UNL A   1      33.273  25.170  20.503  1.00  0.00    -0.274 OA
ATOM     74  N   UNL A   1      31.598  25.491  21.857  1.00  0.00    -0.323 N 
ATOM     75  H   UNL A   1      31.063  25.351  21.043  1.00  0.00     0.170 HD
BRANCH  74  76
ATOM     76  C   UNL A   1      30.863  25.801  22.989  1.00  0.00     0.084 A 
ATOM     77  C   UNL A   1      30.276  24.795  23.754  1.00  0.00     0.030 A 
ATOM     78  C   UNL A   1      30.754  27.097  23.405  1.00  0.00     0.149 A 
ATOM     79  C   UNL A   1      29.864  25.075  25.061  1.00  0.00     0.002 A 
ATOM     80  C   UNL A   1      30.522  27.353  24.759  1.00  0.00     0.049 A 
ATOM     81  C   UNL A   1      30.074  26.341  25.594  1.00  0.00     0.004 A 
BRANCH  78  82
ATOM     82  O   UNL A   1      30.883  28.156  22.579  1.00  0.00    -0.433 OA
BRANCH  82  83
ATOM     83  C   UNL A   1      29.909  29.179  22.386  1.00  0.00     0.542 C 
ATOM     84  F   UNL A   1      29.946  30.014  23.453  1.00  0.00    -0.167 F 
ATOM     85  F   UNL A   1      30.150  29.882  21.277  1.00  0.00    -0.167 F 
ENDBRANCH  82  83
ENDBRANCH  78  82
ENDBRANCH  74  76
ENDBRANCH  66  72
ENDBRANCH  63  65
ENDBRANCH  62  63
ENDBRANCH  61  62
ENDBRANCH  60  61
ENDBRANCH  59  60
ENDBRANCH   1  59
TORSDOF 21
ENDMDL
