MODEL 1
REMARK VINA RESULT:     -10.7      0.000      0.000
REMARK SMILES O=C(OCCOCCOCCOC(=O)c1cn(C2CN(C(=O)Nc3ccsc3)C2)nn1)c1ccc(-c2c3nc(c(-c4ccccc4)c4ccc([nH]4)c(-c4ccccc4)c4nc(c(-c5ccccc5)c5ccc2[nH]5)C=C4)C=C3)cc1
REMARK SMILES IDX 7 1 6 2 5 3 4 4 3 5 2 6 1 7 32 8 33 9 79 10 34 11 78 12
REMARK SMILES IDX 35 13 36 14 37 15 72 16 38 17 77 18 71 19 73 20 39 21 76 22
REMARK SMILES IDX 70 23 69 24 40 26 62 27 47 28 61 29 48 30 51 31 60 32 74 33
REMARK SMILES IDX 49 34 50 35 59 37 75 38 52 39 41 40 42 41 46 42 43 43 45 44
REMARK SMILES IDX 44 45 63 46 64 47 68 48 65 49 67 50 66 51 53 52 54 53 58 54
REMARK SMILES IDX 55 55 57 56 56 57 8 58 9 59 10 60 11 61 12 62 13 63 14 64
REMARK SMILES IDX 15 65 16 66 31 67 17 68 30 69 18 70 19 71 29 72 20 73 21 74
REMARK SMILES IDX 22 75 23 76 24 78 25 79 28 80 26 81 27 82
REMARK H PARENT 73 25 51 36 23 77
REMARK Flexibility Score: inf
ROOT
ATOM      1  C   UNL A   1      32.037  27.047  25.877  1.00  0.00     0.188 C 
ENDROOT
BRANCH   1   2
ATOM      2  O   UNL A   1      31.888  28.454  25.862  1.00  0.00    -0.376 OA
BRANCH   2   3
ATOM      3  C   UNL A   1      32.013  29.156  27.082  1.00  0.00     0.202 C 
BRANCH   3   4
ATOM      4  C   UNL A   1      32.494  30.613  27.021  1.00  0.00     0.261 C 
BRANCH   4   5
ATOM      5  O   UNL A   1      33.914  30.810  26.939  1.00  0.00    -0.460 OA
BRANCH   5   6
ATOM      6  C   UNL A   1      34.767  31.569  27.650  1.00  0.00     0.338 C 
ATOM      7  O   UNL A   1      34.573  32.783  27.698  1.00  0.00    -0.246 OA
BRANCH   6   8
ATOM      8  C   UNL A   1      36.008  31.051  28.294  1.00  0.00     0.060 A 
ATOM      9  C   UNL A   1      37.076  31.815  28.765  1.00  0.00     0.016 A 
ATOM     10  C   UNL A   1      36.100  29.645  28.372  1.00  0.00     0.016 A 
ATOM     11  C   UNL A   1      38.258  31.199  29.154  1.00  0.00     0.010 A 
ATOM     12  C   UNL A   1      37.272  29.024  28.767  1.00  0.00     0.010 A 
ATOM     13  C   UNL A   1      38.373  29.811  29.075  1.00  0.00    -0.014 A 
BRANCH  13  14
ATOM     14  C   UNL A   1      39.686  29.227  29.299  1.00  0.00     0.031 A 
ATOM     15  C   UNL A   1      40.072  29.022  30.718  1.00  0.00     0.074 A 
ATOM     16  C   UNL A   1      40.473  28.845  28.275  1.00  0.00     0.049 A 
ATOM     17  N   UNL A   1      41.075  29.534  31.354  1.00  0.00    -0.248 NA
ATOM     18  C   UNL A   1      39.175  28.211  31.554  1.00  0.00     0.031 C 
ATOM     19  C   UNL A   1      40.121  28.747  26.854  1.00  0.00     0.029 A 
ATOM     20  N   UNL A   1      41.741  28.350  28.312  1.00  0.00    -0.354 N 
ATOM     21  C   UNL A   1      41.038  28.979  32.631  1.00  0.00     0.074 A 
ATOM     22  C   UNL A   1      39.786  28.273  32.736  1.00  0.00     0.031 C 
ATOM     23  C   UNL A   1      41.054  28.005  26.216  1.00  0.00     0.029 A 
ATOM     24  C   UNL A   1      42.129  27.705  27.147  1.00  0.00     0.049 A 
ATOM     25  H   UNL A   1      42.329  28.442  29.095  1.00  0.00     0.167 HD
ATOM     26  C   UNL A   1      42.128  28.961  33.445  1.00  0.00     0.031 A 
ATOM     27  C   UNL A   1      43.220  26.919  26.981  1.00  0.00     0.031 A 
ATOM     28  C   UNL A   1      43.121  29.924  33.056  1.00  0.00     0.049 A 
ATOM     29  C   UNL A   1      44.170  27.227  28.073  1.00  0.00     0.074 A 
ATOM     30  C   UNL A   1      43.145  31.299  32.944  1.00  0.00     0.029 A 
ATOM     31  N   UNL A   1      44.211  29.473  32.353  1.00  0.00    -0.354 N 
ATOM     32  N   UNL A   1      44.806  28.359  28.173  1.00  0.00    -0.248 NA
ATOM     33  C   UNL A   1      44.089  26.447  29.297  1.00  0.00     0.031 C 
ATOM     34  C   UNL A   1      43.937  31.560  31.788  1.00  0.00     0.029 A 
ATOM     35  C   UNL A   1      44.397  30.335  31.301  1.00  0.00     0.049 A 
ATOM     36  H   UNL A   1      44.756  28.680  32.562  1.00  0.00     0.167 HD
ATOM     37  C   UNL A   1      44.818  28.638  29.532  1.00  0.00     0.074 A 
ATOM     38  C   UNL A   1      44.461  27.378  30.180  1.00  0.00     0.031 C 
ATOM     39  C   UNL A   1      44.839  29.926  29.987  1.00  0.00     0.031 A 
BRANCH  26  40
ATOM     40  C   UNL A   1      42.437  27.808  34.364  1.00  0.00    -0.014 A 
ATOM     41  C   UNL A   1      43.070  26.664  33.849  1.00  0.00     0.009 A 
ATOM     42  C   UNL A   1      41.877  27.697  35.653  1.00  0.00     0.009 A 
ATOM     43  C   UNL A   1      43.095  25.462  34.569  1.00  0.00     0.001 A 
ATOM     44  C   UNL A   1      41.937  26.513  36.390  1.00  0.00     0.001 A 
ATOM     45  C   UNL A   1      42.525  25.386  35.837  1.00  0.00     0.000 A 
ENDBRANCH  26  40
BRANCH  27  46
ATOM     46  C   UNL A   1      43.357  25.722  26.126  1.00  0.00    -0.014 A 
ATOM     47  C   UNL A   1      44.544  25.469  25.422  1.00  0.00     0.009 A 
ATOM     48  C   UNL A   1      42.412  24.681  26.212  1.00  0.00     0.009 A 
ATOM     49  C   UNL A   1      44.788  24.210  24.855  1.00  0.00     0.001 A 
ATOM     50  C   UNL A   1      42.654  23.428  25.644  1.00  0.00     0.001 A 
ATOM     51  C   UNL A   1      43.850  23.187  24.978  1.00  0.00     0.000 A 
ENDBRANCH  27  46
BRANCH  39  52
ATOM     52  C   UNL A   1      45.065  31.027  28.978  1.00  0.00    -0.014 A 
ATOM     53  C   UNL A   1      46.322  31.626  28.772  1.00  0.00     0.009 A 
ATOM     54  C   UNL A   1      44.019  31.367  28.109  1.00  0.00     0.009 A 
ATOM     55  C   UNL A   1      46.512  32.562  27.749  1.00  0.00     0.001 A 
ATOM     56  C   UNL A   1      44.216  32.284  27.074  1.00  0.00     0.001 A 
ATOM     57  C   UNL A   1      45.459  32.887  26.898  1.00  0.00     0.000 A 
ENDBRANCH  39  52
ENDBRANCH  13  14
ENDBRANCH   6   8
ENDBRANCH   5   6
ENDBRANCH   4   5
ENDBRANCH   3   4
ENDBRANCH   2   3
ENDBRANCH   1   2
BRANCH   1  58
ATOM     58  C   UNL A   1      30.732  26.278  26.188  1.00  0.00     0.188 C 
BRANCH  58  59
ATOM     59  O   UNL A   1      29.742  26.033  25.191  1.00  0.00    -0.376 OA
BRANCH  59  60
ATOM     60  C   UNL A   1      30.102  25.782  23.843  1.00  0.00     0.202 C 
BRANCH  60  61
ATOM     61  C   UNL A   1      30.328  26.983  22.913  1.00  0.00     0.261 C 
BRANCH  61  62
ATOM     62  O   UNL A   1      31.316  26.775  21.896  1.00  0.00    -0.458 OA
BRANCH  62  63
ATOM     63  C   UNL A   1      32.613  26.974  22.267  1.00  0.00     0.360 C 
ATOM     64  O   UNL A   1      33.142  28.055  22.458  1.00  0.00    -0.244 OA
BRANCH  63  65
ATOM     65  C   UNL A   1      33.298  25.712  22.468  1.00  0.00     0.190 A 
ATOM     66  C   UNL A   1      34.063  25.314  23.545  1.00  0.00     0.147 A 
ATOM     67  N   UNL A   1      33.257  24.693  21.547  1.00  0.00    -0.123 NA
ATOM     68  N   UNL A   1      34.420  24.032  23.232  1.00  0.00    -0.245 N 
ATOM     69  N   UNL A   1      33.994  23.693  22.002  1.00  0.00    -0.066 NA
BRANCH  68  70
ATOM     70  C   UNL A   1      34.936  23.028  24.106  1.00  0.00     0.148 C 
ATOM     71  C   UNL A   1      34.527  23.061  25.581  1.00  0.00     0.150 C 
ATOM     72  C   UNL A   1      34.062  21.762  23.989  1.00  0.00     0.150 C 
ATOM     73  N   UNL A   1      34.218  21.636  25.421  1.00  0.00    -0.320 N 
ATOM     74  C   UNL A   1      33.711  20.814  26.375  1.00  0.00     0.322 C 
ATOM     75  O   UNL A   1      33.685  21.167  27.558  1.00  0.00    -0.248 OA
ATOM     76  N   UNL A   1      33.087  19.655  26.038  1.00  0.00    -0.307 N 
ATOM     77  H   UNL A   1      32.475  19.311  26.728  1.00  0.00     0.171 HD
BRANCH  76  78
ATOM     78  C   UNL A   1      33.156  18.870  24.900  1.00  0.00     0.053 A 
ATOM     79  C   UNL A   1      32.263  18.845  23.791  1.00  0.00     0.038 A 
ATOM     80  C   UNL A   1      34.227  18.027  24.683  1.00  0.00     0.091 A 
ATOM     81  C   UNL A   1      32.573  17.856  22.882  1.00  0.00     0.067 A 
ATOM     82  S   UNL A   1      34.029  17.058  23.285  1.00  0.00    -0.150 S 
ENDBRANCH  76  78
ENDBRANCH  68  70
ENDBRANCH  63  65
ENDBRANCH  62  63
ENDBRANCH  61  62
ENDBRANCH  60  61
ENDBRANCH  59  60
ENDBRANCH  58  59
ENDBRANCH   1  58
TORSDOF 19
ENDMDL
MODEL 2
REMARK VINA RESULT:     -10.5      3.940      6.682
REMARK SMILES O=C(OCCOCCOCCOC(=O)c1cn(C2CN(C(=O)Nc3ccsc3)C2)nn1)c1ccc(-c2c3nc(c(-c4ccccc4)c4ccc([nH]4)c(-c4ccccc4)c4nc(c(-c5ccccc5)c5ccc2[nH]5)C=C4)C=C3)cc1
REMARK SMILES IDX 7 1 6 2 5 3 4 4 3 5 2 6 1 7 32 8 33 9 79 10 34 11 78 12
REMARK SMILES IDX 35 13 36 14 37 15 72 16 38 17 77 18 71 19 73 20 39 21 76 22
REMARK SMILES IDX 70 23 69 24 40 26 62 27 47 28 61 29 48 30 51 31 60 32 74 33
REMARK SMILES IDX 49 34 50 35 59 37 75 38 52 39 41 40 42 41 46 42 43 43 45 44
REMARK SMILES IDX 44 45 63 46 64 47 68 48 65 49 67 50 66 51 53 52 54 53 58 54
REMARK SMILES IDX 55 55 57 56 56 57 8 58 9 59 10 60 11 61 12 62 13 63 14 64
REMARK SMILES IDX 15 65 16 66 31 67 17 68 30 69 18 70 19 71 29 72 20 73 21 74
REMARK SMILES IDX 22 75 23 76 24 78 25 79 28 80 26 81 27 82
REMARK H PARENT 73 25 51 36 23 77
REMARK Flexibility Score: inf
ROOT
ATOM      1  C   UNL A   1      33.887  35.573  32.280  1.00  0.00     0.188 C 
ENDROOT
BRANCH   1   2
ATOM      2  O   UNL A   1      34.338  34.250  32.495  1.00  0.00    -0.376 OA
BRANCH   2   3
ATOM      3  C   UNL A   1      35.510  33.823  31.831  1.00  0.00     0.202 C 
BRANCH   3   4
ATOM      4  C   UNL A   1      36.815  34.572  32.136  1.00  0.00     0.261 C 
BRANCH   4   5
ATOM      5  O   UNL A   1      38.019  33.789  32.109  1.00  0.00    -0.460 OA
BRANCH   5   6
ATOM      6  C   UNL A   1      38.852  33.439  31.113  1.00  0.00     0.338 C 
ATOM      7  O   UNL A   1      38.843  34.106  30.078  1.00  0.00    -0.246 OA
BRANCH   6   8
ATOM      8  C   UNL A   1      39.711  32.220  31.131  1.00  0.00     0.060 A 
ATOM      9  C   UNL A   1      40.980  32.095  30.566  1.00  0.00     0.016 A 
ATOM     10  C   UNL A   1      39.130  31.089  31.740  1.00  0.00     0.016 A 
ATOM     11  C   UNL A   1      41.584  30.848  30.473  1.00  0.00     0.010 A 
ATOM     12  C   UNL A   1      39.730  29.843  31.658  1.00  0.00     0.010 A 
ATOM     13  C   UNL A   1      40.916  29.720  30.949  1.00  0.00    -0.014 A 
BRANCH  13  14
ATOM     14  C   UNL A   1      41.491  28.418  30.651  1.00  0.00     0.031 A 
ATOM     15  C   UNL A   1      42.369  27.841  31.702  1.00  0.00     0.074 A 
ATOM     16  C   UNL A   1      41.195  27.757  29.516  1.00  0.00     0.049 A 
ATOM     17  N   UNL A   1      43.618  27.523  31.611  1.00  0.00    -0.248 NA
ATOM     18  C   UNL A   1      41.798  27.678  33.047  1.00  0.00     0.031 C 
ATOM     19  C   UNL A   1      40.161  28.081  28.527  1.00  0.00     0.029 A 
ATOM     20  N   UNL A   1      41.695  26.576  29.061  1.00  0.00    -0.354 N 
ATOM     21  C   UNL A   1      43.958  26.961  32.839  1.00  0.00     0.074 A 
ATOM     22  C   UNL A   1      42.841  27.194  33.720  1.00  0.00     0.031 C 
ATOM     23  C   UNL A   1      39.950  27.004  27.737  1.00  0.00     0.029 A 
ATOM     24  C   UNL A   1      40.927  25.981  28.070  1.00  0.00     0.049 A 
ATOM     25  H   UNL A   1      42.527  26.178  29.405  1.00  0.00     0.167 HD
ATOM     26  C   UNL A   1      45.046  26.160  32.994  1.00  0.00     0.031 A 
ATOM     27  C   UNL A   1      41.040  24.713  27.609  1.00  0.00     0.031 A 
ATOM     28  C   UNL A   1      46.003  26.322  31.935  1.00  0.00     0.049 A 
ATOM     29  C   UNL A   1      42.384  24.215  27.977  1.00  0.00     0.074 A 
ATOM     30  C   UNL A   1      46.763  27.376  31.469  1.00  0.00     0.029 A 
ATOM     31  N   UNL A   1      46.024  25.378  30.938  1.00  0.00    -0.354 N 
ATOM     32  N   UNL A   1      43.486  24.671  27.456  1.00  0.00    -0.248 NA
ATOM     33  C   UNL A   1      42.536  23.514  29.242  1.00  0.00     0.031 C 
ATOM     34  C   UNL A   1      46.776  27.222  30.052  1.00  0.00     0.029 A 
ATOM     35  C   UNL A   1      46.076  26.053  29.745  1.00  0.00     0.049 A 
ATOM     36  H   UNL A   1      46.003  24.401  31.056  1.00  0.00     0.167 HD
ATOM     37  C   UNL A   1      44.387  24.708  28.510  1.00  0.00     0.074 A 
ATOM     38  C   UNL A   1      43.782  23.884  29.554  1.00  0.00     0.031 C 
ATOM     39  C   UNL A   1      45.398  25.626  28.541  1.00  0.00     0.031 A 
BRANCH  26  40
ATOM     40  C   UNL A   1      45.053  24.966  33.914  1.00  0.00    -0.014 A 
ATOM     41  C   UNL A   1      44.326  23.817  33.560  1.00  0.00     0.009 A 
ATOM     42  C   UNL A   1      45.520  25.036  35.241  1.00  0.00     0.009 A 
ATOM     43  C   UNL A   1      44.042  22.818  34.500  1.00  0.00     0.001 A 
ATOM     44  C   UNL A   1      45.275  24.023  36.170  1.00  0.00     0.001 A 
ATOM     45  C   UNL A   1      44.513  22.924  35.806  1.00  0.00     0.000 A 
ENDBRANCH  26  40
BRANCH  27  46
ATOM     46  C   UNL A   1      39.963  23.815  27.143  1.00  0.00    -0.014 A 
ATOM     47  C   UNL A   1      38.728  24.328  26.717  1.00  0.00     0.009 A 
ATOM     48  C   UNL A   1      40.242  22.464  26.863  1.00  0.00     0.009 A 
ATOM     49  C   UNL A   1      37.824  23.526  26.007  1.00  0.00     0.001 A 
ATOM     50  C   UNL A   1      39.339  21.663  26.159  1.00  0.00     0.001 A 
ATOM     51  C   UNL A   1      38.136  22.199  25.717  1.00  0.00     0.000 A 
ENDBRANCH  27  46
BRANCH  39  52
ATOM     52  C   UNL A   1      45.638  26.453  27.301  1.00  0.00    -0.014 A 
ATOM     53  C   UNL A   1      46.383  25.984  26.202  1.00  0.00     0.009 A 
ATOM     54  C   UNL A   1      44.973  27.681  27.174  1.00  0.00     0.009 A 
ATOM     55  C   UNL A   1      46.485  26.740  25.029  1.00  0.00     0.001 A 
ATOM     56  C   UNL A   1      45.057  28.424  25.994  1.00  0.00     0.001 A 
ATOM     57  C   UNL A   1      45.818  27.958  24.924  1.00  0.00     0.000 A 
ENDBRANCH  39  52
ENDBRANCH  13  14
ENDBRANCH   6   8
ENDBRANCH   5   6
ENDBRANCH   4   5
ENDBRANCH   3   4
ENDBRANCH   2   3
ENDBRANCH   1   2
BRANCH   1  58
ATOM     58  C   UNL A   1      33.483  35.872  30.818  1.00  0.00     0.188 C 
BRANCH  58  59
ATOM     59  O   UNL A   1      32.689  34.968  30.052  1.00  0.00    -0.376 OA
BRANCH  59  60
ATOM     60  C   UNL A   1      32.991  34.694  28.693  1.00  0.00     0.202 C 
BRANCH  60  61
ATOM     61  C   UNL A   1      34.059  33.634  28.384  1.00  0.00     0.261 C 
BRANCH  61  62
ATOM     62  O   UNL A   1      33.563  32.459  27.729  1.00  0.00    -0.458 OA
BRANCH  62  63
ATOM     63  C   UNL A   1      34.300  31.323  27.895  1.00  0.00     0.360 C 
ATOM     64  O   UNL A   1      35.254  31.195  28.642  1.00  0.00    -0.244 OA
BRANCH  63  65
ATOM     65  C   UNL A   1      33.768  30.236  27.096  1.00  0.00     0.190 A 
ATOM     66  C   UNL A   1      32.756  30.276  26.160  1.00  0.00     0.147 A 
ATOM     67  N   UNL A   1      34.247  28.951  27.183  1.00  0.00    -0.123 NA
ATOM     68  N   UNL A   1      32.701  28.995  25.688  1.00  0.00    -0.245 N 
ATOM     69  N   UNL A   1      33.548  28.192  26.356  1.00  0.00    -0.066 NA
BRANCH  68  70
ATOM     70  C   UNL A   1      32.071  28.527  24.495  1.00  0.00     0.148 C 
ATOM     71  C   UNL A   1      31.177  27.287  24.578  1.00  0.00     0.150 C 
ATOM     72  C   UNL A   1      30.775  29.330  24.261  1.00  0.00     0.150 C 
ATOM     73  N   UNL A   1      30.186  28.078  23.841  1.00  0.00    -0.320 N 
ATOM     74  C   UNL A   1      28.940  27.673  23.487  1.00  0.00     0.322 C 
ATOM     75  O   UNL A   1      28.622  26.482  23.565  1.00  0.00    -0.248 OA
ATOM     76  N   UNL A   1      27.971  28.577  23.184  1.00  0.00    -0.307 N 
ATOM     77  H   UNL A   1      27.054  28.231  23.275  1.00  0.00     0.171 HD
BRANCH  76  78
ATOM     78  C   UNL A   1      28.040  29.896  22.773  1.00  0.00     0.053 A 
ATOM     79  C   UNL A   1      27.796  31.073  23.538  1.00  0.00     0.038 A 
ATOM     80  C   UNL A   1      28.464  30.222  21.500  1.00  0.00     0.091 A 
ATOM     81  C   UNL A   1      27.844  32.220  22.777  1.00  0.00     0.067 A 
ATOM     82  S   UNL A   1      28.336  31.898  21.173  1.00  0.00    -0.150 S 
ENDBRANCH  76  78
ENDBRANCH  68  70
ENDBRANCH  63  65
ENDBRANCH  62  63
ENDBRANCH  61  62
ENDBRANCH  60  61
ENDBRANCH  59  60
ENDBRANCH  58  59
ENDBRANCH   1  58
TORSDOF 19
ENDMDL
MODEL 3
REMARK VINA RESULT:     -10.5      3.452      8.688
REMARK SMILES O=C(OCCOCCOCCOC(=O)c1cn(C2CN(C(=O)Nc3ccsc3)C2)nn1)c1ccc(-c2c3nc(c(-c4ccccc4)c4ccc([nH]4)c(-c4ccccc4)c4nc(c(-c5ccccc5)c5ccc2[nH]5)C=C4)C=C3)cc1
REMARK SMILES IDX 7 1 6 2 5 3 4 4 3 5 2 6 1 7 32 8 33 9 79 10 34 11 78 12
REMARK SMILES IDX 35 13 36 14 37 15 72 16 38 17 77 18 71 19 73 20 39 21 76 22
REMARK SMILES IDX 70 23 69 24 40 26 62 27 47 28 61 29 48 30 51 31 60 32 74 33
REMARK SMILES IDX 49 34 50 35 59 37 75 38 52 39 41 40 42 41 46 42 43 43 45 44
REMARK SMILES IDX 44 45 63 46 64 47 68 48 65 49 67 50 66 51 53 52 54 53 58 54
REMARK SMILES IDX 55 55 57 56 56 57 8 58 9 59 10 60 11 61 12 62 13 63 14 64
REMARK SMILES IDX 15 65 16 66 31 67 17 68 30 69 18 70 19 71 29 72 20 73 21 74
REMARK SMILES IDX 22 75 23 76 24 78 25 79 28 80 26 81 27 82
REMARK H PARENT 73 25 51 36 23 77
REMARK Flexibility Score: inf
ROOT
ATOM      1  C   UNL A   1      39.309  21.877  25.961  1.00  0.00     0.188 C 
ENDROOT
BRANCH   1   2
ATOM      2  O   UNL A   1      40.138  20.750  25.754  1.00  0.00    -0.376 OA
BRANCH   2   3
ATOM      3  C   UNL A   1      41.306  20.622  26.538  1.00  0.00     0.202 C 
BRANCH   3   4
ATOM      4  C   UNL A   1      42.309  19.525  26.151  1.00  0.00     0.261 C 
BRANCH   4   5
ATOM      5  O   UNL A   1      43.159  19.810  25.029  1.00  0.00    -0.460 OA
BRANCH   5   6
ATOM      6  C   UNL A   1      44.249  20.587  24.891  1.00  0.00     0.338 C 
ATOM      7  O   UNL A   1      45.267  20.091  24.409  1.00  0.00    -0.246 OA
BRANCH   6   8
ATOM      8  C   UNL A   1      44.344  21.989  25.390  1.00  0.00     0.060 A 
ATOM      9  C   UNL A   1      45.196  22.453  26.392  1.00  0.00     0.016 A 
ATOM     10  C   UNL A   1      43.434  22.895  24.807  1.00  0.00     0.016 A 
ATOM     11  C   UNL A   1      45.040  23.734  26.905  1.00  0.00     0.010 A 
ATOM     12  C   UNL A   1      43.277  24.176  25.308  1.00  0.00     0.010 A 
ATOM     13  C   UNL A   1      44.027  24.557  26.412  1.00  0.00    -0.014 A 
BRANCH  13  14
ATOM     14  C   UNL A   1      43.771  25.806  27.110  1.00  0.00     0.031 A 
ATOM     15  C   UNL A   1      44.743  26.901  26.860  1.00  0.00     0.074 A 
ATOM     16  C   UNL A   1      42.684  25.970  27.888  1.00  0.00     0.049 A 
ATOM     17  N   UNL A   1      45.499  27.507  27.716  1.00  0.00    -0.248 NA
ATOM     18  C   UNL A   1      44.957  27.311  25.465  1.00  0.00     0.031 C 
ATOM     19  C   UNL A   1      41.524  25.082  28.017  1.00  0.00     0.029 A 
ATOM     20  N   UNL A   1      42.337  27.040  28.655  1.00  0.00    -0.354 N 
ATOM     21  C   UNL A   1      46.169  28.494  26.999  1.00  0.00     0.074 A 
ATOM     22  C   UNL A   1      45.892  28.250  25.605  1.00  0.00     0.031 C 
ATOM     23  C   UNL A   1      40.513  25.755  28.611  1.00  0.00     0.029 A 
ATOM     24  C   UNL A   1      41.001  27.059  29.028  1.00  0.00     0.049 A 
ATOM     25  H   UNL A   1      42.978  27.738  28.922  1.00  0.00     0.167 HD
ATOM     26  C   UNL A   1      46.737  29.572  27.605  1.00  0.00     0.031 A 
ATOM     27  C   UNL A   1      40.327  28.099  29.574  1.00  0.00     0.031 A 
ATOM     28  C   UNL A   1      46.962  29.357  29.007  1.00  0.00     0.049 A 
ATOM     29  C   UNL A   1      41.321  29.037  30.139  1.00  0.00     0.074 A 
ATOM     30  C   UNL A   1      47.715  28.463  29.743  1.00  0.00     0.029 A 
ATOM     31  N   UNL A   1      46.069  29.910  29.893  1.00  0.00    -0.354 N 
ATOM     32  N   UNL A   1      42.057  28.764  31.178  1.00  0.00    -0.248 NA
ATOM     33  C   UNL A   1      41.814  30.111  29.291  1.00  0.00     0.031 C 
ATOM     34  C   UNL A   1      46.917  28.164  30.885  1.00  0.00     0.029 A 
ATOM     35  C   UNL A   1      45.757  28.937  30.809  1.00  0.00     0.049 A 
ATOM     36  H   UNL A   1      45.718  30.828  29.873  1.00  0.00     0.167 HD
ATOM     37  C   UNL A   1      43.299  29.308  30.885  1.00  0.00     0.074 A 
ATOM     38  C   UNL A   1      43.059  30.216  29.765  1.00  0.00     0.031 C 
ATOM     39  C   UNL A   1      44.444  28.763  31.390  1.00  0.00     0.031 A 
BRANCH  26  40
ATOM     40  C   UNL A   1      46.738  30.946  26.987  1.00  0.00    -0.014 A 
ATOM     41  C   UNL A   1      47.926  31.697  26.973  1.00  0.00     0.009 A 
ATOM     42  C   UNL A   1      45.550  31.633  26.669  1.00  0.00     0.009 A 
ATOM     43  C   UNL A   1      47.913  33.072  26.704  1.00  0.00     0.001 A 
ATOM     44  C   UNL A   1      45.538  32.995  26.360  1.00  0.00     0.001 A 
ATOM     45  C   UNL A   1      46.718  33.721  26.403  1.00  0.00     0.000 A 
ENDBRANCH  26  40
BRANCH  27  46
ATOM     46  C   UNL A   1      38.911  28.472  29.371  1.00  0.00    -0.014 A 
ATOM     47  C   UNL A   1      38.042  28.631  30.461  1.00  0.00     0.009 A 
ATOM     48  C   UNL A   1      38.478  28.937  28.115  1.00  0.00     0.009 A 
ATOM     49  C   UNL A   1      36.800  29.262  30.303  1.00  0.00     0.001 A 
ATOM     50  C   UNL A   1      37.238  29.563  27.957  1.00  0.00     0.001 A 
ATOM     51  C   UNL A   1      36.406  29.739  29.055  1.00  0.00     0.000 A 
ENDBRANCH  27  46
BRANCH  39  52
ATOM     52  C   UNL A   1      44.309  27.689  32.444  1.00  0.00    -0.014 A 
ATOM     53  C   UNL A   1      44.253  26.317  32.133  1.00  0.00     0.009 A 
ATOM     54  C   UNL A   1      44.389  28.059  33.794  1.00  0.00     0.009 A 
ATOM     55  C   UNL A   1      44.242  25.352  33.145  1.00  0.00     0.001 A 
ATOM     56  C   UNL A   1      44.401  27.093  34.803  1.00  0.00     0.001 A 
ATOM     57  C   UNL A   1      44.320  25.741  34.480  1.00  0.00     0.000 A 
ENDBRANCH  39  52
ENDBRANCH  13  14
ENDBRANCH   6   8
ENDBRANCH   5   6
ENDBRANCH   4   5
ENDBRANCH   3   4
ENDBRANCH   2   3
ENDBRANCH   1   2
BRANCH   1  58
ATOM     58  C   UNL A   1      37.889  21.734  25.365  1.00  0.00     0.188 C 
BRANCH  58  59
ATOM     59  O   UNL A   1      36.884  22.727  25.554  1.00  0.00    -0.376 OA
BRANCH  59  60
ATOM     60  C   UNL A   1      35.507  22.413  25.429  1.00  0.00     0.202 C 
BRANCH  60  61
ATOM     61  C   UNL A   1      34.823  21.663  26.582  1.00  0.00     0.261 C 
BRANCH  61  62
ATOM     62  O   UNL A   1      33.772  22.390  27.230  1.00  0.00    -0.458 OA
BRANCH  62  63
ATOM     63  C   UNL A   1      32.616  22.536  26.521  1.00  0.00     0.360 C 
ATOM     64  O   UNL A   1      31.978  21.635  26.005  1.00  0.00    -0.244 OA
BRANCH  63  65
ATOM     65  C   UNL A   1      32.191  23.922  26.496  1.00  0.00     0.190 A 
ATOM     66  C   UNL A   1      32.961  25.051  26.313  1.00  0.00     0.147 A 
ATOM     67  N   UNL A   1      30.879  24.296  26.658  1.00  0.00    -0.123 NA
ATOM     68  N   UNL A   1      32.051  26.071  26.333  1.00  0.00    -0.245 N 
ATOM     69  N   UNL A   1      30.816  25.617  26.612  1.00  0.00    -0.066 NA
BRANCH  68  70
ATOM     70  C   UNL A   1      32.229  27.413  25.880  1.00  0.00     0.148 C 
ATOM     71  C   UNL A   1      33.264  27.685  24.785  1.00  0.00     0.150 C 
ATOM     72  C   UNL A   1      31.158  27.730  24.814  1.00  0.00     0.150 C 
ATOM     73  N   UNL A   1      32.203  28.441  24.112  1.00  0.00    -0.320 N 
ATOM     74  C   UNL A   1      32.302  29.062  22.909  1.00  0.00     0.322 C 
ATOM     75  O   UNL A   1      33.404  29.234  22.380  1.00  0.00    -0.248 OA
ATOM     76  N   UNL A   1      31.191  29.375  22.191  1.00  0.00    -0.307 N 
ATOM     77  H   UNL A   1      31.354  29.499  21.228  1.00  0.00     0.171 HD
BRANCH  76  78
ATOM     78  C   UNL A   1      29.871  29.550  22.569  1.00  0.00     0.053 A 
ATOM     79  C   UNL A   1      28.837  28.573  22.639  1.00  0.00     0.038 A 
ATOM     80  C   UNL A   1      29.418  30.772  23.023  1.00  0.00     0.091 A 
ATOM     81  C   UNL A   1      27.610  29.119  22.945  1.00  0.00     0.067 A 
ATOM     82  S   UNL A   1      27.729  30.786  23.298  1.00  0.00    -0.150 S 
ENDBRANCH  76  78
ENDBRANCH  68  70
ENDBRANCH  63  65
ENDBRANCH  62  63
ENDBRANCH  61  62
ENDBRANCH  60  61
ENDBRANCH  59  60
ENDBRANCH  58  59
ENDBRANCH   1  58
TORSDOF 19
ENDMDL
