MODEL 1
REMARK VINA RESULT:      -8.5      0.000      0.000
REMARK SMILES O=C(/C=C/c1ccc(O)c(O)c1)OCCOCCOCCOC(=O)c1ccc(-c2c3nc(c(-c4ccccc4)c4ccc([nH]4)c(-c4ccccc4)c4nc(c(-c5ccccc5)c5ccc2[nH]5)C=C4)C=C3)cc1
REMARK SMILES IDX 17 1 16 2 15 3 14 4 13 5 2 6 1 7 3 8 4 9 5 10 6 11 12 12
REMARK SMILES IDX 7 13 10 14 8 15 11 16 9 18 18 20 19 21 20 22 21 23 22 24
REMARK SMILES IDX 23 25 24 26 25 27 26 28 72 29 27 30 71 31 28 32 29 33 30 34
REMARK SMILES IDX 65 35 31 36 70 37 64 38 66 39 32 40 69 41 63 42 62 43 33 45
REMARK SMILES IDX 55 46 40 47 54 48 41 49 44 50 53 51 67 52 42 53 43 54 52 56
REMARK SMILES IDX 68 57 45 58 34 59 35 60 39 61 36 62 38 63 37 64 56 65 57 66
REMARK SMILES IDX 61 67 58 68 60 69 59 70 46 71 47 72 51 73 48 74 50 75 49 76
REMARK H PARENT 11 17 9 19 66 44 44 55
REMARK Flexibility Score: inf
ROOT
ATOM      1  C   UNL A   1      36.455  33.924  34.264  1.00  0.00     0.188 C 
ENDROOT
BRANCH   1   2
ATOM      2  O   UNL A   1      36.296  32.518  34.269  1.00  0.00    -0.376 OA
BRANCH   2   3
ATOM      3  C   UNL A   1      37.386  31.679  33.903  1.00  0.00     0.202 C 
BRANCH   3   4
ATOM      4  C   UNL A   1      38.717  31.698  34.653  1.00  0.00     0.261 C 
BRANCH   4   5
ATOM      5  O   UNL A   1      39.899  30.983  34.197  1.00  0.00    -0.460 OA
BRANCH   5   6
ATOM      6  C   UNL A   1      40.136  29.796  33.619  1.00  0.00     0.330 C 
ATOM      7  O   UNL A   1      39.710  29.549  32.494  1.00  0.00    -0.247 OA
BRANCH   6   8
ATOM      8  C   UNL A   1      40.864  28.752  34.330  1.00  0.00     0.094 C 
ATOM      9  C   UNL A   1      41.589  27.816  33.707  1.00  0.00     0.016 C 
BRANCH   9  10
ATOM     10  C   UNL A   1      42.244  26.757  34.475  1.00  0.00    -0.021 A 
ATOM     11  C   UNL A   1      43.485  26.247  34.062  1.00  0.00     0.012 A 
ATOM     12  C   UNL A   1      41.630  26.241  35.620  1.00  0.00     0.058 A 
ATOM     13  C   UNL A   1      44.123  25.246  34.802  1.00  0.00     0.051 A 
ATOM     14  C   UNL A   1      42.270  25.248  36.347  1.00  0.00     0.157 A 
ATOM     15  C   UNL A   1      43.511  24.760  35.950  1.00  0.00     0.157 A 
BRANCH  14  16
ATOM     16  O   UNL A   1      41.671  24.755  37.472  1.00  0.00    -0.504 OA
ATOM     17  H   UNL A   1      42.154  24.210  38.061  1.00  0.00     0.293 HD
ENDBRANCH  14  16
BRANCH  15  18
ATOM     18  O   UNL A   1      44.094  23.800  36.730  1.00  0.00    -0.504 OA
ATOM     19  H   UNL A   1      44.646  23.151  36.341  1.00  0.00     0.293 HD
ENDBRANCH  15  18
ENDBRANCH   9  10
ENDBRANCH   6   8
ENDBRANCH   5   6
ENDBRANCH   4   5
ENDBRANCH   3   4
ENDBRANCH   2   3
ENDBRANCH   1   2
BRANCH   1  20
ATOM     20  C   UNL A   1      35.195  34.779  34.077  1.00  0.00     0.188 C 
BRANCH  20  21
ATOM     21  O   UNL A   1      35.184  35.744  33.041  1.00  0.00    -0.376 OA
BRANCH  21  22
ATOM     22  C   UNL A   1      34.022  36.562  32.908  1.00  0.00     0.202 C 
BRANCH  22  23
ATOM     23  C   UNL A   1      33.289  36.601  31.560  1.00  0.00     0.261 C 
BRANCH  23  24
ATOM     24  O   UNL A   1      32.900  35.298  31.079  1.00  0.00    -0.460 OA
BRANCH  24  25
ATOM     25  C   UNL A   1      33.191  35.063  29.778  1.00  0.00     0.338 C 
ATOM     26  O   UNL A   1      32.687  35.588  28.799  1.00  0.00    -0.246 OA
BRANCH  25  27
ATOM     27  C   UNL A   1      34.326  34.133  29.648  1.00  0.00     0.060 A 
ATOM     28  C   UNL A   1      34.491  33.156  30.638  1.00  0.00     0.016 A 
ATOM     29  C   UNL A   1      35.319  34.348  28.691  1.00  0.00     0.016 A 
ATOM     30  C   UNL A   1      35.678  32.427  30.706  1.00  0.00     0.010 A 
ATOM     31  C   UNL A   1      36.513  33.621  28.767  1.00  0.00     0.010 A 
ATOM     32  C   UNL A   1      36.716  32.691  29.800  1.00  0.00    -0.014 A 
BRANCH  32  33
ATOM     33  C   UNL A   1      38.059  32.108  30.043  1.00  0.00     0.031 A 
ATOM     34  C   UNL A   1      39.047  32.865  30.892  1.00  0.00     0.074 A 
ATOM     35  C   UNL A   1      38.386  30.896  29.560  1.00  0.00     0.049 A 
ATOM     36  N   UNL A   1      40.261  32.529  31.251  1.00  0.00    -0.248 NA
ATOM     37  C   UNL A   1      38.605  34.170  31.410  1.00  0.00     0.031 C 
ATOM     38  C   UNL A   1      37.512  30.040  28.760  1.00  0.00     0.029 A 
ATOM     39  N   UNL A   1      39.549  30.177  29.682  1.00  0.00    -0.354 N 
ATOM     40  C   UNL A   1      40.723  33.574  32.042  1.00  0.00     0.074 A 
ATOM     41  C   UNL A   1      39.674  34.570  32.083  1.00  0.00     0.031 C 
ATOM     42  C   UNL A   1      38.173  28.906  28.462  1.00  0.00     0.029 A 
ATOM     43  C   UNL A   1      39.519  28.970  29.029  1.00  0.00     0.049 A 
ATOM     44  H   UNL A   1      40.330  30.497  30.189  1.00  0.00     0.167 HD
ATOM     45  C   UNL A   1      41.909  33.695  32.686  1.00  0.00     0.031 A 
ATOM     46  C   UNL A   1      40.473  28.029  28.896  1.00  0.00     0.031 A 
ATOM     47  C   UNL A   1      42.970  32.725  32.633  1.00  0.00     0.049 A 
ATOM     48  C   UNL A   1      41.813  28.223  29.554  1.00  0.00     0.074 A 
ATOM     49  C   UNL A   1      44.211  32.769  33.245  1.00  0.00     0.029 A 
ATOM     50  N   UNL A   1      42.916  31.538  31.923  1.00  0.00    -0.354 N 
ATOM     51  N   UNL A   1      42.230  29.209  30.310  1.00  0.00    -0.248 NA
ATOM     52  C   UNL A   1      42.812  27.164  29.344  1.00  0.00     0.031 C 
ATOM     53  C   UNL A   1      44.924  31.625  32.869  1.00  0.00     0.029 A 
ATOM     54  C   UNL A   1      44.108  30.849  32.063  1.00  0.00     0.049 A 
ATOM     55  H   UNL A   1      42.144  31.230  31.395  1.00  0.00     0.167 HD
ATOM     56  C   UNL A   1      43.526  28.877  30.686  1.00  0.00     0.074 A 
ATOM     57  C   UNL A   1      43.823  27.594  30.086  1.00  0.00     0.031 C 
ATOM     58  C   UNL A   1      44.393  29.574  31.461  1.00  0.00     0.031 A 
BRANCH  45  59
ATOM     59  C   UNL A   1      42.128  34.943  33.492  1.00  0.00    -0.014 A 
ATOM     60  C   UNL A   1      41.604  35.066  34.788  1.00  0.00     0.009 A 
ATOM     61  C   UNL A   1      42.895  35.993  32.965  1.00  0.00     0.009 A 
ATOM     62  C   UNL A   1      41.819  36.230  35.529  1.00  0.00     0.001 A 
ATOM     63  C   UNL A   1      43.126  37.147  33.716  1.00  0.00     0.001 A 
ATOM     64  C   UNL A   1      42.582  37.267  34.994  1.00  0.00     0.000 A 
ENDBRANCH  45  59
BRANCH  46  65
ATOM     65  C   UNL A   1      40.210  26.814  28.084  1.00  0.00    -0.014 A 
ATOM     66  C   UNL A   1      39.528  25.718  28.634  1.00  0.00     0.009 A 
ATOM     67  C   UNL A   1      40.677  26.733  26.763  1.00  0.00     0.009 A 
ATOM     68  C   UNL A   1      39.343  24.554  27.885  1.00  0.00     0.001 A 
ATOM     69  C   UNL A   1      40.468  25.578  26.009  1.00  0.00     0.001 A 
ATOM     70  C   UNL A   1      39.811  24.486  26.573  1.00  0.00     0.000 A 
ENDBRANCH  46  65
BRANCH  58  71
ATOM     71  C   UNL A   1      45.732  28.948  31.729  1.00  0.00    -0.014 A 
ATOM     72  C   UNL A   1      45.975  28.226  32.906  1.00  0.00     0.009 A 
ATOM     73  C   UNL A   1      46.755  29.058  30.773  1.00  0.00     0.009 A 
ATOM     74  C   UNL A   1      47.228  27.652  33.136  1.00  0.00     0.001 A 
ATOM     75  C   UNL A   1      47.998  28.464  30.995  1.00  0.00     0.001 A 
ATOM     76  C   UNL A   1      48.236  27.769  32.179  1.00  0.00     0.000 A 
ENDBRANCH  58  71
ENDBRANCH  32  33
ENDBRANCH  25  27
ENDBRANCH  24  25
ENDBRANCH  23  24
ENDBRANCH  22  23
ENDBRANCH  21  22
ENDBRANCH  20  21
ENDBRANCH   1  20
TORSDOF 20
ENDMDL
MODEL 2
REMARK VINA RESULT:      -8.0      0.933      6.061
REMARK SMILES O=C(/C=C/c1ccc(O)c(O)c1)OCCOCCOCCOC(=O)c1ccc(-c2c3nc(c(-c4ccccc4)c4ccc([nH]4)c(-c4ccccc4)c4nc(c(-c5ccccc5)c5ccc2[nH]5)C=C4)C=C3)cc1
REMARK SMILES IDX 17 1 16 2 15 3 14 4 13 5 2 6 1 7 3 8 4 9 5 10 6 11 12 12
REMARK SMILES IDX 7 13 10 14 8 15 11 16 9 18 18 20 19 21 20 22 21 23 22 24
REMARK SMILES IDX 23 25 24 26 25 27 26 28 72 29 27 30 71 31 28 32 29 33 30 34
REMARK SMILES IDX 65 35 31 36 70 37 64 38 66 39 32 40 69 41 63 42 62 43 33 45
REMARK SMILES IDX 55 46 40 47 54 48 41 49 44 50 53 51 67 52 42 53 43 54 52 56
REMARK SMILES IDX 68 57 45 58 34 59 35 60 39 61 36 62 38 63 37 64 56 65 57 66
REMARK SMILES IDX 61 67 58 68 60 69 59 70 46 71 47 72 51 73 48 74 50 75 49 76
REMARK H PARENT 11 17 9 19 66 44 44 55
REMARK Flexibility Score: inf
ROOT
ATOM      1  C   UNL A   1      36.081  34.050  35.075  1.00  0.00     0.188 C 
ENDROOT
BRANCH   1   2
ATOM      2  O   UNL A   1      36.557  32.742  35.324  1.00  0.00    -0.376 OA
BRANCH   2   3
ATOM      3  C   UNL A   1      37.938  32.443  35.147  1.00  0.00     0.202 C 
BRANCH   3   4
ATOM      4  C   UNL A   1      38.560  31.140  35.646  1.00  0.00     0.261 C 
BRANCH   4   5
ATOM      5  O   UNL A   1      39.915  30.726  35.315  1.00  0.00    -0.460 OA
BRANCH   5   6
ATOM      6  C   UNL A   1      40.467  29.688  34.670  1.00  0.00     0.330 C 
ATOM      7  O   UNL A   1      40.269  29.517  33.470  1.00  0.00    -0.247 OA
BRANCH   6   8
ATOM      8  C   UNL A   1      41.278  28.709  35.385  1.00  0.00     0.094 C 
ATOM      9  C   UNL A   1      41.999  27.768  34.766  1.00  0.00     0.016 C 
BRANCH   9  10
ATOM     10  C   UNL A   1      42.741  26.775  35.543  1.00  0.00    -0.021 A 
ATOM     11  C   UNL A   1      43.484  27.168  36.667  1.00  0.00     0.012 A 
ATOM     12  C   UNL A   1      42.720  25.430  35.161  1.00  0.00     0.058 A 
ATOM     13  C   UNL A   1      44.182  26.220  37.422  1.00  0.00     0.051 A 
ATOM     14  C   UNL A   1      43.415  24.498  35.916  1.00  0.00     0.157 A 
ATOM     15  C   UNL A   1      44.134  24.884  37.044  1.00  0.00     0.157 A 
BRANCH  14  16
ATOM     16  O   UNL A   1      43.382  23.183  35.546  1.00  0.00    -0.504 OA
ATOM     17  H   UNL A   1      42.754  22.889  34.915  1.00  0.00     0.293 HD
ENDBRANCH  14  16
BRANCH  15  18
ATOM     18  O   UNL A   1      44.773  23.907  37.754  1.00  0.00    -0.504 OA
ATOM     19  H   UNL A   1      44.412  23.044  37.794  1.00  0.00     0.293 HD
ENDBRANCH  15  18
ENDBRANCH   9  10
ENDBRANCH   6   8
ENDBRANCH   5   6
ENDBRANCH   4   5
ENDBRANCH   3   4
ENDBRANCH   2   3
ENDBRANCH   1   2
BRANCH   1  20
ATOM     20  C   UNL A   1      35.173  34.253  33.855  1.00  0.00     0.188 C 
BRANCH  20  21
ATOM     21  O   UNL A   1      35.151  35.528  33.237  1.00  0.00    -0.376 OA
BRANCH  21  22
ATOM     22  C   UNL A   1      33.877  36.093  32.926  1.00  0.00     0.202 C 
BRANCH  22  23
ATOM     23  C   UNL A   1      33.487  36.281  31.454  1.00  0.00     0.261 C 
BRANCH  23  24
ATOM     24  O   UNL A   1      32.842  35.128  30.877  1.00  0.00    -0.460 OA
BRANCH  24  25
ATOM     25  C   UNL A   1      33.238  34.826  29.618  1.00  0.00     0.338 C 
ATOM     26  O   UNL A   1      32.767  35.243  28.573  1.00  0.00    -0.246 OA
BRANCH  25  27
ATOM     27  C   UNL A   1      34.443  33.978  29.630  1.00  0.00     0.060 A 
ATOM     28  C   UNL A   1      34.476  32.899  30.522  1.00  0.00     0.016 A 
ATOM     29  C   UNL A   1      35.589  34.358  28.930  1.00  0.00     0.016 A 
ATOM     30  C   UNL A   1      35.677  32.229  30.757  1.00  0.00     0.010 A 
ATOM     31  C   UNL A   1      36.795  33.690  29.176  1.00  0.00     0.010 A 
ATOM     32  C   UNL A   1      36.854  32.653  30.122  1.00  0.00    -0.014 A 
BRANCH  32  33
ATOM     33  C   UNL A   1      38.160  32.115  30.577  1.00  0.00     0.031 A 
ATOM     34  C   UNL A   1      38.654  30.808  30.013  1.00  0.00     0.074 A 
ATOM     35  C   UNL A   1      38.927  32.799  31.444  1.00  0.00     0.049 A 
ATOM     36  N   UNL A   1      39.774  30.172  30.252  1.00  0.00    -0.248 NA
ATOM     37  C   UNL A   1      37.772  30.133  29.047  1.00  0.00     0.031 C 
ATOM     38  C   UNL A   1      38.589  34.093  32.035  1.00  0.00     0.029 A 
ATOM     39  N   UNL A   1      40.157  32.495  31.972  1.00  0.00    -0.354 N 
ATOM     40  C   UNL A   1      39.735  29.030  29.461  1.00  0.00     0.074 A 
ATOM     41  C   UNL A   1      38.468  29.042  28.762  1.00  0.00     0.031 C 
ATOM     42  C   UNL A   1      39.593  34.473  32.846  1.00  0.00     0.029 A 
ATOM     43  C   UNL A   1      40.627  33.440  32.849  1.00  0.00     0.049 A 
ATOM     44  H   UNL A   1      40.655  31.677  31.742  1.00  0.00     0.167 HD
ATOM     45  C   UNL A   1      40.671  28.060  29.319  1.00  0.00     0.031 A 
ATOM     46  C   UNL A   1      41.759  33.463  33.579  1.00  0.00     0.031 A 
ATOM     47  C   UNL A   1      41.922  28.022  30.026  1.00  0.00     0.049 A 
ATOM     48  C   UNL A   1      42.747  32.333  33.466  1.00  0.00     0.074 A 
ATOM     49  C   UNL A   1      42.926  27.072  29.954  1.00  0.00     0.029 A 
ATOM     50  N   UNL A   1      42.338  28.975  30.941  1.00  0.00    -0.354 N 
ATOM     51  N   UNL A   1      42.702  31.267  32.703  1.00  0.00    -0.248 NA
ATOM     52  C   UNL A   1      43.947  32.416  34.312  1.00  0.00     0.031 C 
ATOM     53  C   UNL A   1      43.933  27.430  30.858  1.00  0.00     0.029 A 
ATOM     54  C   UNL A   1      43.575  28.626  31.455  1.00  0.00     0.049 A 
ATOM     55  H   UNL A   1      41.829  29.780  31.189  1.00  0.00     0.167 HD
ATOM     56  C   UNL A   1      43.877  30.570  32.958  1.00  0.00     0.074 A 
ATOM     57  C   UNL A   1      44.619  31.338  33.935  1.00  0.00     0.031 C 
ATOM     58  C   UNL A   1      44.303  29.398  32.428  1.00  0.00     0.031 A 
BRANCH  45  59
ATOM     59  C   UNL A   1      40.359  26.940  28.369  1.00  0.00    -0.014 A 
ATOM     60  C   UNL A   1      39.554  25.861  28.765  1.00  0.00     0.009 A 
ATOM     61  C   UNL A   1      40.846  26.979  27.054  1.00  0.00     0.009 A 
ATOM     62  C   UNL A   1      39.267  24.828  27.870  1.00  0.00     0.001 A 
ATOM     63  C   UNL A   1      40.540  25.956  26.155  1.00  0.00     0.001 A 
ATOM     64  C   UNL A   1      39.757  24.879  26.566  1.00  0.00     0.000 A 
ENDBRANCH  45  59
BRANCH  46  65
ATOM     65  C   UNL A   1      42.019  34.591  34.510  1.00  0.00    -0.014 A 
ATOM     66  C   UNL A   1      41.647  34.507  35.860  1.00  0.00     0.009 A 
ATOM     67  C   UNL A   1      42.607  35.774  34.037  1.00  0.00     0.009 A 
ATOM     68  C   UNL A   1      41.835  35.597  36.713  1.00  0.00     0.001 A 
ATOM     69  C   UNL A   1      42.817  36.852  34.898  1.00  0.00     0.001 A 
ATOM     70  C   UNL A   1      42.421  36.766  36.232  1.00  0.00     0.000 A 
ENDBRANCH  46  65
BRANCH  58  71
ATOM     71  C   UNL A   1      45.646  28.890  32.870  1.00  0.00    -0.014 A 
ATOM     72  C   UNL A   1      45.770  28.015  33.960  1.00  0.00     0.009 A 
ATOM     73  C   UNL A   1      46.800  29.269  32.165  1.00  0.00     0.009 A 
ATOM     74  C   UNL A   1      47.029  27.554  34.354  1.00  0.00     0.001 A 
ATOM     75  C   UNL A   1      48.053  28.789  32.548  1.00  0.00     0.001 A 
ATOM     76  C   UNL A   1      48.167  27.939  33.647  1.00  0.00     0.000 A 
ENDBRANCH  58  71
ENDBRANCH  32  33
ENDBRANCH  25  27
ENDBRANCH  24  25
ENDBRANCH  23  24
ENDBRANCH  22  23
ENDBRANCH  21  22
ENDBRANCH  20  21
ENDBRANCH   1  20
TORSDOF 20
ENDMDL
MODEL 3
REMARK VINA RESULT:      -8.0      4.949     11.234
REMARK SMILES O=C(/C=C/c1ccc(O)c(O)c1)OCCOCCOCCOC(=O)c1ccc(-c2c3nc(c(-c4ccccc4)c4ccc([nH]4)c(-c4ccccc4)c4nc(c(-c5ccccc5)c5ccc2[nH]5)C=C4)C=C3)cc1
REMARK SMILES IDX 17 1 16 2 15 3 14 4 13 5 2 6 1 7 3 8 4 9 5 10 6 11 12 12
REMARK SMILES IDX 7 13 10 14 8 15 11 16 9 18 18 20 19 21 20 22 21 23 22 24
REMARK SMILES IDX 23 25 24 26 25 27 26 28 72 29 27 30 71 31 28 32 29 33 30 34
REMARK SMILES IDX 65 35 31 36 70 37 64 38 66 39 32 40 69 41 63 42 62 43 33 45
REMARK SMILES IDX 55 46 40 47 54 48 41 49 44 50 53 51 67 52 42 53 43 54 52 56
REMARK SMILES IDX 68 57 45 58 34 59 35 60 39 61 36 62 38 63 37 64 56 65 57 66
REMARK SMILES IDX 61 67 58 68 60 69 59 70 46 71 47 72 51 73 48 74 50 75 49 76
REMARK H PARENT 11 17 9 19 66 44 44 55
REMARK Flexibility Score: inf
ROOT
ATOM      1  C   UNL A   1      42.589  18.841  26.612  1.00  0.00     0.188 C 
ENDROOT
BRANCH   1   2
ATOM      2  O   UNL A   1      42.138  20.094  27.087  1.00  0.00    -0.376 OA
BRANCH   2   3
ATOM      3  C   UNL A   1      41.306  20.906  26.266  1.00  0.00     0.202 C 
BRANCH   3   4
ATOM      4  C   UNL A   1      40.104  21.667  26.823  1.00  0.00     0.261 C 
BRANCH   4   5
ATOM      5  O   UNL A   1      39.443  22.748  26.107  1.00  0.00    -0.460 OA
BRANCH   5   6
ATOM      6  C   UNL A   1      38.438  23.596  26.370  1.00  0.00     0.330 C 
ATOM      7  O   UNL A   1      38.552  24.453  27.243  1.00  0.00    -0.247 OA
BRANCH   6   8
ATOM      8  C   UNL A   1      37.168  23.493  25.662  1.00  0.00     0.094 C 
ATOM      9  C   UNL A   1      36.591  22.322  25.368  1.00  0.00     0.016 C 
BRANCH   9  10
ATOM     10  C   UNL A   1      35.348  22.285  24.598  1.00  0.00    -0.021 A 
ATOM     11  C   UNL A   1      35.146  23.177  23.534  1.00  0.00     0.012 A 
ATOM     12  C   UNL A   1      34.349  21.364  24.929  1.00  0.00     0.058 A 
ATOM     13  C   UNL A   1      33.966  23.134  22.785  1.00  0.00     0.051 A 
ATOM     14  C   UNL A   1      33.182  21.328  24.181  1.00  0.00     0.157 A 
ATOM     15  C   UNL A   1      32.992  22.198  23.111  1.00  0.00     0.157 A 
BRANCH  14  16
ATOM     16  O   UNL A   1      32.213  20.419  24.500  1.00  0.00    -0.504 OA
ATOM     17  H   UNL A   1      32.369  19.784  25.171  1.00  0.00     0.293 HD
ENDBRANCH  14  16
BRANCH  15  18
ATOM     18  O   UNL A   1      31.828  22.089  22.402  1.00  0.00    -0.504 OA
ATOM     19  H   UNL A   1      31.652  21.313  21.907  1.00  0.00     0.293 HD
ENDBRANCH  15  18
ENDBRANCH   9  10
ENDBRANCH   6   8
ENDBRANCH   5   6
ENDBRANCH   4   5
ENDBRANCH   3   4
ENDBRANCH   2   3
ENDBRANCH   1   2
BRANCH   1  20
ATOM     20  C   UNL A   1      43.430  18.830  25.329  1.00  0.00     0.188 C 
BRANCH  20  21
ATOM     21  O   UNL A   1      44.741  19.366  25.378  1.00  0.00    -0.376 OA
BRANCH  21  22
ATOM     22  C   UNL A   1      44.972  20.614  24.726  1.00  0.00     0.202 C 
BRANCH  22  23
ATOM     23  C   UNL A   1      44.968  21.902  25.561  1.00  0.00     0.261 C 
BRANCH  23  24
ATOM     24  O   UNL A   1      44.055  22.904  25.069  1.00  0.00    -0.460 OA
BRANCH  24  25
ATOM     25  C   UNL A   1      44.535  24.170  25.091  1.00  0.00     0.338 C 
ATOM     26  O   UNL A   1      45.511  24.603  24.501  1.00  0.00    -0.246 OA
BRANCH  25  27
ATOM     27  C   UNL A   1      43.646  25.061  25.856  1.00  0.00     0.060 A 
ATOM     28  C   UNL A   1      44.067  26.378  26.076  1.00  0.00     0.016 A 
ATOM     29  C   UNL A   1      42.524  24.555  26.515  1.00  0.00     0.016 A 
ATOM     30  C   UNL A   1      43.396  27.178  27.000  1.00  0.00     0.010 A 
ATOM     31  C   UNL A   1      41.858  25.357  27.450  1.00  0.00     0.010 A 
ATOM     32  C   UNL A   1      42.318  26.655  27.729  1.00  0.00    -0.014 A 
BRANCH  32  33
ATOM     33  C   UNL A   1      41.787  27.414  28.889  1.00  0.00     0.031 A 
ATOM     34  C   UNL A   1      42.489  27.312  30.219  1.00  0.00     0.074 A 
ATOM     35  C   UNL A   1      40.724  28.227  28.757  1.00  0.00     0.049 A 
ATOM     36  N   UNL A   1      42.211  27.908  31.351  1.00  0.00    -0.248 NA
ATOM     37  C   UNL A   1      43.662  26.425  30.276  1.00  0.00     0.031 C 
ATOM     38  C   UNL A   1      39.978  28.451  27.520  1.00  0.00     0.029 A 
ATOM     39  N   UNL A   1      40.094  29.021  29.683  1.00  0.00    -0.354 N 
ATOM     40  C   UNL A   1      43.178  27.476  32.252  1.00  0.00     0.074 A 
ATOM     41  C   UNL A   1      44.029  26.543  31.545  1.00  0.00     0.031 C 
ATOM     42  C   UNL A   1      38.988  29.328  27.765  1.00  0.00     0.029 A 
ATOM     43  C   UNL A   1      39.018  29.705  29.178  1.00  0.00     0.049 A 
ATOM     44  H   UNL A   1      40.388  29.092  30.621  1.00  0.00     0.167 HD
ATOM     45  C   UNL A   1      43.352  27.829  33.549  1.00  0.00     0.031 A 
ATOM     46  C   UNL A   1      38.149  30.534  29.788  1.00  0.00     0.031 A 
ATOM     47  C   UNL A   1      42.499  28.734  34.270  1.00  0.00     0.049 A 
ATOM     48  C   UNL A   1      38.315  30.848  31.251  1.00  0.00     0.074 A 
ATOM     49  C   UNL A   1      42.592  29.141  35.590  1.00  0.00     0.029 A 
ATOM     50  N   UNL A   1      41.392  29.370  33.734  1.00  0.00    -0.354 N 
ATOM     51  N   UNL A   1      39.242  30.444  32.085  1.00  0.00    -0.248 NA
ATOM     52  C   UNL A   1      37.314  31.742  31.853  1.00  0.00     0.031 C 
ATOM     53  C   UNL A   1      41.515  29.992  35.863  1.00  0.00     0.029 A 
ATOM     54  C   UNL A   1      40.782  30.151  34.700  1.00  0.00     0.049 A 
ATOM     55  H   UNL A   1      41.085  29.279  32.802  1.00  0.00     0.167 HD
ATOM     56  C   UNL A   1      38.951  31.053  33.299  1.00  0.00     0.074 A 
ATOM     57  C   UNL A   1      37.771  31.864  33.092  1.00  0.00     0.031 C 
ATOM     58  C   UNL A   1      39.606  30.952  34.482  1.00  0.00     0.031 A 
BRANCH  45  59
ATOM     59  C   UNL A   1      44.507  27.208  34.279  1.00  0.00    -0.014 A 
ATOM     60  C   UNL A   1      45.804  27.730  34.154  1.00  0.00     0.009 A 
ATOM     61  C   UNL A   1      44.294  26.111  35.127  1.00  0.00     0.009 A 
ATOM     62  C   UNL A   1      46.870  27.147  34.842  1.00  0.00     0.001 A 
ATOM     63  C   UNL A   1      45.357  25.543  35.830  1.00  0.00     0.001 A 
ATOM     64  C   UNL A   1      46.644  26.057  35.682  1.00  0.00     0.000 A 
ENDBRANCH  45  59
BRANCH  46  65
ATOM     65  C   UNL A   1      37.019  31.119  29.023  1.00  0.00    -0.014 A 
ATOM     66  C   UNL A   1      37.024  32.474  28.660  1.00  0.00     0.009 A 
ATOM     67  C   UNL A   1      35.908  30.329  28.689  1.00  0.00     0.009 A 
ATOM     68  C   UNL A   1      35.927  33.033  28.000  1.00  0.00     0.001 A 
ATOM     69  C   UNL A   1      34.825  30.883  28.006  1.00  0.00     0.001 A 
ATOM     70  C   UNL A   1      34.831  32.237  27.671  1.00  0.00     0.000 A 
ENDBRANCH  46  65
BRANCH  58  71
ATOM     71  C   UNL A   1      39.078  31.760  35.633  1.00  0.00    -0.014 A 
ATOM     72  C   UNL A   1      38.151  31.219  36.536  1.00  0.00     0.009 A 
ATOM     73  C   UNL A   1      39.540  33.070  35.833  1.00  0.00     0.009 A 
ATOM     74  C   UNL A   1      37.673  31.987  37.601  1.00  0.00     0.001 A 
ATOM     75  C   UNL A   1      39.078  33.827  36.911  1.00  0.00     0.001 A 
ATOM     76  C   UNL A   1      38.139  33.288  37.788  1.00  0.00     0.000 A 
ENDBRANCH  58  71
ENDBRANCH  32  33
ENDBRANCH  25  27
ENDBRANCH  24  25
ENDBRANCH  23  24
ENDBRANCH  22  23
ENDBRANCH  21  22
ENDBRANCH  20  21
ENDBRANCH   1  20
TORSDOF 20
ENDMDL
