MODEL 1
REMARK VINA RESULT:     -10.4      0.000      0.000
REMARK SMILES C[C@@H](C(=O)OCCOCCOCCOC(=O)c1ccc(-c2c3nc(c(-c4ccccc4)c4ccc([nH]4)c(-c4ccccc4)c4nc(c(-c5ccccc5)c5ccc2[nH]5)C=C4)C=C3)cc1)c1ccc(C[C@H]2CCCC2=O)c(-c2ccccc2)c1
REMARK SMILES IDX 9 1 8 2 7 3 6 4 5 5 3 6 4 7 2 8 1 9 65 10 66 11 83 12 67 13
REMARK SMILES IDX 76 14 68 15 77 16 78 17 82 18 79 19 81 20 80 21 69 22 70 23
REMARK SMILES IDX 71 24 74 25 72 26 73 27 75 28 10 29 11 30 12 31 13 32 14 33
REMARK SMILES IDX 15 34 16 35 17 36 18 37 64 38 19 39 63 40 20 41 21 42 22 43
REMARK SMILES IDX 57 44 23 45 62 46 56 47 58 48 24 49 61 50 55 51 54 52 25 54
REMARK SMILES IDX 47 55 32 56 46 57 33 58 36 59 45 60 59 61 34 62 35 63 44 65
REMARK SMILES IDX 60 66 37 67 26 68 27 69 31 70 28 71 30 72 29 73 48 74 49 75
REMARK SMILES IDX 53 76 50 77 52 78 51 79 38 80 39 81 43 82 40 83 42 84 41 85
REMARK H PARENT 58 53 36 64
REMARK Flexibility Score: inf
ROOT
ATOM      1  C   UNL A   1      31.601  28.834  23.565  1.00  0.00     0.188 C 
ENDROOT
BRANCH   1   2
ATOM      2  O   UNL A   1      32.999  28.814  23.357  1.00  0.00    -0.376 OA
BRANCH   2   3
ATOM      3  C   UNL A   1      33.757  27.758  23.940  1.00  0.00     0.202 C 
BRANCH   3   4
ATOM      4  C   UNL A   1      33.960  27.666  25.466  1.00  0.00     0.261 C 
BRANCH   4   5
ATOM      5  O   UNL A   1      33.510  26.436  26.072  1.00  0.00    -0.463 OA
BRANCH   5   6
ATOM      6  C   UNL A   1      32.169  26.317  26.276  1.00  0.00     0.313 C 
ATOM      7  O   UNL A   1      31.567  26.900  27.172  1.00  0.00    -0.252 OA
BRANCH   6   8
ATOM      8  C   UNL A   1      31.437  25.467  25.220  1.00  0.00     0.126 C 
ATOM      9  C   UNL A   1      29.903  25.535  25.244  1.00  0.00     0.025 C 
BRANCH   8  10
ATOM     10  C   UNL A   1      31.963  24.032  25.093  1.00  0.00    -0.033 A 
ATOM     11  C   UNL A   1      31.121  22.923  25.072  1.00  0.00     0.005 A 
ATOM     12  C   UNL A   1      33.347  23.782  25.068  1.00  0.00     0.013 A 
ATOM     13  C   UNL A   1      31.626  21.628  25.019  1.00  0.00     0.004 A 
ATOM     14  C   UNL A   1      33.892  22.472  25.134  1.00  0.00    -0.015 A 
ATOM     15  C   UNL A   1      32.999  21.376  25.146  1.00  0.00    -0.039 A 
BRANCH  14  16
ATOM     16  C   UNL A   1      35.356  22.331  25.291  1.00  0.00    -0.018 A 
ATOM     17  C   UNL A   1      36.120  23.222  26.061  1.00  0.00     0.009 A 
ATOM     18  C   UNL A   1      36.029  21.281  24.641  1.00  0.00     0.009 A 
ATOM     19  C   UNL A   1      37.512  23.099  26.130  1.00  0.00     0.001 A 
ATOM     20  C   UNL A   1      37.416  21.146  24.724  1.00  0.00     0.001 A 
ATOM     21  C   UNL A   1      38.159  22.064  25.458  1.00  0.00     0.000 A 
ENDBRANCH  14  16
BRANCH  15  22
ATOM     22  C   UNL A   1      33.402  19.935  25.406  1.00  0.00     0.047 C 
BRANCH  22  23
ATOM     23  C   UNL A   1      32.525  18.851  24.748  1.00  0.00     0.060 C 
ATOM     24  C   UNL A   1      32.644  18.748  23.223  1.00  0.00     0.012 C 
ATOM     25  C   UNL A   1      32.827  17.425  25.166  1.00  0.00     0.136 C 
ATOM     26  C   UNL A   1      33.580  17.577  22.945  1.00  0.00     0.009 C 
ATOM     27  C   UNL A   1      33.279  16.558  24.027  1.00  0.00     0.076 C 
ATOM     28  O   UNL A   1      32.708  16.986  26.302  1.00  0.00    -0.299 OA
ENDBRANCH  22  23
ENDBRANCH  15  22
ENDBRANCH   8  10
ENDBRANCH   6   8
ENDBRANCH   5   6
ENDBRANCH   4   5
ENDBRANCH   3   4
ENDBRANCH   2   3
ENDBRANCH   1   2
BRANCH   1  29
ATOM     29  C   UNL A   1      31.014  29.756  24.641  1.00  0.00     0.188 C 
BRANCH  29  30
ATOM     30  O   UNL A   1      31.692  29.876  25.865  1.00  0.00    -0.376 OA
BRANCH  30  31
ATOM     31  C   UNL A   1      31.778  31.132  26.510  1.00  0.00     0.202 C 
BRANCH  31  32
ATOM     32  C   UNL A   1      33.011  31.682  27.260  1.00  0.00     0.261 C 
BRANCH  32  33
ATOM     33  O   UNL A   1      33.982  30.763  27.771  1.00  0.00    -0.460 OA
BRANCH  33  34
ATOM     34  C   UNL A   1      34.774  31.223  28.767  1.00  0.00     0.338 C 
ATOM     35  O   UNL A   1      34.478  32.036  29.632  1.00  0.00    -0.246 OA
BRANCH  34  36
ATOM     36  C   UNL A   1      36.028  30.443  28.771  1.00  0.00     0.060 A 
ATOM     37  C   UNL A   1      36.451  29.823  29.956  1.00  0.00     0.016 A 
ATOM     38  C   UNL A   1      36.801  30.352  27.613  1.00  0.00     0.016 A 
ATOM     39  C   UNL A   1      37.665  29.134  29.992  1.00  0.00     0.010 A 
ATOM     40  C   UNL A   1      38.029  29.687  27.659  1.00  0.00     0.010 A 
ATOM     41  C   UNL A   1      38.483  29.103  28.855  1.00  0.00    -0.014 A 
BRANCH  41  42
ATOM     42  C   UNL A   1      39.876  28.601  28.947  1.00  0.00     0.031 A 
ATOM     43  C   UNL A   1      40.948  29.517  29.457  1.00  0.00     0.074 A 
ATOM     44  C   UNL A   1      40.205  27.368  28.528  1.00  0.00     0.049 A 
ATOM     45  N   UNL A   1      42.235  29.304  29.562  1.00  0.00    -0.248 NA
ATOM     46  C   UNL A   1      40.520  30.865  29.860  1.00  0.00     0.031 C 
ATOM     47  C   UNL A   1      39.275  26.412  27.945  1.00  0.00     0.029 A 
ATOM     48  N   UNL A   1      41.417  26.716  28.517  1.00  0.00    -0.354 N 
ATOM     49  C   UNL A   1      42.779  30.506  29.991  1.00  0.00     0.074 A 
ATOM     50  C   UNL A   1      41.682  31.441  30.130  1.00  0.00     0.031 C 
ATOM     51  C   UNL A   1      39.948  25.287  27.653  1.00  0.00     0.029 A 
ATOM     52  C   UNL A   1      41.344  25.431  28.037  1.00  0.00     0.049 A 
ATOM     53  H   UNL A   1      42.255  27.131  28.823  1.00  0.00     0.167 HD
ATOM     54  C   UNL A   1      44.078  30.811  30.223  1.00  0.00     0.031 A 
ATOM     55  C   UNL A   1      42.290  24.476  27.922  1.00  0.00     0.031 A 
ATOM     56  C   UNL A   1      45.172  29.891  30.063  1.00  0.00     0.049 A 
ATOM     57  C   UNL A   1      43.720  24.824  28.244  1.00  0.00     0.074 A 
ATOM     58  C   UNL A   1      46.519  30.109  30.299  1.00  0.00     0.029 A 
ATOM     59  N   UNL A   1      45.053  28.585  29.617  1.00  0.00    -0.354 N 
ATOM     60  N   UNL A   1      44.215  25.948  28.699  1.00  0.00    -0.248 NA
ATOM     61  C   UNL A   1      44.726  23.780  27.999  1.00  0.00     0.031 C 
ATOM     62  C   UNL A   1      47.220  28.955  29.940  1.00  0.00     0.029 A 
ATOM     63  C   UNL A   1      46.304  27.992  29.550  1.00  0.00     0.049 A 
ATOM     64  H   UNL A   1      44.206  28.143  29.381  1.00  0.00     0.167 HD
ATOM     65  C   UNL A   1      45.586  25.749  28.789  1.00  0.00     0.074 A 
ATOM     66  C   UNL A   1      45.840  24.381  28.392  1.00  0.00     0.031 C 
ATOM     67  C   UNL A   1      46.551  26.631  29.147  1.00  0.00     0.031 A 
BRANCH  54  68
ATOM     68  C   UNL A   1      44.387  32.226  30.622  1.00  0.00    -0.014 A 
ATOM     69  C   UNL A   1      44.374  32.630  31.966  1.00  0.00     0.009 A 
ATOM     70  C   UNL A   1      44.724  33.165  29.633  1.00  0.00     0.009 A 
ATOM     71  C   UNL A   1      44.654  33.954  32.307  1.00  0.00     0.001 A 
ATOM     72  C   UNL A   1      45.037  34.479  29.980  1.00  0.00     0.001 A 
ATOM     73  C   UNL A   1      44.991  34.875  31.315  1.00  0.00     0.000 A 
ENDBRANCH  54  68
BRANCH  55  74
ATOM     74  C   UNL A   1      41.937  23.089  27.499  1.00  0.00    -0.014 A 
ATOM     75  C   UNL A   1      42.080  22.705  26.153  1.00  0.00     0.009 A 
ATOM     76  C   UNL A   1      41.435  22.150  28.411  1.00  0.00     0.009 A 
ATOM     77  C   UNL A   1      41.703  21.429  25.729  1.00  0.00     0.001 A 
ATOM     78  C   UNL A   1      41.100  20.860  27.993  1.00  0.00     0.001 A 
ATOM     79  C   UNL A   1      41.221  20.503  26.652  1.00  0.00     0.000 A 
ENDBRANCH  55  74
BRANCH  67  80
ATOM     80  C   UNL A   1      47.973  26.137  29.146  1.00  0.00    -0.014 A 
ATOM     81  C   UNL A   1      48.620  25.765  30.336  1.00  0.00     0.009 A 
ATOM     82  C   UNL A   1      48.664  26.010  27.931  1.00  0.00     0.009 A 
ATOM     83  C   UNL A   1      49.941  25.314  30.311  1.00  0.00     0.001 A 
ATOM     84  C   UNL A   1      49.972  25.528  27.906  1.00  0.00     0.001 A 
ATOM     85  C   UNL A   1      50.614  25.191  29.096  1.00  0.00     0.000 A 
ENDBRANCH  67  80
ENDBRANCH  41  42
ENDBRANCH  34  36
ENDBRANCH  33  34
ENDBRANCH  32  33
ENDBRANCH  31  32
ENDBRANCH  30  31
ENDBRANCH  29  30
ENDBRANCH   1  29
TORSDOF 21
ENDMDL
MODEL 2
REMARK VINA RESULT:      -9.8      1.948      3.589
REMARK SMILES C[C@@H](C(=O)OCCOCCOCCOC(=O)c1ccc(-c2c3nc(c(-c4ccccc4)c4ccc([nH]4)c(-c4ccccc4)c4nc(c(-c5ccccc5)c5ccc2[nH]5)C=C4)C=C3)cc1)c1ccc(C[C@H]2CCCC2=O)c(-c2ccccc2)c1
REMARK SMILES IDX 9 1 8 2 7 3 6 4 5 5 3 6 4 7 2 8 1 9 65 10 66 11 83 12 67 13
REMARK SMILES IDX 76 14 68 15 77 16 78 17 82 18 79 19 81 20 80 21 69 22 70 23
REMARK SMILES IDX 71 24 74 25 72 26 73 27 75 28 10 29 11 30 12 31 13 32 14 33
REMARK SMILES IDX 15 34 16 35 17 36 18 37 64 38 19 39 63 40 20 41 21 42 22 43
REMARK SMILES IDX 57 44 23 45 62 46 56 47 58 48 24 49 61 50 55 51 54 52 25 54
REMARK SMILES IDX 47 55 32 56 46 57 33 58 36 59 45 60 59 61 34 62 35 63 44 65
REMARK SMILES IDX 60 66 37 67 26 68 27 69 31 70 28 71 30 72 29 73 48 74 49 75
REMARK SMILES IDX 53 76 50 77 52 78 51 79 38 80 39 81 43 82 40 83 42 84 41 85
REMARK H PARENT 58 53 36 64
REMARK Flexibility Score: inf
ROOT
ATOM      1  C   UNL A   1      35.286  33.277  28.040  1.00  0.00     0.188 C 
ENDROOT
BRANCH   1   2
ATOM      2  O   UNL A   1      33.947  32.839  28.160  1.00  0.00    -0.376 OA
BRANCH   2   3
ATOM      3  C   UNL A   1      33.615  31.535  27.693  1.00  0.00     0.202 C 
BRANCH   3   4
ATOM      4  C   UNL A   1      32.243  31.237  27.056  1.00  0.00     0.261 C 
BRANCH   4   5
ATOM      5  O   UNL A   1      32.011  29.854  26.714  1.00  0.00    -0.463 OA
BRANCH   5   6
ATOM      6  C   UNL A   1      31.855  29.576  25.391  1.00  0.00     0.313 C 
ATOM      7  O   UNL A   1      30.945  30.035  24.706  1.00  0.00    -0.252 OA
BRANCH   6   8
ATOM      8  C   UNL A   1      32.977  28.713  24.783  1.00  0.00     0.126 C 
ATOM      9  C   UNL A   1      33.352  29.021  23.327  1.00  0.00     0.025 C 
BRANCH   8  10
ATOM     10  C   UNL A   1      32.830  27.211  25.051  1.00  0.00    -0.033 A 
ATOM     11  C   UNL A   1      31.726  26.669  25.705  1.00  0.00     0.005 A 
ATOM     12  C   UNL A   1      33.864  26.322  24.704  1.00  0.00     0.013 A 
ATOM     13  C   UNL A   1      31.646  25.311  25.992  1.00  0.00     0.004 A 
ATOM     14  C   UNL A   1      33.863  24.954  25.089  1.00  0.00    -0.015 A 
ATOM     15  C   UNL A   1      32.737  24.456  25.782  1.00  0.00    -0.039 A 
BRANCH  14  16
ATOM     16  C   UNL A   1      35.082  24.156  24.836  1.00  0.00    -0.018 A 
ATOM     17  C   UNL A   1      35.329  23.529  23.605  1.00  0.00     0.009 A 
ATOM     18  C   UNL A   1      36.035  23.995  25.857  1.00  0.00     0.009 A 
ATOM     19  C   UNL A   1      36.459  22.723  23.423  1.00  0.00     0.001 A 
ATOM     20  C   UNL A   1      37.172  23.207  25.672  1.00  0.00     0.001 A 
ATOM     21  C   UNL A   1      37.377  22.559  24.459  1.00  0.00     0.000 A 
ENDBRANCH  14  16
BRANCH  15  22
ATOM     22  C   UNL A   1      32.657  23.084  26.430  1.00  0.00     0.047 C 
BRANCH  22  23
ATOM     23  C   UNL A   1      31.852  22.014  25.667  1.00  0.00     0.060 C 
ATOM     24  C   UNL A   1      31.240  22.477  24.339  1.00  0.00     0.012 C 
ATOM     25  C   UNL A   1      32.641  20.798  25.220  1.00  0.00     0.136 C 
ATOM     26  C   UNL A   1      32.168  21.973  23.240  1.00  0.00     0.009 C 
ATOM     27  C   UNL A   1      32.675  20.629  23.730  1.00  0.00     0.076 C 
ATOM     28  O   UNL A   1      33.191  20.005  25.971  1.00  0.00    -0.299 OA
ENDBRANCH  22  23
ENDBRANCH  15  22
ENDBRANCH   8  10
ENDBRANCH   6   8
ENDBRANCH   5   6
ENDBRANCH   4   5
ENDBRANCH   3   4
ENDBRANCH   2   3
ENDBRANCH   1   2
BRANCH   1  29
ATOM     29  C   UNL A   1      36.232  33.144  29.239  1.00  0.00     0.188 C 
BRANCH  29  30
ATOM     30  O   UNL A   1      35.908  33.816  30.428  1.00  0.00    -0.376 OA
BRANCH  30  31
ATOM     31  C   UNL A   1      35.129  33.173  31.418  1.00  0.00     0.202 C 
BRANCH  31  32
ATOM     32  C   UNL A   1      35.670  32.281  32.558  1.00  0.00     0.261 C 
BRANCH  32  33
ATOM     33  O   UNL A   1      36.967  31.693  32.424  1.00  0.00    -0.460 OA
BRANCH  33  34
ATOM     34  C   UNL A   1      37.021  30.506  31.775  1.00  0.00     0.338 C 
ATOM     35  O   UNL A   1      36.077  29.804  31.436  1.00  0.00    -0.246 OA
BRANCH  34  36
ATOM     36  C   UNL A   1      38.416  30.258  31.359  1.00  0.00     0.060 A 
ATOM     37  C   UNL A   1      38.828  30.628  30.070  1.00  0.00     0.016 A 
ATOM     38  C   UNL A   1      39.307  29.631  32.230  1.00  0.00     0.016 A 
ATOM     39  C   UNL A   1      40.126  30.344  29.639  1.00  0.00     0.010 A 
ATOM     40  C   UNL A   1      40.596  29.322  31.788  1.00  0.00     0.010 A 
ATOM     41  C   UNL A   1      41.001  29.647  30.482  1.00  0.00    -0.014 A 
BRANCH  41  42
ATOM     42  C   UNL A   1      42.284  29.117  29.956  1.00  0.00     0.031 A 
ATOM     43  C   UNL A   1      43.523  29.953  30.082  1.00  0.00     0.074 A 
ATOM     44  C   UNL A   1      42.346  27.936  29.319  1.00  0.00     0.049 A 
ATOM     45  N   UNL A   1      44.731  29.710  29.641  1.00  0.00    -0.248 NA
ATOM     46  C   UNL A   1      43.372  31.250  30.757  1.00  0.00     0.031 C 
ATOM     47  C   UNL A   1      41.205  27.068  29.064  1.00  0.00     0.029 A 
ATOM     48  N   UNL A   1      43.413  27.273  28.758  1.00  0.00    -0.354 N 
ATOM     49  C   UNL A   1      45.471  30.847  29.934  1.00  0.00     0.074 A 
ATOM     50  C   UNL A   1      44.578  31.775  30.595  1.00  0.00     0.031 C 
ATOM     51  C   UNL A   1      41.639  25.975  28.416  1.00  0.00     0.029 A 
ATOM     52  C   UNL A   1      43.079  26.053  28.220  1.00  0.00     0.049 A 
ATOM     53  H   UNL A   1      44.326  27.638  28.742  1.00  0.00     0.167 HD
ATOM     54  C   UNL A   1      46.771  31.104  29.656  1.00  0.00     0.031 A 
ATOM     55  C   UNL A   1      43.843  25.104  27.640  1.00  0.00     0.031 A 
ATOM     56  C   UNL A   1      47.655  30.193  28.978  1.00  0.00     0.049 A 
ATOM     57  C   UNL A   1      45.300  25.392  27.395  1.00  0.00     0.074 A 
ATOM     58  C   UNL A   1      48.995  30.362  28.676  1.00  0.00     0.029 A 
ATOM     59  N   UNL A   1      47.291  28.949  28.489  1.00  0.00    -0.354 N 
ATOM     60  N   UNL A   1      46.002  26.449  27.724  1.00  0.00    -0.248 NA
ATOM     61  C   UNL A   1      46.063  24.370  26.664  1.00  0.00     0.031 C 
ATOM     62  C   UNL A   1      49.427  29.248  27.951  1.00  0.00     0.029 A 
ATOM     63  C   UNL A   1      48.375  28.350  27.867  1.00  0.00     0.049 A 
ATOM     64  H   UNL A   1      46.395  28.550  28.569  1.00  0.00     0.167 HD
ATOM     65  C   UNL A   1      47.282  26.221  27.236  1.00  0.00     0.074 A 
ATOM     66  C   UNL A   1      47.276  24.905  26.635  1.00  0.00     0.031 C 
ATOM     67  C   UNL A   1      48.360  27.042  27.264  1.00  0.00     0.031 A 
BRANCH  54  68
ATOM     68  C   UNL A   1      47.297  32.458  30.037  1.00  0.00    -0.014 A 
ATOM     69  C   UNL A   1      47.255  33.540  29.143  1.00  0.00     0.009 A 
ATOM     70  C   UNL A   1      47.821  32.659  31.324  1.00  0.00     0.009 A 
ATOM     71  C   UNL A   1      47.762  34.785  29.520  1.00  0.00     0.001 A 
ATOM     72  C   UNL A   1      48.295  33.913  31.709  1.00  0.00     0.001 A 
ATOM     73  C   UNL A   1      48.275  34.972  30.803  1.00  0.00     0.000 A 
ENDBRANCH  54  68
BRANCH  55  74
ATOM     74  C   UNL A   1      43.269  23.781  27.257  1.00  0.00    -0.014 A 
ATOM     75  C   UNL A   1      42.861  23.548  25.931  1.00  0.00     0.009 A 
ATOM     76  C   UNL A   1      43.098  22.757  28.198  1.00  0.00     0.009 A 
ATOM     77  C   UNL A   1      42.271  22.336  25.566  1.00  0.00     0.001 A 
ATOM     78  C   UNL A   1      42.548  21.528  27.822  1.00  0.00     0.001 A 
ATOM     79  C   UNL A   1      42.123  21.322  26.512  1.00  0.00     0.000 A 
ENDBRANCH  55  74
BRANCH  67  80
ATOM     80  C   UNL A   1      49.632  26.531  26.643  1.00  0.00    -0.014 A 
ATOM     81  C   UNL A   1      50.506  25.689  27.351  1.00  0.00     0.009 A 
ATOM     82  C   UNL A   1      49.945  26.870  25.317  1.00  0.00     0.009 A 
ATOM     83  C   UNL A   1      51.683  25.231  26.756  1.00  0.00     0.001 A 
ATOM     84  C   UNL A   1      51.105  26.384  24.715  1.00  0.00     0.001 A 
ATOM     85  C   UNL A   1      51.979  25.574  25.438  1.00  0.00     0.000 A 
ENDBRANCH  67  80
ENDBRANCH  41  42
ENDBRANCH  34  36
ENDBRANCH  33  34
ENDBRANCH  32  33
ENDBRANCH  31  32
ENDBRANCH  30  31
ENDBRANCH  29  30
ENDBRANCH   1  29
TORSDOF 21
ENDMDL
MODEL 3
REMARK VINA RESULT:      -9.7      2.161      2.647
REMARK SMILES C[C@@H](C(=O)OCCOCCOCCOC(=O)c1ccc(-c2c3nc(c(-c4ccccc4)c4ccc([nH]4)c(-c4ccccc4)c4nc(c(-c5ccccc5)c5ccc2[nH]5)C=C4)C=C3)cc1)c1ccc(C[C@H]2CCCC2=O)c(-c2ccccc2)c1
REMARK SMILES IDX 9 1 8 2 7 3 6 4 5 5 3 6 4 7 2 8 1 9 65 10 66 11 83 12 67 13
REMARK SMILES IDX 76 14 68 15 77 16 78 17 82 18 79 19 81 20 80 21 69 22 70 23
REMARK SMILES IDX 71 24 74 25 72 26 73 27 75 28 10 29 11 30 12 31 13 32 14 33
REMARK SMILES IDX 15 34 16 35 17 36 18 37 64 38 19 39 63 40 20 41 21 42 22 43
REMARK SMILES IDX 57 44 23 45 62 46 56 47 58 48 24 49 61 50 55 51 54 52 25 54
REMARK SMILES IDX 47 55 32 56 46 57 33 58 36 59 45 60 59 61 34 62 35 63 44 65
REMARK SMILES IDX 60 66 37 67 26 68 27 69 31 70 28 71 30 72 29 73 48 74 49 75
REMARK SMILES IDX 53 76 50 77 52 78 51 79 38 80 39 81 43 82 40 83 42 84 41 85
REMARK H PARENT 58 53 36 64
REMARK Flexibility Score: inf
ROOT
ATOM      1  C   UNL A   1      32.111  28.937  23.854  1.00  0.00     0.188 C 
ENDROOT
BRANCH   1   2
ATOM      2  O   UNL A   1      33.504  28.714  23.950  1.00  0.00    -0.376 OA
BRANCH   2   3
ATOM      3  C   UNL A   1      33.958  27.502  24.544  1.00  0.00     0.202 C 
BRANCH   3   4
ATOM      4  C   UNL A   1      33.822  27.250  26.059  1.00  0.00     0.261 C 
BRANCH   4   5
ATOM      5  O   UNL A   1      33.165  26.017  26.420  1.00  0.00    -0.463 OA
BRANCH   5   6
ATOM      6  C   UNL A   1      31.877  25.873  26.003  1.00  0.00     0.313 C 
ATOM      7  O   UNL A   1      30.917  26.367  26.586  1.00  0.00    -0.252 OA
BRANCH   6   8
ATOM      8  C   UNL A   1      31.720  25.119  24.668  1.00  0.00     0.126 C 
ATOM      9  C   UNL A   1      30.405  25.353  23.911  1.00  0.00     0.025 C 
BRANCH   8  10
ATOM     10  C   UNL A   1      32.110  23.638  24.733  1.00  0.00    -0.033 A 
ATOM     11  C   UNL A   1      31.178  22.624  24.939  1.00  0.00     0.005 A 
ATOM     12  C   UNL A   1      33.462  23.254  24.657  1.00  0.00     0.013 A 
ATOM     13  C   UNL A   1      31.565  21.294  25.057  1.00  0.00     0.004 A 
ATOM     14  C   UNL A   1      33.897  21.922  24.892  1.00  0.00    -0.015 A 
ATOM     15  C   UNL A   1      32.917  20.932  25.133  1.00  0.00    -0.039 A 
BRANCH  14  16
ATOM     16  C   UNL A   1      35.351  21.666  24.975  1.00  0.00    -0.018 A 
ATOM     17  C   UNL A   1      35.907  20.399  24.737  1.00  0.00     0.009 A 
ATOM     18  C   UNL A   1      36.225  22.713  25.316  1.00  0.00     0.009 A 
ATOM     19  C   UNL A   1      37.280  20.177  24.893  1.00  0.00     0.001 A 
ATOM     20  C   UNL A   1      37.597  22.497  25.455  1.00  0.00     0.001 A 
ATOM     21  C   UNL A   1      38.123  21.225  25.256  1.00  0.00     0.000 A 
ENDBRANCH  14  16
BRANCH  15  22
ATOM     22  C   UNL A   1      33.214  19.514  25.588  1.00  0.00     0.047 C 
BRANCH  22  23
ATOM     23  C   UNL A   1      32.545  18.383  24.783  1.00  0.00     0.060 C 
ATOM     24  C   UNL A   1      32.896  18.345  23.291  1.00  0.00     0.012 C 
ATOM     25  C   UNL A   1      32.909  16.974  25.209  1.00  0.00     0.136 C 
ATOM     26  C   UNL A   1      33.964  17.269  23.129  1.00  0.00     0.009 C 
ATOM     27  C   UNL A   1      33.600  16.190  24.132  1.00  0.00     0.076 C 
ATOM     28  O   UNL A   1      32.665  16.486  26.304  1.00  0.00    -0.299 OA
ENDBRANCH  22  23
ENDBRANCH  15  22
ENDBRANCH   8  10
ENDBRANCH   6   8
ENDBRANCH   5   6
ENDBRANCH   4   5
ENDBRANCH   3   4
ENDBRANCH   2   3
ENDBRANCH   1   2
BRANCH   1  29
ATOM     29  C   UNL A   1      31.381  29.646  25.001  1.00  0.00     0.188 C 
BRANCH  29  30
ATOM     30  O   UNL A   1      32.099  29.944  26.170  1.00  0.00    -0.376 OA
BRANCH  30  31
ATOM     31  C   UNL A   1      31.798  31.112  26.910  1.00  0.00     0.202 C 
BRANCH  31  32
ATOM     32  C   UNL A   1      32.811  32.194  27.346  1.00  0.00     0.261 C 
BRANCH  32  33
ATOM     33  O   UNL A   1      34.171  31.817  27.585  1.00  0.00    -0.460 OA
BRANCH  33  34
ATOM     34  C   UNL A   1      34.645  32.050  28.831  1.00  0.00     0.338 C 
ATOM     35  O   UNL A   1      34.100  32.685  29.724  1.00  0.00    -0.246 OA
BRANCH  34  36
ATOM     36  C   UNL A   1      35.872  31.251  29.027  1.00  0.00     0.060 A 
ATOM     37  C   UNL A   1      35.787  29.998  29.651  1.00  0.00     0.016 A 
ATOM     38  C   UNL A   1      37.109  31.754  28.623  1.00  0.00     0.016 A 
ATOM     39  C   UNL A   1      36.945  29.257  29.900  1.00  0.00     0.010 A 
ATOM     40  C   UNL A   1      38.269  31.026  28.898  1.00  0.00     0.010 A 
ATOM     41  C   UNL A   1      38.196  29.790  29.566  1.00  0.00    -0.014 A 
BRANCH  41  42
ATOM     42  C   UNL A   1      39.440  29.140  30.047  1.00  0.00     0.031 A 
ATOM     43  C   UNL A   1      40.088  29.646  31.302  1.00  0.00     0.074 A 
ATOM     44  C   UNL A   1      40.028  28.151  29.354  1.00  0.00     0.049 A 
ATOM     45  N   UNL A   1      41.205  29.264  31.866  1.00  0.00    -0.248 NA
ATOM     46  C   UNL A   1      39.409  30.755  31.987  1.00  0.00     0.031 C 
ATOM     47  C   UNL A   1      39.543  27.623  28.086  1.00  0.00     0.029 A 
ATOM     48  N   UNL A   1      41.169  27.427  29.612  1.00  0.00    -0.354 N 
ATOM     49  C   UNL A   1      41.394  30.123  32.940  1.00  0.00     0.074 A 
ATOM     50  C   UNL A   1      40.273  31.039  32.951  1.00  0.00     0.031 C 
ATOM     51  C   UNL A   1      40.371  26.643  27.690  1.00  0.00     0.029 A 
ATOM     52  C   UNL A   1      41.431  26.461  28.670  1.00  0.00     0.049 A 
ATOM     53  H   UNL A   1      41.743  27.587  30.395  1.00  0.00     0.167 HD
ATOM     54  C   UNL A   1      42.420  30.159  33.823  1.00  0.00     0.031 A 
ATOM     55  C   UNL A   1      42.408  25.533  28.604  1.00  0.00     0.031 A 
ATOM     56  C   UNL A   1      43.547  29.265  33.800  1.00  0.00     0.049 A 
ATOM     57  C   UNL A   1      43.507  25.559  29.634  1.00  0.00     0.074 A 
ATOM     58  C   UNL A   1      44.622  29.216  34.671  1.00  0.00     0.029 A 
ATOM     59  N   UNL A   1      43.753  28.272  32.857  1.00  0.00    -0.354 N 
ATOM     60  N   UNL A   1      43.647  26.341  30.675  1.00  0.00    -0.248 NA
ATOM     61  C   UNL A   1      44.604  24.596  29.454  1.00  0.00     0.031 C 
ATOM     62  C   UNL A   1      45.507  28.233  34.221  1.00  0.00     0.029 A 
ATOM     63  C   UNL A   1      44.949  27.619  33.113  1.00  0.00     0.049 A 
ATOM     64  H   UNL A   1      43.143  28.061  32.114  1.00  0.00     0.167 HD
ATOM     65  C   UNL A   1      44.846  25.970  31.270  1.00  0.00     0.074 A 
ATOM     66  C   UNL A   1      45.368  24.858  30.505  1.00  0.00     0.031 C 
ATOM     67  C   UNL A   1      45.468  26.518  32.342  1.00  0.00     0.031 A 
BRANCH  54  68
ATOM     68  C   UNL A   1      42.394  31.249  34.856  1.00  0.00    -0.014 A 
ATOM     69  C   UNL A   1      43.033  32.480  34.641  1.00  0.00     0.009 A 
ATOM     70  C   UNL A   1      41.696  31.046  36.057  1.00  0.00     0.009 A 
ATOM     71  C   UNL A   1      43.002  33.472  35.624  1.00  0.00     0.001 A 
ATOM     72  C   UNL A   1      41.639  32.050  37.023  1.00  0.00     0.001 A 
ATOM     73  C   UNL A   1      42.301  33.258  36.810  1.00  0.00     0.000 A 
ENDBRANCH  54  68
BRANCH  55  74
ATOM     74  C   UNL A   1      42.404  24.484  27.543  1.00  0.00    -0.014 A 
ATOM     75  C   UNL A   1      43.108  24.693  26.344  1.00  0.00     0.009 A 
ATOM     76  C   UNL A   1      41.687  23.289  27.698  1.00  0.00     0.009 A 
ATOM     77  C   UNL A   1      43.070  23.746  25.318  1.00  0.00     0.001 A 
ATOM     78  C   UNL A   1      41.686  22.323  26.688  1.00  0.00     0.001 A 
ATOM     79  C   UNL A   1      42.366  22.556  25.495  1.00  0.00     0.000 A 
ENDBRANCH  55  74
BRANCH  67  80
ATOM     80  C   UNL A   1      46.778  25.909  32.765  1.00  0.00    -0.014 A 
ATOM     81  C   UNL A   1      46.835  24.896  33.737  1.00  0.00     0.009 A 
ATOM     82  C   UNL A   1      47.970  26.333  32.157  1.00  0.00     0.009 A 
ATOM     83  C   UNL A   1      48.062  24.350  34.117  1.00  0.00     0.001 A 
ATOM     84  C   UNL A   1      49.191  25.761  32.516  1.00  0.00     0.001 A 
ATOM     85  C   UNL A   1      49.238  24.778  33.503  1.00  0.00     0.000 A 
ENDBRANCH  67  80
ENDBRANCH  41  42
ENDBRANCH  34  36
ENDBRANCH  33  34
ENDBRANCH  32  33
ENDBRANCH  31  32
ENDBRANCH  30  31
ENDBRANCH  29  30
ENDBRANCH   1  29
TORSDOF 21
ENDMDL
