MODEL 1
REMARK VINA RESULT:      -9.9      0.000      0.000
REMARK SMILES Cc1cccc(C(=O)N2CCC[C@H]2c2nnc(SCC(=O)Nc3ccc(C(=O)OCCOCCOCCOC(=O)c4ccc(-c5c6nc(c(-c7ccccc7)c7ccc([nH]7)c(-c7ccccc7)c7nc(c(-c8ccccc8)c8ccc5[nH]8)C=C7)C=C6)cc4)cc3)n2C)c1
REMARK SMILES IDX 31 1 30 2 29 3 27 4 28 5 26 6 23 7 24 8 90 9 25 10 89 11
REMARK SMILES IDX 22 12 20 13 21 14 19 16 18 17 17 18 14 19 15 20 91 21 16 22
REMARK SMILES IDX 92 23 13 24 9 25 10 26 11 27 12 28 7 29 8 30 6 31 1 32 2 33
REMARK SMILES IDX 3 34 93 35 4 36 5 37 32 38 33 39 34 40 35 41 36 42 37 43
REMARK SMILES IDX 38 44 39 45 40 46 41 47 42 48 88 49 43 50 87 51 44 52 45 53
REMARK SMILES IDX 46 54 81 55 47 56 86 57 80 58 82 59 48 60 85 61 79 62 78 63
REMARK SMILES IDX 49 65 71 66 56 67 70 68 57 69 60 70 69 71 83 72 58 73 59 74
REMARK SMILES IDX 68 76 84 77 61 78 50 79 51 80 55 81 52 82 54 83 53 84 72 85
REMARK SMILES IDX 73 86 77 87 74 88 76 89 75 90 62 91 63 92 67 93 64 94 66 95
REMARK SMILES IDX 65 96
REMARK H PARENT 22 15 82 64 60 75
REMARK Flexibility Score: inf
ROOT
ATOM      1  C   UNL A   1      43.594  28.273  27.031  1.00  0.00     0.202 C 
ENDROOT
BRANCH   1   2
ATOM      2  C   UNL A   1      42.757  29.577  27.803  1.00  0.00     0.261 C 
BRANCH   2   3
ATOM      3  O   UNL A   1      41.216  29.630  28.376  1.00  0.00    -0.460 OA
BRANCH   3   4
ATOM      4  C   UNL A   1      40.039  28.908  28.542  1.00  0.00     0.338 C 
ATOM      5  O   UNL A   1      39.868  27.701  28.433  1.00  0.00    -0.246 OA
BRANCH   4   6
ATOM      6  C   UNL A   1      38.751  29.617  28.881  1.00  0.00     0.060 A 
ATOM      7  C   UNL A   1      36.687  31.483  28.473  1.00  0.00     0.041 A 
ATOM      8  C   UNL A   1      37.836  31.838  29.180  1.00  0.00     0.027 A 
ATOM      9  C   UNL A   1      36.461  30.157  28.130  1.00  0.00     0.027 A 
ATOM     10  C   UNL A   1      38.876  30.916  29.356  1.00  0.00     0.018 A 
ATOM     11  C   UNL A   1      37.506  29.236  28.301  1.00  0.00     0.018 A 
BRANCH   7  12
ATOM     12  N   UNL A   1      35.921  32.504  27.895  1.00  0.00    -0.325 N 
ATOM     13  C   UNL A   1      34.874  33.132  28.541  1.00  0.00     0.234 C 
ATOM     14  O   UNL A   1      34.144  33.896  27.900  1.00  0.00    -0.274 OA
ATOM     15  H   UNL A   1      36.141  32.790  26.978  1.00  0.00     0.169 HD
BRANCH  13  16
ATOM     16  C   UNL A   1      34.617  32.889  30.025  1.00  0.00     0.178 C 
BRANCH  16  17
ATOM     17  S   UNL A   1      34.358  34.348  31.075  1.00  0.00    -0.076 SA
BRANCH  17  18
ATOM     18  C   UNL A   1      35.542  34.301  32.324  1.00  0.00     0.191 A 
ATOM     19  C   UNL A   1      36.965  33.564  33.819  1.00  0.00     0.156 A 
ATOM     20  N   UNL A   1      36.850  34.869  33.974  1.00  0.00    -0.132 NA
ATOM     21  N   UNL A   1      36.088  33.160  32.835  1.00  0.00    -0.307 N 
ATOM     22  N   UNL A   1      35.929  35.325  33.054  1.00  0.00    -0.123 NA
ATOM     23  C   UNL A   1      35.782  31.791  32.508  1.00  0.00     0.154 C 
BRANCH  19  24
ATOM     24  C   UNL A   1      37.829  32.617  34.574  1.00  0.00     0.154 C 
ATOM     25  N   UNL A   1      39.252  32.732  34.274  1.00  0.00    -0.328 N 
ATOM     26  C   UNL A   1      40.014  32.943  35.500  1.00  0.00     0.120 C 
ATOM     27  C   UNL A   1      39.105  32.377  36.582  1.00  0.00     0.024 C 
ATOM     28  C   UNL A   1      37.725  32.801  36.091  1.00  0.00     0.035 C 
BRANCH  25  29
ATOM     29  C   UNL A   1      39.714  32.353  33.024  1.00  0.00     0.254 C 
ATOM     30  O   UNL A   1      39.666  33.087  32.037  1.00  0.00    -0.269 OA
BRANCH  29  31
ATOM     31  C   UNL A   1      40.112  30.940  32.798  1.00  0.00     0.040 A 
ATOM     32  C   UNL A   1      38.386  27.582  32.266  1.00  0.00     0.044 C 
ATOM     33  C   UNL A   1      39.448  28.639  32.342  1.00  0.00    -0.050 A 
ATOM     34  C   UNL A   1      40.761  28.356  31.950  1.00  0.00     0.003 A 
ATOM     35  C   UNL A   1      39.128  29.941  32.743  1.00  0.00     0.017 A 
ATOM     36  C   UNL A   1      41.742  29.353  31.981  1.00  0.00     0.001 A 
ATOM     37  C   UNL A   1      41.419  30.645  32.404  1.00  0.00     0.014 A 
ENDBRANCH  29  31
ENDBRANCH  25  29
ENDBRANCH  19  24
ENDBRANCH  17  18
ENDBRANCH  16  17
ENDBRANCH  13  16
ENDBRANCH   7  12
ENDBRANCH   4   6
ENDBRANCH   3   4
ENDBRANCH   2   3
ENDBRANCH   1   2
BRANCH   1  38
ATOM     38  O   UNL A   1      43.798  28.103  25.628  1.00  0.00    -0.376 OA
BRANCH  38  39
ATOM     39  C   UNL A   1      43.577  26.929  24.829  1.00  0.00     0.188 C 
BRANCH  39  40
ATOM     40  C   UNL A   1      44.221  25.585  25.132  1.00  0.00     0.188 C 
BRANCH  40  41
ATOM     41  O   UNL A   1      43.235  24.648  25.515  1.00  0.00    -0.376 OA
BRANCH  41  42
ATOM     42  C   UNL A   1      43.467  23.331  25.039  1.00  0.00     0.202 C 
BRANCH  42  43
ATOM     43  C   UNL A   1      42.354  22.330  25.417  1.00  0.00     0.261 C 
BRANCH  43  44
ATOM     44  O   UNL A   1      41.382  22.951  26.294  1.00  0.00    -0.460 OA
BRANCH  44  45
ATOM     45  C   UNL A   1      41.241  22.469  27.572  1.00  0.00     0.338 C 
ATOM     46  O   UNL A   1      40.485  21.560  27.895  1.00  0.00    -0.246 OA
BRANCH  45  47
ATOM     47  C   UNL A   1      41.924  23.391  28.552  1.00  0.00     0.060 A 
ATOM     48  C   UNL A   1      41.916  24.795  28.518  1.00  0.00     0.016 A 
ATOM     49  C   UNL A   1      42.960  22.848  29.226  1.00  0.00     0.016 A 
ATOM     50  C   UNL A   1      43.046  25.595  29.007  1.00  0.00     0.010 A 
ATOM     51  C   UNL A   1      44.086  23.670  29.309  1.00  0.00     0.010 A 
ATOM     52  C   UNL A   1      44.274  25.040  29.373  1.00  0.00    -0.014 A 
BRANCH  52  53
ATOM     53  C   UNL A   1      45.704  25.738  29.472  1.00  0.00     0.031 A 
ATOM     54  C   UNL A   1      47.013  25.732  28.572  1.00  0.00     0.074 A 
ATOM     55  C   UNL A   1      45.911  26.524  30.554  1.00  0.00     0.049 A 
ATOM     56  N   UNL A   1      48.220  25.356  28.969  1.00  0.00    -0.248 NA
ATOM     57  C   UNL A   1      47.137  26.282  27.214  1.00  0.00     0.031 C 
ATOM     58  C   UNL A   1      47.072  27.350  30.885  1.00  0.00     0.029 A 
ATOM     59  N   UNL A   1      45.102  26.613  31.685  1.00  0.00    -0.354 N 
ATOM     60  C   UNL A   1      49.135  25.614  27.927  1.00  0.00     0.074 A 
ATOM     61  C   UNL A   1      48.373  26.016  26.812  1.00  0.00     0.031 C 
ATOM     62  C   UNL A   1      47.062  27.572  32.210  1.00  0.00     0.029 A 
ATOM     63  C   UNL A   1      45.950  26.822  32.773  1.00  0.00     0.049 A 
ATOM     64  H   UNL A   1      44.121  26.542  31.712  1.00  0.00     0.167 HD
ATOM     65  C   UNL A   1      50.492  25.749  27.987  1.00  0.00     0.031 A 
ATOM     66  C   UNL A   1      46.003  25.890  33.764  1.00  0.00     0.031 A 
ATOM     67  C   UNL A   1      50.893  25.983  29.341  1.00  0.00     0.049 A 
ATOM     68  C   UNL A   1      47.378  25.280  33.893  1.00  0.00     0.074 A 
ATOM     69  C   UNL A   1      51.024  27.163  30.051  1.00  0.00     0.029 A 
ATOM     70  N   UNL A   1      50.771  24.958  30.251  1.00  0.00    -0.354 N 
ATOM     71  N   UNL A   1      48.321  25.393  32.997  1.00  0.00    -0.248 NA
ATOM     72  C   UNL A   1      47.791  24.474  35.037  1.00  0.00     0.031 C 
ATOM     73  C   UNL A   1      50.826  26.849  31.418  1.00  0.00     0.029 A 
ATOM     74  C   UNL A   1      50.679  25.478  31.525  1.00  0.00     0.049 A 
ATOM     75  H   UNL A   1      50.755  23.999  30.028  1.00  0.00     0.167 HD
ATOM     76  C   UNL A   1      49.416  24.681  33.399  1.00  0.00     0.074 A 
ATOM     77  C   UNL A   1      49.045  24.139  34.690  1.00  0.00     0.031 C 
ATOM     78  C   UNL A   1      50.543  24.571  32.643  1.00  0.00     0.031 A 
BRANCH  65  79
ATOM     79  C   UNL A   1      51.298  26.100  26.740  1.00  0.00    -0.014 A 
ATOM     80  C   UNL A   1      51.927  25.117  25.959  1.00  0.00     0.009 A 
ATOM     81  C   UNL A   1      51.532  27.443  26.358  1.00  0.00     0.009 A 
ATOM     82  C   UNL A   1      52.853  25.455  24.954  1.00  0.00     0.001 A 
ATOM     83  C   UNL A   1      52.486  27.784  25.383  1.00  0.00     0.001 A 
ATOM     84  C   UNL A   1      53.166  26.785  24.696  1.00  0.00     0.000 A 
ENDBRANCH  65  79
BRANCH  66  85
ATOM     85  C   UNL A   1      44.697  25.207  34.046  1.00  0.00    -0.014 A 
ATOM     86  C   UNL A   1      44.499  23.913  33.506  1.00  0.00     0.009 A 
ATOM     87  C   UNL A   1      43.799  25.644  35.030  1.00  0.00     0.009 A 
ATOM     88  C   UNL A   1      43.522  23.048  34.008  1.00  0.00     0.001 A 
ATOM     89  C   UNL A   1      42.799  24.779  35.517  1.00  0.00     0.001 A 
ATOM     90  C   UNL A   1      42.679  23.477  35.024  1.00  0.00     0.000 A 
ENDBRANCH  66  85
BRANCH  78  91
ATOM     91  C   UNL A   1      51.663  23.602  32.890  1.00  0.00    -0.014 A 
ATOM     92  C   UNL A   1      51.493  22.215  32.873  1.00  0.00     0.009 A 
ATOM     93  C   UNL A   1      52.986  24.092  32.968  1.00  0.00     0.009 A 
ATOM     94  C   UNL A   1      52.590  21.355  32.984  1.00  0.00     0.001 A 
ATOM     95  C   UNL A   1      54.085  23.238  33.024  1.00  0.00     0.001 A 
ATOM     96  C   UNL A   1      53.884  21.865  33.049  1.00  0.00     0.000 A 
ENDBRANCH  78  91
ENDBRANCH  52  53
ENDBRANCH  45  47
ENDBRANCH  44  45
ENDBRANCH  43  44
ENDBRANCH  42  43
ENDBRANCH  41  42
ENDBRANCH  40  41
ENDBRANCH  39  40
ENDBRANCH  38  39
ENDBRANCH   1  38
TORSDOF 24
ENDMDL
MODEL 2
REMARK VINA RESULT:      -9.9      4.840      8.857
REMARK SMILES Cc1cccc(C(=O)N2CCC[C@H]2c2nnc(SCC(=O)Nc3ccc(C(=O)OCCOCCOCCOC(=O)c4ccc(-c5c6nc(c(-c7ccccc7)c7ccc([nH]7)c(-c7ccccc7)c7nc(c(-c8ccccc8)c8ccc5[nH]8)C=C7)C=C6)cc4)cc3)n2C)c1
REMARK SMILES IDX 31 1 30 2 29 3 27 4 28 5 26 6 23 7 24 8 90 9 25 10 89 11
REMARK SMILES IDX 22 12 20 13 21 14 19 16 18 17 17 18 14 19 15 20 91 21 16 22
REMARK SMILES IDX 92 23 13 24 9 25 10 26 11 27 12 28 7 29 8 30 6 31 1 32 2 33
REMARK SMILES IDX 3 34 93 35 4 36 5 37 32 38 33 39 34 40 35 41 36 42 37 43
REMARK SMILES IDX 38 44 39 45 40 46 41 47 42 48 88 49 43 50 87 51 44 52 45 53
REMARK SMILES IDX 46 54 81 55 47 56 86 57 80 58 82 59 48 60 85 61 79 62 78 63
REMARK SMILES IDX 49 65 71 66 56 67 70 68 57 69 60 70 69 71 83 72 58 73 59 74
REMARK SMILES IDX 68 76 84 77 61 78 50 79 51 80 55 81 52 82 54 83 53 84 72 85
REMARK SMILES IDX 73 86 77 87 74 88 76 89 75 90 62 91 63 92 67 93 64 94 66 95
REMARK SMILES IDX 65 96
REMARK H PARENT 22 15 82 64 60 75
REMARK Flexibility Score: inf
ROOT
ATOM      1  C   UNL A   1      42.098  19.855  26.230  1.00  0.00     0.202 C 
ENDROOT
BRANCH   1   2
ATOM      2  C   UNL A   1      40.759  20.324  27.220  1.00  0.00     0.261 C 
BRANCH   2   3
ATOM      3  O   UNL A   1      40.009  21.784  27.332  1.00  0.00    -0.460 OA
BRANCH   3   4
ATOM      4  C   UNL A   1      39.409  22.812  26.613  1.00  0.00     0.338 C 
ATOM      5  O   UNL A   1      39.798  23.964  26.467  1.00  0.00    -0.246 OA
BRANCH   4   6
ATOM      6  C   UNL A   1      38.098  22.582  25.903  1.00  0.00     0.060 A 
ATOM      7  C   UNL A   1      35.540  21.460  25.579  1.00  0.00     0.041 A 
ATOM      8  C   UNL A   1      36.670  20.801  25.097  1.00  0.00     0.027 A 
ATOM      9  C   UNL A   1      35.640  22.763  26.049  1.00  0.00     0.027 A 
ATOM     10  C   UNL A   1      37.947  21.347  25.286  1.00  0.00     0.018 A 
ATOM     11  C   UNL A   1      36.919  23.305  26.244  1.00  0.00     0.018 A 
BRANCH   7  12
ATOM     12  N   UNL A   1      34.384  20.706  25.824  1.00  0.00    -0.325 N 
ATOM     13  C   UNL A   1      33.280  20.710  24.994  1.00  0.00     0.234 C 
ATOM     14  O   UNL A   1      32.242  20.155  25.372  1.00  0.00    -0.274 OA
ATOM     15  H   UNL A   1      34.358  20.142  26.630  1.00  0.00     0.169 HD
BRANCH  13  16
ATOM     16  C   UNL A   1      33.334  21.389  23.629  1.00  0.00     0.178 C 
BRANCH  16  17
ATOM     17  S   UNL A   1      31.771  22.011  22.944  1.00  0.00    -0.076 SA
BRANCH  17  18
ATOM     18  C   UNL A   1      31.303  23.375  23.884  1.00  0.00     0.191 A 
ATOM     19  C   UNL A   1      30.881  25.435  24.498  1.00  0.00     0.156 A 
ATOM     20  N   UNL A   1      30.771  24.663  25.562  1.00  0.00    -0.132 NA
ATOM     21  N   UNL A   1      31.296  24.662  23.435  1.00  0.00    -0.307 N 
ATOM     22  N   UNL A   1      31.070  23.371  25.179  1.00  0.00    -0.123 NA
ATOM     23  C   UNL A   1      31.710  25.170  22.152  1.00  0.00     0.154 C 
BRANCH  19  24
ATOM     24  C   UNL A   1      30.665  26.904  24.397  1.00  0.00     0.154 C 
ATOM     25  N   UNL A   1      31.770  27.633  23.784  1.00  0.00    -0.328 N 
ATOM     26  C   UNL A   1      31.291  28.428  22.658  1.00  0.00     0.120 C 
ATOM     27  C   UNL A   1      29.812  28.617  22.964  1.00  0.00     0.024 C 
ATOM     28  C   UNL A   1      29.435  27.265  23.559  1.00  0.00     0.035 C 
BRANCH  25  29
ATOM     29  C   UNL A   1      32.975  27.731  24.461  1.00  0.00     0.254 C 
ATOM     30  O   UNL A   1      33.830  26.846  24.446  1.00  0.00    -0.269 OA
BRANCH  29  31
ATOM     31  C   UNL A   1      33.185  28.859  25.405  1.00  0.00     0.040 A 
ATOM     32  C   UNL A   1      31.269  31.936  26.583  1.00  0.00     0.044 C 
ATOM     33  C   UNL A   1      32.303  30.854  26.493  1.00  0.00    -0.050 A 
ATOM     34  C   UNL A   1      33.316  30.757  27.453  1.00  0.00     0.003 A 
ATOM     35  C   UNL A   1      32.233  29.886  25.484  1.00  0.00     0.017 A 
ATOM     36  C   UNL A   1      34.256  29.723  27.392  1.00  0.00     0.001 A 
ATOM     37  C   UNL A   1      34.192  28.773  26.370  1.00  0.00     0.014 A 
ENDBRANCH  29  31
ENDBRANCH  25  29
ENDBRANCH  19  24
ENDBRANCH  17  18
ENDBRANCH  16  17
ENDBRANCH  13  16
ENDBRANCH   7  12
ENDBRANCH   4   6
ENDBRANCH   3   4
ENDBRANCH   2   3
ENDBRANCH   1   2
BRANCH   1  38
ATOM     38  O   UNL A   1      42.900  20.713  25.417  1.00  0.00    -0.376 OA
BRANCH  38  39
ATOM     39  C   UNL A   1      43.070  22.137  25.519  1.00  0.00     0.188 C 
BRANCH  39  40
ATOM     40  C   UNL A   1      44.145  22.786  26.376  1.00  0.00     0.188 C 
BRANCH  40  41
ATOM     41  O   UNL A   1      45.378  22.121  26.197  1.00  0.00    -0.376 OA
BRANCH  41  42
ATOM     42  C   UNL A   1      45.863  22.142  24.862  1.00  0.00     0.202 C 
BRANCH  42  43
ATOM     43  C   UNL A   1      46.466  23.500  24.443  1.00  0.00     0.261 C 
BRANCH  43  44
ATOM     44  O   UNL A   1      47.211  24.089  25.537  1.00  0.00    -0.460 OA
BRANCH  44  45
ATOM     45  C   UNL A   1      47.779  25.327  25.360  1.00  0.00     0.338 C 
ATOM     46  O   UNL A   1      48.429  25.661  24.375  1.00  0.00    -0.246 OA
BRANCH  45  47
ATOM     47  C   UNL A   1      47.732  26.108  26.650  1.00  0.00     0.060 A 
ATOM     48  C   UNL A   1      48.747  26.935  27.159  1.00  0.00     0.016 A 
ATOM     49  C   UNL A   1      46.867  25.640  27.574  1.00  0.00     0.016 A 
ATOM     50  C   UNL A   1      48.961  27.111  28.601  1.00  0.00     0.010 A 
ATOM     51  C   UNL A   1      47.383  25.589  28.871  1.00  0.00     0.010 A 
ATOM     52  C   UNL A   1      48.305  26.350  29.570  1.00  0.00    -0.014 A 
BRANCH  52  53
ATOM     53  C   UNL A   1      48.721  26.072  31.084  1.00  0.00     0.031 A 
ATOM     54  C   UNL A   1      49.796  25.143  31.793  1.00  0.00     0.074 A 
ATOM     55  C   UNL A   1      48.029  26.753  32.027  1.00  0.00     0.049 A 
ATOM     56  N   UNL A   1      49.531  24.200  32.686  1.00  0.00    -0.248 NA
ATOM     57  C   UNL A   1      51.257  25.274  31.697  1.00  0.00     0.031 C 
ATOM     58  C   UNL A   1      48.224  26.775  33.477  1.00  0.00     0.029 A 
ATOM     59  N   UNL A   1      46.864  27.492  31.834  1.00  0.00    -0.354 N 
ATOM     60  C   UNL A   1      50.752  23.687  33.172  1.00  0.00     0.074 A 
ATOM     61  C   UNL A   1      51.772  24.266  32.390  1.00  0.00     0.031 C 
ATOM     62  C   UNL A   1      47.076  27.181  34.046  1.00  0.00     0.029 A 
ATOM     63  C   UNL A   1      46.092  27.340  32.986  1.00  0.00     0.049 A 
ATOM     64  H   UNL A   1      46.629  28.020  31.037  1.00  0.00     0.167 HD
ATOM     65  C   UNL A   1      51.000  23.002  34.326  1.00  0.00     0.031 A 
ATOM     66  C   UNL A   1      44.873  26.741  32.897  1.00  0.00     0.031 A 
ATOM     67  C   UNL A   1      49.907  23.179  35.234  1.00  0.00     0.049 A 
ATOM     68  C   UNL A   1      44.808  25.470  33.708  1.00  0.00     0.074 A 
ATOM     69  C   UNL A   1      49.678  24.153  36.189  1.00  0.00     0.029 A 
ATOM     70  N   UNL A   1      48.697  22.596  34.932  1.00  0.00    -0.354 N 
ATOM     71  N   UNL A   1      45.851  24.851  34.193  1.00  0.00    -0.248 NA
ATOM     72  C   UNL A   1      43.559  24.783  34.019  1.00  0.00     0.031 C 
ATOM     73  C   UNL A   1      48.274  24.253  36.352  1.00  0.00     0.029 A 
ATOM     74  C   UNL A   1      47.683  23.276  35.571  1.00  0.00     0.049 A 
ATOM     75  H   UNL A   1      48.575  21.812  34.350  1.00  0.00     0.167 HD
ATOM     76  C   UNL A   1      45.446  23.710  34.828  1.00  0.00     0.074 A 
ATOM     77  C   UNL A   1      44.002  23.720  34.710  1.00  0.00     0.031 C 
ATOM     78  C   UNL A   1      46.319  22.830  35.390  1.00  0.00     0.031 A 
BRANCH  65  79
ATOM     79  C   UNL A   1      52.421  22.593  34.703  1.00  0.00    -0.014 A 
ATOM     80  C   UNL A   1      52.890  21.283  34.521  1.00  0.00     0.009 A 
ATOM     81  C   UNL A   1      53.309  23.490  35.342  1.00  0.00     0.009 A 
ATOM     82  C   UNL A   1      54.110  20.852  35.075  1.00  0.00     0.001 A 
ATOM     83  C   UNL A   1      54.508  23.054  35.933  1.00  0.00     0.001 A 
ATOM     84  C   UNL A   1      54.897  21.725  35.820  1.00  0.00     0.000 A 
ENDBRANCH  65  79
BRANCH  66  85
ATOM     85  C   UNL A   1      44.135  27.021  31.621  1.00  0.00    -0.014 A 
ATOM     86  C   UNL A   1      44.186  26.041  30.601  1.00  0.00     0.009 A 
ATOM     87  C   UNL A   1      43.182  28.041  31.494  1.00  0.00     0.009 A 
ATOM     88  C   UNL A   1      43.251  26.012  29.561  1.00  0.00     0.001 A 
ATOM     89  C   UNL A   1      42.257  28.024  30.432  1.00  0.00     0.001 A 
ATOM     90  C   UNL A   1      42.277  26.998  29.484  1.00  0.00     0.000 A 
ENDBRANCH  66  85
BRANCH  78  91
ATOM     91  C   UNL A   1      45.975  21.446  35.860  1.00  0.00    -0.014 A 
ATOM     92  C   UNL A   1      45.584  20.420  34.995  1.00  0.00     0.009 A 
ATOM     93  C   UNL A   1      46.224  21.099  37.206  1.00  0.00     0.009 A 
ATOM     94  C   UNL A   1      45.395  19.116  35.465  1.00  0.00     0.001 A 
ATOM     95  C   UNL A   1      46.090  19.790  37.666  1.00  0.00     0.001 A 
ATOM     96  C   UNL A   1      45.658  18.800  36.795  1.00  0.00     0.000 A 
ENDBRANCH  78  91
ENDBRANCH  52  53
ENDBRANCH  45  47
ENDBRANCH  44  45
ENDBRANCH  43  44
ENDBRANCH  42  43
ENDBRANCH  41  42
ENDBRANCH  40  41
ENDBRANCH  39  40
ENDBRANCH  38  39
ENDBRANCH   1  38
TORSDOF 24
ENDMDL
MODEL 3
REMARK VINA RESULT:      -9.9      5.168      9.307
REMARK SMILES Cc1cccc(C(=O)N2CCC[C@H]2c2nnc(SCC(=O)Nc3ccc(C(=O)OCCOCCOCCOC(=O)c4ccc(-c5c6nc(c(-c7ccccc7)c7ccc([nH]7)c(-c7ccccc7)c7nc(c(-c8ccccc8)c8ccc5[nH]8)C=C7)C=C6)cc4)cc3)n2C)c1
REMARK SMILES IDX 31 1 30 2 29 3 27 4 28 5 26 6 23 7 24 8 90 9 25 10 89 11
REMARK SMILES IDX 22 12 20 13 21 14 19 16 18 17 17 18 14 19 15 20 91 21 16 22
REMARK SMILES IDX 92 23 13 24 9 25 10 26 11 27 12 28 7 29 8 30 6 31 1 32 2 33
REMARK SMILES IDX 3 34 93 35 4 36 5 37 32 38 33 39 34 40 35 41 36 42 37 43
REMARK SMILES IDX 38 44 39 45 40 46 41 47 42 48 88 49 43 50 87 51 44 52 45 53
REMARK SMILES IDX 46 54 81 55 47 56 86 57 80 58 82 59 48 60 85 61 79 62 78 63
REMARK SMILES IDX 49 65 71 66 56 67 70 68 57 69 60 70 69 71 83 72 58 73 59 74
REMARK SMILES IDX 68 76 84 77 61 78 50 79 51 80 55 81 52 82 54 83 53 84 72 85
REMARK SMILES IDX 73 86 77 87 74 88 76 89 75 90 62 91 63 92 67 93 64 94 66 95
REMARK SMILES IDX 65 96
REMARK H PARENT 22 15 82 64 60 75
REMARK Flexibility Score: inf
ROOT
ATOM      1  C   UNL A   1      42.495  19.958  26.077  1.00  0.00     0.202 C 
ENDROOT
BRANCH   1   2
ATOM      2  C   UNL A   1      40.951  20.081  26.849  1.00  0.00     0.261 C 
BRANCH   2   3
ATOM      3  O   UNL A   1      40.035  21.417  27.139  1.00  0.00    -0.460 OA
BRANCH   3   4
ATOM      4  C   UNL A   1      39.416  22.518  26.558  1.00  0.00     0.338 C 
ATOM      5  O   UNL A   1      39.773  23.689  26.581  1.00  0.00    -0.246 OA
BRANCH   4   6
ATOM      6  C   UNL A   1      38.124  22.354  25.796  1.00  0.00     0.060 A 
ATOM      7  C   UNL A   1      35.493  21.437  25.412  1.00  0.00     0.041 A 
ATOM      8  C   UNL A   1      36.581  20.651  25.033  1.00  0.00     0.027 A 
ATOM      9  C   UNL A   1      35.688  22.755  25.803  1.00  0.00     0.027 A 
ATOM     10  C   UNL A   1      37.892  21.097  25.253  1.00  0.00     0.018 A 
ATOM     11  C   UNL A   1      37.000  23.198  26.030  1.00  0.00     0.018 A 
BRANCH   7  12
ATOM     12  N   UNL A   1      34.265  20.804  25.644  1.00  0.00    -0.325 N 
ATOM     13  C   UNL A   1      33.135  21.029  24.883  1.00  0.00     0.234 C 
ATOM     14  O   UNL A   1      32.054  20.563  25.261  1.00  0.00    -0.274 OA
ATOM     15  H   UNL A   1      34.205  20.163  26.390  1.00  0.00     0.169 HD
BRANCH  13  16
ATOM     16  C   UNL A   1      33.213  21.840  23.594  1.00  0.00     0.178 C 
BRANCH  16  17
ATOM     17  S   UNL A   1      31.686  22.633  23.014  1.00  0.00    -0.076 SA
BRANCH  17  18
ATOM     18  C   UNL A   1      31.580  24.171  23.780  1.00  0.00     0.191 A 
ATOM     19  C   UNL A   1      31.907  26.282  24.267  1.00  0.00     0.156 A 
ATOM     20  N   UNL A   1      31.168  25.753  25.223  1.00  0.00    -0.132 NA
ATOM     21  N   UNL A   1      32.254  25.287  23.378  1.00  0.00    -0.307 N 
ATOM     22  N   UNL A   1      30.992  24.416  24.931  1.00  0.00    -0.123 NA
ATOM     23  C   UNL A   1      33.207  25.426  22.307  1.00  0.00     0.154 C 
BRANCH  19  24
ATOM     24  C   UNL A   1      32.373  27.689  24.131  1.00  0.00     0.154 C 
ATOM     25  N   UNL A   1      31.303  28.680  24.144  1.00  0.00    -0.328 N 
ATOM     26  C   UNL A   1      31.551  29.682  25.175  1.00  0.00     0.120 C 
ATOM     27  C   UNL A   1      33.056  29.606  25.385  1.00  0.00     0.024 C 
ATOM     28  C   UNL A   1      33.321  28.110  25.258  1.00  0.00     0.035 C 
BRANCH  25  29
ATOM     29  C   UNL A   1      30.420  28.738  23.077  1.00  0.00     0.254 C 
ATOM     30  O   UNL A   1      30.331  27.851  22.228  1.00  0.00    -0.269 OA
BRANCH  29  31
ATOM     31  C   UNL A   1      29.676  29.998  22.821  1.00  0.00     0.040 A 
ATOM     32  C   UNL A   1      27.934  31.688  19.882  1.00  0.00     0.044 C 
ATOM     33  C   UNL A   1      28.394  31.379  21.276  1.00  0.00    -0.050 A 
ATOM     34  C   UNL A   1      27.915  32.119  22.363  1.00  0.00     0.003 A 
ATOM     35  C   UNL A   1      29.258  30.305  21.518  1.00  0.00     0.017 A 
ATOM     36  C   UNL A   1      28.311  31.804  23.666  1.00  0.00     0.001 A 
ATOM     37  C   UNL A   1      29.191  30.744  23.898  1.00  0.00     0.014 A 
ENDBRANCH  29  31
ENDBRANCH  25  29
ENDBRANCH  19  24
ENDBRANCH  17  18
ENDBRANCH  16  17
ENDBRANCH  13  16
ENDBRANCH   7  12
ENDBRANCH   4   6
ENDBRANCH   3   4
ENDBRANCH   2   3
ENDBRANCH   1   2
BRANCH   1  38
ATOM     38  O   UNL A   1      43.097  20.925  25.216  1.00  0.00    -0.376 OA
BRANCH  38  39
ATOM     39  C   UNL A   1      43.567  22.243  25.544  1.00  0.00     0.188 C 
BRANCH  39  40
ATOM     40  C   UNL A   1      44.726  22.499  26.494  1.00  0.00     0.188 C 
BRANCH  40  41
ATOM     41  O   UNL A   1      45.944  22.114  25.891  1.00  0.00    -0.376 OA
BRANCH  41  42
ATOM     42  C   UNL A   1      46.037  22.432  24.511  1.00  0.00     0.202 C 
BRANCH  42  43
ATOM     43  C   UNL A   1      46.695  23.801  24.233  1.00  0.00     0.261 C 
BRANCH  43  44
ATOM     44  O   UNL A   1      47.526  24.205  25.348  1.00  0.00    -0.460 OA
BRANCH  44  45
ATOM     45  C   UNL A   1      48.159  25.423  25.293  1.00  0.00     0.338 C 
ATOM     46  O   UNL A   1      48.938  25.765  24.410  1.00  0.00    -0.246 OA
BRANCH  45  47
ATOM     47  C   UNL A   1      47.984  26.157  26.600  1.00  0.00     0.060 A 
ATOM     48  C   UNL A   1      48.872  27.093  27.154  1.00  0.00     0.016 A 
ATOM     49  C   UNL A   1      47.168  25.557  27.491  1.00  0.00     0.016 A 
ATOM     50  C   UNL A   1      49.031  27.257  28.604  1.00  0.00     0.010 A 
ATOM     51  C   UNL A   1      47.658  25.537  28.799  1.00  0.00     0.010 A 
ATOM     52  C   UNL A   1      48.458  26.391  29.538  1.00  0.00    -0.014 A 
BRANCH  52  53
ATOM     53  C   UNL A   1      48.875  26.129  31.055  1.00  0.00     0.031 A 
ATOM     54  C   UNL A   1      49.996  25.261  31.769  1.00  0.00     0.074 A 
ATOM     55  C   UNL A   1      48.133  26.761  31.995  1.00  0.00     0.049 A 
ATOM     56  N   UNL A   1      49.780  24.299  32.654  1.00  0.00    -0.248 NA
ATOM     57  C   UNL A   1      51.448  25.481  31.691  1.00  0.00     0.031 C 
ATOM     58  C   UNL A   1      48.312  26.785  33.447  1.00  0.00     0.029 A 
ATOM     59  N   UNL A   1      46.928  27.430  31.793  1.00  0.00    -0.354 N 
ATOM     60  C   UNL A   1      51.024  23.857  33.150  1.00  0.00     0.074 A 
ATOM     61  C   UNL A   1      52.015  24.502  32.382  1.00  0.00     0.031 C 
ATOM     62  C   UNL A   1      47.135  27.117  34.006  1.00  0.00     0.029 A 
ATOM     63  C   UNL A   1      46.155  27.224  32.936  1.00  0.00     0.049 A 
ATOM     64  H   UNL A   1      46.669  27.948  30.997  1.00  0.00     0.167 HD
ATOM     65  C   UNL A   1      51.300  23.181  34.303  1.00  0.00     0.031 A 
ATOM     66  C   UNL A   1      44.975  26.553  32.831  1.00  0.00     0.031 A 
ATOM     67  C   UNL A   1      50.190  23.285  35.200  1.00  0.00     0.049 A 
ATOM     68  C   UNL A   1      44.978  25.275  33.633  1.00  0.00     0.074 A 
ATOM     69  C   UNL A   1      49.892  24.237  36.158  1.00  0.00     0.029 A 
ATOM     70  N   UNL A   1      49.021  22.632  34.881  1.00  0.00    -0.354 N 
ATOM     71  N   UNL A   1      46.051  24.717  34.125  1.00  0.00    -0.248 NA
ATOM     72  C   UNL A   1      43.769  24.512  33.926  1.00  0.00     0.031 C 
ATOM     73  C   UNL A   1      48.484  24.251  36.306  1.00  0.00     0.029 A 
ATOM     74  C   UNL A   1      47.960  23.246  35.514  1.00  0.00     0.049 A 
ATOM     75  H   UNL A   1      48.952  21.846  34.293  1.00  0.00     0.167 HD
ATOM     76  C   UNL A   1      45.709  23.549  34.749  1.00  0.00     0.074 A 
ATOM     77  C   UNL A   1      44.269  23.473  34.615  1.00  0.00     0.031 C 
ATOM     78  C   UNL A   1      46.628  22.719  35.315  1.00  0.00     0.031 A 
BRANCH  65  79
ATOM     79  C   UNL A   1      52.740  22.855  34.692  1.00  0.00    -0.014 A 
ATOM     80  C   UNL A   1      53.170  21.537  34.911  1.00  0.00     0.009 A 
ATOM     81  C   UNL A   1      53.691  23.872  34.944  1.00  0.00     0.009 A 
ATOM     82  C   UNL A   1      54.423  21.257  35.490  1.00  0.00     0.001 A 
ATOM     83  C   UNL A   1      54.925  23.600  35.560  1.00  0.00     0.001 A 
ATOM     84  C   UNL A   1      55.281  22.290  35.855  1.00  0.00     0.000 A 
ENDBRANCH  65  79
BRANCH  66  85
ATOM     85  C   UNL A   1      44.234  26.797  31.548  1.00  0.00    -0.014 A 
ATOM     86  C   UNL A   1      44.349  25.825  30.525  1.00  0.00     0.009 A 
ATOM     87  C   UNL A   1      43.228  27.763  31.416  1.00  0.00     0.009 A 
ATOM     88  C   UNL A   1      43.428  25.748  29.476  1.00  0.00     0.001 A 
ATOM     89  C   UNL A   1      42.315  27.699  30.344  1.00  0.00     0.001 A 
ATOM     90  C   UNL A   1      42.401  26.679  29.394  1.00  0.00     0.000 A 
ENDBRANCH  66  85
BRANCH  78  91
ATOM     91  C   UNL A   1      46.363  21.314  35.773  1.00  0.00    -0.014 A 
ATOM     92  C   UNL A   1      46.321  20.943  37.120  1.00  0.00     0.009 A 
ATOM     93  C   UNL A   1      45.959  20.350  34.822  1.00  0.00     0.009 A 
ATOM     94  C   UNL A   1      45.946  19.650  37.498  1.00  0.00     0.001 A 
ATOM     95  C   UNL A   1      45.533  19.078  35.199  1.00  0.00     0.001 A 
ATOM     96  C   UNL A   1      45.543  18.723  36.541  1.00  0.00     0.000 A 
ENDBRANCH  78  91
ENDBRANCH  52  53
ENDBRANCH  45  47
ENDBRANCH  44  45
ENDBRANCH  43  44
ENDBRANCH  42  43
ENDBRANCH  41  42
ENDBRANCH  40  41
ENDBRANCH  39  40
ENDBRANCH  38  39
ENDBRANCH   1  38
TORSDOF 24
ENDMDL
