MODEL 1
REMARK VINA RESULT:     -10.7      0.000      0.000
REMARK SMILES O=C(OCCOCCOCCOC(=O)c1cc(NC(=O)c2ccccc2Cl)ccc1N1CCC[C@H](C[NH+]2CCCC2)C1)c1ccc(-c2c3nc(c(-c4ccccc4)c4ccc([nH]4)c(-c4ccccc4)c4nc(c(-c5ccccc5)c5ccc2[nH]5)C=C4)C=C3)cc1
REMARK SMILES IDX 8 1 7 2 6 3 5 4 4 5 3 6 2 7 1 8 43 9 44 10 90 11 45 12 89 13
REMARK SMILES IDX 46 14 47 15 48 16 83 17 49 18 88 19 82 20 84 21 50 22 87 23
REMARK SMILES IDX 81 24 80 25 51 27 73 28 58 29 72 30 59 31 62 32 71 33 85 34
REMARK SMILES IDX 60 35 61 36 70 38 86 39 63 40 52 41 53 42 57 43 54 44 56 45
REMARK SMILES IDX 55 46 74 47 75 48 79 49 76 50 78 51 77 52 64 53 65 54 69 55
REMARK SMILES IDX 66 56 68 57 67 58 9 59 10 60 11 61 12 62 13 63 14 64 15 65
REMARK SMILES IDX 16 66 30 67 17 68 29 69 28 70 31 71 32 72 42 73 33 74 35 75
REMARK SMILES IDX 34 76 36 77 37 78 38 79 41 80 39 82 40 83 18 84 19 85 20 87
REMARK SMILES IDX 21 88 22 89 26 90 23 91 25 92 27 93 24 94
REMARK H PARENT 84 26 62 37 37 81 18 86
REMARK Flexibility Score: inf
ROOT
ATOM      1  C   UNL A   1      33.787  30.979  27.221  1.00  0.00     0.188 C 
ENDROOT
BRANCH   1   2
ATOM      2  C   UNL A   1      33.677  32.160  28.191  1.00  0.00     0.188 C 
BRANCH   2   3
ATOM      3  O   UNL A   1      34.550  33.262  27.943  1.00  0.00    -0.376 OA
BRANCH   3   4
ATOM      4  C   UNL A   1      35.303  33.652  29.097  1.00  0.00     0.202 C 
BRANCH   4   5
ATOM      5  C   UNL A   1      34.472  33.714  30.385  1.00  0.00     0.261 C 
BRANCH   5   6
ATOM      6  O   UNL A   1      34.450  32.448  31.059  1.00  0.00    -0.460 OA
BRANCH   6   7
ATOM      7  C   UNL A   1      35.399  31.993  31.906  1.00  0.00     0.338 C 
ATOM      8  O   UNL A   1      35.431  32.452  33.047  1.00  0.00    -0.246 OA
BRANCH   7   9
ATOM      9  C   UNL A   1      36.512  31.077  31.478  1.00  0.00     0.060 A 
ATOM     10  C   UNL A   1      37.471  30.478  32.301  1.00  0.00     0.016 A 
ATOM     11  C   UNL A   1      36.585  30.807  30.100  1.00  0.00     0.016 A 
ATOM     12  C   UNL A   1      38.516  29.711  31.774  1.00  0.00     0.010 A 
ATOM     13  C   UNL A   1      37.606  30.017  29.567  1.00  0.00     0.010 A 
ATOM     14  C   UNL A   1      38.611  29.514  30.399  1.00  0.00    -0.014 A 
BRANCH  14  15
ATOM     15  C   UNL A   1      39.886  29.065  29.801  1.00  0.00     0.031 A 
ATOM     16  C   UNL A   1      40.990  30.077  29.715  1.00  0.00     0.074 A 
ATOM     17  C   UNL A   1      40.088  27.806  29.381  1.00  0.00     0.049 A 
ATOM     18  N   UNL A   1      42.138  30.009  29.099  1.00  0.00    -0.248 NA
ATOM     19  C   UNL A   1      40.746  31.356  30.405  1.00  0.00     0.031 C 
ATOM     20  C   UNL A   1      39.127  26.714  29.492  1.00  0.00     0.029 A 
ATOM     21  N   UNL A   1      41.180  27.239  28.772  1.00  0.00    -0.354 N 
ATOM     22  C   UNL A   1      42.718  31.257  29.269  1.00  0.00     0.074 A 
ATOM     23  C   UNL A   1      41.791  32.068  30.023  1.00  0.00     0.031 C 
ATOM     24  C   UNL A   1      39.679  25.604  28.971  1.00  0.00     0.029 A 
ATOM     25  C   UNL A   1      40.996  25.921  28.439  1.00  0.00     0.049 A 
ATOM     26  H   UNL A   1      42.014  27.731  28.593  1.00  0.00     0.167 HD
ATOM     27  C   UNL A   1      43.924  31.693  28.838  1.00  0.00     0.031 A 
ATOM     28  C   UNL A   1      41.785  25.069  27.755  1.00  0.00     0.031 A 
ATOM     29  C   UNL A   1      44.848  30.869  28.118  1.00  0.00     0.049 A 
ATOM     30  C   UNL A   1      43.112  25.568  27.258  1.00  0.00     0.074 A 
ATOM     31  C   UNL A   1      46.096  31.195  27.625  1.00  0.00     0.029 A 
ATOM     32  N   UNL A   1      44.619  29.537  27.801  1.00  0.00    -0.354 N 
ATOM     33  N   UNL A   1      43.642  26.760  27.393  1.00  0.00    -0.248 NA
ATOM     34  C   UNL A   1      43.950  24.613  26.521  1.00  0.00     0.031 C 
ATOM     35  C   UNL A   1      46.613  30.062  26.984  1.00  0.00     0.029 A 
ATOM     36  C   UNL A   1      45.703  29.023  27.117  1.00  0.00     0.049 A 
ATOM     37  H   UNL A   1      43.804  29.034  28.030  1.00  0.00     0.167 HD
ATOM     38  C   UNL A   1      44.886  26.695  26.782  1.00  0.00     0.074 A 
ATOM     39  C   UNL A   1      45.033  25.342  26.279  1.00  0.00     0.031 C 
ATOM     40  C   UNL A   1      45.823  27.665  26.650  1.00  0.00     0.031 A 
BRANCH  27  41
ATOM     41  C   UNL A   1      44.234  33.138  29.095  1.00  0.00    -0.014 A 
ATOM     42  C   UNL A   1      44.835  33.560  30.293  1.00  0.00     0.009 A 
ATOM     43  C   UNL A   1      43.815  34.104  28.168  1.00  0.00     0.009 A 
ATOM     44  C   UNL A   1      44.939  34.920  30.589  1.00  0.00     0.001 A 
ATOM     45  C   UNL A   1      43.952  35.463  28.452  1.00  0.00     0.001 A 
ATOM     46  C   UNL A   1      44.494  35.870  29.671  1.00  0.00     0.000 A 
ENDBRANCH  27  41
BRANCH  28  47
ATOM     47  C   UNL A   1      41.323  23.680  27.490  1.00  0.00    -0.014 A 
ATOM     48  C   UNL A   1      40.471  23.399  26.411  1.00  0.00     0.009 A 
ATOM     49  C   UNL A   1      41.764  22.618  28.296  1.00  0.00     0.009 A 
ATOM     50  C   UNL A   1      40.062  22.086  26.153  1.00  0.00     0.001 A 
ATOM     51  C   UNL A   1      41.376  21.303  28.020  1.00  0.00     0.001 A 
ATOM     52  C   UNL A   1      40.521  21.039  26.952  1.00  0.00     0.000 A 
ENDBRANCH  28  47
BRANCH  40  53
ATOM     53  C   UNL A   1      47.113  27.290  25.987  1.00  0.00    -0.014 A 
ATOM     54  C   UNL A   1      48.148  26.677  26.705  1.00  0.00     0.009 A 
ATOM     55  C   UNL A   1      47.245  27.462  24.600  1.00  0.00     0.009 A 
ATOM     56  C   UNL A   1      49.300  26.249  26.045  1.00  0.00     0.001 A 
ATOM     57  C   UNL A   1      48.388  27.014  23.940  1.00  0.00     0.001 A 
ATOM     58  C   UNL A   1      49.415  26.410  24.664  1.00  0.00     0.000 A 
ENDBRANCH  40  53
ENDBRANCH  14  15
ENDBRANCH   7   9
ENDBRANCH   6   7
ENDBRANCH   5   6
ENDBRANCH   4   5
ENDBRANCH   3   4
ENDBRANCH   2   3
ENDBRANCH   1   2
BRANCH   1  59
ATOM     59  O   UNL A   1      34.098  29.702  27.754  1.00  0.00    -0.376 OA
BRANCH  59  60
ATOM     60  C   UNL A   1      33.256  28.609  27.399  1.00  0.00     0.202 C 
BRANCH  60  61
ATOM     61  C   UNL A   1      33.644  27.720  26.215  1.00  0.00     0.261 C 
BRANCH  61  62
ATOM     62  O   UNL A   1      33.133  26.376  26.244  1.00  0.00    -0.460 OA
BRANCH  62  63
ATOM     63  C   UNL A   1      31.896  26.236  25.700  1.00  0.00     0.340 C 
ATOM     64  O   UNL A   1      30.936  26.970  25.874  1.00  0.00    -0.246 OA
BRANCH  63  65
ATOM     65  C   UNL A   1      31.795  25.034  24.857  1.00  0.00     0.085 A 
ATOM     66  C   UNL A   1      31.663  23.803  25.534  1.00  0.00     0.044 A 
ATOM     67  C   UNL A   1      32.013  25.105  23.468  1.00  0.00     0.051 A 
ATOM     68  C   UNL A   1      31.749  22.601  24.837  1.00  0.00     0.042 A 
ATOM     69  C   UNL A   1      32.108  23.880  22.797  1.00  0.00     0.029 A 
ATOM     70  C   UNL A   1      31.981  22.653  23.461  1.00  0.00     0.028 A 
BRANCH  67  71
ATOM     71  N   UNL A   1      32.240  26.273  22.767  1.00  0.00    -0.370 N 
ATOM     72  C   UNL A   1      33.443  27.077  22.970  1.00  0.00     0.116 C 
ATOM     73  C   UNL A   1      31.294  26.730  21.756  1.00  0.00     0.126 C 
ATOM     74  C   UNL A   1      33.072  28.541  23.217  1.00  0.00     0.022 C 
ATOM     75  C   UNL A   1      30.808  28.141  22.105  1.00  0.00     0.064 C 
ATOM     76  C   UNL A   1      32.043  29.054  22.204  1.00  0.00     0.013 C 
BRANCH  75  77
ATOM     77  C   UNL A   1      29.920  28.070  23.375  1.00  0.00     0.267 C 
BRANCH  77  78
ATOM     78  N   UNL A   1      28.940  29.124  23.638  1.00  0.00    -0.335 N 
ATOM     79  C   UNL A   1      27.748  29.076  22.796  1.00  0.00     0.262 C 
ATOM     80  C   UNL A   1      29.437  30.492  23.624  1.00  0.00     0.262 C 
ATOM     81  H   UNL A   1      28.696  28.890  24.600  1.00  0.00     0.348 HD
ATOM     82  C   UNL A   1      27.956  30.134  21.730  1.00  0.00     0.067 C 
ATOM     83  C   UNL A   1      28.870  31.159  22.377  1.00  0.00     0.067 C 
ENDBRANCH  77  78
ENDBRANCH  75  77
ENDBRANCH  67  71
BRANCH  68  84
ATOM     84  N   UNL A   1      31.726  21.323  25.427  1.00  0.00    -0.322 N 
ATOM     85  C   UNL A   1      32.707  20.388  25.661  1.00  0.00     0.257 C 
ATOM     86  H   UNL A   1      30.833  21.045  25.733  1.00  0.00     0.170 HD
ATOM     87  O   UNL A   1      32.406  19.230  25.949  1.00  0.00    -0.269 OA
BRANCH  85  88
ATOM     88  C   UNL A   1      34.131  20.753  25.658  1.00  0.00     0.058 A 
ATOM     89  C   UNL A   1      34.974  20.134  24.726  1.00  0.00     0.015 A 
ATOM     90  C   UNL A   1      34.657  21.633  26.606  1.00  0.00     0.053 A 
ATOM     91  C   UNL A   1      36.330  20.460  24.694  1.00  0.00     0.001 A 
ATOM     92  C   UNL A   1      36.016  21.951  26.569  1.00  0.00     0.021 A 
ATOM     93  Cl  UNL A   1      33.688  22.298  27.866  1.00  0.00    -0.083 Cl
ATOM     94  C   UNL A   1      36.849  21.378  25.606  1.00  0.00     0.002 A 
ENDBRANCH  85  88
ENDBRANCH  68  84
ENDBRANCH  63  65
ENDBRANCH  62  63
ENDBRANCH  61  62
ENDBRANCH  60  61
ENDBRANCH  59  60
ENDBRANCH   1  59
TORSDOF 22
ENDMDL
MODEL 2
REMARK VINA RESULT:     -10.5      2.954      6.432
REMARK SMILES O=C(OCCOCCOCCOC(=O)c1cc(NC(=O)c2ccccc2Cl)ccc1N1CCC[C@H](C[NH+]2CCCC2)C1)c1ccc(-c2c3nc(c(-c4ccccc4)c4ccc([nH]4)c(-c4ccccc4)c4nc(c(-c5ccccc5)c5ccc2[nH]5)C=C4)C=C3)cc1
REMARK SMILES IDX 8 1 7 2 6 3 5 4 4 5 3 6 2 7 1 8 43 9 44 10 90 11 45 12 89 13
REMARK SMILES IDX 46 14 47 15 48 16 83 17 49 18 88 19 82 20 84 21 50 22 87 23
REMARK SMILES IDX 81 24 80 25 51 27 73 28 58 29 72 30 59 31 62 32 71 33 85 34
REMARK SMILES IDX 60 35 61 36 70 38 86 39 63 40 52 41 53 42 57 43 54 44 56 45
REMARK SMILES IDX 55 46 74 47 75 48 79 49 76 50 78 51 77 52 64 53 65 54 69 55
REMARK SMILES IDX 66 56 68 57 67 58 9 59 10 60 11 61 12 62 13 63 14 64 15 65
REMARK SMILES IDX 16 66 30 67 17 68 29 69 28 70 31 71 32 72 42 73 33 74 35 75
REMARK SMILES IDX 34 76 36 77 37 78 38 79 41 80 39 82 40 83 18 84 19 85 20 87
REMARK SMILES IDX 21 88 22 89 26 90 23 91 25 92 27 93 24 94
REMARK H PARENT 84 26 62 37 37 81 18 86
REMARK Flexibility Score: inf
ROOT
ATOM      1  C   UNL A   1      34.567  30.219  27.884  1.00  0.00     0.188 C 
ENDROOT
BRANCH   1   2
ATOM      2  C   UNL A   1      33.794  31.364  27.223  1.00  0.00     0.188 C 
BRANCH   2   3
ATOM      3  O   UNL A   1      32.372  31.239  27.211  1.00  0.00    -0.376 OA
BRANCH   3   4
ATOM      4  C   UNL A   1      31.697  32.501  27.270  1.00  0.00     0.202 C 
BRANCH   4   5
ATOM      5  C   UNL A   1      32.644  33.708  27.270  1.00  0.00     0.261 C 
BRANCH   5   6
ATOM      6  O   UNL A   1      32.439  34.538  28.423  1.00  0.00    -0.460 OA
BRANCH   6   7
ATOM      7  C   UNL A   1      33.323  34.719  29.427  1.00  0.00     0.338 C 
ATOM      8  O   UNL A   1      33.210  35.721  30.131  1.00  0.00    -0.246 OA
BRANCH   7   9
ATOM      9  C   UNL A   1      34.531  33.844  29.627  1.00  0.00     0.060 A 
ATOM     10  C   UNL A   1      34.677  32.815  30.562  1.00  0.00     0.016 A 
ATOM     11  C   UNL A   1      35.621  34.105  28.778  1.00  0.00     0.016 A 
ATOM     12  C   UNL A   1      35.885  32.126  30.713  1.00  0.00     0.010 A 
ATOM     13  C   UNL A   1      36.821  33.401  28.899  1.00  0.00     0.010 A 
ATOM     14  C   UNL A   1      36.976  32.447  29.909  1.00  0.00    -0.014 A 
BRANCH  14  15
ATOM     15  C   UNL A   1      38.338  32.031  30.306  1.00  0.00     0.031 A 
ATOM     16  C   UNL A   1      38.870  30.771  29.688  1.00  0.00     0.074 A 
ATOM     17  C   UNL A   1      39.100  32.746  31.148  1.00  0.00     0.049 A 
ATOM     18  N   UNL A   1      39.947  30.093  29.974  1.00  0.00    -0.248 NA
ATOM     19  C   UNL A   1      38.051  30.186  28.612  1.00  0.00     0.031 C 
ATOM     20  C   UNL A   1      38.731  34.026  31.742  1.00  0.00     0.029 A 
ATOM     21  N   UNL A   1      40.352  32.486  31.648  1.00  0.00    -0.354 N 
ATOM     22  C   UNL A   1      39.896  28.969  29.162  1.00  0.00     0.074 A 
ATOM     23  C   UNL A   1      38.676  29.044  28.393  1.00  0.00     0.031 C 
ATOM     24  C   UNL A   1      39.742  34.442  32.524  1.00  0.00     0.029 A 
ATOM     25  C   UNL A   1      40.794  33.436  32.534  1.00  0.00     0.049 A 
ATOM     26  H   UNL A   1      40.881  31.695  31.395  1.00  0.00     0.167 HD
ATOM     27  C   UNL A   1      40.791  27.960  29.062  1.00  0.00     0.031 A 
ATOM     28  C   UNL A   1      41.906  33.480  33.293  1.00  0.00     0.031 A 
ATOM     29  C   UNL A   1      42.014  27.913  29.807  1.00  0.00     0.049 A 
ATOM     30  C   UNL A   1      42.884  32.343  33.194  1.00  0.00     0.074 A 
ATOM     31  C   UNL A   1      42.998  26.945  29.796  1.00  0.00     0.029 A 
ATOM     32  N   UNL A   1      42.420  28.899  30.696  1.00  0.00    -0.354 N 
ATOM     33  N   UNL A   1      42.815  31.266  32.449  1.00  0.00    -0.248 NA
ATOM     34  C   UNL A   1      44.088  32.424  34.031  1.00  0.00     0.031 C 
ATOM     35  C   UNL A   1      43.992  27.335  30.701  1.00  0.00     0.029 A 
ATOM     36  C   UNL A   1      43.644  28.565  31.242  1.00  0.00     0.049 A 
ATOM     37  H   UNL A   1      41.912  29.716  30.905  1.00  0.00     0.167 HD
ATOM     38  C   UNL A   1      43.976  30.551  32.705  1.00  0.00     0.074 A 
ATOM     39  C   UNL A   1      44.734  31.322  33.672  1.00  0.00     0.031 C 
ATOM     40  C   UNL A   1      44.380  29.366  32.186  1.00  0.00     0.031 A 
BRANCH  27  41
ATOM     41  C   UNL A   1      40.408  26.825  28.159  1.00  0.00    -0.014 A 
ATOM     42  C   UNL A   1      39.657  25.733  28.628  1.00  0.00     0.009 A 
ATOM     43  C   UNL A   1      40.903  26.796  26.847  1.00  0.00     0.009 A 
ATOM     44  C   UNL A   1      39.477  24.604  27.825  1.00  0.00     0.001 A 
ATOM     45  C   UNL A   1      40.692  25.680  26.035  1.00  0.00     0.001 A 
ATOM     46  C   UNL A   1      39.998  24.578  26.532  1.00  0.00     0.000 A 
ENDBRANCH  27  41
BRANCH  28  47
ATOM     47  C   UNL A   1      42.129  34.624  34.217  1.00  0.00    -0.014 A 
ATOM     48  C   UNL A   1      42.739  35.806  33.767  1.00  0.00     0.009 A 
ATOM     49  C   UNL A   1      41.697  34.555  35.552  1.00  0.00     0.009 A 
ATOM     50  C   UNL A   1      42.920  36.886  34.637  1.00  0.00     0.001 A 
ATOM     51  C   UNL A   1      41.856  35.645  36.412  1.00  0.00     0.001 A 
ATOM     52  C   UNL A   1      42.471  36.809  35.954  1.00  0.00     0.000 A 
ENDBRANCH  28  47
BRANCH  40  53
ATOM     53  C   UNL A   1      45.724  28.854  32.606  1.00  0.00    -0.014 A 
ATOM     54  C   UNL A   1      46.894  29.273  31.960  1.00  0.00     0.009 A 
ATOM     55  C   UNL A   1      45.818  28.021  33.731  1.00  0.00     0.009 A 
ATOM     56  C   UNL A   1      48.140  28.857  32.431  1.00  0.00     0.001 A 
ATOM     57  C   UNL A   1      47.065  27.625  34.213  1.00  0.00     0.001 A 
ATOM     58  C   UNL A   1      48.224  28.042  33.561  1.00  0.00     0.000 A 
ENDBRANCH  40  53
ENDBRANCH  14  15
ENDBRANCH   7   9
ENDBRANCH   6   7
ENDBRANCH   5   6
ENDBRANCH   4   5
ENDBRANCH   3   4
ENDBRANCH   2   3
ENDBRANCH   1   2
BRANCH   1  59
ATOM     59  O   UNL A   1      34.092  28.896  27.698  1.00  0.00    -0.376 OA
BRANCH  59  60
ATOM     60  C   UNL A   1      34.061  28.379  26.372  1.00  0.00     0.202 C 
BRANCH  60  61
ATOM     61  C   UNL A   1      33.913  26.871  26.159  1.00  0.00     0.261 C 
BRANCH  61  62
ATOM     62  O   UNL A   1      32.662  26.296  26.575  1.00  0.00    -0.460 OA
BRANCH  62  63
ATOM     63  C   UNL A   1      31.686  26.338  25.630  1.00  0.00     0.340 C 
ATOM     64  O   UNL A   1      30.874  27.234  25.459  1.00  0.00    -0.246 OA
BRANCH  63  65
ATOM     65  C   UNL A   1      31.669  25.123  24.798  1.00  0.00     0.085 A 
ATOM     66  C   UNL A   1      31.553  23.896  25.484  1.00  0.00     0.044 A 
ATOM     67  C   UNL A   1      31.947  25.187  23.420  1.00  0.00     0.051 A 
ATOM     68  C   UNL A   1      31.716  22.691  24.807  1.00  0.00     0.042 A 
ATOM     69  C   UNL A   1      32.119  23.960  22.769  1.00  0.00     0.029 A 
ATOM     70  C   UNL A   1      32.008  22.736  23.443  1.00  0.00     0.028 A 
BRANCH  67  71
ATOM     71  N   UNL A   1      32.161  26.356  22.715  1.00  0.00    -0.370 N 
ATOM     72  C   UNL A   1      33.350  27.178  22.923  1.00  0.00     0.116 C 
ATOM     73  C   UNL A   1      31.216  26.794  21.695  1.00  0.00     0.126 C 
ATOM     74  C   UNL A   1      32.955  28.638  23.160  1.00  0.00     0.022 C 
ATOM     75  C   UNL A   1      30.706  28.199  22.034  1.00  0.00     0.064 C 
ATOM     76  C   UNL A   1      31.927  29.130  22.137  1.00  0.00     0.013 C 
BRANCH  75  77
ATOM     77  C   UNL A   1      29.810  28.119  23.298  1.00  0.00     0.267 C 
BRANCH  77  78
ATOM     78  N   UNL A   1      28.798  29.149  23.538  1.00  0.00    -0.335 N 
ATOM     79  C   UNL A   1      27.699  29.163  22.576  1.00  0.00     0.262 C 
ATOM     80  C   UNL A   1      29.279  30.515  23.680  1.00  0.00     0.262 C 
ATOM     81  H   UNL A   1      28.458  28.840  24.449  1.00  0.00     0.348 HD
ATOM     82  C   UNL A   1      28.005  30.301  21.621  1.00  0.00     0.067 C 
ATOM     83  C   UNL A   1      28.838  31.275  22.436  1.00  0.00     0.067 C 
ENDBRANCH  77  78
ENDBRANCH  75  77
ENDBRANCH  67  71
BRANCH  68  84
ATOM     84  N   UNL A   1      31.715  21.420  25.413  1.00  0.00    -0.322 N 
ATOM     85  C   UNL A   1      32.714  20.511  25.673  1.00  0.00     0.257 C 
ATOM     86  H   UNL A   1      30.823  21.122  25.707  1.00  0.00     0.170 HD
ATOM     87  O   UNL A   1      32.438  19.350  25.970  1.00  0.00    -0.269 OA
BRANCH  85  88
ATOM     88  C   UNL A   1      34.129  20.911  25.689  1.00  0.00     0.058 A 
ATOM     89  C   UNL A   1      34.995  20.327  24.757  1.00  0.00     0.015 A 
ATOM     90  C   UNL A   1      34.624  21.790  26.655  1.00  0.00     0.053 A 
ATOM     91  C   UNL A   1      36.344  20.687  24.743  1.00  0.00     0.001 A 
ATOM     92  C   UNL A   1      35.975  22.142  26.636  1.00  0.00     0.021 A 
ATOM     93  Cl  UNL A   1      33.627  22.413  27.915  1.00  0.00    -0.083 Cl
ATOM     94  C   UNL A   1      36.831  21.604  25.673  1.00  0.00     0.002 A 
ENDBRANCH  85  88
ENDBRANCH  68  84
ENDBRANCH  63  65
ENDBRANCH  62  63
ENDBRANCH  61  62
ENDBRANCH  60  61
ENDBRANCH  59  60
ENDBRANCH   1  59
TORSDOF 22
ENDMDL
MODEL 3
REMARK VINA RESULT:     -10.0      7.103     12.773
REMARK SMILES O=C(OCCOCCOCCOC(=O)c1cc(NC(=O)c2ccccc2Cl)ccc1N1CCC[C@H](C[NH+]2CCCC2)C1)c1ccc(-c2c3nc(c(-c4ccccc4)c4ccc([nH]4)c(-c4ccccc4)c4nc(c(-c5ccccc5)c5ccc2[nH]5)C=C4)C=C3)cc1
REMARK SMILES IDX 8 1 7 2 6 3 5 4 4 5 3 6 2 7 1 8 43 9 44 10 90 11 45 12 89 13
REMARK SMILES IDX 46 14 47 15 48 16 83 17 49 18 88 19 82 20 84 21 50 22 87 23
REMARK SMILES IDX 81 24 80 25 51 27 73 28 58 29 72 30 59 31 62 32 71 33 85 34
REMARK SMILES IDX 60 35 61 36 70 38 86 39 63 40 52 41 53 42 57 43 54 44 56 45
REMARK SMILES IDX 55 46 74 47 75 48 79 49 76 50 78 51 77 52 64 53 65 54 69 55
REMARK SMILES IDX 66 56 68 57 67 58 9 59 10 60 11 61 12 62 13 63 14 64 15 65
REMARK SMILES IDX 16 66 30 67 17 68 29 69 28 70 31 71 32 72 42 73 33 74 35 75
REMARK SMILES IDX 34 76 36 77 37 78 38 79 41 80 39 82 40 83 18 84 19 85 20 87
REMARK SMILES IDX 21 88 22 89 26 90 23 91 25 92 27 93 24 94
REMARK H PARENT 84 26 62 37 37 81 18 86
REMARK Flexibility Score: inf
ROOT
ATOM      1  C   UNL A   1      49.952  30.143  34.792  1.00  0.00     0.188 C 
ENDROOT
BRANCH   1   2
ATOM      2  C   UNL A   1      48.966  30.285  35.956  1.00  0.00     0.188 C 
BRANCH   2   3
ATOM      3  O   UNL A   1      48.757  29.116  36.750  1.00  0.00    -0.376 OA
BRANCH   3   4
ATOM      4  C   UNL A   1      48.505  29.412  38.128  1.00  0.00     0.202 C 
BRANCH   4   5
ATOM      5  C   UNL A   1      47.716  28.318  38.859  1.00  0.00     0.261 C 
BRANCH   5   6
ATOM      6  O   UNL A   1      47.158  27.367  37.941  1.00  0.00    -0.460 OA
BRANCH   6   7
ATOM      7  C   UNL A   1      45.843  27.114  37.774  1.00  0.00     0.338 C 
ATOM      8  O   UNL A   1      45.272  26.415  38.610  1.00  0.00    -0.246 OA
BRANCH   7   9
ATOM      9  C   UNL A   1      45.080  27.506  36.538  1.00  0.00     0.060 A 
ATOM     10  C   UNL A   1      45.495  28.395  35.542  1.00  0.00     0.016 A 
ATOM     11  C   UNL A   1      43.817  26.909  36.385  1.00  0.00     0.016 A 
ATOM     12  C   UNL A   1      44.659  28.749  34.478  1.00  0.00     0.010 A 
ATOM     13  C   UNL A   1      42.986  27.231  35.310  1.00  0.00     0.010 A 
ATOM     14  C   UNL A   1      43.383  28.200  34.382  1.00  0.00    -0.014 A 
BRANCH  14  15
ATOM     15  C   UNL A   1      42.362  28.840  33.526  1.00  0.00     0.031 A 
ATOM     16  C   UNL A   1      41.522  29.912  34.156  1.00  0.00     0.074 A 
ATOM     17  C   UNL A   1      42.198  28.525  32.231  1.00  0.00     0.049 A 
ATOM     18  N   UNL A   1      40.461  30.517  33.698  1.00  0.00    -0.248 NA
ATOM     19  C   UNL A   1      41.930  30.340  35.506  1.00  0.00     0.031 C 
ATOM     20  C   UNL A   1      43.009  27.569  31.485  1.00  0.00     0.029 A 
ATOM     21  N   UNL A   1      41.285  28.986  31.316  1.00  0.00    -0.354 N 
ATOM     22  C   UNL A   1      40.037  31.341  34.730  1.00  0.00     0.074 A 
ATOM     23  C   UNL A   1      40.938  31.144  35.841  1.00  0.00     0.031 C 
ATOM     24  C   UNL A   1      42.555  27.520  30.221  1.00  0.00     0.029 A 
ATOM     25  C   UNL A   1      41.394  28.387  30.087  1.00  0.00     0.049 A 
ATOM     26  H   UNL A   1      40.616  29.679  31.522  1.00  0.00     0.167 HD
ATOM     27  C   UNL A   1      38.988  32.195  34.750  1.00  0.00     0.031 A 
ATOM     28  C   UNL A   1      40.630  28.500  28.983  1.00  0.00     0.031 A 
ATOM     29  C   UNL A   1      38.121  32.406  33.630  1.00  0.00     0.049 A 
ATOM     30  C   UNL A   1      39.452  29.431  29.022  1.00  0.00     0.074 A 
ATOM     31  C   UNL A   1      37.025  33.239  33.528  1.00  0.00     0.029 A 
ATOM     32  N   UNL A   1      38.269  31.775  32.402  1.00  0.00    -0.354 N 
ATOM     33  N   UNL A   1      39.036  30.184  30.012  1.00  0.00    -0.248 NA
ATOM     34  C   UNL A   1      38.642  29.535  27.801  1.00  0.00     0.031 C 
ATOM     35  C   UNL A   1      36.493  33.092  32.242  1.00  0.00     0.029 A 
ATOM     36  C   UNL A   1      37.284  32.200  31.533  1.00  0.00     0.049 A 
ATOM     37  H   UNL A   1      38.974  31.122  32.184  1.00  0.00     0.167 HD
ATOM     38  C   UNL A   1      37.931  30.871  29.529  1.00  0.00     0.074 A 
ATOM     39  C   UNL A   1      37.746  30.448  28.154  1.00  0.00     0.031 C 
ATOM     40  C   UNL A   1      37.143  31.773  30.164  1.00  0.00     0.031 A 
BRANCH  27  41
ATOM     41  C   UNL A   1      38.723  32.884  36.057  1.00  0.00    -0.014 A 
ATOM     42  C   UNL A   1      39.325  34.114  36.375  1.00  0.00     0.009 A 
ATOM     43  C   UNL A   1      37.946  32.235  37.028  1.00  0.00     0.009 A 
ATOM     44  C   UNL A   1      39.216  34.639  37.665  1.00  0.00     0.001 A 
ATOM     45  C   UNL A   1      37.811  32.780  38.305  1.00  0.00     0.001 A 
ATOM     46  C   UNL A   1      38.463  33.970  38.629  1.00  0.00     0.000 A 
ENDBRANCH  27  41
BRANCH  28  47
ATOM     47  C   UNL A   1      40.948  27.693  27.774  1.00  0.00    -0.014 A 
ATOM     48  C   UNL A   1      40.428  26.399  27.614  1.00  0.00     0.009 A 
ATOM     49  C   UNL A   1      41.747  28.229  26.751  1.00  0.00     0.009 A 
ATOM     50  C   UNL A   1      40.712  25.658  26.462  1.00  0.00     0.001 A 
ATOM     51  C   UNL A   1      42.008  27.497  25.589  1.00  0.00     0.001 A 
ATOM     52  C   UNL A   1      41.493  26.210  25.448  1.00  0.00     0.000 A 
ENDBRANCH  28  47
BRANCH  40  53
ATOM     53  C   UNL A   1      36.043  32.406  29.368  1.00  0.00    -0.014 A 
ATOM     54  C   UNL A   1      34.756  31.853  29.340  1.00  0.00     0.009 A 
ATOM     55  C   UNL A   1      36.281  33.631  28.726  1.00  0.00     0.009 A 
ATOM     56  C   UNL A   1      33.725  32.514  28.671  1.00  0.00     0.001 A 
ATOM     57  C   UNL A   1      35.244  34.299  28.077  1.00  0.00     0.001 A 
ATOM     58  C   UNL A   1      33.967  33.739  28.049  1.00  0.00     0.000 A 
ENDBRANCH  40  53
ENDBRANCH  14  15
ENDBRANCH   7   9
ENDBRANCH   6   7
ENDBRANCH   5   6
ENDBRANCH   4   5
ENDBRANCH   3   4
ENDBRANCH   2   3
ENDBRANCH   1   2
BRANCH   1  59
ATOM     59  O   UNL A   1      49.612  29.267  33.730  1.00  0.00    -0.376 OA
BRANCH  59  60
ATOM     60  C   UNL A   1      49.239  29.844  32.483  1.00  0.00     0.202 C 
BRANCH  60  61
ATOM     61  C   UNL A   1      48.318  29.064  31.542  1.00  0.00     0.261 C 
BRANCH  61  62
ATOM     62  O   UNL A   1      47.443  28.109  32.166  1.00  0.00    -0.460 OA
BRANCH  62  63
ATOM     63  C   UNL A   1      47.700  26.816  31.835  1.00  0.00     0.340 C 
ATOM     64  O   UNL A   1      48.764  26.360  31.447  1.00  0.00    -0.246 OA
BRANCH  63  65
ATOM     65  C   UNL A   1      46.505  25.965  31.961  1.00  0.00     0.085 A 
ATOM     66  C   UNL A   1      46.203  25.500  33.258  1.00  0.00     0.044 A 
ATOM     67  C   UNL A   1      45.830  25.494  30.820  1.00  0.00     0.051 A 
ATOM     68  C   UNL A   1      45.211  24.542  33.450  1.00  0.00     0.042 A 
ATOM     69  C   UNL A   1      44.848  24.521  31.043  1.00  0.00     0.029 A 
ATOM     70  C   UNL A   1      44.542  24.052  32.328  1.00  0.00     0.028 A 
BRANCH  67  71
ATOM     71  N   UNL A   1      46.144  25.843  29.521  1.00  0.00    -0.370 N 
ATOM     72  C   UNL A   1      45.828  27.161  28.975  1.00  0.00     0.116 C 
ATOM     73  C   UNL A   1      46.850  24.911  28.649  1.00  0.00     0.126 C 
ATOM     74  C   UNL A   1      45.091  27.024  27.641  1.00  0.00     0.022 C 
ATOM     75  C   UNL A   1      46.021  24.659  27.385  1.00  0.00     0.064 C 
ATOM     76  C   UNL A   1      45.772  26.018  26.707  1.00  0.00     0.013 C 
BRANCH  75  77
ATOM     77  C   UNL A   1      44.751  23.854  27.767  1.00  0.00     0.267 C 
BRANCH  77  78
ATOM     78  N   UNL A   1      44.395  22.655  27.006  1.00  0.00    -0.335 N 
ATOM     79  C   UNL A   1      45.310  22.326  25.917  1.00  0.00     0.262 C 
ATOM     80  C   UNL A   1      43.040  22.598  26.478  1.00  0.00     0.262 C 
ATOM     81  H   UNL A   1      44.472  21.958  27.747  1.00  0.00     0.348 HD
ATOM     82  C   UNL A   1      44.628  22.806  24.650  1.00  0.00     0.067 C 
ATOM     83  C   UNL A   1      43.143  22.750  24.966  1.00  0.00     0.067 C 
ENDBRANCH  77  78
ENDBRANCH  75  77
ENDBRANCH  67  71
BRANCH  68  84
ATOM     84  N   UNL A   1      44.897  23.944  34.685  1.00  0.00    -0.322 N 
ATOM     85  C   UNL A   1      45.395  22.841  35.339  1.00  0.00     0.257 C 
ATOM     86  H   UNL A   1      44.180  24.405  35.177  1.00  0.00     0.170 HD
ATOM     87  O   UNL A   1      44.783  22.351  36.287  1.00  0.00    -0.269 OA
BRANCH  85  88
ATOM     88  C   UNL A   1      46.702  22.267  34.989  1.00  0.00     0.058 A 
ATOM     89  C   UNL A   1      46.731  21.024  34.346  1.00  0.00     0.015 A 
ATOM     90  C   UNL A   1      47.893  22.899  35.353  1.00  0.00     0.053 A 
ATOM     91  C   UNL A   1      47.956  20.452  33.996  1.00  0.00     0.001 A 
ATOM     92  C   UNL A   1      49.114  22.318  35.002  1.00  0.00     0.021 A 
ATOM     93  Cl  UNL A   1      47.907  24.352  36.280  1.00  0.00    -0.083 Cl
ATOM     94  C   UNL A   1      49.146  21.105  34.312  1.00  0.00     0.002 A 
ENDBRANCH  85  88
ENDBRANCH  68  84
ENDBRANCH  63  65
ENDBRANCH  62  63
ENDBRANCH  61  62
ENDBRANCH  60  61
ENDBRANCH  59  60
ENDBRANCH   1  59
TORSDOF 22
ENDMDL
