MODEL 1
REMARK VINA RESULT:      -9.5      0.000      0.000
REMARK SMILES O=C(CNS(=O)(=O)c1ccc(F)c(F)c1)OCCOCCOCCOC(=O)c1ccc(-c2c3nc(c(-c4ccccc4)c4ccc([nH]4)c(-c4ccccc4)c4nc(c(-c5ccccc5)c5ccc2[nH]5)C=C4)C=C3)cc1
REMARK SMILES IDX 20 1 19 2 18 3 17 4 16 5 2 6 1 7 3 8 4 9 5 11 6 12 7 13 8 14
REMARK SMILES IDX 9 15 15 16 10 17 13 18 11 19 14 20 12 21 21 22 22 23 23 24
REMARK SMILES IDX 24 25 25 26 26 27 27 28 28 29 29 30 75 31 30 32 74 33 31 34
REMARK SMILES IDX 32 35 33 36 68 37 34 38 73 39 67 40 69 41 35 42 72 43 66 44
REMARK SMILES IDX 65 45 36 47 58 48 43 49 57 50 44 51 47 52 56 53 70 54 45 55
REMARK SMILES IDX 46 56 55 58 71 59 48 60 37 61 38 62 42 63 39 64 41 65 40 66
REMARK SMILES IDX 59 67 60 68 64 69 61 70 63 71 62 72 49 73 50 74 54 75 51 76
REMARK SMILES IDX 53 77 52 78
REMARK H PARENT 4 10 69 46 47 57
REMARK Flexibility Score: inf
ROOT
ATOM      1  C   UNL A   1      34.049  31.422  27.630  1.00  0.00     0.188 C 
ENDROOT
BRANCH   1   2
ATOM      2  O   UNL A   1      32.879  30.777  27.169  1.00  0.00    -0.376 OA
BRANCH   2   3
ATOM      3  C   UNL A   1      32.847  29.372  26.976  1.00  0.00     0.202 C 
BRANCH   3   4
ATOM      4  C   UNL A   1      31.764  28.469  27.551  1.00  0.00     0.261 C 
BRANCH   4   5
ATOM      5  O   UNL A   1      31.663  27.076  27.183  1.00  0.00    -0.462 OA
BRANCH   5   6
ATOM      6  C   UNL A   1      31.093  26.423  26.160  1.00  0.00     0.321 C 
ATOM      7  O   UNL A   1      30.315  25.502  26.415  1.00  0.00    -0.251 OA
BRANCH   6   8
ATOM      8  C   UNL A   1      31.425  26.752  24.730  1.00  0.00     0.221 C 
BRANCH   8   9
ATOM      9  N   UNL A   1      32.804  26.494  24.285  1.00  0.00    -0.200 NA
ATOM     10  H   UNL A   1      33.365  26.277  25.110  1.00  0.00     0.142 HD
BRANCH   9  11
ATOM     11  S   UNL A   1      32.985  25.219  23.180  1.00  0.00     0.241 S 
ATOM     12  O   UNL A   1      31.696  24.610  22.985  1.00  0.00    -0.207 OA
ATOM     13  O   UNL A   1      33.756  25.766  22.080  1.00  0.00    -0.207 OA
BRANCH  11  14
ATOM     14  C   UNL A   1      34.036  24.056  24.011  1.00  0.00     0.085 A 
ATOM     15  C   UNL A   1      33.879  22.682  23.777  1.00  0.00     0.025 A 
ATOM     16  C   UNL A   1      35.041  24.521  24.862  1.00  0.00     0.064 A 
ATOM     17  C   UNL A   1      34.718  21.770  24.423  1.00  0.00     0.044 A 
ATOM     18  C   UNL A   1      35.841  23.600  25.530  1.00  0.00     0.160 A 
ATOM     19  C   UNL A   1      35.685  22.236  25.310  1.00  0.00     0.158 A 
ATOM     20  F   UNL A   1      36.764  24.043  26.394  1.00  0.00    -0.204 F 
ATOM     21  F   UNL A   1      36.472  21.356  25.945  1.00  0.00    -0.204 F 
ENDBRANCH  11  14
ENDBRANCH   9  11
ENDBRANCH   8   9
ENDBRANCH   6   8
ENDBRANCH   5   6
ENDBRANCH   4   5
ENDBRANCH   3   4
ENDBRANCH   2   3
ENDBRANCH   1   2
BRANCH   1  22
ATOM     22  C   UNL A   1      33.957  32.890  28.049  1.00  0.00     0.188 C 
BRANCH  22  23
ATOM     23  O   UNL A   1      34.961  33.406  28.897  1.00  0.00    -0.376 OA
BRANCH  23  24
ATOM     24  C   UNL A   1      34.576  34.307  29.930  1.00  0.00     0.202 C 
BRANCH  24  25
ATOM     25  C   UNL A   1      34.291  33.806  31.357  1.00  0.00     0.261 C 
BRANCH  25  26
ATOM     26  O   UNL A   1      34.532  32.400  31.573  1.00  0.00    -0.460 OA
BRANCH  26  27
ATOM     27  C   UNL A   1      35.532  32.109  32.440  1.00  0.00     0.338 C 
ATOM     28  O   UNL A   1      35.610  32.429  33.614  1.00  0.00    -0.246 OA
BRANCH  27  29
ATOM     29  C   UNL A   1      36.535  31.231  31.811  1.00  0.00     0.060 A 
ATOM     30  C   UNL A   1      37.558  30.695  32.603  1.00  0.00     0.016 A 
ATOM     31  C   UNL A   1      36.572  31.093  30.423  1.00  0.00     0.016 A 
ATOM     32  C   UNL A   1      38.634  30.032  32.007  1.00  0.00     0.010 A 
ATOM     33  C   UNL A   1      37.659  30.446  29.826  1.00  0.00     0.010 A 
ATOM     34  C   UNL A   1      38.712  29.940  30.611  1.00  0.00    -0.014 A 
BRANCH  34  35
ATOM     35  C   UNL A   1      39.962  29.469  29.959  1.00  0.00     0.031 A 
ATOM     36  C   UNL A   1      41.100  30.438  29.771  1.00  0.00     0.074 A 
ATOM     37  C   UNL A   1      40.094  28.199  29.537  1.00  0.00     0.049 A 
ATOM     38  N   UNL A   1      42.249  30.265  29.166  1.00  0.00    -0.248 NA
ATOM     39  C   UNL A   1      40.913  31.783  30.337  1.00  0.00     0.031 C 
ATOM     40  C   UNL A   1      39.098  27.142  29.700  1.00  0.00     0.029 A 
ATOM     41  N   UNL A   1      41.128  27.590  28.867  1.00  0.00    -0.354 N 
ATOM     42  C   UNL A   1      42.916  31.481  29.269  1.00  0.00     0.074 A 
ATOM     43  C   UNL A   1      42.033  32.389  29.967  1.00  0.00     0.031 C 
ATOM     44  C   UNL A   1      39.565  26.015  29.136  1.00  0.00     0.029 A 
ATOM     45  C   UNL A   1      40.874  26.280  28.540  1.00  0.00     0.049 A 
ATOM     46  H   UNL A   1      41.970  28.047  28.645  1.00  0.00     0.167 HD
ATOM     47  C   UNL A   1      44.152  31.813  28.824  1.00  0.00     0.031 A 
ATOM     48  C   UNL A   1      41.603  25.404  27.818  1.00  0.00     0.031 A 
ATOM     49  C   UNL A   1      45.029  30.922  28.111  1.00  0.00     0.049 A 
ATOM     50  C   UNL A   1      42.935  25.825  27.254  1.00  0.00     0.074 A 
ATOM     51  C   UNL A   1      46.305  31.166  27.633  1.00  0.00     0.029 A 
ATOM     52  N   UNL A   1      44.716  29.617  27.763  1.00  0.00    -0.354 N 
ATOM     53  N   UNL A   1      43.565  26.968  27.377  1.00  0.00    -0.248 NA
ATOM     54  C   UNL A   1      43.660  24.826  26.453  1.00  0.00     0.031 C 
ATOM     55  C   UNL A   1      46.737  30.032  26.938  1.00  0.00     0.029 A 
ATOM     56  C   UNL A   1      45.761  29.056  27.047  1.00  0.00     0.049 A 
ATOM     57  H   UNL A   1      43.876  29.157  27.991  1.00  0.00     0.167 HD
ATOM     58  C   UNL A   1      44.771  26.814  26.701  1.00  0.00     0.074 A 
ATOM     59  C   UNL A   1      44.791  25.463  26.181  1.00  0.00     0.031 C 
ATOM     60  C   UNL A   1      45.774  27.710  26.532  1.00  0.00     0.031 A 
BRANCH  47  61
ATOM     61  C   UNL A   1      44.615  33.226  29.059  1.00  0.00    -0.014 A 
ATOM     62  C   UNL A   1      45.348  33.577  30.204  1.00  0.00     0.009 A 
ATOM     63  C   UNL A   1      44.341  34.215  28.101  1.00  0.00     0.009 A 
ATOM     64  C   UNL A   1      45.761  34.897  30.403  1.00  0.00     0.001 A 
ATOM     65  C   UNL A   1      44.782  35.526  28.287  1.00  0.00     0.001 A 
ATOM     66  C   UNL A   1      45.482  35.868  29.443  1.00  0.00     0.000 A 
ENDBRANCH  47  61
BRANCH  48  67
ATOM     67  C   UNL A   1      41.080  24.034  27.562  1.00  0.00    -0.014 A 
ATOM     68  C   UNL A   1      41.613  22.925  28.237  1.00  0.00     0.009 A 
ATOM     69  C   UNL A   1      40.067  23.825  26.612  1.00  0.00     0.009 A 
ATOM     70  C   UNL A   1      41.161  21.635  27.947  1.00  0.00     0.001 A 
ATOM     71  C   UNL A   1      39.593  22.539  26.349  1.00  0.00     0.001 A 
ATOM     72  C   UNL A   1      40.149  21.444  27.009  1.00  0.00     0.000 A 
ENDBRANCH  48  67
BRANCH  60  73
ATOM     73  C   UNL A   1      47.003  27.251  25.792  1.00  0.00    -0.014 A 
ATOM     74  C   UNL A   1      47.178  27.510  24.423  1.00  0.00     0.009 A 
ATOM     75  C   UNL A   1      48.026  26.589  26.491  1.00  0.00     0.009 A 
ATOM     76  C   UNL A   1      48.335  27.083  23.764  1.00  0.00     0.001 A 
ATOM     77  C   UNL A   1      49.194  26.194  25.838  1.00  0.00     0.001 A 
ATOM     78  C   UNL A   1      49.343  26.432  24.473  1.00  0.00     0.000 A 
ENDBRANCH  60  73
ENDBRANCH  34  35
ENDBRANCH  27  29
ENDBRANCH  26  27
ENDBRANCH  25  26
ENDBRANCH  24  25
ENDBRANCH  23  24
ENDBRANCH  22  23
ENDBRANCH   1  22
TORSDOF 20
ENDMDL
MODEL 2
REMARK VINA RESULT:      -9.5      4.631      9.884
REMARK SMILES O=C(CNS(=O)(=O)c1ccc(F)c(F)c1)OCCOCCOCCOC(=O)c1ccc(-c2c3nc(c(-c4ccccc4)c4ccc([nH]4)c(-c4ccccc4)c4nc(c(-c5ccccc5)c5ccc2[nH]5)C=C4)C=C3)cc1
REMARK SMILES IDX 20 1 19 2 18 3 17 4 16 5 2 6 1 7 3 8 4 9 5 11 6 12 7 13 8 14
REMARK SMILES IDX 9 15 15 16 10 17 13 18 11 19 14 20 12 21 21 22 22 23 23 24
REMARK SMILES IDX 24 25 25 26 26 27 27 28 28 29 29 30 75 31 30 32 74 33 31 34
REMARK SMILES IDX 32 35 33 36 68 37 34 38 73 39 67 40 69 41 35 42 72 43 66 44
REMARK SMILES IDX 65 45 36 47 58 48 43 49 57 50 44 51 47 52 56 53 70 54 45 55
REMARK SMILES IDX 46 56 55 58 71 59 48 60 37 61 38 62 42 63 39 64 41 65 40 66
REMARK SMILES IDX 59 67 60 68 64 69 61 70 63 71 62 72 49 73 50 74 54 75 51 76
REMARK SMILES IDX 53 77 52 78
REMARK H PARENT 4 10 69 46 47 57
REMARK Flexibility Score: inf
ROOT
ATOM      1  C   UNL A   1      41.434  20.428  27.196  1.00  0.00     0.188 C 
ENDROOT
BRANCH   1   2
ATOM      2  O   UNL A   1      40.244  21.190  27.198  1.00  0.00    -0.376 OA
BRANCH   2   3
ATOM      3  C   UNL A   1      39.661  21.636  25.984  1.00  0.00     0.202 C 
BRANCH   3   4
ATOM      4  C   UNL A   1      38.212  22.087  25.864  1.00  0.00     0.261 C 
BRANCH   4   5
ATOM      5  O   UNL A   1      37.726  22.776  24.691  1.00  0.00    -0.462 OA
BRANCH   5   6
ATOM      6  C   UNL A   1      36.632  22.654  23.926  1.00  0.00     0.321 C 
ATOM      7  O   UNL A   1      36.654  23.133  22.791  1.00  0.00    -0.251 OA
BRANCH   6   8
ATOM      8  C   UNL A   1      35.377  22.001  24.441  1.00  0.00     0.221 C 
BRANCH   8   9
ATOM      9  N   UNL A   1      34.096  22.509  23.926  1.00  0.00    -0.200 NA
ATOM     10  H   UNL A   1      33.991  22.178  22.966  1.00  0.00     0.142 HD
BRANCH   9  11
ATOM     11  S   UNL A   1      32.722  22.031  24.798  1.00  0.00     0.241 S 
ATOM     12  O   UNL A   1      32.935  22.358  26.183  1.00  0.00    -0.207 OA
ATOM     13  O   UNL A   1      31.591  22.543  24.048  1.00  0.00    -0.207 OA
BRANCH  11  14
ATOM     14  C   UNL A   1      32.684  20.265  24.635  1.00  0.00     0.085 A 
ATOM     15  C   UNL A   1      32.846  19.456  25.770  1.00  0.00     0.025 A 
ATOM     16  C   UNL A   1      32.453  19.693  23.382  1.00  0.00     0.064 A 
ATOM     17  C   UNL A   1      32.804  18.065  25.639  1.00  0.00     0.044 A 
ATOM     18  C   UNL A   1      32.454  18.308  23.262  1.00  0.00     0.160 A 
ATOM     19  C   UNL A   1      32.623  17.499  24.380  1.00  0.00     0.158 A 
ATOM     20  F   UNL A   1      32.294  17.758  22.050  1.00  0.00    -0.204 F 
ATOM     21  F   UNL A   1      32.605  16.164  24.257  1.00  0.00    -0.204 F 
ENDBRANCH  11  14
ENDBRANCH   9  11
ENDBRANCH   8   9
ENDBRANCH   6   8
ENDBRANCH   5   6
ENDBRANCH   4   5
ENDBRANCH   3   4
ENDBRANCH   2   3
ENDBRANCH   1   2
BRANCH   1  22
ATOM     22  C   UNL A   1      41.573  19.292  26.181  1.00  0.00     0.188 C 
BRANCH  22  23
ATOM     23  O   UNL A   1      42.598  19.380  25.216  1.00  0.00    -0.376 OA
BRANCH  23  24
ATOM     24  C   UNL A   1      43.745  20.168  25.517  1.00  0.00     0.202 C 
BRANCH  24  25
ATOM     25  C   UNL A   1      43.890  21.601  24.975  1.00  0.00     0.261 C 
BRANCH  25  26
ATOM     26  O   UNL A   1      44.109  22.617  25.977  1.00  0.00    -0.460 OA
BRANCH  26  27
ATOM     27  C   UNL A   1      44.277  23.874  25.500  1.00  0.00     0.338 C 
ATOM     28  O   UNL A   1      44.924  24.217  24.525  1.00  0.00    -0.246 OA
BRANCH  27  29
ATOM     29  C   UNL A   1      43.469  24.839  26.267  1.00  0.00     0.060 A 
ATOM     30  C   UNL A   1      43.835  26.192  26.253  1.00  0.00     0.016 A 
ATOM     31  C   UNL A   1      42.478  24.386  27.138  1.00  0.00     0.016 A 
ATOM     32  C   UNL A   1      43.221  27.094  27.126  1.00  0.00     0.010 A 
ATOM     33  C   UNL A   1      41.878  25.287  28.025  1.00  0.00     0.010 A 
ATOM     34  C   UNL A   1      42.268  26.639  28.047  1.00  0.00    -0.014 A 
BRANCH  34  35
ATOM     35  C   UNL A   1      41.799  27.528  29.141  1.00  0.00     0.031 A 
ATOM     36  C   UNL A   1      42.533  27.520  30.457  1.00  0.00     0.074 A 
ATOM     37  C   UNL A   1      40.735  28.334  28.979  1.00  0.00     0.049 A 
ATOM     38  N   UNL A   1      42.257  28.157  31.568  1.00  0.00    -0.248 NA
ATOM     39  C   UNL A   1      43.737  26.678  30.528  1.00  0.00     0.031 C 
ATOM     40  C   UNL A   1      39.963  28.484  27.746  1.00  0.00     0.029 A 
ATOM     41  N   UNL A   1      40.114  29.174  29.871  1.00  0.00    -0.354 N 
ATOM     42  C   UNL A   1      43.244  27.784  32.473  1.00  0.00     0.074 A 
ATOM     43  C   UNL A   1      44.108  26.844  31.790  1.00  0.00     0.031 C 
ATOM     44  C   UNL A   1      38.963  29.356  27.964  1.00  0.00     0.029 A 
ATOM     45  C   UNL A   1      39.001  29.797  29.358  1.00  0.00     0.049 A 
ATOM     46  H   UNL A   1      40.436  29.318  30.790  1.00  0.00     0.167 HD
ATOM     47  C   UNL A   1      43.419  28.185  33.755  1.00  0.00     0.031 A 
ATOM     48  C   UNL A   1      38.103  30.607  29.952  1.00  0.00     0.031 A 
ATOM     49  C   UNL A   1      42.553  29.104  34.446  1.00  0.00     0.049 A 
ATOM     50  C   UNL A   1      38.266  30.967  31.406  1.00  0.00     0.074 A 
ATOM     51  C   UNL A   1      42.660  29.580  35.743  1.00  0.00     0.029 A 
ATOM     52  N   UNL A   1      41.415  29.677  33.903  1.00  0.00    -0.354 N 
ATOM     53  N   UNL A   1      39.216  30.627  32.244  1.00  0.00    -0.248 NA
ATOM     54  C   UNL A   1      37.231  31.832  31.995  1.00  0.00     0.031 C 
ATOM     55  C   UNL A   1      41.549  30.388  36.005  1.00  0.00     0.029 A 
ATOM     56  C   UNL A   1      40.791  30.475  34.849  1.00  0.00     0.049 A 
ATOM     57  H   UNL A   1      41.096  29.539  32.982  1.00  0.00     0.167 HD
ATOM     58  C   UNL A   1      38.912  31.262  33.444  1.00  0.00     0.074 A 
ATOM     59  C   UNL A   1      37.697  32.018  33.222  1.00  0.00     0.031 C 
ATOM     60  C   UNL A   1      39.582  31.225  34.622  1.00  0.00     0.031 A 
BRANCH  47  61
ATOM     61  C   UNL A   1      44.577  27.593  34.513  1.00  0.00    -0.014 A 
ATOM     62  C   UNL A   1      44.432  26.427  35.282  1.00  0.00     0.009 A 
ATOM     63  C   UNL A   1      45.843  28.196  34.428  1.00  0.00     0.009 A 
ATOM     64  C   UNL A   1      45.521  25.901  35.981  1.00  0.00     0.001 A 
ATOM     65  C   UNL A   1      46.935  27.650  35.102  1.00  0.00     0.001 A 
ATOM     66  C   UNL A   1      46.772  26.509  35.887  1.00  0.00     0.000 A 
ENDBRANCH  47  61
BRANCH  48  67
ATOM     67  C   UNL A   1      36.940  31.125  29.179  1.00  0.00    -0.014 A 
ATOM     68  C   UNL A   1      35.864  30.285  28.855  1.00  0.00     0.009 A 
ATOM     69  C   UNL A   1      36.919  32.456  28.732  1.00  0.00     0.009 A 
ATOM     70  C   UNL A   1      34.805  30.759  28.077  1.00  0.00     0.001 A 
ATOM     71  C   UNL A   1      35.843  32.936  27.984  1.00  0.00     0.001 A 
ATOM     72  C   UNL A   1      34.792  32.085  27.647  1.00  0.00     0.000 A 
ENDBRANCH  48  67
BRANCH  60  73
ATOM     73  C   UNL A   1      39.048  32.062  35.756  1.00  0.00    -0.014 A 
ATOM     74  C   UNL A   1      38.174  31.528  36.716  1.00  0.00     0.009 A 
ATOM     75  C   UNL A   1      39.468  33.395  35.889  1.00  0.00     0.009 A 
ATOM     76  C   UNL A   1      37.704  32.324  37.764  1.00  0.00     0.001 A 
ATOM     77  C   UNL A   1      39.024  34.178  36.956  1.00  0.00     0.001 A 
ATOM     78  C   UNL A   1      38.133  33.645  37.887  1.00  0.00     0.000 A 
ENDBRANCH  60  73
ENDBRANCH  34  35
ENDBRANCH  27  29
ENDBRANCH  26  27
ENDBRANCH  25  26
ENDBRANCH  24  25
ENDBRANCH  23  24
ENDBRANCH  22  23
ENDBRANCH   1  22
TORSDOF 20
ENDMDL
MODEL 3
REMARK VINA RESULT:      -8.8      4.561      9.759
REMARK SMILES O=C(CNS(=O)(=O)c1ccc(F)c(F)c1)OCCOCCOCCOC(=O)c1ccc(-c2c3nc(c(-c4ccccc4)c4ccc([nH]4)c(-c4ccccc4)c4nc(c(-c5ccccc5)c5ccc2[nH]5)C=C4)C=C3)cc1
REMARK SMILES IDX 20 1 19 2 18 3 17 4 16 5 2 6 1 7 3 8 4 9 5 11 6 12 7 13 8 14
REMARK SMILES IDX 9 15 15 16 10 17 13 18 11 19 14 20 12 21 21 22 22 23 23 24
REMARK SMILES IDX 24 25 25 26 26 27 27 28 28 29 29 30 75 31 30 32 74 33 31 34
REMARK SMILES IDX 32 35 33 36 68 37 34 38 73 39 67 40 69 41 35 42 72 43 66 44
REMARK SMILES IDX 65 45 36 47 58 48 43 49 57 50 44 51 47 52 56 53 70 54 45 55
REMARK SMILES IDX 46 56 55 58 71 59 48 60 37 61 38 62 42 63 39 64 41 65 40 66
REMARK SMILES IDX 59 67 60 68 64 69 61 70 63 71 62 72 49 73 50 74 54 75 51 76
REMARK SMILES IDX 53 77 52 78
REMARK H PARENT 4 10 69 46 47 57
REMARK Flexibility Score: inf
ROOT
ATOM      1  C   UNL A   1      40.759  21.186  27.356  1.00  0.00     0.188 C 
ENDROOT
BRANCH   1   2
ATOM      2  O   UNL A   1      40.097  21.802  26.270  1.00  0.00    -0.376 OA
BRANCH   2   3
ATOM      3  C   UNL A   1      39.203  22.884  26.480  1.00  0.00     0.202 C 
BRANCH   3   4
ATOM      4  C   UNL A   1      37.804  22.946  25.883  1.00  0.00     0.261 C 
BRANCH   4   5
ATOM      5  O   UNL A   1      36.958  21.778  25.810  1.00  0.00    -0.462 OA
BRANCH   5   6
ATOM      6  C   UNL A   1      35.637  21.592  25.668  1.00  0.00     0.321 C 
ATOM      7  O   UNL A   1      35.217  21.178  24.586  1.00  0.00    -0.251 OA
BRANCH   6   8
ATOM      8  C   UNL A   1      34.670  21.929  26.771  1.00  0.00     0.221 C 
BRANCH   8   9
ATOM      9  N   UNL A   1      34.182  23.316  26.834  1.00  0.00    -0.200 NA
ATOM     10  H   UNL A   1      34.798  23.892  26.260  1.00  0.00     0.142 HD
BRANCH   9  11
ATOM     11  S   UNL A   1      32.592  23.552  26.293  1.00  0.00     0.241 S 
ATOM     12  O   UNL A   1      32.309  22.561  25.288  1.00  0.00    -0.207 OA
ATOM     13  O   UNL A   1      31.790  23.685  27.494  1.00  0.00    -0.207 OA
BRANCH  11  14
ATOM     14  C   UNL A   1      32.618  25.148  25.518  1.00  0.00     0.085 A 
ATOM     15  C   UNL A   1      33.598  26.083  25.881  1.00  0.00     0.025 A 
ATOM     16  C   UNL A   1      31.685  25.446  24.523  1.00  0.00     0.064 A 
ATOM     17  C   UNL A   1      33.622  27.335  25.260  1.00  0.00     0.044 A 
ATOM     18  C   UNL A   1      31.696  26.710  23.943  1.00  0.00     0.160 A 
ATOM     19  C   UNL A   1      32.659  27.647  24.304  1.00  0.00     0.158 A 
ATOM     20  F   UNL A   1      30.763  27.019  23.032  1.00  0.00    -0.204 F 
ATOM     21  F   UNL A   1      32.673  28.857  23.727  1.00  0.00    -0.204 F 
ENDBRANCH  11  14
ENDBRANCH   9  11
ENDBRANCH   8   9
ENDBRANCH   6   8
ENDBRANCH   5   6
ENDBRANCH   4   5
ENDBRANCH   3   4
ENDBRANCH   2   3
ENDBRANCH   1   2
BRANCH   1  22
ATOM     22  C   UNL A   1      41.549  19.902  27.096  1.00  0.00     0.188 C 
BRANCH  22  23
ATOM     23  O   UNL A   1      42.507  19.906  26.060  1.00  0.00    -0.376 OA
BRANCH  23  24
ATOM     24  C   UNL A   1      42.995  21.160  25.594  1.00  0.00     0.202 C 
BRANCH  24  25
ATOM     25  C   UNL A   1      44.491  21.510  25.672  1.00  0.00     0.261 C 
BRANCH  25  26
ATOM     26  O   UNL A   1      44.792  22.783  26.283  1.00  0.00    -0.460 OA
BRANCH  26  27
ATOM     27  C   UNL A   1      44.493  23.871  25.532  1.00  0.00     0.338 C 
ATOM     28  O   UNL A   1      44.769  24.060  24.360  1.00  0.00    -0.246 OA
BRANCH  27  29
ATOM     29  C   UNL A   1      43.664  24.823  26.293  1.00  0.00     0.060 A 
ATOM     30  C   UNL A   1      44.012  26.180  26.287  1.00  0.00     0.016 A 
ATOM     31  C   UNL A   1      42.671  24.353  27.152  1.00  0.00     0.016 A 
ATOM     32  C   UNL A   1      43.376  27.072  27.155  1.00  0.00     0.010 A 
ATOM     33  C   UNL A   1      42.048  25.243  28.035  1.00  0.00     0.010 A 
ATOM     34  C   UNL A   1      42.420  26.601  28.065  1.00  0.00    -0.014 A 
BRANCH  34  35
ATOM     35  C   UNL A   1      41.927  27.481  29.157  1.00  0.00     0.031 A 
ATOM     36  C   UNL A   1      42.654  27.488  30.476  1.00  0.00     0.074 A 
ATOM     37  C   UNL A   1      40.848  28.265  28.988  1.00  0.00     0.049 A 
ATOM     38  N   UNL A   1      42.359  28.120  31.585  1.00  0.00    -0.248 NA
ATOM     39  C   UNL A   1      43.875  26.671  30.553  1.00  0.00     0.031 C 
ATOM     40  C   UNL A   1      40.079  28.397  27.752  1.00  0.00     0.029 A 
ATOM     41  N   UNL A   1      40.204  29.092  29.877  1.00  0.00    -0.354 N 
ATOM     42  C   UNL A   1      43.350  27.767  32.495  1.00  0.00     0.074 A 
ATOM     43  C   UNL A   1      44.236  26.846  31.817  1.00  0.00     0.031 C 
ATOM     44  C   UNL A   1      39.060  29.248  27.964  1.00  0.00     0.029 A 
ATOM     45  C   UNL A   1      39.082  29.691  29.358  1.00  0.00     0.049 A 
ATOM     46  H   UNL A   1      40.519  29.243  30.798  1.00  0.00     0.167 HD
ATOM     47  C   UNL A   1      43.510  28.173  33.777  1.00  0.00     0.031 A 
ATOM     48  C   UNL A   1      38.164  30.483  29.948  1.00  0.00     0.031 A 
ATOM     49  C   UNL A   1      42.622  29.073  34.465  1.00  0.00     0.049 A 
ATOM     50  C   UNL A   1      38.312  30.846  31.402  1.00  0.00     0.074 A 
ATOM     51  C   UNL A   1      42.712  29.552  35.761  1.00  0.00     0.029 A 
ATOM     52  N   UNL A   1      41.475  29.623  33.915  1.00  0.00    -0.354 N 
ATOM     53  N   UNL A   1      39.265  30.526  32.245  1.00  0.00    -0.248 NA
ATOM     54  C   UNL A   1      37.257  31.690  31.986  1.00  0.00     0.031 C 
ATOM     55  C   UNL A   1      41.584  30.337  36.017  1.00  0.00     0.029 A 
ATOM     56  C   UNL A   1      40.830  30.408  34.858  1.00  0.00     0.049 A 
ATOM     57  H   UNL A   1      41.163  29.477  32.993  1.00  0.00     0.167 HD
ATOM     58  C   UNL A   1      38.942  31.156  33.443  1.00  0.00     0.074 A 
ATOM     59  C   UNL A   1      37.713  31.886  33.215  1.00  0.00     0.031 C 
ATOM     60  C   UNL A   1      39.607  31.133  34.625  1.00  0.00     0.031 A 
BRANCH  47  61
ATOM     61  C   UNL A   1      44.676  27.605  34.541  1.00  0.00    -0.014 A 
ATOM     62  C   UNL A   1      45.921  28.253  34.569  1.00  0.00     0.009 A 
ATOM     63  C   UNL A   1      44.514  26.418  35.274  1.00  0.00     0.009 A 
ATOM     64  C   UNL A   1      46.990  27.702  35.281  1.00  0.00     0.001 A 
ATOM     65  C   UNL A   1      45.574  25.887  36.010  1.00  0.00     0.001 A 
ATOM     66  C   UNL A   1      46.815  26.524  36.004  1.00  0.00     0.000 A 
ENDBRANCH  47  61
BRANCH  48  67
ATOM     67  C   UNL A   1      36.995  30.976  29.168  1.00  0.00    -0.014 A 
ATOM     68  C   UNL A   1      35.950  30.107  28.818  1.00  0.00     0.009 A 
ATOM     69  C   UNL A   1      36.937  32.313  28.742  1.00  0.00     0.009 A 
ATOM     70  C   UNL A   1      34.885  30.561  28.034  1.00  0.00     0.001 A 
ATOM     71  C   UNL A   1      35.855  32.771  27.989  1.00  0.00     0.001 A 
ATOM     72  C   UNL A   1      34.836  31.892  27.626  1.00  0.00     0.000 A 
ENDBRANCH  48  67
BRANCH  60  73
ATOM     73  C   UNL A   1      39.050  31.959  35.755  1.00  0.00    -0.014 A 
ATOM     74  C   UNL A   1      38.176  31.410  36.706  1.00  0.00     0.009 A 
ATOM     75  C   UNL A   1      39.448  33.298  35.895  1.00  0.00     0.009 A 
ATOM     76  C   UNL A   1      37.685  32.196  37.752  1.00  0.00     0.001 A 
ATOM     77  C   UNL A   1      38.982  34.072  36.959  1.00  0.00     0.001 A 
ATOM     78  C   UNL A   1      38.092  33.523  37.881  1.00  0.00     0.000 A 
ENDBRANCH  60  73
ENDBRANCH  34  35
ENDBRANCH  27  29
ENDBRANCH  26  27
ENDBRANCH  25  26
ENDBRANCH  24  25
ENDBRANCH  23  24
ENDBRANCH  22  23
ENDBRANCH   1  22
TORSDOF 20
ENDMDL
