MODEL 1
REMARK VINA RESULT:     -10.9      0.000      0.000
REMARK SMILES Cc1ccn2c([C@@H]3CCCC[C@@H]3C(=O)OCCOCCOCCOC(=O)c3ccc(-c4c5nc(c(-c6ccccc6)c6ccc([nH]6)c(-c6ccccc6)c6nc(c(-c7ccccc7)c7ccc4[nH]7)C=C6)C=C5)cc3)nnc2c1
REMARK SMILES IDX 20 1 19 2 18 3 17 4 16 5 15 6 13 7 14 8 12 9 7 10 8 11 9 12
REMARK SMILES IDX 11 13 10 14 6 15 1 16 2 17 3 18 78 19 4 20 77 21 5 22 76 23
REMARK SMILES IDX 75 24 21 25 22 26 23 27 24 28 25 29 26 30 27 31 28 32 74 33
REMARK SMILES IDX 29 34 73 35 30 36 31 37 32 38 67 39 33 40 72 41 66 42 68 43
REMARK SMILES IDX 34 44 71 45 65 46 64 47 35 49 57 50 42 51 56 52 43 53 46 54
REMARK SMILES IDX 55 55 69 56 44 57 45 58 54 60 70 61 47 62 36 63 37 64 41 65
REMARK SMILES IDX 38 66 40 67 39 68 58 69 59 70 63 71 60 72 62 73 61 74 48 75
REMARK SMILES IDX 49 76 53 77 50 78 52 79 51 80
REMARK H PARENT 68 48 46 59
REMARK Flexibility Score: inf
ROOT
ATOM      1  C   UNL A   1      34.613  31.977  28.080  1.00  0.00     0.188 C 
ENDROOT
BRANCH   1   2
ATOM      2  C   UNL A   1      33.304  31.370  27.531  1.00  0.00     0.188 C 
BRANCH   2   3
ATOM      3  O   UNL A   1      33.511  30.303  26.620  1.00  0.00    -0.376 OA
BRANCH   3   4
ATOM      4  C   UNL A   1      34.095  29.145  27.199  1.00  0.00     0.202 C 
BRANCH   4   5
ATOM      5  C   UNL A   1      33.814  27.839  26.436  1.00  0.00     0.261 C 
BRANCH   5   6
ATOM      6  O   UNL A   1      32.469  27.371  26.586  1.00  0.00    -0.463 OA
BRANCH   6   7
ATOM      7  C   UNL A   1      32.222  26.068  26.351  1.00  0.00     0.309 C 
ATOM      8  O   UNL A   1      31.201  25.444  26.711  1.00  0.00    -0.252 OA
BRANCH   7   9
ATOM      9  C   UNL A   1      33.309  25.489  25.515  1.00  0.00     0.110 C 
ATOM     10  C   UNL A   1      32.876  25.272  24.078  1.00  0.00     0.072 C 
ATOM     11  C   UNL A   1      32.689  23.844  23.626  1.00  0.00     0.012 C 
ATOM     12  C   UNL A   1      33.279  22.709  24.436  1.00  0.00     0.001 C 
ATOM     13  C   UNL A   1      33.944  24.274  26.175  1.00  0.00     0.016 C 
ATOM     14  C   UNL A   1      33.147  23.020  25.911  1.00  0.00     0.001 C 
BRANCH  10  15
ATOM     15  C   UNL A   1      31.981  26.339  23.426  1.00  0.00     0.141 A 
ATOM     16  C   UNL A   1      27.600  29.967  22.625  1.00  0.00     0.044 C 
ATOM     17  C   UNL A   1      28.580  28.884  22.986  1.00  0.00    -0.046 A 
ATOM     18  C   UNL A   1      28.264  27.544  23.452  1.00  0.00     0.022 A 
ATOM     19  C   UNL A   1      29.870  29.194  22.910  1.00  0.00     0.053 A 
ATOM     20  C   UNL A   1      29.259  26.656  23.752  1.00  0.00     0.095 A 
ATOM     21  C   UNL A   1      30.872  28.197  22.974  1.00  0.00     0.161 A 
ATOM     22  N   UNL A   1      30.625  26.913  23.420  1.00  0.00    -0.286 N 
ATOM     23  N   UNL A   1      32.123  28.326  22.679  1.00  0.00    -0.130 NA
ATOM     24  N   UNL A   1      32.748  27.171  22.763  1.00  0.00    -0.134 NA
ENDBRANCH  10  15
ENDBRANCH   7   9
ENDBRANCH   6   7
ENDBRANCH   5   6
ENDBRANCH   4   5
ENDBRANCH   3   4
ENDBRANCH   2   3
ENDBRANCH   1   2
BRANCH   1  25
ATOM     25  O   UNL A   1      34.706  32.001  29.480  1.00  0.00    -0.376 OA
BRANCH  25  26
ATOM     26  C   UNL A   1      35.715  32.905  29.884  1.00  0.00     0.202 C 
BRANCH  26  27
ATOM     27  C   UNL A   1      36.650  33.641  28.816  1.00  0.00     0.261 C 
BRANCH  27  28
ATOM     28  O   UNL A   1      38.154  33.661  28.823  1.00  0.00    -0.460 OA
BRANCH  28  29
ATOM     29  C   UNL A   1      38.931  33.922  29.969  1.00  0.00     0.338 C 
ATOM     30  O   UNL A   1      38.845  34.994  30.561  1.00  0.00    -0.246 OA
BRANCH  29  31
ATOM     31  C   UNL A   1      39.790  32.717  30.620  1.00  0.00     0.060 A 
ATOM     32  C   UNL A   1      41.189  32.528  30.626  1.00  0.00     0.016 A 
ATOM     33  C   UNL A   1      39.083  31.536  30.885  1.00  0.00     0.016 A 
ATOM     34  C   UNL A   1      41.776  31.200  30.371  1.00  0.00     0.010 A 
ATOM     35  C   UNL A   1      39.662  30.245  30.619  1.00  0.00     0.010 A 
ATOM     36  C   UNL A   1      40.964  30.062  30.104  1.00  0.00    -0.014 A 
BRANCH  36  37
ATOM     37  C   UNL A   1      41.359  28.585  29.700  1.00  0.00     0.031 A 
ATOM     38  C   UNL A   1      42.073  28.128  30.898  1.00  0.00     0.074 A 
ATOM     39  C   UNL A   1      41.538  27.676  28.644  1.00  0.00     0.049 A 
ATOM     40  N   UNL A   1      43.362  28.043  30.962  1.00  0.00    -0.248 NA
ATOM     41  C   UNL A   1      41.390  28.161  32.195  1.00  0.00     0.031 C 
ATOM     42  C   UNL A   1      41.919  27.811  27.244  1.00  0.00     0.029 A 
ATOM     43  N   UNL A   1      41.298  26.237  28.628  1.00  0.00    -0.354 N 
ATOM     44  C   UNL A   1      43.592  27.663  32.267  1.00  0.00     0.074 A 
ATOM     45  C   UNL A   1      42.438  28.085  33.015  1.00  0.00     0.031 C 
ATOM     46  C   UNL A   1      41.742  26.691  26.504  1.00  0.00     0.029 A 
ATOM     47  C   UNL A   1      40.996  25.712  27.291  1.00  0.00     0.049 A 
ATOM     48  H   UNL A   1      41.336  25.674  29.435  1.00  0.00     0.167 HD
ATOM     49  C   UNL A   1      44.399  26.594  32.480  1.00  0.00     0.031 A 
ATOM     50  C   UNL A   1      40.916  24.463  26.698  1.00  0.00     0.031 A 
ATOM     51  C   UNL A   1      45.297  26.387  31.370  1.00  0.00     0.049 A 
ATOM     52  C   UNL A   1      42.136  23.763  27.126  1.00  0.00     0.074 A 
ATOM     53  C   UNL A   1      46.337  27.110  30.820  1.00  0.00     0.029 A 
ATOM     54  N   UNL A   1      44.798  25.583  30.377  1.00  0.00    -0.354 N 
ATOM     55  N   UNL A   1      43.322  24.063  26.686  1.00  0.00    -0.248 NA
ATOM     56  C   UNL A   1      42.053  23.179  28.454  1.00  0.00     0.031 C 
ATOM     57  C   UNL A   1      46.370  26.789  29.437  1.00  0.00     0.029 A 
ATOM     58  C   UNL A   1      45.439  25.790  29.184  1.00  0.00     0.049 A 
ATOM     59  H   UNL A   1      44.067  24.935  30.506  1.00  0.00     0.167 HD
ATOM     60  C   UNL A   1      44.032  24.244  27.858  1.00  0.00     0.074 A 
ATOM     61  C   UNL A   1      43.253  23.556  28.899  1.00  0.00     0.031 C 
ATOM     62  C   UNL A   1      44.994  25.208  27.945  1.00  0.00     0.031 A 
BRANCH  49  63
ATOM     63  C   UNL A   1      43.964  25.499  33.417  1.00  0.00    -0.014 A 
ATOM     64  C   UNL A   1      43.176  25.728  34.570  1.00  0.00     0.009 A 
ATOM     65  C   UNL A   1      44.181  24.167  33.064  1.00  0.00     0.009 A 
ATOM     66  C   UNL A   1      42.730  24.701  35.397  1.00  0.00     0.001 A 
ATOM     67  C   UNL A   1      43.697  23.125  33.867  1.00  0.00     0.001 A 
ATOM     68  C   UNL A   1      42.995  23.391  35.043  1.00  0.00     0.000 A 
ENDBRANCH  49  63
BRANCH  50  69
ATOM     69  C   UNL A   1      39.686  23.624  26.427  1.00  0.00    -0.014 A 
ATOM     70  C   UNL A   1      39.789  22.256  26.140  1.00  0.00     0.009 A 
ATOM     71  C   UNL A   1      38.375  24.168  26.425  1.00  0.00     0.009 A 
ATOM     72  C   UNL A   1      38.665  21.475  25.822  1.00  0.00     0.001 A 
ATOM     73  C   UNL A   1      37.248  23.389  26.081  1.00  0.00     0.001 A 
ATOM     74  C   UNL A   1      37.397  22.043  25.765  1.00  0.00     0.000 A 
ENDBRANCH  50  69
BRANCH  62  75
ATOM     75  C   UNL A   1      45.563  25.819  26.680  1.00  0.00    -0.014 A 
ATOM     76  C   UNL A   1      46.606  25.176  26.013  1.00  0.00     0.009 A 
ATOM     77  C   UNL A   1      45.271  27.130  26.277  1.00  0.00     0.009 A 
ATOM     78  C   UNL A   1      47.298  25.815  24.974  1.00  0.00     0.001 A 
ATOM     79  C   UNL A   1      45.897  27.750  25.190  1.00  0.00     0.001 A 
ATOM     80  C   UNL A   1      46.926  27.088  24.541  1.00  0.00     0.000 A 
ENDBRANCH  62  75
ENDBRANCH  36  37
ENDBRANCH  29  31
ENDBRANCH  28  29
ENDBRANCH  27  28
ENDBRANCH  26  27
ENDBRANCH  25  26
ENDBRANCH   1  25
TORSDOF 18
ENDMDL
MODEL 2
REMARK VINA RESULT:     -10.8      1.579      2.162
REMARK SMILES Cc1ccn2c([C@@H]3CCCC[C@@H]3C(=O)OCCOCCOCCOC(=O)c3ccc(-c4c5nc(c(-c6ccccc6)c6ccc([nH]6)c(-c6ccccc6)c6nc(c(-c7ccccc7)c7ccc4[nH]7)C=C6)C=C5)cc3)nnc2c1
REMARK SMILES IDX 20 1 19 2 18 3 17 4 16 5 15 6 13 7 14 8 12 9 7 10 8 11 9 12
REMARK SMILES IDX 11 13 10 14 6 15 1 16 2 17 3 18 78 19 4 20 77 21 5 22 76 23
REMARK SMILES IDX 75 24 21 25 22 26 23 27 24 28 25 29 26 30 27 31 28 32 74 33
REMARK SMILES IDX 29 34 73 35 30 36 31 37 32 38 67 39 33 40 72 41 66 42 68 43
REMARK SMILES IDX 34 44 71 45 65 46 64 47 35 49 57 50 42 51 56 52 43 53 46 54
REMARK SMILES IDX 55 55 69 56 44 57 45 58 54 60 70 61 47 62 36 63 37 64 41 65
REMARK SMILES IDX 38 66 40 67 39 68 58 69 59 70 63 71 60 72 62 73 61 74 48 75
REMARK SMILES IDX 49 76 53 77 50 78 52 79 51 80
REMARK H PARENT 68 48 46 59
REMARK Flexibility Score: inf
ROOT
ATOM      1  C   UNL A   1      33.985  32.642  27.998  1.00  0.00     0.188 C 
ENDROOT
BRANCH   1   2
ATOM      2  C   UNL A   1      34.643  31.307  27.589  1.00  0.00     0.188 C 
BRANCH   2   3
ATOM      3  O   UNL A   1      33.730  30.365  27.052  1.00  0.00    -0.376 OA
BRANCH   3   4
ATOM      4  C   UNL A   1      34.170  29.016  27.128  1.00  0.00     0.202 C 
BRANCH   4   5
ATOM      5  C   UNL A   1      33.378  28.036  26.246  1.00  0.00     0.261 C 
BRANCH   5   6
ATOM      6  O   UNL A   1      34.021  26.766  26.088  1.00  0.00    -0.463 OA
BRANCH   6   7
ATOM      7  C   UNL A   1      33.367  25.805  25.407  1.00  0.00     0.309 C 
ATOM      8  O   UNL A   1      32.208  25.405  25.646  1.00  0.00    -0.252 OA
BRANCH   7   9
ATOM      9  C   UNL A   1      34.197  25.343  24.261  1.00  0.00     0.110 C 
ATOM     10  C   UNL A   1      33.486  25.514  22.931  1.00  0.00     0.072 C 
ATOM     11  C   UNL A   1      33.027  24.257  22.232  1.00  0.00     0.012 C 
ATOM     12  C   UNL A   1      33.593  22.912  22.641  1.00  0.00     0.001 C 
ATOM     13  C   UNL A   1      34.768  23.953  24.500  1.00  0.00     0.016 C 
ATOM     14  C   UNL A   1      33.772  22.876  24.143  1.00  0.00     0.001 C 
BRANCH  10  15
ATOM     15  C   UNL A   1      32.643  26.783  22.722  1.00  0.00     0.141 A 
ATOM     16  C   UNL A   1      28.407  30.617  23.309  1.00  0.00     0.044 C 
ATOM     17  C   UNL A   1      29.342  29.439  23.244  1.00  0.00    -0.046 A 
ATOM     18  C   UNL A   1      28.970  28.036  23.166  1.00  0.00     0.022 A 
ATOM     19  C   UNL A   1      30.643  29.704  23.302  1.00  0.00     0.053 A 
ATOM     20  C   UNL A   1      29.926  27.062  23.118  1.00  0.00     0.095 A 
ATOM     21  C   UNL A   1      31.609  28.717  22.994  1.00  0.00     0.161 A 
ATOM     22  N   UNL A   1      31.308  27.370  22.921  1.00  0.00    -0.286 N 
ATOM     23  N   UNL A   1      32.870  28.897  22.781  1.00  0.00    -0.130 NA
ATOM     24  N   UNL A   1      33.454  27.771  22.429  1.00  0.00    -0.134 NA
ENDBRANCH  10  15
ENDBRANCH   7   9
ENDBRANCH   6   7
ENDBRANCH   5   6
ENDBRANCH   4   5
ENDBRANCH   3   4
ENDBRANCH   2   3
ENDBRANCH   1   2
BRANCH   1  25
ATOM     25  O   UNL A   1      34.730  33.787  27.674  1.00  0.00    -0.376 OA
BRANCH  25  26
ATOM     26  C   UNL A   1      34.870  34.613  28.813  1.00  0.00     0.202 C 
BRANCH  26  27
ATOM     27  C   UNL A   1      34.857  34.004  30.291  1.00  0.00     0.261 C 
BRANCH  27  28
ATOM     28  O   UNL A   1      36.023  33.964  31.240  1.00  0.00    -0.460 OA
BRANCH  28  29
ATOM     29  C   UNL A   1      36.667  32.777  31.645  1.00  0.00     0.338 C 
ATOM     30  O   UNL A   1      36.760  32.481  32.831  1.00  0.00    -0.246 OA
BRANCH  29  31
ATOM     31  C   UNL A   1      37.103  31.704  30.516  1.00  0.00     0.060 A 
ATOM     32  C   UNL A   1      36.537  30.444  30.226  1.00  0.00     0.016 A 
ATOM     33  C   UNL A   1      38.401  31.845  30.007  1.00  0.00     0.016 A 
ATOM     34  C   UNL A   1      37.391  29.275  29.950  1.00  0.00     0.010 A 
ATOM     35  C   UNL A   1      39.231  30.697  29.754  1.00  0.00     0.010 A 
ATOM     36  C   UNL A   1      38.812  29.365  29.968  1.00  0.00    -0.014 A 
BRANCH  36  37
ATOM     37  C   UNL A   1      39.918  28.246  29.815  1.00  0.00     0.031 A 
ATOM     38  C   UNL A   1      40.465  28.178  31.175  1.00  0.00     0.074 A 
ATOM     39  C   UNL A   1      40.730  27.526  28.922  1.00  0.00     0.049 A 
ATOM     40  N   UNL A   1      41.597  28.708  31.509  1.00  0.00    -0.248 NA
ATOM     41  C   UNL A   1      39.564  27.887  32.295  1.00  0.00     0.031 C 
ATOM     42  C   UNL A   1      41.318  27.824  27.623  1.00  0.00     0.029 A 
ATOM     43  N   UNL A   1      41.185  26.144  29.014  1.00  0.00    -0.354 N 
ATOM     44  C   UNL A   1      41.667  28.481  32.866  1.00  0.00     0.074 A 
ATOM     45  C   UNL A   1      40.310  28.313  33.314  1.00  0.00     0.031 C 
ATOM     46  C   UNL A   1      41.848  26.752  26.988  1.00  0.00     0.029 A 
ATOM     47  C   UNL A   1      41.473  25.537  27.709  1.00  0.00     0.049 A 
ATOM     48  H   UNL A   1      41.289  25.665  29.869  1.00  0.00     0.167 HD
ATOM     49  C   UNL A   1      42.800  27.916  33.354  1.00  0.00     0.031 A 
ATOM     50  C   UNL A   1      42.112  24.397  27.251  1.00  0.00     0.031 A 
ATOM     51  C   UNL A   1      43.922  28.155  32.478  1.00  0.00     0.049 A 
ATOM     52  C   UNL A   1      43.381  24.352  27.991  1.00  0.00     0.074 A 
ATOM     53  C   UNL A   1      44.612  29.282  32.075  1.00  0.00     0.029 A 
ATOM     54  N   UNL A   1      44.089  27.210  31.498  1.00  0.00    -0.354 N 
ATOM     55  N   UNL A   1      44.365  25.173  27.771  1.00  0.00    -0.248 NA
ATOM     56  C   UNL A   1      43.271  23.798  29.330  1.00  0.00     0.031 C 
ATOM     57  C   UNL A   1      45.105  29.013  30.771  1.00  0.00     0.029 A 
ATOM     58  C   UNL A   1      44.819  27.693  30.445  1.00  0.00     0.049 A 
ATOM     59  H   UNL A   1      43.727  26.295  31.545  1.00  0.00     0.167 HD
ATOM     60  C   UNL A   1      44.622  25.667  29.036  1.00  0.00     0.074 A 
ATOM     61  C   UNL A   1      44.028  24.694  29.966  1.00  0.00     0.031 C 
ATOM     62  C   UNL A   1      44.989  26.970  29.211  1.00  0.00     0.031 A 
BRANCH  49  63
ATOM     63  C   UNL A   1      42.711  26.746  34.296  1.00  0.00    -0.014 A 
ATOM     64  C   UNL A   1      41.858  26.718  35.424  1.00  0.00     0.009 A 
ATOM     65  C   UNL A   1      43.353  25.551  33.969  1.00  0.00     0.009 A 
ATOM     66  C   UNL A   1      41.739  25.608  36.255  1.00  0.00     0.001 A 
ATOM     67  C   UNL A   1      43.204  24.414  34.776  1.00  0.00     0.001 A 
ATOM     68  C   UNL A   1      42.419  24.449  35.929  1.00  0.00     0.000 A 
ENDBRANCH  49  63
BRANCH  50  69
ATOM     69  C   UNL A   1      41.500  23.079  26.829  1.00  0.00    -0.014 A 
ATOM     70  C   UNL A   1      40.119  22.954  26.619  1.00  0.00     0.009 A 
ATOM     71  C   UNL A   1      42.270  21.902  26.646  1.00  0.00     0.009 A 
ATOM     72  C   UNL A   1      39.524  21.723  26.291  1.00  0.00     0.001 A 
ATOM     73  C   UNL A   1      41.670  20.660  26.340  1.00  0.00     0.001 A 
ATOM     74  C   UNL A   1      40.292  20.570  26.178  1.00  0.00     0.000 A 
ENDBRANCH  50  69
BRANCH  62  75
ATOM     75  C   UNL A   1      45.489  27.775  28.029  1.00  0.00    -0.014 A 
ATOM     76  C   UNL A   1      46.795  27.590  27.574  1.00  0.00     0.009 A 
ATOM     77  C   UNL A   1      44.797  28.885  27.524  1.00  0.00     0.009 A 
ATOM     78  C   UNL A   1      47.359  28.465  26.633  1.00  0.00     0.001 A 
ATOM     79  C   UNL A   1      45.316  29.717  26.526  1.00  0.00     0.001 A 
ATOM     80  C   UNL A   1      46.612  29.509  26.086  1.00  0.00     0.000 A 
ENDBRANCH  62  75
ENDBRANCH  36  37
ENDBRANCH  29  31
ENDBRANCH  28  29
ENDBRANCH  27  28
ENDBRANCH  26  27
ENDBRANCH  25  26
ENDBRANCH   1  25
TORSDOF 18
ENDMDL
MODEL 3
REMARK VINA RESULT:     -10.6      1.720      3.718
REMARK SMILES Cc1ccn2c([C@@H]3CCCC[C@@H]3C(=O)OCCOCCOCCOC(=O)c3ccc(-c4c5nc(c(-c6ccccc6)c6ccc([nH]6)c(-c6ccccc6)c6nc(c(-c7ccccc7)c7ccc4[nH]7)C=C6)C=C5)cc3)nnc2c1
REMARK SMILES IDX 20 1 19 2 18 3 17 4 16 5 15 6 13 7 14 8 12 9 7 10 8 11 9 12
REMARK SMILES IDX 11 13 10 14 6 15 1 16 2 17 3 18 78 19 4 20 77 21 5 22 76 23
REMARK SMILES IDX 75 24 21 25 22 26 23 27 24 28 25 29 26 30 27 31 28 32 74 33
REMARK SMILES IDX 29 34 73 35 30 36 31 37 32 38 67 39 33 40 72 41 66 42 68 43
REMARK SMILES IDX 34 44 71 45 65 46 64 47 35 49 57 50 42 51 56 52 43 53 46 54
REMARK SMILES IDX 55 55 69 56 44 57 45 58 54 60 70 61 47 62 36 63 37 64 41 65
REMARK SMILES IDX 38 66 40 67 39 68 58 69 59 70 63 71 60 72 62 73 61 74 48 75
REMARK SMILES IDX 49 76 53 77 50 78 52 79 51 80
REMARK H PARENT 68 48 46 59
REMARK Flexibility Score: inf
ROOT
ATOM      1  C   UNL A   1      34.309  29.793  27.392  1.00  0.00     0.188 C 
ENDROOT
BRANCH   1   2
ATOM      2  C   UNL A   1      33.046  29.268  26.676  1.00  0.00     0.188 C 
BRANCH   2   3
ATOM      3  O   UNL A   1      32.979  27.854  26.606  1.00  0.00    -0.376 OA
BRANCH   3   4
ATOM      4  C   UNL A   1      31.700  27.313  26.906  1.00  0.00     0.202 C 
BRANCH   4   5
ATOM      5  C   UNL A   1      31.372  26.003  26.170  1.00  0.00     0.261 C 
BRANCH   5   6
ATOM      6  O   UNL A   1      30.490  26.183  25.056  1.00  0.00    -0.463 OA
BRANCH   6   7
ATOM      7  C   UNL A   1      30.710  25.448  23.949  1.00  0.00     0.309 C 
ATOM      8  O   UNL A   1      30.660  24.201  23.881  1.00  0.00    -0.252 OA
BRANCH   7   9
ATOM      9  C   UNL A   1      30.938  26.344  22.783  1.00  0.00     0.110 C 
ATOM     10  C   UNL A   1      32.410  26.643  22.567  1.00  0.00     0.072 C 
ATOM     11  C   UNL A   1      32.878  28.045  22.878  1.00  0.00     0.012 C 
ATOM     12  C   UNL A   1      31.872  29.168  23.013  1.00  0.00     0.001 C 
ATOM     13  C   UNL A   1      30.043  27.574  22.832  1.00  0.00     0.016 C 
ATOM     14  C   UNL A   1      30.630  28.653  23.708  1.00  0.00     0.001 C 
BRANCH  10  15
ATOM     15  C   UNL A   1      33.416  25.501  22.782  1.00  0.00     0.141 A 
ATOM     16  C   UNL A   1      36.533  21.468  25.431  1.00  0.00     0.044 C 
ATOM     17  C   UNL A   1      35.705  22.638  24.973  1.00  0.00    -0.046 A 
ATOM     18  C   UNL A   1      35.596  23.934  25.621  1.00  0.00     0.022 A 
ATOM     19  C   UNL A   1      34.965  22.458  23.884  1.00  0.00     0.053 A 
ATOM     20  C   UNL A   1      34.799  24.912  25.097  1.00  0.00     0.095 A 
ATOM     21  C   UNL A   1      34.355  23.549  23.219  1.00  0.00     0.161 A 
ATOM     22  N   UNL A   1      34.217  24.796  23.797  1.00  0.00    -0.286 N 
ATOM     23  N   UNL A   1      33.821  23.548  22.043  1.00  0.00    -0.130 NA
ATOM     24  N   UNL A   1      33.433  24.758  21.702  1.00  0.00    -0.134 NA
ENDBRANCH  10  15
ENDBRANCH   7   9
ENDBRANCH   6   7
ENDBRANCH   5   6
ENDBRANCH   4   5
ENDBRANCH   3   4
ENDBRANCH   2   3
ENDBRANCH   1   2
BRANCH   1  25
ATOM     25  O   UNL A   1      34.541  31.169  27.239  1.00  0.00    -0.376 OA
BRANCH  25  26
ATOM     26  C   UNL A   1      34.334  31.836  28.468  1.00  0.00     0.202 C 
BRANCH  26  27
ATOM     27  C   UNL A   1      35.109  33.189  28.822  1.00  0.00     0.261 C 
BRANCH  27  28
ATOM     28  O   UNL A   1      36.189  33.344  29.858  1.00  0.00    -0.460 OA
BRANCH  28  29
ATOM     29  C   UNL A   1      36.950  32.273  30.366  1.00  0.00     0.338 C 
ATOM     30  O   UNL A   1      36.714  31.799  31.473  1.00  0.00    -0.246 OA
BRANCH  29  31
ATOM     31  C   UNL A   1      38.007  31.536  29.389  1.00  0.00     0.060 A 
ATOM     32  C   UNL A   1      37.766  30.561  28.397  1.00  0.00     0.016 A 
ATOM     33  C   UNL A   1      39.346  31.571  29.800  1.00  0.00     0.016 A 
ATOM     34  C   UNL A   1      38.651  29.391  28.253  1.00  0.00     0.010 A 
ATOM     35  C   UNL A   1      40.198  30.418  29.667  1.00  0.00     0.010 A 
ATOM     36  C   UNL A   1      39.775  29.193  29.104  1.00  0.00    -0.014 A 
BRANCH  36  37
ATOM     37  C   UNL A   1      40.787  27.984  29.213  1.00  0.00     0.031 A 
ATOM     38  C   UNL A   1      41.116  27.997  30.643  1.00  0.00     0.074 A 
ATOM     39  C   UNL A   1      41.655  27.126  28.516  1.00  0.00     0.049 A 
ATOM     40  N   UNL A   1      42.228  28.466  31.108  1.00  0.00    -0.248 NA
ATOM     41  C   UNL A   1      40.035  27.878  31.627  1.00  0.00     0.031 C 
ATOM     42  C   UNL A   1      42.455  27.260  27.306  1.00  0.00     0.029 A 
ATOM     43  N   UNL A   1      41.965  25.727  28.785  1.00  0.00    -0.354 N 
ATOM     44  C   UNL A   1      42.074  28.357  32.473  1.00  0.00     0.074 A 
ATOM     45  C   UNL A   1      40.656  28.334  32.715  1.00  0.00     0.031 C 
ATOM     46  C   UNL A   1      42.975  26.098  26.847  1.00  0.00     0.029 A 
ATOM     47  C   UNL A   1      42.389  24.985  27.591  1.00  0.00     0.049 A 
ATOM     48  H   UNL A   1      41.897  25.320  29.679  1.00  0.00     0.167 HD
ATOM     49  C   UNL A   1      43.066  27.753  33.174  1.00  0.00     0.031 A 
ATOM     50  C   UNL A   1      42.985  23.763  27.327  1.00  0.00     0.031 A 
ATOM     51  C   UNL A   1      44.323  27.825  32.468  1.00  0.00     0.049 A 
ATOM     52  C   UNL A   1      44.120  23.686  28.259  1.00  0.00     0.074 A 
ATOM     53  C   UNL A   1      45.164  28.854  32.093  1.00  0.00     0.029 A 
ATOM     54  N   UNL A   1      44.549  26.786  31.603  1.00  0.00    -0.354 N 
ATOM     55  N   UNL A   1      45.195  24.407  28.133  1.00  0.00    -0.248 NA
ATOM     56  C   UNL A   1      43.761  23.265  29.603  1.00  0.00     0.031 C 
ATOM     57  C   UNL A   1      45.820  28.432  30.907  1.00  0.00     0.029 A 
ATOM     58  C   UNL A   1      45.469  27.114  30.643  1.00  0.00     0.049 A 
ATOM     59  H   UNL A   1      44.104  25.909  31.663  1.00  0.00     0.167 HD
ATOM     60  C   UNL A   1      45.304  24.991  29.381  1.00  0.00     0.074 A 
ATOM     61  C   UNL A   1      44.492  24.154  30.278  1.00  0.00     0.031 C 
ATOM     62  C   UNL A   1      45.755  26.272  29.510  1.00  0.00     0.031 A 
BRANCH  49  63
ATOM     63  C   UNL A   1      42.732  26.683  34.178  1.00  0.00    -0.014 A 
ATOM     64  C   UNL A   1      41.710  26.815  35.147  1.00  0.00     0.009 A 
ATOM     65  C   UNL A   1      43.319  25.422  34.058  1.00  0.00     0.009 A 
ATOM     66  C   UNL A   1      41.371  25.796  36.032  1.00  0.00     0.001 A 
ATOM     67  C   UNL A   1      42.950  24.376  34.916  1.00  0.00     0.001 A 
ATOM     68  C   UNL A   1      41.997  24.570  35.916  1.00  0.00     0.000 A 
ENDBRANCH  49  63
BRANCH  50  69
ATOM     69  C   UNL A   1      42.327  22.463  26.918  1.00  0.00    -0.014 A 
ATOM     70  C   UNL A   1      40.968  22.227  27.168  1.00  0.00     0.009 A 
ATOM     71  C   UNL A   1      43.039  21.411  26.287  1.00  0.00     0.009 A 
ATOM     72  C   UNL A   1      40.354  21.002  26.855  1.00  0.00     0.001 A 
ATOM     73  C   UNL A   1      42.429  20.170  25.994  1.00  0.00     0.001 A 
ATOM     74  C   UNL A   1      41.088  19.962  26.293  1.00  0.00     0.000 A 
ENDBRANCH  50  69
BRANCH  62  75
ATOM     75  C   UNL A   1      46.497  26.928  28.363  1.00  0.00    -0.014 A 
ATOM     76  C   UNL A   1      45.875  27.939  27.629  1.00  0.00     0.009 A 
ATOM     77  C   UNL A   1      47.682  26.400  27.829  1.00  0.00     0.009 A 
ATOM     78  C   UNL A   1      46.439  28.412  26.435  1.00  0.00     0.001 A 
ATOM     79  C   UNL A   1      48.299  26.917  26.685  1.00  0.00     0.001 A 
ATOM     80  C   UNL A   1      47.664  27.924  25.978  1.00  0.00     0.000 A 
ENDBRANCH  62  75
ENDBRANCH  36  37
ENDBRANCH  29  31
ENDBRANCH  28  29
ENDBRANCH  27  28
ENDBRANCH  26  27
ENDBRANCH  25  26
ENDBRANCH   1  25
TORSDOF 18
ENDMDL
