MODEL 1
REMARK VINA RESULT:      -9.8      0.000      0.000
REMARK SMILES O=C(Cc1ccccc1)Nc1cc(Cl)ccc1C(=O)OCCOCCOCCOC(=O)c1ccc(-c2c3nc(c(-c4ccccc4)c4ccc([nH]4)c(-c4ccccc4)c4nc(c(-c5ccccc5)c5ccc2[nH]5)C=C4)C=C3)cc1
REMARK SMILES IDX 24 1 23 2 22 3 21 4 20 5 18 6 19 7 17 8 11 9 12 10 13 11
REMARK SMILES IDX 16 12 14 13 15 14 10 15 1 16 2 17 3 19 4 20 5 21 9 22 6 23
REMARK SMILES IDX 8 24 7 25 25 26 26 27 27 28 28 29 29 30 30 31 31 32 32 33
REMARK SMILES IDX 33 34 79 35 34 36 78 37 35 38 36 39 37 40 72 41 38 42 77 43
REMARK SMILES IDX 71 44 73 45 39 46 76 47 70 48 69 49 40 51 62 52 47 53 61 54
REMARK SMILES IDX 48 55 51 56 60 57 74 58 49 59 50 60 59 62 75 63 52 64 41 65
REMARK SMILES IDX 42 66 46 67 43 68 45 69 44 70 63 71 64 72 68 73 65 74 67 75
REMARK SMILES IDX 66 76 53 77 54 78 58 79 55 80 57 81 56 82
REMARK H PARENT 10 18 73 50 51 61
REMARK Flexibility Score: inf
ROOT
ATOM      1  C   UNL A   1      33.411  27.828  23.894  1.00  0.00     0.188 C 
ENDROOT
BRANCH   1   2
ATOM      2  O   UNL A   1      33.666  27.144  22.676  1.00  0.00    -0.376 OA
BRANCH   2   3
ATOM      3  C   UNL A   1      33.097  25.853  22.477  1.00  0.00     0.202 C 
BRANCH   3   4
ATOM      4  C   UNL A   1      33.306  24.754  23.525  1.00  0.00     0.261 C 
BRANCH   4   5
ATOM      5  O   UNL A   1      34.669  24.321  23.609  1.00  0.00    -0.460 OA
BRANCH   5   6
ATOM      6  C   UNL A   1      35.207  24.242  24.852  1.00  0.00     0.340 C 
ATOM      7  O   UNL A   1      34.851  24.873  25.835  1.00  0.00    -0.246 OA
BRANCH   6   8
ATOM      8  C   UNL A   1      36.132  23.079  24.937  1.00  0.00     0.083 A 
ATOM      9  C   UNL A   1      35.786  21.720  24.788  1.00  0.00     0.057 A 
ATOM     10  C   UNL A   1      36.766  20.740  25.041  1.00  0.00     0.047 A 
ATOM     11  C   UNL A   1      38.060  21.095  25.422  1.00  0.00     0.043 A 
ATOM     12  C   UNL A   1      37.441  23.415  25.345  1.00  0.00     0.019 A 
ATOM     13  Cl  UNL A   1      39.238  19.871  25.696  1.00  0.00    -0.084 Cl
ATOM     14  C   UNL A   1      38.400  22.431  25.589  1.00  0.00     0.021 A 
BRANCH   9  15
ATOM     15  N   UNL A   1      34.510  21.207  24.471  1.00  0.00    -0.325 N 
ATOM     16  O   UNL A   1      33.316  21.592  26.422  1.00  0.00    -0.274 OA
ATOM     17  C   UNL A   1      33.436  21.050  25.327  1.00  0.00     0.228 C 
ATOM     18  H   UNL A   1      34.370  20.929  23.537  1.00  0.00     0.169 HD
BRANCH  17  19
ATOM     19  C   UNL A   1      32.320  20.217  24.720  1.00  0.00     0.135 C 
BRANCH  19  20
ATOM     20  C   UNL A   1      32.684  18.753  24.631  1.00  0.00    -0.039 A 
ATOM     21  C   UNL A   1      33.068  18.199  23.405  1.00  0.00     0.004 A 
ATOM     22  C   UNL A   1      32.664  17.932  25.771  1.00  0.00     0.004 A 
ATOM     23  C   UNL A   1      33.375  16.840  23.312  1.00  0.00     0.000 A 
ATOM     24  C   UNL A   1      32.955  16.574  25.674  1.00  0.00     0.000 A 
ATOM     25  C   UNL A   1      33.304  16.026  24.443  1.00  0.00     0.000 A 
ENDBRANCH  19  20
ENDBRANCH  17  19
ENDBRANCH   9  15
ENDBRANCH   6   8
ENDBRANCH   5   6
ENDBRANCH   4   5
ENDBRANCH   3   4
ENDBRANCH   2   3
ENDBRANCH   1   2
BRANCH   1  26
ATOM     26  C   UNL A   1      31.953  28.033  24.365  1.00  0.00     0.188 C 
BRANCH  26  27
ATOM     27  O   UNL A   1      31.566  29.347  24.690  1.00  0.00    -0.376 OA
BRANCH  27  28
ATOM     28  C   UNL A   1      31.854  29.880  25.972  1.00  0.00     0.202 C 
BRANCH  28  29
ATOM     29  C   UNL A   1      32.529  29.135  27.145  1.00  0.00     0.261 C 
BRANCH  29  30
ATOM     30  O   UNL A   1      33.954  29.162  27.253  1.00  0.00    -0.460 OA
BRANCH  30  31
ATOM     31  C   UNL A   1      34.499  30.327  27.688  1.00  0.00     0.338 C 
ATOM     32  O   UNL A   1      33.951  31.404  27.791  1.00  0.00    -0.246 OA
BRANCH  31  33
ATOM     33  C   UNL A   1      35.840  30.028  28.235  1.00  0.00     0.060 A 
ATOM     34  C   UNL A   1      36.962  30.263  27.428  1.00  0.00     0.016 A 
ATOM     35  C   UNL A   1      35.990  29.535  29.533  1.00  0.00     0.016 A 
ATOM     36  C   UNL A   1      38.241  29.984  27.911  1.00  0.00     0.010 A 
ATOM     37  C   UNL A   1      37.270  29.231  30.004  1.00  0.00     0.010 A 
ATOM     38  C   UNL A   1      38.398  29.428  29.187  1.00  0.00    -0.014 A 
BRANCH  38  39
ATOM     39  C   UNL A   1      39.711  28.871  29.593  1.00  0.00     0.031 A 
ATOM     40  C   UNL A   1      40.544  29.651  30.574  1.00  0.00     0.074 A 
ATOM     41  C   UNL A   1      40.156  27.693  29.120  1.00  0.00     0.049 A 
ATOM     42  N   UNL A   1      41.738  29.392  31.043  1.00  0.00    -0.248 NA
ATOM     43  C   UNL A   1      39.946  30.892  31.092  1.00  0.00     0.031 C 
ATOM     44  C   UNL A   1      39.428  26.813  28.210  1.00  0.00     0.029 A 
ATOM     45  N   UNL A   1      41.344  27.042  29.346  1.00  0.00    -0.354 N 
ATOM     46  C   UNL A   1      42.037  30.440  31.904  1.00  0.00     0.074 A 
ATOM     47  C   UNL A   1      40.916  31.353  31.867  1.00  0.00     0.031 C 
ATOM     48  C   UNL A   1      40.189  25.735  27.949  1.00  0.00     0.029 A 
ATOM     49  C   UNL A   1      41.468  25.868  28.644  1.00  0.00     0.049 A 
ATOM     50  H   UNL A   1      42.040  27.383  29.953  1.00  0.00     0.167 HD
ATOM     51  C   UNL A   1      43.141  30.626  32.664  1.00  0.00     0.031 A 
ATOM     52  C   UNL A   1      42.507  25.012  28.557  1.00  0.00     0.031 A 
ATOM     53  C   UNL A   1      44.272  29.736  32.681  1.00  0.00     0.049 A 
ATOM     54  C   UNL A   1      43.770  25.295  29.329  1.00  0.00     0.074 A 
ATOM     55  C   UNL A   1      45.438  29.837  33.419  1.00  0.00     0.029 A 
ATOM     56  N   UNL A   1      44.381  28.587  31.913  1.00  0.00    -0.354 N 
ATOM     57  N   UNL A   1      44.034  26.276  30.158  1.00  0.00    -0.248 NA
ATOM     58  C   UNL A   1      44.877  24.343  29.155  1.00  0.00     0.031 C 
ATOM     59  C   UNL A   1      46.281  28.783  33.050  1.00  0.00     0.029 A 
ATOM     60  C   UNL A   1      45.609  27.986  32.136  1.00  0.00     0.049 A 
ATOM     61  H   UNL A   1      43.689  28.249  31.300  1.00  0.00     0.167 HD
ATOM     62  C   UNL A   1      45.320  26.040  30.630  1.00  0.00     0.074 A 
ATOM     63  C   UNL A   1      45.778  24.817  30.005  1.00  0.00     0.031 C 
ATOM     64  C   UNL A   1      46.055  26.769  31.507  1.00  0.00     0.031 A 
BRANCH  51  65
ATOM     65  C   UNL A   1      43.193  31.872  33.506  1.00  0.00    -0.014 A 
ATOM     66  C   UNL A   1      43.711  33.074  33.000  1.00  0.00     0.009 A 
ATOM     67  C   UNL A   1      42.709  31.843  34.823  1.00  0.00     0.009 A 
ATOM     68  C   UNL A   1      43.784  34.209  33.811  1.00  0.00     0.001 A 
ATOM     69  C   UNL A   1      42.752  32.987  35.620  1.00  0.00     0.001 A 
ATOM     70  C   UNL A   1      43.300  34.166  35.117  1.00  0.00     0.000 A 
ENDBRANCH  51  65
BRANCH  52  71
ATOM     71  C   UNL A   1      42.409  23.805  27.694  1.00  0.00    -0.014 A 
ATOM     72  C   UNL A   1      42.735  23.872  26.331  1.00  0.00     0.009 A 
ATOM     73  C   UNL A   1      41.963  22.583  28.224  1.00  0.00     0.009 A 
ATOM     74  C   UNL A   1      42.594  22.749  25.512  1.00  0.00     0.001 A 
ATOM     75  C   UNL A   1      41.852  21.454  27.409  1.00  0.00     0.001 A 
ATOM     76  C   UNL A   1      42.158  21.540  26.052  1.00  0.00     0.000 A 
ENDBRANCH  52  71
BRANCH  64  77
ATOM     77  C   UNL A   1      47.414  26.240  31.882  1.00  0.00    -0.014 A 
ATOM     78  C   UNL A   1      48.564  26.582  31.154  1.00  0.00     0.009 A 
ATOM     79  C   UNL A   1      47.549  25.418  33.013  1.00  0.00     0.009 A 
ATOM     80  C   UNL A   1      49.813  26.081  31.529  1.00  0.00     0.001 A 
ATOM     81  C   UNL A   1      48.802  24.947  33.406  1.00  0.00     0.001 A 
ATOM     82  C   UNL A   1      49.931  25.270  32.657  1.00  0.00     0.000 A 
ENDBRANCH  64  77
ENDBRANCH  38  39
ENDBRANCH  31  33
ENDBRANCH  30  31
ENDBRANCH  29  30
ENDBRANCH  28  29
ENDBRANCH  27  28
ENDBRANCH  26  27
ENDBRANCH   1  26
TORSDOF 20
ENDMDL
MODEL 2
REMARK VINA RESULT:      -9.8      3.016      8.308
REMARK SMILES O=C(Cc1ccccc1)Nc1cc(Cl)ccc1C(=O)OCCOCCOCCOC(=O)c1ccc(-c2c3nc(c(-c4ccccc4)c4ccc([nH]4)c(-c4ccccc4)c4nc(c(-c5ccccc5)c5ccc2[nH]5)C=C4)C=C3)cc1
REMARK SMILES IDX 24 1 23 2 22 3 21 4 20 5 18 6 19 7 17 8 11 9 12 10 13 11
REMARK SMILES IDX 16 12 14 13 15 14 10 15 1 16 2 17 3 19 4 20 5 21 9 22 6 23
REMARK SMILES IDX 8 24 7 25 25 26 26 27 27 28 28 29 29 30 30 31 31 32 32 33
REMARK SMILES IDX 33 34 79 35 34 36 78 37 35 38 36 39 37 40 72 41 38 42 77 43
REMARK SMILES IDX 71 44 73 45 39 46 76 47 70 48 69 49 40 51 62 52 47 53 61 54
REMARK SMILES IDX 48 55 51 56 60 57 74 58 49 59 50 60 59 62 75 63 52 64 41 65
REMARK SMILES IDX 42 66 46 67 43 68 45 69 44 70 63 71 64 72 68 73 65 74 67 75
REMARK SMILES IDX 66 76 53 77 54 78 58 79 55 80 57 81 56 82
REMARK H PARENT 10 18 73 50 51 61
REMARK Flexibility Score: inf
ROOT
ATOM      1  C   UNL A   1      39.741  21.697  26.434  1.00  0.00     0.188 C 
ENDROOT
BRANCH   1   2
ATOM      2  O   UNL A   1      38.767  21.973  25.437  1.00  0.00    -0.376 OA
BRANCH   2   3
ATOM      3  C   UNL A   1      37.741  22.920  25.718  1.00  0.00     0.202 C 
BRANCH   3   4
ATOM      4  C   UNL A   1      36.379  22.443  26.233  1.00  0.00     0.261 C 
BRANCH   4   5
ATOM      5  O   UNL A   1      35.281  23.037  25.530  1.00  0.00    -0.460 OA
BRANCH   5   6
ATOM      6  C   UNL A   1      34.039  22.604  25.864  1.00  0.00     0.340 C 
ATOM      7  O   UNL A   1      33.309  23.089  26.714  1.00  0.00    -0.246 OA
BRANCH   6   8
ATOM      8  C   UNL A   1      33.559  21.608  24.867  1.00  0.00     0.083 A 
ATOM      9  C   UNL A   1      32.696  21.859  23.781  1.00  0.00     0.057 A 
ATOM     10  C   UNL A   1      32.232  20.768  23.020  1.00  0.00     0.047 A 
ATOM     11  C   UNL A   1      32.618  19.461  23.320  1.00  0.00     0.043 A 
ATOM     12  C   UNL A   1      33.920  20.277  25.168  1.00  0.00     0.019 A 
ATOM     13  Cl  UNL A   1      32.051  18.157  22.352  1.00  0.00    -0.084 Cl
ATOM     14  C   UNL A   1      33.452  19.208  24.401  1.00  0.00     0.021 A 
BRANCH   9  15
ATOM     15  N   UNL A   1      32.172  23.110  23.395  1.00  0.00    -0.325 N 
ATOM     16  O   UNL A   1      33.750  23.867  21.873  1.00  0.00    -0.274 OA
ATOM     17  C   UNL A   1      32.783  24.064  22.603  1.00  0.00     0.228 C 
ATOM     18  H   UNL A   1      31.270  23.328  23.726  1.00  0.00     0.169 HD
BRANCH  17  19
ATOM     19  C   UNL A   1      32.051  25.396  22.620  1.00  0.00     0.135 C 
BRANCH  19  20
ATOM     20  C   UNL A   1      32.261  26.146  23.915  1.00  0.00    -0.039 A 
ATOM     21  C   UNL A   1      33.531  26.189  24.502  1.00  0.00     0.004 A 
ATOM     22  C   UNL A   1      31.202  26.827  24.537  1.00  0.00     0.004 A 
ATOM     23  C   UNL A   1      33.723  26.855  25.714  1.00  0.00     0.000 A 
ATOM     24  C   UNL A   1      31.392  27.477  25.754  1.00  0.00     0.000 A 
ATOM     25  C   UNL A   1      32.651  27.486  26.345  1.00  0.00     0.000 A 
ENDBRANCH  19  20
ENDBRANCH  17  19
ENDBRANCH   9  15
ENDBRANCH   6   8
ENDBRANCH   5   6
ENDBRANCH   4   5
ENDBRANCH   3   4
ENDBRANCH   2   3
ENDBRANCH   1   2
BRANCH   1  26
ATOM     26  C   UNL A   1      40.848  20.656  26.153  1.00  0.00     0.188 C 
BRANCH  26  27
ATOM     27  O   UNL A   1      42.131  20.938  26.659  1.00  0.00    -0.376 OA
BRANCH  27  28
ATOM     28  C   UNL A   1      43.285  20.603  25.906  1.00  0.00     0.202 C 
BRANCH  28  29
ATOM     29  C   UNL A   1      43.973  21.485  24.841  1.00  0.00     0.261 C 
BRANCH  29  30
ATOM     30  O   UNL A   1      43.445  22.786  24.575  1.00  0.00    -0.460 OA
BRANCH  30  31
ATOM     31  C   UNL A   1      44.267  23.832  24.846  1.00  0.00     0.338 C 
ATOM     32  O   UNL A   1      45.314  24.108  24.301  1.00  0.00    -0.246 OA
BRANCH  31  33
ATOM     33  C   UNL A   1      43.565  24.731  25.788  1.00  0.00     0.060 A 
ATOM     34  C   UNL A   1      43.988  26.065  25.883  1.00  0.00     0.016 A 
ATOM     35  C   UNL A   1      42.495  24.269  26.556  1.00  0.00     0.016 A 
ATOM     36  C   UNL A   1      43.353  26.937  26.768  1.00  0.00     0.010 A 
ATOM     37  C   UNL A   1      41.878  25.138  27.461  1.00  0.00     0.010 A 
ATOM     38  C   UNL A   1      42.322  26.467  27.591  1.00  0.00    -0.014 A 
BRANCH  38  39
ATOM     39  C   UNL A   1      41.839  27.300  28.719  1.00  0.00     0.031 A 
ATOM     40  C   UNL A   1      42.601  27.256  30.016  1.00  0.00     0.074 A 
ATOM     41  C   UNL A   1      40.759  28.093  28.600  1.00  0.00     0.049 A 
ATOM     42  N   UNL A   1      42.349  27.858  31.150  1.00  0.00    -0.248 NA
ATOM     43  C   UNL A   1      43.809  26.415  30.032  1.00  0.00     0.031 C 
ATOM     44  C   UNL A   1      39.965  28.271  27.388  1.00  0.00     0.029 A 
ATOM     45  N   UNL A   1      40.146  28.898  29.529  1.00  0.00    -0.354 N 
ATOM     46  C   UNL A   1      43.361  27.464  32.016  1.00  0.00     0.074 A 
ATOM     47  C   UNL A   1      44.210  26.547  31.286  1.00  0.00     0.031 C 
ATOM     48  C   UNL A   1      38.962  29.129  27.649  1.00  0.00     0.029 A 
ATOM     49  C   UNL A   1      39.024  29.530  29.053  1.00  0.00     0.049 A 
ATOM     50  H   UNL A   1      40.479  29.010  30.449  1.00  0.00     0.167 HD
ATOM     51  C   UNL A   1      43.573  27.835  33.300  1.00  0.00     0.031 A 
ATOM     52  C   UNL A   1      38.138  30.324  29.687  1.00  0.00     0.031 A 
ATOM     53  C   UNL A   1      42.715  28.723  34.038  1.00  0.00     0.049 A 
ATOM     54  C   UNL A   1      38.334  30.638  31.149  1.00  0.00     0.074 A 
ATOM     55  C   UNL A   1      42.845  29.160  35.345  1.00  0.00     0.029 A 
ATOM     56  N   UNL A   1      41.558  29.298  33.536  1.00  0.00    -0.354 N 
ATOM     57  N   UNL A   1      39.306  30.279  31.951  1.00  0.00    -0.248 NA
ATOM     58  C   UNL A   1      37.307  31.475  31.788  1.00  0.00     0.031 C 
ATOM     59  C   UNL A   1      41.733  29.950  35.653  1.00  0.00     0.029 A 
ATOM     60  C   UNL A   1      40.947  30.062  34.516  1.00  0.00     0.049 A 
ATOM     61  H   UNL A   1      41.220  29.180  32.618  1.00  0.00     0.167 HD
ATOM     62  C   UNL A   1      39.027  30.874  33.177  1.00  0.00     0.074 A 
ATOM     63  C   UNL A   1      37.803  31.627  33.008  1.00  0.00     0.031 C 
ATOM     64  C   UNL A   1      39.727  30.807  34.337  1.00  0.00     0.031 A 
BRANCH  51  65
ATOM     65  C   UNL A   1      44.762  27.235  34.000  1.00  0.00    -0.014 A 
ATOM     66  C   UNL A   1      44.670  26.009  34.676  1.00  0.00     0.009 A 
ATOM     67  C   UNL A   1      45.995  27.905  33.976  1.00  0.00     0.009 A 
ATOM     68  C   UNL A   1      45.776  25.488  35.351  1.00  0.00     0.001 A 
ATOM     69  C   UNL A   1      47.108  27.367  34.622  1.00  0.00     0.001 A 
ATOM     70  C   UNL A   1      46.995  26.165  35.319  1.00  0.00     0.000 A 
ENDBRANCH  51  65
BRANCH  52  71
ATOM     71  C   UNL A   1      36.968  30.875  28.951  1.00  0.00    -0.014 A 
ATOM     72  C   UNL A   1      36.904  32.240  28.632  1.00  0.00     0.009 A 
ATOM     73  C   UNL A   1      35.897  30.043  28.588  1.00  0.00     0.009 A 
ATOM     74  C   UNL A   1      35.782  32.765  27.986  1.00  0.00     0.001 A 
ATOM     75  C   UNL A   1      34.790  30.565  27.915  1.00  0.00     0.001 A 
ATOM     76  C   UNL A   1      34.729  31.927  27.623  1.00  0.00     0.000 A 
ENDBRANCH  52  71
BRANCH  64  77
ATOM     77  C   UNL A   1      39.213  31.606  35.505  1.00  0.00    -0.014 A 
ATOM     78  C   UNL A   1      38.238  31.093  36.376  1.00  0.00     0.009 A 
ATOM     79  C   UNL A   1      39.747  32.879  35.762  1.00  0.00     0.009 A 
ATOM     80  C   UNL A   1      37.784  31.855  37.456  1.00  0.00     0.001 A 
ATOM     81  C   UNL A   1      39.317  33.624  36.861  1.00  0.00     0.001 A 
ATOM     82  C   UNL A   1      38.327  33.116  37.700  1.00  0.00     0.000 A 
ENDBRANCH  64  77
ENDBRANCH  38  39
ENDBRANCH  31  33
ENDBRANCH  30  31
ENDBRANCH  29  30
ENDBRANCH  28  29
ENDBRANCH  27  28
ENDBRANCH  26  27
ENDBRANCH   1  26
TORSDOF 20
ENDMDL
MODEL 3
REMARK VINA RESULT:      -9.7      2.466      7.699
REMARK SMILES O=C(Cc1ccccc1)Nc1cc(Cl)ccc1C(=O)OCCOCCOCCOC(=O)c1ccc(-c2c3nc(c(-c4ccccc4)c4ccc([nH]4)c(-c4ccccc4)c4nc(c(-c5ccccc5)c5ccc2[nH]5)C=C4)C=C3)cc1
REMARK SMILES IDX 24 1 23 2 22 3 21 4 20 5 18 6 19 7 17 8 11 9 12 10 13 11
REMARK SMILES IDX 16 12 14 13 15 14 10 15 1 16 2 17 3 19 4 20 5 21 9 22 6 23
REMARK SMILES IDX 8 24 7 25 25 26 26 27 27 28 28 29 29 30 30 31 31 32 32 33
REMARK SMILES IDX 33 34 79 35 34 36 78 37 35 38 36 39 37 40 72 41 38 42 77 43
REMARK SMILES IDX 71 44 73 45 39 46 76 47 70 48 69 49 40 51 62 52 47 53 61 54
REMARK SMILES IDX 48 55 51 56 60 57 74 58 49 59 50 60 59 62 75 63 52 64 41 65
REMARK SMILES IDX 42 66 46 67 43 68 45 69 44 70 63 71 64 72 68 73 65 74 67 75
REMARK SMILES IDX 66 76 53 77 54 78 58 79 55 80 57 81 56 82
REMARK H PARENT 10 18 73 50 51 61
REMARK Flexibility Score: inf
ROOT
ATOM      1  C   UNL A   1      36.417  22.732  23.129  1.00  0.00     0.188 C 
ENDROOT
BRANCH   1   2
ATOM      2  O   UNL A   1      35.632  23.913  23.057  1.00  0.00    -0.376 OA
BRANCH   2   3
ATOM      3  C   UNL A   1      34.232  23.829  23.305  1.00  0.00     0.202 C 
BRANCH   3   4
ATOM      4  C   UNL A   1      33.339  22.996  22.378  1.00  0.00     0.261 C 
BRANCH   4   5
ATOM      5  O   UNL A   1      32.415  22.169  23.095  1.00  0.00    -0.460 OA
BRANCH   5   6
ATOM      6  C   UNL A   1      32.051  21.006  22.499  1.00  0.00     0.340 C 
ATOM      7  O   UNL A   1      31.764  20.855  21.322  1.00  0.00    -0.246 OA
BRANCH   6   8
ATOM      8  C   UNL A   1      32.302  19.860  23.417  1.00  0.00     0.083 A 
ATOM      9  C   UNL A   1      32.331  19.906  24.825  1.00  0.00     0.057 A 
ATOM     10  C   UNL A   1      32.724  18.752  25.532  1.00  0.00     0.047 A 
ATOM     11  C   UNL A   1      33.071  17.579  24.862  1.00  0.00     0.043 A 
ATOM     12  C   UNL A   1      32.678  18.670  22.758  1.00  0.00     0.019 A 
ATOM     13  Cl  UNL A   1      33.519  16.181  25.760  1.00  0.00    -0.084 Cl
ATOM     14  C   UNL A   1      33.062  17.535  23.475  1.00  0.00     0.021 A 
BRANCH   9  15
ATOM     15  N   UNL A   1      32.070  21.031  25.636  1.00  0.00    -0.325 N 
ATOM     16  O   UNL A   1      34.202  21.749  26.200  1.00  0.00    -0.274 OA
ATOM     17  C   UNL A   1      32.986  21.768  26.363  1.00  0.00     0.228 C 
ATOM     18  H   UNL A   1      31.131  21.323  25.691  1.00  0.00     0.169 HD
BRANCH  17  19
ATOM     19  C   UNL A   1      32.324  22.731  27.334  1.00  0.00     0.135 C 
BRANCH  19  20
ATOM     20  C   UNL A   1      31.906  24.020  26.666  1.00  0.00    -0.039 A 
ATOM     21  C   UNL A   1      32.864  24.994  26.359  1.00  0.00     0.004 A 
ATOM     22  C   UNL A   1      30.564  24.256  26.322  1.00  0.00     0.004 A 
ATOM     23  C   UNL A   1      32.478  26.198  25.769  1.00  0.00     0.000 A 
ATOM     24  C   UNL A   1      30.179  25.464  25.749  1.00  0.00     0.000 A 
ATOM     25  C   UNL A   1      31.135  26.439  25.478  1.00  0.00     0.000 A 
ENDBRANCH  19  20
ENDBRANCH  17  19
ENDBRANCH   9  15
ENDBRANCH   6   8
ENDBRANCH   5   6
ENDBRANCH   4   5
ENDBRANCH   3   4
ENDBRANCH   2   3
ENDBRANCH   1   2
BRANCH   1  26
ATOM     26  C   UNL A   1      37.082  22.336  24.467  1.00  0.00     0.188 C 
BRANCH  26  27
ATOM     27  O   UNL A   1      36.974  20.988  24.858  1.00  0.00    -0.376 OA
BRANCH  27  28
ATOM     28  C   UNL A   1      38.140  20.196  25.018  1.00  0.00     0.202 C 
BRANCH  28  29
ATOM     29  C   UNL A   1      39.470  20.641  25.665  1.00  0.00     0.261 C 
BRANCH  29  30
ATOM     30  O   UNL A   1      40.284  19.662  26.314  1.00  0.00    -0.460 OA
BRANCH  30  31
ATOM     31  C   UNL A   1      41.619  19.744  26.081  1.00  0.00     0.338 C 
ATOM     32  O   UNL A   1      42.302  18.987  25.426  1.00  0.00    -0.246 OA
BRANCH  31  33
ATOM     33  C   UNL A   1      42.090  21.053  26.584  1.00  0.00     0.060 A 
ATOM     34  C   UNL A   1      42.016  21.310  27.961  1.00  0.00     0.016 A 
ATOM     35  C   UNL A   1      42.612  22.009  25.711  1.00  0.00     0.016 A 
ATOM     36  C   UNL A   1      42.445  22.538  28.467  1.00  0.00     0.010 A 
ATOM     37  C   UNL A   1      43.016  23.249  26.217  1.00  0.00     0.010 A 
ATOM     38  C   UNL A   1      42.909  23.528  27.592  1.00  0.00    -0.014 A 
BRANCH  38  39
ATOM     39  C   UNL A   1      43.096  24.915  28.081  1.00  0.00     0.031 A 
ATOM     40  C   UNL A   1      44.485  25.361  28.448  1.00  0.00     0.074 A 
ATOM     41  C   UNL A   1      42.065  25.773  28.185  1.00  0.00     0.049 A 
ATOM     42  N   UNL A   1      44.891  26.505  28.937  1.00  0.00    -0.248 NA
ATOM     43  C   UNL A   1      45.561  24.379  28.235  1.00  0.00     0.031 C 
ATOM     44  C   UNL A   1      40.682  25.489  27.812  1.00  0.00     0.029 A 
ATOM     45  N   UNL A   1      42.034  27.067  28.646  1.00  0.00    -0.354 N 
ATOM     46  C   UNL A   1      46.265  26.378  29.098  1.00  0.00     0.074 A 
ATOM     47  C   UNL A   1      46.617  25.037  28.686  1.00  0.00     0.031 C 
ATOM     48  C   UNL A   1      39.933  26.577  28.065  1.00  0.00     0.029 A 
ATOM     49  C   UNL A   1      40.777  27.618  28.649  1.00  0.00     0.049 A 
ATOM     50  H   UNL A   1      42.837  27.552  28.945  1.00  0.00     0.167 HD
ATOM     51  C   UNL A   1      47.157  27.294  29.541  1.00  0.00     0.031 A 
ATOM     52  C   UNL A   1      40.355  28.819  29.095  1.00  0.00     0.031 A 
ATOM     53  C   UNL A   1      46.805  28.618  29.981  1.00  0.00     0.049 A 
ATOM     54  C   UNL A   1      41.350  29.785  29.686  1.00  0.00     0.074 A 
ATOM     55  C   UNL A   1      47.638  29.621  30.447  1.00  0.00     0.029 A 
ATOM     56  N   UNL A   1      45.514  29.118  30.021  1.00  0.00    -0.354 N 
ATOM     57  N   UNL A   1      42.649  29.664  29.812  1.00  0.00    -0.248 NA
ATOM     58  C   UNL A   1      40.815  31.059  30.190  1.00  0.00     0.031 C 
ATOM     59  C   UNL A   1      46.842  30.706  30.829  1.00  0.00     0.029 A 
ATOM     60  C   UNL A   1      45.521  30.405  30.533  1.00  0.00     0.049 A 
ATOM     61  H   UNL A   1      44.710  28.631  29.728  1.00  0.00     0.167 HD
ATOM     62  C   UNL A   1      43.091  30.856  30.375  1.00  0.00     0.074 A 
ATOM     63  C   UNL A   1      41.922  31.691  30.555  1.00  0.00     0.031 C 
ATOM     64  C   UNL A   1      44.352  31.228  30.709  1.00  0.00     0.031 A 
BRANCH  51  65
ATOM     65  C   UNL A   1      48.598  26.869  29.615  1.00  0.00    -0.014 A 
ATOM     66  C   UNL A   1      49.111  26.222  30.751  1.00  0.00     0.009 A 
ATOM     67  C   UNL A   1      49.452  27.112  28.529  1.00  0.00     0.009 A 
ATOM     68  C   UNL A   1      50.461  25.869  30.814  1.00  0.00     0.001 A 
ATOM     69  C   UNL A   1      50.792  26.728  28.581  1.00  0.00     0.001 A 
ATOM     70  C   UNL A   1      51.298  26.118  29.727  1.00  0.00     0.000 A 
ENDBRANCH  51  65
BRANCH  52  71
ATOM     71  C   UNL A   1      38.914  29.181  29.015  1.00  0.00    -0.014 A 
ATOM     72  C   UNL A   1      38.077  29.031  30.131  1.00  0.00     0.009 A 
ATOM     73  C   UNL A   1      38.363  29.655  27.813  1.00  0.00     0.009 A 
ATOM     74  C   UNL A   1      36.714  29.324  30.040  1.00  0.00     0.001 A 
ATOM     75  C   UNL A   1      37.006  29.975  27.734  1.00  0.00     0.001 A 
ATOM     76  C   UNL A   1      36.181  29.801  28.843  1.00  0.00     0.000 A 
ENDBRANCH  52  71
BRANCH  64  77
ATOM     77  C   UNL A   1      44.544  32.615  31.260  1.00  0.00    -0.014 A 
ATOM     78  C   UNL A   1      44.514  32.871  32.640  1.00  0.00     0.009 A 
ATOM     79  C   UNL A   1      44.803  33.680  30.380  1.00  0.00     0.009 A 
ATOM     80  C   UNL A   1      44.701  34.169  33.122  1.00  0.00     0.001 A 
ATOM     81  C   UNL A   1      45.024  34.968  30.867  1.00  0.00     0.001 A 
ATOM     82  C   UNL A   1      44.962  35.214  32.236  1.00  0.00     0.000 A 
ENDBRANCH  64  77
ENDBRANCH  38  39
ENDBRANCH  31  33
ENDBRANCH  30  31
ENDBRANCH  29  30
ENDBRANCH  28  29
ENDBRANCH  27  28
ENDBRANCH  26  27
ENDBRANCH   1  26
TORSDOF 20
ENDMDL
