MODEL 1
REMARK VINA RESULT:      -9.3      0.000      0.000
REMARK SMILES C[C@H](CNS(=O)(=O)c1ccc(C(=O)OCCOCCOCCOC(=O)c2ccc(-c3c4nc(c(-c5ccccc5)c5ccc([nH]5)c(-c5ccccc5)c5nc(c(-c6ccccc6)c6ccc3[nH]6)C=C5)C=C4)cc2)cc1F)[NH+](C)C
REMARK SMILES IDX 17 1 16 2 15 3 14 4 12 5 13 6 11 7 8 8 9 9 75 10 10 11 74 12
REMARK SMILES IDX 76 13 5 14 6 15 7 16 4 17 3 19 2 20 1 21 77 22 78 23 79 24
REMARK SMILES IDX 18 26 19 27 20 28 21 29 22 30 23 31 24 32 25 33 26 34 27 35
REMARK SMILES IDX 73 36 28 37 72 38 29 39 30 40 31 41 66 42 32 43 71 44 65 45
REMARK SMILES IDX 67 46 33 47 70 48 64 49 63 50 34 52 56 53 41 54 55 55 42 56
REMARK SMILES IDX 45 57 54 58 68 59 43 60 44 61 53 63 69 64 46 65 35 66 36 67
REMARK SMILES IDX 40 68 37 69 39 70 38 71 57 72 58 73 62 74 59 75 61 76 60 77
REMARK SMILES IDX 47 78 48 79 52 80 49 81 51 82 50 83
REMARK H PARENT 4 18 77 25 67 51 45 62
REMARK Flexibility Score: inf
ROOT
ATOM      1  O   UNL A   1      32.915  34.578  28.908  1.00  0.00    -0.376 OA
ENDROOT
BRANCH   1   2
ATOM      2  C   UNL A   1      33.973  34.049  28.119  1.00  0.00     0.202 C 
BRANCH   2   3
ATOM      3  C   UNL A   1      34.403  32.601  28.346  1.00  0.00     0.261 C 
BRANCH   3   4
ATOM      4  O   UNL A   1      33.585  31.669  27.618  1.00  0.00    -0.460 OA
BRANCH   4   5
ATOM      5  C   UNL A   1      34.177  30.480  27.358  1.00  0.00     0.338 C 
ATOM      6  O   UNL A   1      35.236  30.077  27.809  1.00  0.00    -0.246 OA
BRANCH   5   7
ATOM      7  C   UNL A   1      33.281  29.611  26.563  1.00  0.00     0.063 A 
ATOM      8  C   UNL A   1      31.769  27.870  24.975  1.00  0.00     0.118 A 
ATOM      9  C   UNL A   1      32.895  27.396  25.660  1.00  0.00     0.026 A 
ATOM     10  C   UNL A   1      31.403  29.209  25.098  1.00  0.00     0.144 A 
ATOM     11  C   UNL A   1      33.639  28.262  26.460  1.00  0.00     0.017 A 
ATOM     12  C   UNL A   1      32.150  30.085  25.896  1.00  0.00     0.056 A 
ATOM     13  F   UNL A   1      30.360  29.718  24.431  1.00  0.00    -0.205 F 
BRANCH   8  14
ATOM     14  S   UNL A   1      30.966  26.798  23.821  1.00  0.00     0.243 S 
ATOM     15  O   UNL A   1      31.011  27.445  22.531  1.00  0.00    -0.207 OA
ATOM     16  O   UNL A   1      29.721  26.329  24.387  1.00  0.00    -0.207 OA
BRANCH  14  17
ATOM     17  N   UNL A   1      31.940  25.418  23.767  1.00  0.00    -0.205 NA
ATOM     18  H   UNL A   1      32.653  25.585  23.057  1.00  0.00     0.141 HD
BRANCH  17  19
ATOM     19  C   UNL A   1      31.325  24.110  23.462  1.00  0.00     0.163 C 
BRANCH  19  20
ATOM     20  C   UNL A   1      31.409  23.085  24.632  1.00  0.00     0.195 C 
ATOM     21  C   UNL A   1      32.809  22.472  24.777  1.00  0.00     0.076 C 
BRANCH  20  22
ATOM     22  N   UNL A   1      30.800  23.573  25.891  1.00  0.00    -0.337 N 
ATOM     23  C   UNL A   1      29.928  22.579  26.518  1.00  0.00     0.332 C 
ATOM     24  C   UNL A   1      31.730  24.130  26.867  1.00  0.00     0.332 C 
ATOM     25  H   UNL A   1      30.233  24.362  25.580  1.00  0.00     0.347 HD
ENDBRANCH  20  22
ENDBRANCH  19  20
ENDBRANCH  17  19
ENDBRANCH  14  17
ENDBRANCH   8  14
ENDBRANCH   5   7
ENDBRANCH   4   5
ENDBRANCH   3   4
ENDBRANCH   2   3
ENDBRANCH   1   2
BRANCH   1  26
ATOM     26  C   UNL A   1      32.811  35.979  29.080  1.00  0.00     0.188 C 
BRANCH  26  27
ATOM     27  C   UNL A   1      33.293  36.649  30.383  1.00  0.00     0.188 C 
BRANCH  27  28
ATOM     28  O   UNL A   1      32.876  36.191  31.650  1.00  0.00    -0.376 OA
BRANCH  28  29
ATOM     29  C   UNL A   1      33.659  35.305  32.429  1.00  0.00     0.202 C 
BRANCH  29  30
ATOM     30  C   UNL A   1      34.402  34.084  31.871  1.00  0.00     0.261 C 
BRANCH  30  31
ATOM     31  O   UNL A   1      35.797  33.998  32.152  1.00  0.00    -0.460 OA
BRANCH  31  32
ATOM     32  C   UNL A   1      36.188  32.852  32.761  1.00  0.00     0.338 C 
ATOM     33  O   UNL A   1      35.619  32.240  33.645  1.00  0.00    -0.246 OA
BRANCH  32  34
ATOM     34  C   UNL A   1      37.386  32.352  32.069  1.00  0.00     0.060 A 
ATOM     35  C   UNL A   1      37.410  32.374  30.670  1.00  0.00     0.016 A 
ATOM     36  C   UNL A   1      38.466  31.854  32.799  1.00  0.00     0.016 A 
ATOM     37  C   UNL A   1      38.530  31.899  29.991  1.00  0.00     0.010 A 
ATOM     38  C   UNL A   1      39.578  31.361  32.117  1.00  0.00     0.010 A 
ATOM     39  C   UNL A   1      39.611  31.373  30.712  1.00  0.00    -0.014 A 
BRANCH  39  40
ATOM     40  C   UNL A   1      40.750  30.752  30.004  1.00  0.00     0.031 A 
ATOM     41  C   UNL A   1      41.976  31.571  29.726  1.00  0.00     0.074 A 
ATOM     42  C   UNL A   1      40.679  29.475  29.591  1.00  0.00     0.049 A 
ATOM     43  N   UNL A   1      43.051  31.245  29.056  1.00  0.00    -0.248 NA
ATOM     44  C   UNL A   1      41.993  32.935  30.275  1.00  0.00     0.031 C 
ATOM     45  C   UNL A   1      39.557  28.568  29.832  1.00  0.00     0.029 A 
ATOM     46  N   UNL A   1      41.569  28.729  28.860  1.00  0.00    -0.354 N 
ATOM     47  C   UNL A   1      43.873  32.363  29.101  1.00  0.00     0.074 A 
ATOM     48  C   UNL A   1      43.166  33.381  29.850  1.00  0.00     0.031 C 
ATOM     49  C   UNL A   1      39.819  27.389  29.240  1.00  0.00     0.029 A 
ATOM     50  C   UNL A   1      41.105  27.474  28.551  1.00  0.00     0.049 A 
ATOM     51  H   UNL A   1      42.453  29.060  28.585  1.00  0.00     0.167 HD
ATOM     52  C   UNL A   1      45.106  32.526  28.566  1.00  0.00     0.031 A 
ATOM     53  C   UNL A   1      41.643  26.517  27.772  1.00  0.00     0.031 A 
ATOM     54  C   UNL A   1      45.795  31.531  27.792  1.00  0.00     0.049 A 
ATOM     55  C   UNL A   1      42.964  26.767  27.097  1.00  0.00     0.074 A 
ATOM     56  C   UNL A   1      47.056  31.599  27.225  1.00  0.00     0.029 A 
ATOM     57  N   UNL A   1      45.271  30.293  27.457  1.00  0.00    -0.354 N 
ATOM     58  N   UNL A   1      43.750  27.813  27.178  1.00  0.00    -0.248 NA
ATOM     59  C   UNL A   1      43.468  25.702  26.215  1.00  0.00     0.031 C 
ATOM     60  C   UNL A   1      47.273  30.422  26.500  1.00  0.00     0.029 A 
ATOM     61  C   UNL A   1      46.167  29.602  26.659  1.00  0.00     0.049 A 
ATOM     62  H   UNL A   1      44.392  29.954  27.743  1.00  0.00     0.167 HD
ATOM     63  C   UNL A   1      44.847  27.527  26.373  1.00  0.00     0.074 A 
ATOM     64  C   UNL A   1      44.632  26.202  25.826  1.00  0.00     0.031 C 
ATOM     65  C   UNL A   1      45.934  28.292  26.111  1.00  0.00     0.031 A 
BRANCH  52  66
ATOM     66  C   UNL A   1      45.772  33.856  28.772  1.00  0.00    -0.014 A 
ATOM     67  C   UNL A   1      45.671  34.873  27.811  1.00  0.00     0.009 A 
ATOM     68  C   UNL A   1      46.484  34.103  29.955  1.00  0.00     0.009 A 
ATOM     69  C   UNL A   1      46.293  36.105  28.021  1.00  0.00     0.001 A 
ATOM     70  C   UNL A   1      47.086  35.342  30.172  1.00  0.00     0.001 A 
ATOM     71  C   UNL A   1      46.997  36.339  29.202  1.00  0.00     0.000 A 
ENDBRANCH  52  66
BRANCH  53  72
ATOM     72  C   UNL A   1      40.914  25.244  27.546  1.00  0.00    -0.014 A 
ATOM     73  C   UNL A   1      41.372  24.048  28.116  1.00  0.00     0.009 A 
ATOM     74  C   UNL A   1      39.768  25.216  26.735  1.00  0.00     0.009 A 
ATOM     75  C   UNL A   1      40.711  22.845  27.861  1.00  0.00     0.001 A 
ATOM     76  C   UNL A   1      39.095  24.016  26.502  1.00  0.00     0.001 A 
ATOM     77  C   UNL A   1      39.571  22.830  27.059  1.00  0.00     0.000 A 
ENDBRANCH  53  72
BRANCH  65  78
ATOM     78  C   UNL A   1      46.982  27.710  25.205  1.00  0.00    -0.014 A 
ATOM     79  C   UNL A   1      46.986  27.990  23.830  1.00  0.00     0.009 A 
ATOM     80  C   UNL A   1      48.000  26.907  25.741  1.00  0.00     0.009 A 
ATOM     81  C   UNL A   1      47.976  27.453  23.005  1.00  0.00     0.001 A 
ATOM     82  C   UNL A   1      49.002  26.392  24.917  1.00  0.00     0.001 A 
ATOM     83  C   UNL A   1      48.986  26.659  23.549  1.00  0.00     0.000 A 
ENDBRANCH  65  78
ENDBRANCH  39  40
ENDBRANCH  32  34
ENDBRANCH  31  32
ENDBRANCH  30  31
ENDBRANCH  29  30
ENDBRANCH  28  29
ENDBRANCH  27  28
ENDBRANCH  26  27
ENDBRANCH   1  26
TORSDOF 22
ENDMDL
MODEL 2
REMARK VINA RESULT:      -8.9      4.458      7.654
REMARK SMILES C[C@H](CNS(=O)(=O)c1ccc(C(=O)OCCOCCOCCOC(=O)c2ccc(-c3c4nc(c(-c5ccccc5)c5ccc([nH]5)c(-c5ccccc5)c5nc(c(-c6ccccc6)c6ccc3[nH]6)C=C5)C=C4)cc2)cc1F)[NH+](C)C
REMARK SMILES IDX 17 1 16 2 15 3 14 4 12 5 13 6 11 7 8 8 9 9 75 10 10 11 74 12
REMARK SMILES IDX 76 13 5 14 6 15 7 16 4 17 3 19 2 20 1 21 77 22 78 23 79 24
REMARK SMILES IDX 18 26 19 27 20 28 21 29 22 30 23 31 24 32 25 33 26 34 27 35
REMARK SMILES IDX 73 36 28 37 72 38 29 39 30 40 31 41 66 42 32 43 71 44 65 45
REMARK SMILES IDX 67 46 33 47 70 48 64 49 63 50 34 52 56 53 41 54 55 55 42 56
REMARK SMILES IDX 45 57 54 58 68 59 43 60 44 61 53 63 69 64 46 65 35 66 36 67
REMARK SMILES IDX 40 68 37 69 39 70 38 71 57 72 58 73 62 74 59 75 61 76 60 77
REMARK SMILES IDX 47 78 48 79 52 80 49 81 51 82 50 83
REMARK H PARENT 4 18 77 25 67 51 45 62
REMARK Flexibility Score: inf
ROOT
ATOM      1  O   UNL A   1      34.659  34.109  29.382  1.00  0.00    -0.376 OA
ENDROOT
BRANCH   1   2
ATOM      2  C   UNL A   1      34.643  32.692  29.270  1.00  0.00     0.202 C 
BRANCH   2   3
ATOM      3  C   UNL A   1      34.775  32.066  27.883  1.00  0.00     0.261 C 
BRANCH   3   4
ATOM      4  O   UNL A   1      33.762  31.075  27.634  1.00  0.00    -0.460 OA
BRANCH   4   5
ATOM      5  C   UNL A   1      34.233  29.880  27.208  1.00  0.00     0.338 C 
ATOM      6  O   UNL A   1      35.138  29.231  27.706  1.00  0.00    -0.246 OA
BRANCH   5   7
ATOM      7  C   UNL A   1      33.384  29.337  26.125  1.00  0.00     0.063 A 
ATOM      8  C   UNL A   1      31.677  28.185  24.228  1.00  0.00     0.118 A 
ATOM      9  C   UNL A   1      31.178  28.574  25.477  1.00  0.00     0.026 A 
ATOM     10  C   UNL A   1      33.025  28.384  23.934  1.00  0.00     0.144 A 
ATOM     11  C   UNL A   1      32.027  29.159  26.415  1.00  0.00     0.017 A 
ATOM     12  C   UNL A   1      33.884  28.966  24.875  1.00  0.00     0.056 A 
ATOM     13  F   UNL A   1      33.557  27.991  22.770  1.00  0.00    -0.205 F 
BRANCH   8  14
ATOM     14  S   UNL A   1      30.623  27.273  23.141  1.00  0.00     0.243 S 
ATOM     15  O   UNL A   1      29.364  27.082  23.823  1.00  0.00    -0.207 OA
ATOM     16  O   UNL A   1      31.354  26.158  22.583  1.00  0.00    -0.207 OA
BRANCH  14  17
ATOM     17  N   UNL A   1      30.371  28.301  21.823  1.00  0.00    -0.205 NA
ATOM     18  H   UNL A   1      31.155  28.166  21.186  1.00  0.00     0.141 HD
BRANCH  17  19
ATOM     19  C   UNL A   1      30.247  29.755  22.053  1.00  0.00     0.163 C 
BRANCH  19  20
ATOM     20  C   UNL A   1      28.865  30.344  21.642  1.00  0.00     0.195 C 
ATOM     21  C   UNL A   1      27.729  29.875  22.562  1.00  0.00     0.076 C 
BRANCH  20  22
ATOM     22  N   UNL A   1      28.897  31.800  21.372  1.00  0.00    -0.337 N 
ATOM     23  C   UNL A   1      27.940  32.204  20.341  1.00  0.00     0.332 C 
ATOM     24  C   UNL A   1      28.785  32.661  22.544  1.00  0.00     0.332 C 
ATOM     25  H   UNL A   1      29.844  31.946  21.020  1.00  0.00     0.347 HD
ENDBRANCH  20  22
ENDBRANCH  19  20
ENDBRANCH  17  19
ENDBRANCH  14  17
ENDBRANCH   8  14
ENDBRANCH   5   7
ENDBRANCH   4   5
ENDBRANCH   3   4
ENDBRANCH   2   3
ENDBRANCH   1   2
BRANCH   1  26
ATOM     26  C   UNL A   1      33.895  34.885  28.477  1.00  0.00     0.188 C 
BRANCH  26  27
ATOM     27  C   UNL A   1      32.956  35.996  28.992  1.00  0.00     0.188 C 
BRANCH  27  28
ATOM     28  O   UNL A   1      33.294  36.796  30.103  1.00  0.00    -0.376 OA
BRANCH  28  29
ATOM     29  C   UNL A   1      32.607  36.704  31.338  1.00  0.00     0.202 C 
BRANCH  29  30
ATOM     30  C   UNL A   1      32.498  35.423  32.176  1.00  0.00     0.261 C 
BRANCH  30  31
ATOM     31  O   UNL A   1      33.698  34.677  32.367  1.00  0.00    -0.460 OA
BRANCH  31  32
ATOM     32  C   UNL A   1      34.601  35.248  33.200  1.00  0.00     0.338 C 
ATOM     33  O   UNL A   1      34.439  36.195  33.947  1.00  0.00    -0.246 OA
BRANCH  32  34
ATOM     34  C   UNL A   1      35.824  34.432  33.178  1.00  0.00     0.060 A 
ATOM     35  C   UNL A   1      35.856  33.252  33.929  1.00  0.00     0.016 A 
ATOM     36  C   UNL A   1      36.931  34.841  32.433  1.00  0.00     0.016 A 
ATOM     37  C   UNL A   1      37.006  32.465  33.929  1.00  0.00     0.010 A 
ATOM     38  C   UNL A   1      38.088  34.062  32.451  1.00  0.00     0.010 A 
ATOM     39  C   UNL A   1      38.134  32.878  33.206  1.00  0.00    -0.014 A 
BRANCH  39  40
ATOM     40  C   UNL A   1      39.399  32.120  33.297  1.00  0.00     0.031 A 
ATOM     41  C   UNL A   1      39.704  31.071  32.269  1.00  0.00     0.074 A 
ATOM     42  C   UNL A   1      40.257  32.350  34.307  1.00  0.00     0.049 A 
ATOM     43  N   UNL A   1      40.716  30.244  32.208  1.00  0.00    -0.248 NA
ATOM     44  C   UNL A   1      38.742  30.937  31.164  1.00  0.00     0.031 C 
ATOM     45  C   UNL A   1      40.090  33.365  35.346  1.00  0.00     0.029 A 
ATOM     46  N   UNL A   1      41.434  31.723  34.630  1.00  0.00    -0.354 N 
ATOM     47  C   UNL A   1      40.513  29.491  31.060  1.00  0.00     0.074 A 
ATOM     48  C   UNL A   1      39.275  29.946  30.464  1.00  0.00     0.031 C 
ATOM     49  C   UNL A   1      41.120  33.278  36.206  1.00  0.00     0.029 A 
ATOM     50  C   UNL A   1      41.993  32.181  35.797  1.00  0.00     0.049 A 
ATOM     51  H   UNL A   1      41.838  31.015  34.079  1.00  0.00     0.167 HD
ATOM     52  C   UNL A   1      41.290  28.506  30.550  1.00  0.00     0.031 A 
ATOM     53  C   UNL A   1      43.070  31.739  36.475  1.00  0.00     0.031 A 
ATOM     54  C   UNL A   1      42.501  28.027  31.158  1.00  0.00     0.049 A 
ATOM     55  C   UNL A   1      43.853  30.569  35.944  1.00  0.00     0.074 A 
ATOM     56  C   UNL A   1      43.365  27.046  30.703  1.00  0.00     0.029 A 
ATOM     57  N   UNL A   1      43.006  28.479  32.366  1.00  0.00    -0.354 N 
ATOM     58  N   UNL A   1      43.674  29.889  34.837  1.00  0.00    -0.248 NA
ATOM     59  C   UNL A   1      44.982  30.103  36.762  1.00  0.00     0.031 C 
ATOM     60  C   UNL A   1      44.366  26.867  31.665  1.00  0.00     0.029 A 
ATOM     61  C   UNL A   1      44.151  27.771  32.692  1.00  0.00     0.049 A 
ATOM     62  H   UNL A   1      42.612  29.197  32.912  1.00  0.00     0.167 HD
ATOM     63  C   UNL A   1      44.678  28.927  34.819  1.00  0.00     0.074 A 
ATOM     64  C   UNL A   1      45.470  29.122  36.016  1.00  0.00     0.031 C 
ATOM     65  C   UNL A   1      44.921  27.968  33.893  1.00  0.00     0.031 A 
BRANCH  52  66
ATOM     66  C   UNL A   1      40.825  27.854  29.280  1.00  0.00    -0.014 A 
ATOM     67  C   UNL A   1      41.180  28.376  28.026  1.00  0.00     0.009 A 
ATOM     68  C   UNL A   1      40.048  26.687  29.340  1.00  0.00     0.009 A 
ATOM     69  C   UNL A   1      40.742  27.754  26.856  1.00  0.00     0.001 A 
ATOM     70  C   UNL A   1      39.631  26.056  28.168  1.00  0.00     0.001 A 
ATOM     71  C   UNL A   1      39.971  26.594  26.927  1.00  0.00     0.000 A 
ENDBRANCH  52  66
BRANCH  53  72
ATOM     72  C   UNL A   1      43.452  32.375  37.761  1.00  0.00    -0.014 A 
ATOM     73  C   UNL A   1      44.436  33.373  37.799  1.00  0.00     0.009 A 
ATOM     74  C   UNL A   1      42.850  31.967  38.962  1.00  0.00     0.009 A 
ATOM     75  C   UNL A   1      44.826  33.934  39.017  1.00  0.00     0.001 A 
ATOM     76  C   UNL A   1      43.224  32.547  40.175  1.00  0.00     0.001 A 
ATOM     77  C   UNL A   1      44.217  33.524  40.203  1.00  0.00     0.000 A 
ENDBRANCH  53  72
BRANCH  65  78
ATOM     78  C   UNL A   1      46.099  27.067  34.129  1.00  0.00    -0.014 A 
ATOM     79  C   UNL A   1      47.383  27.422  33.683  1.00  0.00     0.009 A 
ATOM     80  C   UNL A   1      45.932  25.870  34.841  1.00  0.00     0.009 A 
ATOM     81  C   UNL A   1      48.469  26.580  33.924  1.00  0.00     0.001 A 
ATOM     82  C   UNL A   1      47.025  25.042  35.102  1.00  0.00     0.001 A 
ATOM     83  C   UNL A   1      48.292  25.394  34.637  1.00  0.00     0.000 A 
ENDBRANCH  65  78
ENDBRANCH  39  40
ENDBRANCH  32  34
ENDBRANCH  31  32
ENDBRANCH  30  31
ENDBRANCH  29  30
ENDBRANCH  28  29
ENDBRANCH  27  28
ENDBRANCH  26  27
ENDBRANCH   1  26
TORSDOF 22
ENDMDL
MODEL 3
REMARK VINA RESULT:      -8.6      1.493      2.408
REMARK SMILES C[C@H](CNS(=O)(=O)c1ccc(C(=O)OCCOCCOCCOC(=O)c2ccc(-c3c4nc(c(-c5ccccc5)c5ccc([nH]5)c(-c5ccccc5)c5nc(c(-c6ccccc6)c6ccc3[nH]6)C=C5)C=C4)cc2)cc1F)[NH+](C)C
REMARK SMILES IDX 17 1 16 2 15 3 14 4 12 5 13 6 11 7 8 8 9 9 75 10 10 11 74 12
REMARK SMILES IDX 76 13 5 14 6 15 7 16 4 17 3 19 2 20 1 21 77 22 78 23 79 24
REMARK SMILES IDX 18 26 19 27 20 28 21 29 22 30 23 31 24 32 25 33 26 34 27 35
REMARK SMILES IDX 73 36 28 37 72 38 29 39 30 40 31 41 66 42 32 43 71 44 65 45
REMARK SMILES IDX 67 46 33 47 70 48 64 49 63 50 34 52 56 53 41 54 55 55 42 56
REMARK SMILES IDX 45 57 54 58 68 59 43 60 44 61 53 63 69 64 46 65 35 66 36 67
REMARK SMILES IDX 40 68 37 69 39 70 38 71 57 72 58 73 62 74 59 75 61 76 60 77
REMARK SMILES IDX 47 78 48 79 52 80 49 81 51 82 50 83
REMARK H PARENT 4 18 77 25 67 51 45 62
REMARK Flexibility Score: inf
ROOT
ATOM      1  O   UNL A   1      35.093  32.760  28.030  1.00  0.00    -0.376 OA
ENDROOT
BRANCH   1   2
ATOM      2  C   UNL A   1      34.929  31.943  29.181  1.00  0.00     0.202 C 
BRANCH   2   3
ATOM      3  C   UNL A   1      35.462  30.511  29.145  1.00  0.00     0.261 C 
BRANCH   3   4
ATOM      4  O   UNL A   1      34.559  29.610  28.482  1.00  0.00    -0.460 OA
BRANCH   4   5
ATOM      5  C   UNL A   1      34.901  29.300  27.210  1.00  0.00     0.338 C 
ATOM      6  O   UNL A   1      35.971  29.521  26.666  1.00  0.00    -0.246 OA
BRANCH   5   7
ATOM      7  C   UNL A   1      33.853  28.475  26.570  1.00  0.00     0.063 A 
ATOM      8  C   UNL A   1      31.820  26.834  25.562  1.00  0.00     0.118 A 
ATOM      9  C   UNL A   1      31.623  27.544  26.753  1.00  0.00     0.026 A 
ATOM     10  C   UNL A   1      33.029  26.958  24.880  1.00  0.00     0.144 A 
ATOM     11  C   UNL A   1      32.632  28.370  27.247  1.00  0.00     0.017 A 
ATOM     12  C   UNL A   1      34.048  27.782  25.374  1.00  0.00     0.056 A 
ATOM     13  F   UNL A   1      33.280  26.269  23.760  1.00  0.00    -0.205 F 
BRANCH   8  14
ATOM     14  S   UNL A   1      30.603  25.651  25.070  1.00  0.00     0.243 S 
ATOM     15  O   UNL A   1      29.638  25.556  26.141  1.00  0.00    -0.207 OA
ATOM     16  O   UNL A   1      31.258  24.476  24.540  1.00  0.00    -0.207 OA
BRANCH  14  17
ATOM     17  N   UNL A   1      29.849  26.344  23.725  1.00  0.00    -0.205 NA
ATOM     18  H   UNL A   1      30.577  26.516  23.032  1.00  0.00     0.141 HD
BRANCH  17  19
ATOM     19  C   UNL A   1      29.098  27.606  23.887  1.00  0.00     0.163 C 
BRANCH  19  20
ATOM     20  C   UNL A   1      29.306  28.617  22.720  1.00  0.00     0.195 C 
ATOM     21  C   UNL A   1      28.010  29.345  22.336  1.00  0.00     0.076 C 
BRANCH  20  22
ATOM     22  N   UNL A   1      30.490  29.489  22.897  1.00  0.00    -0.337 N 
ATOM     23  C   UNL A   1      30.649  29.952  24.276  1.00  0.00     0.332 C 
ATOM     24  C   UNL A   1      31.748  28.957  22.385  1.00  0.00     0.332 C 
ATOM     25  H   UNL A   1      30.275  30.290  22.302  1.00  0.00     0.347 HD
ENDBRANCH  20  22
ENDBRANCH  19  20
ENDBRANCH  17  19
ENDBRANCH  14  17
ENDBRANCH   8  14
ENDBRANCH   5   7
ENDBRANCH   4   5
ENDBRANCH   3   4
ENDBRANCH   2   3
ENDBRANCH   1   2
BRANCH   1  26
ATOM     26  C   UNL A   1      34.509  34.050  28.007  1.00  0.00     0.188 C 
BRANCH  26  27
ATOM     27  C   UNL A   1      33.510  34.480  29.101  1.00  0.00     0.188 C 
BRANCH  27  28
ATOM     28  O   UNL A   1      33.854  35.428  30.087  1.00  0.00    -0.376 OA
BRANCH  28  29
ATOM     29  C   UNL A   1      33.663  35.185  31.469  1.00  0.00     0.202 C 
BRANCH  29  30
ATOM     30  C   UNL A   1      34.370  34.078  32.260  1.00  0.00     0.261 C 
BRANCH  30  31
ATOM     31  O   UNL A   1      35.789  34.007  32.138  1.00  0.00    -0.460 OA
BRANCH  31  32
ATOM     32  C   UNL A   1      36.390  33.107  32.953  1.00  0.00     0.338 C 
ATOM     33  O   UNL A   1      36.075  32.794  34.086  1.00  0.00    -0.246 OA
BRANCH  32  34
ATOM     34  C   UNL A   1      37.442  32.425  32.185  1.00  0.00     0.060 A 
ATOM     35  C   UNL A   1      38.215  31.451  32.826  1.00  0.00     0.016 A 
ATOM     36  C   UNL A   1      37.668  32.758  30.849  1.00  0.00     0.016 A 
ATOM     37  C   UNL A   1      39.223  30.795  32.122  1.00  0.00     0.010 A 
ATOM     38  C   UNL A   1      38.691  32.115  30.151  1.00  0.00     0.010 A 
ATOM     39  C   UNL A   1      39.477  31.138  30.788  1.00  0.00    -0.014 A 
BRANCH  39  40
ATOM     40  C   UNL A   1      40.621  30.542  30.067  1.00  0.00     0.031 A 
ATOM     41  C   UNL A   1      41.857  31.362  29.842  1.00  0.00     0.074 A 
ATOM     42  C   UNL A   1      40.545  29.286  29.593  1.00  0.00     0.049 A 
ATOM     43  N   UNL A   1      42.938  31.058  29.171  1.00  0.00    -0.248 NA
ATOM     44  C   UNL A   1      41.878  32.699  30.455  1.00  0.00     0.031 C 
ATOM     45  C   UNL A   1      39.413  28.378  29.777  1.00  0.00     0.029 A 
ATOM     46  N   UNL A   1      41.438  28.567  28.840  1.00  0.00    -0.354 N 
ATOM     47  C   UNL A   1      43.768  32.166  29.279  1.00  0.00     0.074 A 
ATOM     48  C   UNL A   1      43.060  33.154  30.065  1.00  0.00     0.031 C 
ATOM     49  C   UNL A   1      39.673  27.226  29.134  1.00  0.00     0.029 A 
ATOM     50  C   UNL A   1      40.968  27.332  28.467  1.00  0.00     0.049 A 
ATOM     51  H   UNL A   1      42.329  28.904  28.591  1.00  0.00     0.167 HD
ATOM     52  C   UNL A   1      45.009  32.344  28.767  1.00  0.00     0.031 A 
ATOM     53  C   UNL A   1      41.509  26.408  27.651  1.00  0.00     0.031 A 
ATOM     54  C   UNL A   1      45.701  31.379  27.956  1.00  0.00     0.049 A 
ATOM     55  C   UNL A   1      42.841  26.677  27.004  1.00  0.00     0.074 A 
ATOM     56  C   UNL A   1      46.969  31.463  27.410  1.00  0.00     0.029 A 
ATOM     57  N   UNL A   1      45.170  30.163  27.557  1.00  0.00    -0.354 N 
ATOM     58  N   UNL A   1      43.634  27.712  27.144  1.00  0.00    -0.248 NA
ATOM     59  C   UNL A   1      43.347  25.651  26.080  1.00  0.00     0.031 C 
ATOM     60  C   UNL A   1      47.186  30.319  26.633  1.00  0.00     0.029 A 
ATOM     61  C   UNL A   1      46.071  29.503  26.739  1.00  0.00     0.049 A 
ATOM     62  H   UNL A   1      44.285  29.819  27.816  1.00  0.00     0.167 HD
ATOM     63  C   UNL A   1      44.738  27.454  26.340  1.00  0.00     0.074 A 
ATOM     64  C   UNL A   1      44.520  26.158  25.729  1.00  0.00     0.031 C 
ATOM     65  C   UNL A   1      45.835  28.221  26.128  1.00  0.00     0.031 A 
BRANCH  52  66
ATOM     66  C   UNL A   1      45.683  33.656  29.044  1.00  0.00    -0.014 A 
ATOM     67  C   UNL A   1      45.494  34.760  28.197  1.00  0.00     0.009 A 
ATOM     68  C   UNL A   1      46.493  33.798  30.180  1.00  0.00     0.009 A 
ATOM     69  C   UNL A   1      46.125  35.974  28.472  1.00  0.00     0.001 A 
ATOM     70  C   UNL A   1      47.105  35.019  30.464  1.00  0.00     0.001 A 
ATOM     71  C   UNL A   1      46.927  36.104  29.606  1.00  0.00     0.000 A 
ENDBRANCH  52  66
BRANCH  53  72
ATOM     72  C   UNL A   1      40.773  25.153  27.356  1.00  0.00    -0.014 A 
ATOM     73  C   UNL A   1      39.641  25.167  26.529  1.00  0.00     0.009 A 
ATOM     74  C   UNL A   1      41.185  23.937  27.924  1.00  0.00     0.009 A 
ATOM     75  C   UNL A   1      38.923  23.992  26.294  1.00  0.00     0.001 A 
ATOM     76  C   UNL A   1      40.480  22.760  27.667  1.00  0.00     0.001 A 
ATOM     77  C   UNL A   1      39.345  22.790  26.859  1.00  0.00     0.000 A 
ENDBRANCH  53  72
BRANCH  65  78
ATOM     78  C   UNL A   1      46.890  27.673  25.210  1.00  0.00    -0.014 A 
ATOM     79  C   UNL A   1      46.911  28.012  23.848  1.00  0.00     0.009 A 
ATOM     80  C   UNL A   1      47.898  26.841  25.721  1.00  0.00     0.009 A 
ATOM     81  C   UNL A   1      47.907  27.506  23.011  1.00  0.00     0.001 A 
ATOM     82  C   UNL A   1      48.907  26.357  24.887  1.00  0.00     0.001 A 
ATOM     83  C   UNL A   1      48.907  26.684  23.531  1.00  0.00     0.000 A 
ENDBRANCH  65  78
ENDBRANCH  39  40
ENDBRANCH  32  34
ENDBRANCH  31  32
ENDBRANCH  30  31
ENDBRANCH  29  30
ENDBRANCH  28  29
ENDBRANCH  27  28
ENDBRANCH  26  27
ENDBRANCH   1  26
TORSDOF 22
ENDMDL
