MODEL 1
REMARK VINA RESULT:     -11.0      0.000      0.000
REMARK SMILES Cc1c(CC(=O)OCCOCCOCCOC(=O)c2ccc(-c3c4nc(c(-c5ccccc5)c5ccc([nH]5)c(-c5ccccc5)c5nc(c(-c6ccccc6)c6ccc3[nH]6)C=C5)C=C4)cc2)c2ccccc2n1C(=O)c1ccc(Cl)cc1
REMARK SMILES IDX 11 1 10 2 9 3 8 4 7 5 5 6 6 7 4 8 3 9 1 10 2 11 73 12 67 13
REMARK SMILES IDX 72 14 68 15 71 16 69 17 70 18 74 19 75 20 76 21 77 22 82 23
REMARK SMILES IDX 78 24 81 25 79 26 80 27 12 28 13 29 14 30 15 31 16 32 17 33
REMARK SMILES IDX 18 34 19 35 20 36 66 37 21 38 65 39 22 40 23 41 24 42 59 43
REMARK SMILES IDX 25 44 64 45 58 46 60 47 26 48 63 49 57 50 56 51 27 53 49 54
REMARK SMILES IDX 34 55 48 56 35 57 38 58 47 59 61 60 36 61 37 62 46 64 62 65
REMARK SMILES IDX 39 66 28 67 29 68 33 69 30 70 32 71 31 72 50 73 51 74 55 75
REMARK SMILES IDX 52 76 54 77 53 78 40 79 41 80 45 81 42 82 44 83 43 84
REMARK H PARENT 60 52 38 63
REMARK Flexibility Score: inf
ROOT
ATOM      1  C   UNL A   1      32.808  20.766  24.750  1.00  0.00     0.188 C 
ENDROOT
BRANCH   1   2
ATOM      2  O   UNL A   1      32.918  20.855  23.347  1.00  0.00    -0.376 OA
BRANCH   2   3
ATOM      3  C   UNL A   1      32.524  22.074  22.741  1.00  0.00     0.202 C 
BRANCH   3   4
ATOM      4  C   UNL A   1      33.453  23.276  22.970  1.00  0.00     0.261 C 
BRANCH   4   5
ATOM      5  O   UNL A   1      33.554  24.132  21.797  1.00  0.00    -0.463 OA
BRANCH   5   6
ATOM      6  C   UNL A   1      33.179  25.428  21.962  1.00  0.00     0.310 C 
ATOM      7  O   UNL A   1      33.652  26.336  21.279  1.00  0.00    -0.252 OA
BRANCH   6   8
ATOM      8  C   UNL A   1      31.936  25.653  22.825  1.00  0.00     0.160 C 
BRANCH   8   9
ATOM      9  C   UNL A   1      31.778  26.728  23.863  1.00  0.00    -0.008 A 
ATOM     10  C   UNL A   1      33.925  26.193  25.168  1.00  0.00     0.065 C 
ATOM     11  C   UNL A   1      32.693  26.983  24.877  1.00  0.00     0.028 A 
ATOM     12  N   UNL A   1      32.288  28.133  25.559  1.00  0.00    -0.280 N 
ATOM     13  C   UNL A   1      30.946  27.897  23.786  1.00  0.00     0.004 A 
ATOM     14  C   UNL A   1      31.376  28.809  24.740  1.00  0.00     0.056 A 
ATOM     15  C   UNL A   1      29.926  28.336  22.923  1.00  0.00     0.010 A 
ATOM     16  C   UNL A   1      30.871  30.138  24.747  1.00  0.00     0.027 A 
ATOM     17  C   UNL A   1      29.364  29.616  22.975  1.00  0.00     0.001 A 
ATOM     18  C   UNL A   1      29.858  30.525  23.874  1.00  0.00     0.002 A 
BRANCH  12  19
ATOM     19  C   UNL A   1      32.701  28.559  26.852  1.00  0.00     0.262 C 
ATOM     20  O   UNL A   1      32.103  28.201  27.837  1.00  0.00    -0.268 OA
BRANCH  19  21
ATOM     21  C   UNL A   1      33.845  29.486  27.017  1.00  0.00     0.040 A 
ATOM     22  C   UNL A   1      35.131  28.952  27.181  1.00  0.00     0.015 A 
ATOM     23  C   UNL A   1      33.581  30.839  27.251  1.00  0.00     0.015 A 
ATOM     24  C   UNL A   1      36.156  29.776  27.643  1.00  0.00     0.021 A 
ATOM     25  C   UNL A   1      34.612  31.654  27.723  1.00  0.00     0.021 A 
ATOM     26  C   UNL A   1      35.888  31.117  27.929  1.00  0.00     0.041 A 
ATOM     27  Cl  UNL A   1      37.124  32.102  28.607  1.00  0.00    -0.084 Cl
ENDBRANCH  19  21
ENDBRANCH  12  19
ENDBRANCH   8   9
ENDBRANCH   6   8
ENDBRANCH   5   6
ENDBRANCH   4   5
ENDBRANCH   3   4
ENDBRANCH   2   3
ENDBRANCH   1   2
BRANCH   1  28
ATOM     28  C   UNL A   1      34.073  20.678  25.616  1.00  0.00     0.188 C 
BRANCH  28  29
ATOM     29  O   UNL A   1      35.216  21.422  25.290  1.00  0.00    -0.376 OA
BRANCH  29  30
ATOM     30  C   UNL A   1      36.413  20.695  25.077  1.00  0.00     0.202 C 
BRANCH  30  31
ATOM     31  C   UNL A   1      37.771  21.440  24.988  1.00  0.00     0.261 C 
BRANCH  31  32
ATOM     32  O   UNL A   1      38.127  22.227  26.165  1.00  0.00    -0.460 OA
BRANCH  32  33
ATOM     33  C   UNL A   1      39.458  22.238  26.496  1.00  0.00     0.338 C 
ATOM     34  O   UNL A   1      40.276  21.411  26.119  1.00  0.00    -0.246 OA
BRANCH  33  35
ATOM     35  C   UNL A   1      39.887  23.601  26.982  1.00  0.00     0.060 A 
ATOM     36  C   UNL A   1      41.082  23.936  27.622  1.00  0.00     0.016 A 
ATOM     37  C   UNL A   1      38.892  24.575  26.931  1.00  0.00     0.016 A 
ATOM     38  C   UNL A   1      41.180  25.154  28.350  1.00  0.00     0.010 A 
ATOM     39  C   UNL A   1      38.954  25.739  27.706  1.00  0.00     0.010 A 
ATOM     40  C   UNL A   1      40.077  26.023  28.478  1.00  0.00    -0.014 A 
BRANCH  40  41
ATOM     41  C   UNL A   1      40.155  27.392  29.042  1.00  0.00     0.031 A 
ATOM     42  C   UNL A   1      41.131  28.204  28.313  1.00  0.00     0.074 A 
ATOM     43  C   UNL A   1      39.475  28.050  30.011  1.00  0.00     0.049 A 
ATOM     44  N   UNL A   1      42.360  28.293  28.683  1.00  0.00    -0.248 NA
ATOM     45  C   UNL A   1      40.817  28.817  27.024  1.00  0.00     0.031 C 
ATOM     46  C   UNL A   1      38.503  27.525  30.941  1.00  0.00     0.029 A 
ATOM     47  N   UNL A   1      39.502  29.384  30.365  1.00  0.00    -0.354 N 
ATOM     48  C   UNL A   1      42.935  29.180  27.806  1.00  0.00     0.074 A 
ATOM     49  C   UNL A   1      42.029  29.268  26.683  1.00  0.00     0.031 C 
ATOM     50  C   UNL A   1      37.839  28.524  31.574  1.00  0.00     0.029 A 
ATOM     51  C   UNL A   1      38.476  29.786  31.225  1.00  0.00     0.049 A 
ATOM     52  H   UNL A   1      40.191  30.005  30.036  1.00  0.00     0.167 HD
ATOM     53  C   UNL A   1      43.955  29.975  28.222  1.00  0.00     0.031 A 
ATOM     54  C   UNL A   1      38.353  30.905  31.992  1.00  0.00     0.031 A 
ATOM     55  C   UNL A   1      44.459  29.575  29.522  1.00  0.00     0.049 A 
ATOM     56  C   UNL A   1      39.723  31.376  32.274  1.00  0.00     0.074 A 
ATOM     57  C   UNL A   1      44.933  28.386  30.050  1.00  0.00     0.029 A 
ATOM     58  N   UNL A   1      44.108  30.344  30.610  1.00  0.00    -0.354 N 
ATOM     59  N   UNL A   1      40.531  30.754  33.081  1.00  0.00    -0.248 NA
ATOM     60  C   UNL A   1      40.347  32.281  31.326  1.00  0.00     0.031 C 
ATOM     61  C   UNL A   1      44.404  28.322  31.372  1.00  0.00     0.029 A 
ATOM     62  C   UNL A   1      43.707  29.505  31.621  1.00  0.00     0.049 A 
ATOM     63  H   UNL A   1      44.139  31.328  30.655  1.00  0.00     0.167 HD
ATOM     64  C   UNL A   1      41.756  30.804  32.437  1.00  0.00     0.074 A 
ATOM     65  C   UNL A   1      41.604  31.840  31.416  1.00  0.00     0.031 C 
ATOM     66  C   UNL A   1      42.685  29.819  32.601  1.00  0.00     0.031 A 
BRANCH  53  67
ATOM     67  C   UNL A   1      44.230  31.316  27.615  1.00  0.00    -0.014 A 
ATOM     68  C   UNL A   1      43.538  32.490  27.973  1.00  0.00     0.009 A 
ATOM     69  C   UNL A   1      45.353  31.467  26.790  1.00  0.00     0.009 A 
ATOM     70  C   UNL A   1      43.915  33.746  27.503  1.00  0.00     0.001 A 
ATOM     71  C   UNL A   1      45.765  32.731  26.358  1.00  0.00     0.001 A 
ATOM     72  C   UNL A   1      45.042  33.868  26.707  1.00  0.00     0.000 A 
ENDBRANCH  53  67
BRANCH  54  73
ATOM     73  C   UNL A   1      37.180  31.826  32.041  1.00  0.00    -0.014 A 
ATOM     74  C   UNL A   1      35.908  31.413  31.608  1.00  0.00     0.009 A 
ATOM     75  C   UNL A   1      37.350  33.195  32.325  1.00  0.00     0.009 A 
ATOM     76  C   UNL A   1      34.870  32.336  31.408  1.00  0.00     0.001 A 
ATOM     77  C   UNL A   1      36.310  34.120  32.125  1.00  0.00     0.001 A 
ATOM     78  C   UNL A   1      35.076  33.691  31.648  1.00  0.00     0.000 A 
ENDBRANCH  54  73
BRANCH  66  79
ATOM     79  C   UNL A   1      42.500  28.815  33.726  1.00  0.00    -0.014 A 
ATOM     80  C   UNL A   1      43.354  28.910  34.837  1.00  0.00     0.009 A 
ATOM     81  C   UNL A   1      41.655  27.694  33.642  1.00  0.00     0.009 A 
ATOM     82  C   UNL A   1      43.393  27.907  35.811  1.00  0.00     0.001 A 
ATOM     83  C   UNL A   1      41.675  26.700  34.632  1.00  0.00     0.001 A 
ATOM     84  C   UNL A   1      42.557  26.800  35.705  1.00  0.00     0.000 A 
ENDBRANCH  66  79
ENDBRANCH  40  41
ENDBRANCH  33  35
ENDBRANCH  32  33
ENDBRANCH  31  32
ENDBRANCH  30  31
ENDBRANCH  29  30
ENDBRANCH  28  29
ENDBRANCH   1  28
TORSDOF 20
ENDMDL
MODEL 2
REMARK VINA RESULT:     -10.4      2.508      8.200
REMARK SMILES Cc1c(CC(=O)OCCOCCOCCOC(=O)c2ccc(-c3c4nc(c(-c5ccccc5)c5ccc([nH]5)c(-c5ccccc5)c5nc(c(-c6ccccc6)c6ccc3[nH]6)C=C5)C=C4)cc2)c2ccccc2n1C(=O)c1ccc(Cl)cc1
REMARK SMILES IDX 11 1 10 2 9 3 8 4 7 5 5 6 6 7 4 8 3 9 1 10 2 11 73 12 67 13
REMARK SMILES IDX 72 14 68 15 71 16 69 17 70 18 74 19 75 20 76 21 77 22 82 23
REMARK SMILES IDX 78 24 81 25 79 26 80 27 12 28 13 29 14 30 15 31 16 32 17 33
REMARK SMILES IDX 18 34 19 35 20 36 66 37 21 38 65 39 22 40 23 41 24 42 59 43
REMARK SMILES IDX 25 44 64 45 58 46 60 47 26 48 63 49 57 50 56 51 27 53 49 54
REMARK SMILES IDX 34 55 48 56 35 57 38 58 47 59 61 60 36 61 37 62 46 64 62 65
REMARK SMILES IDX 39 66 28 67 29 68 33 69 30 70 32 71 31 72 50 73 51 74 55 75
REMARK SMILES IDX 52 76 54 77 53 78 40 79 41 80 45 81 42 82 44 83 43 84
REMARK H PARENT 60 52 38 63
REMARK Flexibility Score: inf
ROOT
ATOM      1  C   UNL A   1      30.796  29.057  23.152  1.00  0.00     0.188 C 
ENDROOT
BRANCH   1   2
ATOM      2  O   UNL A   1      30.350  27.723  23.059  1.00  0.00    -0.376 OA
BRANCH   2   3
ATOM      3  C   UNL A   1      30.153  27.018  24.273  1.00  0.00     0.202 C 
BRANCH   3   4
ATOM      4  C   UNL A   1      30.022  25.491  24.155  1.00  0.00     0.261 C 
BRANCH   4   5
ATOM      5  O   UNL A   1      30.100  24.825  25.445  1.00  0.00    -0.463 OA
BRANCH   5   6
ATOM      6  C   UNL A   1      30.743  23.628  25.469  1.00  0.00     0.310 C 
ATOM      7  O   UNL A   1      30.567  22.809  26.371  1.00  0.00    -0.252 OA
BRANCH   6   8
ATOM      8  C   UNL A   1      31.457  23.235  24.174  1.00  0.00     0.160 C 
BRANCH   8   9
ATOM      9  C   UNL A   1      32.835  22.642  24.083  1.00  0.00    -0.008 A 
ATOM     10  C   UNL A   1      34.119  24.814  24.567  1.00  0.00     0.065 C 
ATOM     11  C   UNL A   1      34.011  23.349  24.301  1.00  0.00     0.028 A 
ATOM     12  N   UNL A   1      35.079  22.450  24.270  1.00  0.00    -0.280 N 
ATOM     13  C   UNL A   1      33.193  21.254  24.173  1.00  0.00     0.004 A 
ATOM     14  C   UNL A   1      34.553  21.164  24.437  1.00  0.00     0.056 A 
ATOM     15  C   UNL A   1      32.481  20.041  24.167  1.00  0.00     0.010 A 
ATOM     16  C   UNL A   1      35.139  19.917  24.785  1.00  0.00     0.027 A 
ATOM     17  C   UNL A   1      33.065  18.797  24.428  1.00  0.00     0.001 A 
ATOM     18  C   UNL A   1      34.393  18.742  24.763  1.00  0.00     0.002 A 
BRANCH  12  19
ATOM     19  C   UNL A   1      36.458  22.755  24.092  1.00  0.00     0.262 C 
ATOM     20  O   UNL A   1      36.902  22.969  22.991  1.00  0.00    -0.268 OA
BRANCH  19  21
ATOM     21  C   UNL A   1      37.387  22.773  25.246  1.00  0.00     0.040 A 
ATOM     22  C   UNL A   1      37.562  23.969  25.955  1.00  0.00     0.015 A 
ATOM     23  C   UNL A   1      38.237  21.679  25.437  1.00  0.00     0.015 A 
ATOM     24  C   UNL A   1      38.643  24.090  26.828  1.00  0.00     0.021 A 
ATOM     25  C   UNL A   1      39.322  21.814  26.306  1.00  0.00     0.021 A 
ATOM     26  C   UNL A   1      39.527  23.020  26.985  1.00  0.00     0.041 A 
ATOM     27  Cl  UNL A   1      40.922  23.212  27.972  1.00  0.00    -0.084 Cl
ENDBRANCH  19  21
ENDBRANCH  12  19
ENDBRANCH   8   9
ENDBRANCH   6   8
ENDBRANCH   5   6
ENDBRANCH   4   5
ENDBRANCH   3   4
ENDBRANCH   2   3
ENDBRANCH   1   2
BRANCH   1  28
ATOM     28  C   UNL A   1      31.810  29.454  24.235  1.00  0.00     0.188 C 
BRANCH  28  29
ATOM     29  O   UNL A   1      31.377  29.899  25.493  1.00  0.00    -0.376 OA
BRANCH  29  30
ATOM     30  C   UNL A   1      32.287  29.758  26.569  1.00  0.00     0.202 C 
BRANCH  30  31
ATOM     31  C   UNL A   1      32.869  31.016  27.266  1.00  0.00     0.261 C 
BRANCH  31  32
ATOM     32  O   UNL A   1      34.323  31.138  27.216  1.00  0.00    -0.460 OA
BRANCH  32  33
ATOM     33  C   UNL A   1      34.900  31.834  28.248  1.00  0.00     0.338 C 
ATOM     34  O   UNL A   1      34.302  32.600  28.990  1.00  0.00    -0.246 OA
BRANCH  33  35
ATOM     35  C   UNL A   1      36.217  31.220  28.650  1.00  0.00     0.060 A 
ATOM     36  C   UNL A   1      37.316  31.865  29.222  1.00  0.00     0.016 A 
ATOM     37  C   UNL A   1      36.394  29.901  28.233  1.00  0.00     0.016 A 
ATOM     38  C   UNL A   1      38.597  31.248  29.191  1.00  0.00     0.010 A 
ATOM     39  C   UNL A   1      37.663  29.320  28.131  1.00  0.00     0.010 A 
ATOM     40  C   UNL A   1      38.799  30.006  28.554  1.00  0.00    -0.014 A 
BRANCH  40  41
ATOM     41  C   UNL A   1      40.045  29.211  28.654  1.00  0.00     0.031 A 
ATOM     42  C   UNL A   1      40.323  28.845  30.043  1.00  0.00     0.074 A 
ATOM     43  C   UNL A   1      40.910  28.702  27.745  1.00  0.00     0.049 A 
ATOM     44  N   UNL A   1      41.066  29.568  30.806  1.00  0.00    -0.248 NA
ATOM     45  C   UNL A   1      39.636  27.737  30.703  1.00  0.00     0.031 C 
ATOM     46  C   UNL A   1      40.950  28.925  26.318  1.00  0.00     0.029 A 
ATOM     47  N   UNL A   1      41.966  27.829  27.916  1.00  0.00    -0.354 N 
ATOM     48  C   UNL A   1      41.145  28.877  31.990  1.00  0.00     0.074 A 
ATOM     49  C   UNL A   1      40.066  27.915  31.957  1.00  0.00     0.031 C 
ATOM     50  C   UNL A   1      41.776  28.041  25.706  1.00  0.00     0.029 A 
ATOM     51  C   UNL A   1      42.483  27.290  26.734  1.00  0.00     0.049 A 
ATOM     52  H   UNL A   1      42.327  27.602  28.804  1.00  0.00     0.167 HD
ATOM     53  C   UNL A   1      42.266  28.967  32.752  1.00  0.00     0.031 A 
ATOM     54  C   UNL A   1      43.663  26.653  26.494  1.00  0.00     0.031 A 
ATOM     55  C   UNL A   1      43.152  30.017  32.289  1.00  0.00     0.049 A 
ATOM     56  C   UNL A   1      44.615  27.127  27.518  1.00  0.00     0.074 A 
ATOM     57  C   UNL A   1      42.999  31.370  32.037  1.00  0.00     0.029 A 
ATOM     58  N   UNL A   1      44.283  29.642  31.596  1.00  0.00    -0.354 N 
ATOM     59  N   UNL A   1      45.113  28.329  27.515  1.00  0.00    -0.248 NA
ATOM     60  C   UNL A   1      44.668  26.423  28.786  1.00  0.00     0.031 C 
ATOM     61  C   UNL A   1      43.748  31.622  30.851  1.00  0.00     0.029 A 
ATOM     62  C   UNL A   1      44.390  30.439  30.482  1.00  0.00     0.049 A 
ATOM     63  H   UNL A   1      44.908  28.925  31.855  1.00  0.00     0.167 HD
ATOM     64  C   UNL A   1      45.089  28.707  28.847  1.00  0.00     0.074 A 
ATOM     65  C   UNL A   1      44.902  27.463  29.590  1.00  0.00     0.031 C 
ATOM     66  C   UNL A   1      44.945  30.014  29.210  1.00  0.00     0.031 A 
BRANCH  53  67
ATOM     67  C   UNL A   1      42.707  27.869  33.669  1.00  0.00    -0.014 A 
ATOM     68  C   UNL A   1      43.535  26.803  33.266  1.00  0.00     0.009 A 
ATOM     69  C   UNL A   1      42.453  27.992  35.042  1.00  0.00     0.009 A 
ATOM     70  C   UNL A   1      44.050  25.879  34.173  1.00  0.00     0.001 A 
ATOM     71  C   UNL A   1      43.010  27.098  35.961  1.00  0.00     0.001 A 
ATOM     72  C   UNL A   1      43.801  26.038  35.526  1.00  0.00     0.000 A 
ENDBRANCH  53  67
BRANCH  54  73
ATOM     73  C   UNL A   1      43.842  25.344  25.802  1.00  0.00    -0.014 A 
ATOM     74  C   UNL A   1      42.739  24.557  25.429  1.00  0.00     0.009 A 
ATOM     75  C   UNL A   1      45.119  24.758  25.687  1.00  0.00     0.009 A 
ATOM     76  C   UNL A   1      42.898  23.224  25.019  1.00  0.00     0.001 A 
ATOM     77  C   UNL A   1      45.278  23.423  25.275  1.00  0.00     0.001 A 
ATOM     78  C   UNL A   1      44.165  22.652  24.959  1.00  0.00     0.000 A 
ENDBRANCH  54  73
BRANCH  66  79
ATOM     79  C   UNL A   1      45.112  31.093  28.155  1.00  0.00    -0.014 A 
ATOM     80  C   UNL A   1      46.277  31.878  28.198  1.00  0.00     0.009 A 
ATOM     81  C   UNL A   1      44.098  31.473  27.257  1.00  0.00     0.009 A 
ATOM     82  C   UNL A   1      46.412  33.020  27.403  1.00  0.00     0.001 A 
ATOM     83  C   UNL A   1      44.244  32.604  26.440  1.00  0.00     0.001 A 
ATOM     84  C   UNL A   1      45.394  33.386  26.528  1.00  0.00     0.000 A 
ENDBRANCH  66  79
ENDBRANCH  40  41
ENDBRANCH  33  35
ENDBRANCH  32  33
ENDBRANCH  31  32
ENDBRANCH  30  31
ENDBRANCH  29  30
ENDBRANCH  28  29
ENDBRANCH   1  28
TORSDOF 20
ENDMDL
MODEL 3
REMARK VINA RESULT:      -9.4      3.003      8.705
REMARK SMILES Cc1c(CC(=O)OCCOCCOCCOC(=O)c2ccc(-c3c4nc(c(-c5ccccc5)c5ccc([nH]5)c(-c5ccccc5)c5nc(c(-c6ccccc6)c6ccc3[nH]6)C=C5)C=C4)cc2)c2ccccc2n1C(=O)c1ccc(Cl)cc1
REMARK SMILES IDX 11 1 10 2 9 3 8 4 7 5 5 6 6 7 4 8 3 9 1 10 2 11 73 12 67 13
REMARK SMILES IDX 72 14 68 15 71 16 69 17 70 18 74 19 75 20 76 21 77 22 82 23
REMARK SMILES IDX 78 24 81 25 79 26 80 27 12 28 13 29 14 30 15 31 16 32 17 33
REMARK SMILES IDX 18 34 19 35 20 36 66 37 21 38 65 39 22 40 23 41 24 42 59 43
REMARK SMILES IDX 25 44 64 45 58 46 60 47 26 48 63 49 57 50 56 51 27 53 49 54
REMARK SMILES IDX 34 55 48 56 35 57 38 58 47 59 61 60 36 61 37 62 46 64 62 65
REMARK SMILES IDX 39 66 28 67 29 68 33 69 30 70 32 71 31 72 50 73 51 74 55 75
REMARK SMILES IDX 52 76 54 77 53 78 40 79 41 80 45 81 42 82 44 83 43 84
REMARK H PARENT 60 52 38 63
REMARK Flexibility Score: inf
ROOT
ATOM      1  C   UNL A   1      31.261  29.388  23.670  1.00  0.00     0.188 C 
ENDROOT
BRANCH   1   2
ATOM      2  O   UNL A   1      32.403  28.600  23.923  1.00  0.00    -0.376 OA
BRANCH   2   3
ATOM      3  C   UNL A   1      32.191  27.280  24.391  1.00  0.00     0.202 C 
BRANCH   3   4
ATOM      4  C   UNL A   1      32.328  27.068  25.906  1.00  0.00     0.261 C 
BRANCH   4   5
ATOM      5  O   UNL A   1      31.191  26.361  26.474  1.00  0.00    -0.463 OA
BRANCH   5   6
ATOM      6  C   UNL A   1      31.390  25.055  26.794  1.00  0.00     0.310 C 
ATOM      7  O   UNL A   1      30.461  24.253  26.876  1.00  0.00    -0.252 OA
BRANCH   6   8
ATOM      8  C   UNL A   1      32.843  24.579  26.751  1.00  0.00     0.160 C 
BRANCH   8   9
ATOM      9  C   UNL A   1      33.391  23.533  25.821  1.00  0.00    -0.008 A 
ATOM     10  C   UNL A   1      33.716  21.704  27.595  1.00  0.00     0.065 C 
ATOM     11  C   UNL A   1      33.738  22.243  26.204  1.00  0.00     0.028 A 
ATOM     12  N   UNL A   1      34.073  21.517  25.058  1.00  0.00    -0.280 N 
ATOM     13  C   UNL A   1      33.280  23.497  24.389  1.00  0.00     0.004 A 
ATOM     14  C   UNL A   1      33.558  22.207  23.956  1.00  0.00     0.056 A 
ATOM     15  C   UNL A   1      32.859  24.406  23.401  1.00  0.00     0.010 A 
ATOM     16  C   UNL A   1      33.317  21.832  22.606  1.00  0.00     0.027 A 
ATOM     17  C   UNL A   1      32.697  24.067  22.054  1.00  0.00     0.001 A 
ATOM     18  C   UNL A   1      32.902  22.769  21.664  1.00  0.00     0.002 A 
BRANCH  12  19
ATOM     19  C   UNL A   1      34.810  20.302  24.993  1.00  0.00     0.262 C 
ATOM     20  O   UNL A   1      36.016  20.313  25.013  1.00  0.00    -0.268 OA
BRANCH  19  21
ATOM     21  C   UNL A   1      34.118  18.999  24.857  1.00  0.00     0.040 A 
ATOM     22  C   UNL A   1      32.917  18.794  25.549  1.00  0.00     0.015 A 
ATOM     23  C   UNL A   1      34.799  17.941  24.247  1.00  0.00     0.015 A 
ATOM     24  C   UNL A   1      32.422  17.497  25.684  1.00  0.00     0.021 A 
ATOM     25  C   UNL A   1      34.300  16.645  24.396  1.00  0.00     0.021 A 
ATOM     26  C   UNL A   1      33.125  16.429  25.123  1.00  0.00     0.041 A 
ATOM     27  Cl  UNL A   1      32.574  14.821  25.389  1.00  0.00    -0.084 Cl
ENDBRANCH  19  21
ENDBRANCH  12  19
ENDBRANCH   8   9
ENDBRANCH   6   8
ENDBRANCH   5   6
ENDBRANCH   4   5
ENDBRANCH   3   4
ENDBRANCH   2   3
ENDBRANCH   1   2
BRANCH   1  28
ATOM     28  C   UNL A   1      30.663  30.254  24.788  1.00  0.00     0.188 C 
BRANCH  28  29
ATOM     29  O   UNL A   1      31.263  30.302  26.055  1.00  0.00    -0.376 OA
BRANCH  29  30
ATOM     30  C   UNL A   1      32.519  30.950  26.143  1.00  0.00     0.202 C 
BRANCH  30  31
ATOM     31  C   UNL A   1      33.239  31.070  27.512  1.00  0.00     0.261 C 
BRANCH  31  32
ATOM     32  O   UNL A   1      34.409  31.944  27.524  1.00  0.00    -0.460 OA
BRANCH  32  33
ATOM     33  C   UNL A   1      34.845  32.340  28.763  1.00  0.00     0.338 C 
ATOM     34  O   UNL A   1      34.159  32.928  29.587  1.00  0.00    -0.246 OA
BRANCH  33  35
ATOM     35  C   UNL A   1      36.087  31.587  29.170  1.00  0.00     0.060 A 
ATOM     36  C   UNL A   1      37.319  32.123  29.548  1.00  0.00     0.016 A 
ATOM     37  C   UNL A   1      36.021  30.209  28.969  1.00  0.00     0.016 A 
ATOM     38  C   UNL A   1      38.484  31.306  29.532  1.00  0.00     0.010 A 
ATOM     39  C   UNL A   1      37.173  29.418  28.878  1.00  0.00     0.010 A 
ATOM     40  C   UNL A   1      38.434  29.965  29.100  1.00  0.00    -0.014 A 
BRANCH  40  41
ATOM     41  C   UNL A   1      39.550  29.000  29.244  1.00  0.00     0.031 A 
ATOM     42  C   UNL A   1      39.749  28.636  30.648  1.00  0.00     0.074 A 
ATOM     43  C   UNL A   1      40.346  28.346  28.366  1.00  0.00     0.049 A 
ATOM     44  N   UNL A   1      40.576  29.264  31.408  1.00  0.00    -0.248 NA
ATOM     45  C   UNL A   1      38.897  27.658  31.321  1.00  0.00     0.031 C 
ATOM     46  C   UNL A   1      40.441  28.522  26.935  1.00  0.00     0.029 A 
ATOM     47  N   UNL A   1      41.261  27.334  28.581  1.00  0.00    -0.354 N 
ATOM     48  C   UNL A   1      40.534  28.602  32.609  1.00  0.00     0.074 A 
ATOM     49  C   UNL A   1      39.327  27.806  32.579  1.00  0.00     0.031 C 
ATOM     50  C   UNL A   1      41.140  27.511  26.362  1.00  0.00     0.029 A 
ATOM     51  C   UNL A   1      41.713  26.694  27.422  1.00  0.00     0.049 A 
ATOM     52  H   UNL A   1      41.570  27.082  29.481  1.00  0.00     0.167 HD
ATOM     53  C   UNL A   1      41.643  28.549  33.392  1.00  0.00     0.031 A 
ATOM     54  C   UNL A   1      42.792  25.885  27.223  1.00  0.00     0.031 A 
ATOM     55  C   UNL A   1      42.681  29.446  32.920  1.00  0.00     0.049 A 
ATOM     56  C   UNL A   1      43.785  26.245  28.253  1.00  0.00     0.074 A 
ATOM     57  C   UNL A   1      42.730  30.800  32.632  1.00  0.00     0.029 A 
ATOM     58  N   UNL A   1      43.756  28.893  32.260  1.00  0.00    -0.354 N 
ATOM     59  N   UNL A   1      44.453  27.361  28.231  1.00  0.00    -0.248 NA
ATOM     60  C   UNL A   1      43.715  25.576  29.540  1.00  0.00     0.031 C 
ATOM     61  C   UNL A   1      43.527  30.907  31.456  1.00  0.00     0.029 A 
ATOM     62  C   UNL A   1      43.997  29.635  31.129  1.00  0.00     0.049 A 
ATOM     63  H   UNL A   1      44.265  28.100  32.550  1.00  0.00     0.167 HD
ATOM     64  C   UNL A   1      44.463  27.775  29.552  1.00  0.00     0.074 A 
ATOM     65  C   UNL A   1      44.084  26.592  30.322  1.00  0.00     0.031 C 
ATOM     66  C   UNL A   1      44.504  29.099  29.880  1.00  0.00     0.031 A 
BRANCH  53  67
ATOM     67  C   UNL A   1      41.905  27.424  34.344  1.00  0.00    -0.014 A 
ATOM     68  C   UNL A   1      42.665  26.286  34.015  1.00  0.00     0.009 A 
ATOM     69  C   UNL A   1      41.546  27.582  35.691  1.00  0.00     0.009 A 
ATOM     70  C   UNL A   1      43.017  25.328  34.965  1.00  0.00     0.001 A 
ATOM     71  C   UNL A   1      41.941  26.650  36.655  1.00  0.00     0.001 A 
ATOM     72  C   UNL A   1      42.668  25.520  36.291  1.00  0.00     0.000 A 
ENDBRANCH  53  67
BRANCH  54  73
ATOM     73  C   UNL A   1      42.790  24.545  26.567  1.00  0.00    -0.014 A 
ATOM     74  C   UNL A   1      41.674  23.695  26.645  1.00  0.00     0.009 A 
ATOM     75  C   UNL A   1      43.974  24.004  26.029  1.00  0.00     0.009 A 
ATOM     76  C   UNL A   1      41.753  22.348  26.261  1.00  0.00     0.001 A 
ATOM     77  C   UNL A   1      44.054  22.655  25.643  1.00  0.00     0.001 A 
ATOM     78  C   UNL A   1      42.948  21.823  25.777  1.00  0.00     0.000 A 
ENDBRANCH  54  73
BRANCH  66  79
ATOM     79  C   UNL A   1      44.844  30.112  28.801  1.00  0.00    -0.014 A 
ATOM     80  C   UNL A   1      43.802  30.563  27.972  1.00  0.00     0.009 A 
ATOM     81  C   UNL A   1      46.157  30.486  28.465  1.00  0.00     0.009 A 
ATOM     82  C   UNL A   1      44.062  31.326  26.830  1.00  0.00     0.001 A 
ATOM     83  C   UNL A   1      46.417  31.274  27.334  1.00  0.00     0.001 A 
ATOM     84  C   UNL A   1      45.369  31.677  26.509  1.00  0.00     0.000 A 
ENDBRANCH  66  79
ENDBRANCH  40  41
ENDBRANCH  33  35
ENDBRANCH  32  33
ENDBRANCH  31  32
ENDBRANCH  30  31
ENDBRANCH  29  30
ENDBRANCH  28  29
ENDBRANCH   1  28
TORSDOF 20
ENDMDL
