MODEL 1
REMARK VINA RESULT:      -9.6      0.000      0.000
REMARK SMILES C[C@H]1[NH2+]CC[C@@H]1C(=O)N[C@@H](CC(=O)OCCOCCOCCOC(=O)c1ccc(-c2c3nc(c(-c4ccccc4)c4ccc([nH]4)c(-c4ccccc4)c4nc(c(-c5ccccc5)c5ccc2[nH]5)C=C4)C=C3)cc1)c1cccs1
REMARK SMILES IDX 18 1 17 2 16 3 15 4 14 5 12 6 13 7 11 8 10 9 9 10 7 11 8 12
REMARK SMILES IDX 6 14 1 15 2 16 3 17 4 18 5 21 74 22 75 23 78 24 76 25 77 26
REMARK SMILES IDX 19 27 20 28 21 29 22 30 23 31 24 32 25 33 26 34 27 35 73 36
REMARK SMILES IDX 28 37 72 38 29 39 30 40 31 41 66 42 32 43 71 44 65 45 67 46
REMARK SMILES IDX 33 47 70 48 64 49 63 50 34 52 56 53 41 54 55 55 42 56 45 57
REMARK SMILES IDX 54 58 68 59 43 60 44 61 53 63 69 64 46 65 35 66 36 67 40 68
REMARK SMILES IDX 37 69 39 70 38 71 57 72 58 73 62 74 59 75 61 76 60 77 47 78
REMARK SMILES IDX 48 79 52 80 49 81 51 82 50 83
REMARK H PARENT 9 13 3 19 3 20 67 51 45 62
REMARK Flexibility Score: inf
ROOT
ATOM      1  C   UNL A   1      40.701  20.480  26.773  1.00  0.00     0.188 C 
ENDROOT
BRANCH   1   2
ATOM      2  O   UNL A   1      39.529  20.842  26.047  1.00  0.00    -0.376 OA
BRANCH   2   3
ATOM      3  C   UNL A   1      38.799  19.823  25.376  1.00  0.00     0.202 C 
BRANCH   3   4
ATOM      4  C   UNL A   1      37.393  20.234  24.935  1.00  0.00     0.261 C 
BRANCH   4   5
ATOM      5  O   UNL A   1      37.119  21.631  25.196  1.00  0.00    -0.463 OA
BRANCH   5   6
ATOM      6  C   UNL A   1      35.928  22.086  24.747  1.00  0.00     0.308 C 
ATOM      7  O   UNL A   1      35.707  22.410  23.584  1.00  0.00    -0.252 OA
BRANCH   6   8
ATOM      8  C   UNL A   1      34.800  22.008  25.748  1.00  0.00     0.153 C 
BRANCH   8   9
ATOM      9  C   UNL A   1      33.310  21.972  25.382  1.00  0.00     0.133 C 
BRANCH   9  10
ATOM     10  N   UNL A   1      32.925  21.348  24.137  1.00  0.00    -0.347 N 
ATOM     11  C   UNL A   1      32.804  20.014  23.838  1.00  0.00     0.229 C 
ATOM     12  O   UNL A   1      32.242  19.759  22.770  1.00  0.00    -0.275 OA
ATOM     13  H   UNL A   1      32.719  21.968  23.400  1.00  0.00     0.164 HD
BRANCH  11  14
ATOM     14  C   UNL A   1      33.478  18.918  24.696  1.00  0.00     0.142 C 
ATOM     15  C   UNL A   1      35.278  17.162  24.325  1.00  0.00     0.076 C 
ATOM     16  C   UNL A   1      33.935  17.718  23.836  1.00  0.00     0.192 C 
ATOM     17  N   UNL A   1      32.902  16.666  23.974  1.00  0.00    -0.343 N 
ATOM     18  C   UNL A   1      31.970  17.076  25.016  1.00  0.00     0.261 C 
ATOM     19  H   UNL A   1      33.341  15.783  24.232  1.00  0.00     0.346 HD
ATOM     20  H   UNL A   1      32.409  16.540  23.090  1.00  0.00     0.346 HD
ATOM     21  C   UNL A   1      32.665  18.193  25.759  1.00  0.00     0.081 C 
ENDBRANCH  11  14
ENDBRANCH   9  10
BRANCH   9  22
ATOM     22  C   UNL A   1      32.601  23.319  25.558  1.00  0.00     0.027 A 
ATOM     23  C   UNL A   1      32.920  24.506  24.912  1.00  0.00     0.017 A 
ATOM     24  S   UNL A   1      31.425  23.609  26.785  1.00  0.00    -0.147 S 
ATOM     25  C   UNL A   1      32.276  25.642  25.485  1.00  0.00     0.012 A 
ATOM     26  C   UNL A   1      31.416  25.290  26.498  1.00  0.00     0.065 A 
ENDBRANCH   9  22
ENDBRANCH   8   9
ENDBRANCH   6   8
ENDBRANCH   5   6
ENDBRANCH   4   5
ENDBRANCH   3   4
ENDBRANCH   2   3
ENDBRANCH   1   2
BRANCH   1  27
ATOM     27  C   UNL A   1      41.562  19.312  26.282  1.00  0.00     0.188 C 
BRANCH  27  28
ATOM     28  O   UNL A   1      42.321  19.644  25.128  1.00  0.00    -0.376 OA
BRANCH  28  29
ATOM     29  C   UNL A   1      43.722  19.745  25.378  1.00  0.00     0.202 C 
BRANCH  29  30
ATOM     30  C   UNL A   1      44.046  21.191  25.747  1.00  0.00     0.261 C 
BRANCH  30  31
ATOM     31  O   UNL A   1      43.174  22.133  25.090  1.00  0.00    -0.460 OA
BRANCH  31  32
ATOM     32  C   UNL A   1      43.723  23.342  24.837  1.00  0.00     0.338 C 
ATOM     33  O   UNL A   1      44.528  23.625  23.971  1.00  0.00    -0.246 OA
BRANCH  32  34
ATOM     34  C   UNL A   1      43.095  24.335  25.722  1.00  0.00     0.060 A 
ATOM     35  C   UNL A   1      43.527  25.660  25.658  1.00  0.00     0.016 A 
ATOM     36  C   UNL A   1      42.165  23.942  26.681  1.00  0.00     0.016 A 
ATOM     37  C   UNL A   1      43.093  26.592  26.596  1.00  0.00     0.010 A 
ATOM     38  C   UNL A   1      41.700  24.886  27.602  1.00  0.00     0.010 A 
ATOM     39  C   UNL A   1      42.188  26.207  27.590  1.00  0.00    -0.014 A 
BRANCH  39  40
ATOM     40  C   UNL A   1      41.833  27.142  28.685  1.00  0.00     0.031 A 
ATOM     41  C   UNL A   1      42.660  27.147  29.941  1.00  0.00     0.074 A 
ATOM     42  C   UNL A   1      40.797  27.993  28.568  1.00  0.00     0.049 A 
ATOM     43  N   UNL A   1      42.419  27.725  31.089  1.00  0.00    -0.248 NA
ATOM     44  C   UNL A   1      43.929  26.402  29.893  1.00  0.00     0.031 C 
ATOM     45  C   UNL A   1      39.968  28.168  27.376  1.00  0.00     0.029 A 
ATOM     46  N   UNL A   1      40.263  28.871  29.479  1.00  0.00    -0.354 N 
ATOM     47  C   UNL A   1      43.477  27.369  31.917  1.00  0.00     0.074 A 
ATOM     48  C   UNL A   1      44.365  26.534  31.137  1.00  0.00     0.031 C 
ATOM     49  C   UNL A   1      39.029  29.095  27.630  1.00  0.00     0.029 A 
ATOM     50  C   UNL A   1      39.146  29.523  29.021  1.00  0.00     0.049 A 
ATOM     51  H   UNL A   1      40.645  29.016  30.375  1.00  0.00     0.167 HD
ATOM     52  C   UNL A   1      43.684  27.700  33.213  1.00  0.00     0.031 A 
ATOM     53  C   UNL A   1      38.283  30.332  29.663  1.00  0.00     0.031 A 
ATOM     54  C   UNL A   1      42.813  28.545  33.984  1.00  0.00     0.049 A 
ATOM     55  C   UNL A   1      38.483  30.617  31.127  1.00  0.00     0.074 A 
ATOM     56  C   UNL A   1      42.933  28.931  35.308  1.00  0.00     0.029 A 
ATOM     57  N   UNL A   1      41.664  29.143  33.495  1.00  0.00    -0.354 N 
ATOM     58  N   UNL A   1      39.449  30.222  31.921  1.00  0.00    -0.248 NA
ATOM     59  C   UNL A   1      37.461  31.443  31.785  1.00  0.00     0.031 C 
ATOM     60  C   UNL A   1      41.832  29.732  35.632  1.00  0.00     0.029 A 
ATOM     61  C   UNL A   1      41.054  29.881  34.495  1.00  0.00     0.049 A 
ATOM     62  H   UNL A   1      41.329  29.056  32.573  1.00  0.00     0.167 HD
ATOM     63  C   UNL A   1      39.157  30.762  33.167  1.00  0.00     0.074 A 
ATOM     64  C   UNL A   1      37.936  31.527  33.019  1.00  0.00     0.031 C 
ATOM     65  C   UNL A   1      39.838  30.633  34.332  1.00  0.00     0.031 A 
BRANCH  52  66
ATOM     66  C   UNL A   1      44.877  27.094  33.895  1.00  0.00    -0.014 A 
ATOM     67  C   UNL A   1      45.984  27.872  34.268  1.00  0.00     0.009 A 
ATOM     68  C   UNL A   1      44.880  25.721  34.185  1.00  0.00     0.009 A 
ATOM     69  C   UNL A   1      47.083  27.277  34.890  1.00  0.00     0.001 A 
ATOM     70  C   UNL A   1      45.969  25.134  34.828  1.00  0.00     0.001 A 
ATOM     71  C   UNL A   1      47.075  25.911  35.173  1.00  0.00     0.000 A 
ENDBRANCH  52  66
BRANCH  53  72
ATOM     72  C   UNL A   1      37.105  30.883  28.946  1.00  0.00    -0.014 A 
ATOM     73  C   UNL A   1      37.029  32.250  28.642  1.00  0.00     0.009 A 
ATOM     74  C   UNL A   1      36.040  30.045  28.578  1.00  0.00     0.009 A 
ATOM     75  C   UNL A   1      35.902  32.769  27.999  1.00  0.00     0.001 A 
ATOM     76  C   UNL A   1      34.928  30.561  27.911  1.00  0.00     0.001 A 
ATOM     77  C   UNL A   1      34.856  31.924  27.630  1.00  0.00     0.000 A 
ENDBRANCH  53  72
BRANCH  65  78
ATOM     78  C   UNL A   1      39.293  31.359  35.528  1.00  0.00    -0.014 A 
ATOM     79  C   UNL A   1      38.266  30.804  36.308  1.00  0.00     0.009 A 
ATOM     80  C   UNL A   1      39.837  32.600  35.896  1.00  0.00     0.009 A 
ATOM     81  C   UNL A   1      37.775  31.493  37.419  1.00  0.00     0.001 A 
ATOM     82  C   UNL A   1      39.359  33.274  37.020  1.00  0.00     0.001 A 
ATOM     83  C   UNL A   1      38.324  32.725  37.776  1.00  0.00     0.000 A 
ENDBRANCH  65  78
ENDBRANCH  39  40
ENDBRANCH  32  34
ENDBRANCH  31  32
ENDBRANCH  30  31
ENDBRANCH  29  30
ENDBRANCH  28  29
ENDBRANCH  27  28
ENDBRANCH   1  27
TORSDOF 21
ENDMDL
MODEL 2
REMARK VINA RESULT:      -9.6      3.867      8.561
REMARK SMILES C[C@H]1[NH2+]CC[C@@H]1C(=O)N[C@@H](CC(=O)OCCOCCOCCOC(=O)c1ccc(-c2c3nc(c(-c4ccccc4)c4ccc([nH]4)c(-c4ccccc4)c4nc(c(-c5ccccc5)c5ccc2[nH]5)C=C4)C=C3)cc1)c1cccs1
REMARK SMILES IDX 18 1 17 2 16 3 15 4 14 5 12 6 13 7 11 8 10 9 9 10 7 11 8 12
REMARK SMILES IDX 6 14 1 15 2 16 3 17 4 18 5 21 74 22 75 23 78 24 76 25 77 26
REMARK SMILES IDX 19 27 20 28 21 29 22 30 23 31 24 32 25 33 26 34 27 35 73 36
REMARK SMILES IDX 28 37 72 38 29 39 30 40 31 41 66 42 32 43 71 44 65 45 67 46
REMARK SMILES IDX 33 47 70 48 64 49 63 50 34 52 56 53 41 54 55 55 42 56 45 57
REMARK SMILES IDX 54 58 68 59 43 60 44 61 53 63 69 64 46 65 35 66 36 67 40 68
REMARK SMILES IDX 37 69 39 70 38 71 57 72 58 73 62 74 59 75 61 76 60 77 47 78
REMARK SMILES IDX 48 79 52 80 49 81 51 82 50 83
REMARK H PARENT 9 13 3 19 3 20 67 51 45 62
REMARK Flexibility Score: inf
ROOT
ATOM      1  C   UNL A   1      34.022  28.830  26.209  1.00  0.00     0.188 C 
ENDROOT
BRANCH   1   2
ATOM      2  O   UNL A   1      33.848  28.958  24.800  1.00  0.00    -0.376 OA
BRANCH   2   3
ATOM      3  C   UNL A   1      32.572  28.674  24.240  1.00  0.00     0.202 C 
BRANCH   3   4
ATOM      4  C   UNL A   1      32.546  28.617  22.711  1.00  0.00     0.261 C 
BRANCH   4   5
ATOM      5  O   UNL A   1      33.715  27.961  22.165  1.00  0.00    -0.463 OA
BRANCH   5   6
ATOM      6  C   UNL A   1      33.583  26.637  21.926  1.00  0.00     0.308 C 
ATOM      7  O   UNL A   1      33.125  26.165  20.890  1.00  0.00    -0.252 OA
BRANCH   6   8
ATOM      8  C   UNL A   1      34.209  25.740  22.966  1.00  0.00     0.153 C 
BRANCH   8   9
ATOM      9  C   UNL A   1      33.985  24.224  23.058  1.00  0.00     0.133 C 
BRANCH   9  10
ATOM     10  N   UNL A   1      32.636  23.722  22.937  1.00  0.00    -0.347 N 
ATOM     11  C   UNL A   1      31.570  23.890  23.785  1.00  0.00     0.229 C 
ATOM     12  O   UNL A   1      30.474  23.547  23.333  1.00  0.00    -0.275 OA
ATOM     13  H   UNL A   1      32.456  23.184  22.132  1.00  0.00     0.164 HD
BRANCH  11  14
ATOM     14  C   UNL A   1      31.755  24.318  25.260  1.00  0.00     0.142 C 
ATOM     15  C   UNL A   1      31.697  23.150  27.517  1.00  0.00     0.076 C 
ATOM     16  C   UNL A   1      30.928  23.433  26.220  1.00  0.00     0.192 C 
ATOM     17  N   UNL A   1      29.695  24.184  26.548  1.00  0.00    -0.343 N 
ATOM     18  C   UNL A   1      29.826  25.533  26.016  1.00  0.00     0.261 C 
ATOM     19  H   UNL A   1      29.573  24.222  27.559  1.00  0.00     0.346 HD
ATOM     20  H   UNL A   1      28.883  23.721  26.138  1.00  0.00     0.346 HD
ATOM     21  C   UNL A   1      31.295  25.699  25.703  1.00  0.00     0.081 C 
ENDBRANCH  11  14
ENDBRANCH   9  10
BRANCH   9  22
ATOM     22  C   UNL A   1      34.706  23.567  24.240  1.00  0.00     0.027 A 
ATOM     23  C   UNL A   1      35.536  24.204  25.153  1.00  0.00     0.017 A 
ATOM     24  S   UNL A   1      34.770  21.860  24.472  1.00  0.00    -0.147 S 
ATOM     25  C   UNL A   1      36.279  23.293  25.960  1.00  0.00     0.012 A 
ATOM     26  C   UNL A   1      35.939  21.985  25.706  1.00  0.00     0.065 A 
ENDBRANCH   9  22
ENDBRANCH   8   9
ENDBRANCH   6   8
ENDBRANCH   5   6
ENDBRANCH   4   5
ENDBRANCH   3   4
ENDBRANCH   2   3
ENDBRANCH   1   2
BRANCH   1  27
ATOM     27  C   UNL A   1      33.675  30.009  27.122  1.00  0.00     0.188 C 
BRANCH  27  28
ATOM     28  O   UNL A   1      32.274  30.163  27.303  1.00  0.00    -0.376 OA
BRANCH  28  29
ATOM     29  C   UNL A   1      31.713  31.219  26.527  1.00  0.00     0.202 C 
BRANCH  29  30
ATOM     30  C   UNL A   1      31.551  32.446  27.422  1.00  0.00     0.261 C 
BRANCH  30  31
ATOM     31  O   UNL A   1      32.488  33.491  27.095  1.00  0.00    -0.460 OA
BRANCH  31  32
ATOM     32  C   UNL A   1      33.029  34.129  28.156  1.00  0.00     0.338 C 
ATOM     33  O   UNL A   1      32.551  35.047  28.794  1.00  0.00    -0.246 OA
BRANCH  32  34
ATOM     34  C   UNL A   1      34.282  33.451  28.520  1.00  0.00     0.060 A 
ATOM     35  C   UNL A   1      34.280  32.572  29.604  1.00  0.00     0.016 A 
ATOM     36  C   UNL A   1      35.472  33.760  27.866  1.00  0.00     0.016 A 
ATOM     37  C   UNL A   1      35.474  32.051  30.094  1.00  0.00     0.010 A 
ATOM     38  C   UNL A   1      36.668  33.208  28.334  1.00  0.00     0.010 A 
ATOM     39  C   UNL A   1      36.683  32.379  29.474  1.00  0.00    -0.014 A 
BRANCH  39  40
ATOM     40  C   UNL A   1      37.973  31.959  30.072  1.00  0.00     0.031 A 
ATOM     41  C   UNL A   1      38.665  30.736  29.536  1.00  0.00     0.074 A 
ATOM     42  C   UNL A   1      38.541  32.660  31.071  1.00  0.00     0.049 A 
ATOM     43  N   UNL A   1      39.681  30.076  30.029  1.00  0.00    -0.248 NA
ATOM     44  C   UNL A   1      38.140  30.185  28.276  1.00  0.00     0.031 C 
ATOM     45  C   UNL A   1      38.036  33.916  31.625  1.00  0.00     0.029 A 
ATOM     46  N   UNL A   1      39.673  32.401  31.803  1.00  0.00    -0.354 N 
ATOM     47  C   UNL A   1      39.883  29.003  29.171  1.00  0.00     0.074 A 
ATOM     48  C   UNL A   1      38.891  29.105  28.122  1.00  0.00     0.031 C 
ATOM     49  C   UNL A   1      38.855  34.318  32.611  1.00  0.00     0.029 A 
ATOM     50  C   UNL A   1      39.897  33.313  32.805  1.00  0.00     0.049 A 
ATOM     51  H   UNL A   1      40.266  31.635  31.627  1.00  0.00     0.167 HD
ATOM     52  C   UNL A   1      40.805  28.015  29.254  1.00  0.00     0.031 A 
ATOM     53  C   UNL A   1      40.805  33.311  33.798  1.00  0.00     0.031 A 
ATOM     54  C   UNL A   1      41.804  27.923  30.285  1.00  0.00     0.049 A 
ATOM     55  C   UNL A   1      41.764  32.160  33.925  1.00  0.00     0.074 A 
ATOM     56  C   UNL A   1      42.778  26.955  30.460  1.00  0.00     0.029 A 
ATOM     57  N   UNL A   1      41.962  28.840  31.310  1.00  0.00    -0.354 N 
ATOM     58  N   UNL A   1      41.905  31.113  33.148  1.00  0.00    -0.248 NA
ATOM     59  C   UNL A   1      42.675  32.182  35.078  1.00  0.00     0.031 C 
ATOM     60  C   UNL A   1      43.500  27.265  31.617  1.00  0.00     0.029 A 
ATOM     61  C   UNL A   1      43.005  28.452  32.133  1.00  0.00     0.049 A 
ATOM     62  H   UNL A   1      41.413  29.648  31.436  1.00  0.00     0.167 HD
ATOM     63  C   UNL A   1      42.929  30.361  33.710  1.00  0.00     0.074 A 
ATOM     64  C   UNL A   1      43.384  31.080  34.883  1.00  0.00     0.031 C 
ATOM     65  C   UNL A   1      43.443  29.177  33.296  1.00  0.00     0.031 A 
BRANCH  52  66
ATOM     66  C   UNL A   1      40.736  26.922  28.228  1.00  0.00    -0.014 A 
ATOM     67  C   UNL A   1      39.938  25.783  28.420  1.00  0.00     0.009 A 
ATOM     68  C   UNL A   1      41.471  27.046  27.039  1.00  0.00     0.009 A 
ATOM     69  C   UNL A   1      39.904  24.777  27.451  1.00  0.00     0.001 A 
ATOM     70  C   UNL A   1      41.416  26.052  26.063  1.00  0.00     0.001 A 
ATOM     71  C   UNL A   1      40.639  24.913  26.274  1.00  0.00     0.000 A 
ENDBRANCH  52  66
BRANCH  53  72
ATOM     72  C   UNL A   1      40.811  34.407  34.802  1.00  0.00    -0.014 A 
ATOM     73  C   UNL A   1      41.557  35.573  34.581  1.00  0.00     0.009 A 
ATOM     74  C   UNL A   1      40.084  34.281  35.997  1.00  0.00     0.009 A 
ATOM     75  C   UNL A   1      41.588  36.585  35.545  1.00  0.00     0.001 A 
ATOM     76  C   UNL A   1      40.094  35.305  36.944  1.00  0.00     0.001 A 
ATOM     77  C   UNL A   1      40.853  36.452  36.722  1.00  0.00     0.000 A 
ENDBRANCH  53  72
BRANCH  65  78
ATOM     78  C   UNL A   1      44.575  28.604  34.099  1.00  0.00    -0.014 A 
ATOM     79  C   UNL A   1      44.337  27.708  35.153  1.00  0.00     0.009 A 
ATOM     80  C   UNL A   1      45.899  28.941  33.773  1.00  0.00     0.009 A 
ATOM     81  C   UNL A   1      45.404  27.183  35.885  1.00  0.00     0.001 A 
ATOM     82  C   UNL A   1      46.963  28.396  34.493  1.00  0.00     0.001 A 
ATOM     83  C   UNL A   1      46.715  27.524  35.552  1.00  0.00     0.000 A 
ENDBRANCH  65  78
ENDBRANCH  39  40
ENDBRANCH  32  34
ENDBRANCH  31  32
ENDBRANCH  30  31
ENDBRANCH  29  30
ENDBRANCH  28  29
ENDBRANCH  27  28
ENDBRANCH   1  27
TORSDOF 21
ENDMDL
MODEL 3
REMARK VINA RESULT:      -9.1      3.414      8.488
REMARK SMILES C[C@H]1[NH2+]CC[C@@H]1C(=O)N[C@@H](CC(=O)OCCOCCOCCOC(=O)c1ccc(-c2c3nc(c(-c4ccccc4)c4ccc([nH]4)c(-c4ccccc4)c4nc(c(-c5ccccc5)c5ccc2[nH]5)C=C4)C=C3)cc1)c1cccs1
REMARK SMILES IDX 18 1 17 2 16 3 15 4 14 5 12 6 13 7 11 8 10 9 9 10 7 11 8 12
REMARK SMILES IDX 6 14 1 15 2 16 3 17 4 18 5 21 74 22 75 23 78 24 76 25 77 26
REMARK SMILES IDX 19 27 20 28 21 29 22 30 23 31 24 32 25 33 26 34 27 35 73 36
REMARK SMILES IDX 28 37 72 38 29 39 30 40 31 41 66 42 32 43 71 44 65 45 67 46
REMARK SMILES IDX 33 47 70 48 64 49 63 50 34 52 56 53 41 54 55 55 42 56 45 57
REMARK SMILES IDX 54 58 68 59 43 60 44 61 53 63 69 64 46 65 35 66 36 67 40 68
REMARK SMILES IDX 37 69 39 70 38 71 57 72 58 73 62 74 59 75 61 76 60 77 47 78
REMARK SMILES IDX 48 79 52 80 49 81 51 82 50 83
REMARK H PARENT 9 13 3 19 3 20 67 51 45 62
REMARK Flexibility Score: inf
ROOT
ATOM      1  C   UNL A   1      32.806  29.138  25.624  1.00  0.00     0.188 C 
ENDROOT
BRANCH   1   2
ATOM      2  O   UNL A   1      33.652  29.043  24.481  1.00  0.00    -0.376 OA
BRANCH   2   3
ATOM      3  C   UNL A   1      33.089  28.607  23.250  1.00  0.00     0.202 C 
BRANCH   3   4
ATOM      4  C   UNL A   1      34.116  28.228  22.180  1.00  0.00     0.261 C 
BRANCH   4   5
ATOM      5  O   UNL A   1      33.823  26.954  21.561  1.00  0.00    -0.463 OA
BRANCH   5   6
ATOM      6  C   UNL A   1      33.129  26.080  22.323  1.00  0.00     0.308 C 
ATOM      7  O   UNL A   1      31.939  25.823  22.170  1.00  0.00    -0.252 OA
BRANCH   6   8
ATOM      8  C   UNL A   1      33.966  25.283  23.295  1.00  0.00     0.153 C 
BRANCH   8   9
ATOM      9  C   UNL A   1      33.856  25.378  24.823  1.00  0.00     0.133 C 
BRANCH   9  10
ATOM     10  N   UNL A   1      35.011  25.027  25.616  1.00  0.00    -0.347 N 
ATOM     11  C   UNL A   1      35.921  24.019  25.421  1.00  0.00     0.229 C 
ATOM     12  O   UNL A   1      36.938  24.079  26.117  1.00  0.00    -0.275 OA
ATOM     13  H   UNL A   1      35.168  25.592  26.407  1.00  0.00     0.164 HD
BRANCH  11  14
ATOM     14  C   UNL A   1      35.614  22.801  24.518  1.00  0.00     0.142 C 
ATOM     15  C   UNL A   1      34.046  20.803  24.622  1.00  0.00     0.076 C 
ATOM     16  C   UNL A   1      35.157  21.577  25.343  1.00  0.00     0.192 C 
ATOM     17  N   UNL A   1      36.335  20.693  25.497  1.00  0.00    -0.343 N 
ATOM     18  C   UNL A   1      37.403  21.203  24.648  1.00  0.00     0.261 C 
ATOM     19  H   UNL A   1      36.093  19.744  25.214  1.00  0.00     0.346 HD
ATOM     20  H   UNL A   1      36.637  20.676  26.471  1.00  0.00     0.346 HD
ATOM     21  C   UNL A   1      36.734  22.172  23.701  1.00  0.00     0.081 C 
ENDBRANCH  11  14
ENDBRANCH   9  10
BRANCH   9  22
ATOM     22  C   UNL A   1      32.589  24.730  25.390  1.00  0.00     0.027 A 
ATOM     23  C   UNL A   1      32.081  23.483  25.049  1.00  0.00     0.017 A 
ATOM     24  S   UNL A   1      31.464  25.575  26.386  1.00  0.00    -0.147 S 
ATOM     25  C   UNL A   1      30.753  23.274  25.524  1.00  0.00     0.012 A 
ATOM     26  C   UNL A   1      30.307  24.328  26.287  1.00  0.00     0.065 A 
ENDBRANCH   9  22
ENDBRANCH   8   9
ENDBRANCH   6   8
ENDBRANCH   5   6
ENDBRANCH   4   5
ENDBRANCH   3   4
ENDBRANCH   2   3
ENDBRANCH   1   2
BRANCH   1  27
ATOM     27  C   UNL A   1      32.925  30.351  26.552  1.00  0.00     0.188 C 
BRANCH  27  28
ATOM     28  O   UNL A   1      31.667  30.771  27.060  1.00  0.00    -0.376 OA
BRANCH  28  29
ATOM     29  C   UNL A   1      31.292  32.081  26.637  1.00  0.00     0.202 C 
BRANCH  29  30
ATOM     30  C   UNL A   1      32.445  33.036  26.939  1.00  0.00     0.261 C 
BRANCH  30  31
ATOM     31  O   UNL A   1      32.189  33.856  28.097  1.00  0.00    -0.460 OA
BRANCH  31  32
ATOM     32  C   UNL A   1      33.215  34.650  28.475  1.00  0.00     0.338 C 
ATOM     33  O   UNL A   1      33.199  35.854  28.647  1.00  0.00    -0.246 OA
BRANCH  32  34
ATOM     34  C   UNL A   1      34.378  33.801  28.774  1.00  0.00     0.060 A 
ATOM     35  C   UNL A   1      34.194  32.663  29.560  1.00  0.00     0.016 A 
ATOM     36  C   UNL A   1      35.656  34.182  28.374  1.00  0.00     0.016 A 
ATOM     37  C   UNL A   1      35.289  31.934  30.018  1.00  0.00     0.010 A 
ATOM     38  C   UNL A   1      36.754  33.430  28.802  1.00  0.00     0.010 A 
ATOM     39  C   UNL A   1      36.582  32.323  29.657  1.00  0.00    -0.014 A 
BRANCH  39  40
ATOM     40  C   UNL A   1      37.762  31.654  30.256  1.00  0.00     0.031 A 
ATOM     41  C   UNL A   1      38.413  32.263  31.467  1.00  0.00     0.074 A 
ATOM     42  C   UNL A   1      38.248  30.507  29.745  1.00  0.00     0.049 A 
ATOM     43  N   UNL A   1      39.557  31.969  32.028  1.00  0.00    -0.248 NA
ATOM     44  C   UNL A   1      37.673  33.346  32.133  1.00  0.00     0.031 C 
ATOM     45  C   UNL A   1      37.664  29.753  28.637  1.00  0.00     0.029 A 
ATOM     46  N   UNL A   1      39.359  29.781  30.097  1.00  0.00    -0.354 N 
ATOM     47  C   UNL A   1      39.701  32.865  33.079  1.00  0.00     0.074 A 
ATOM     48  C   UNL A   1      38.523  33.707  33.084  1.00  0.00     0.031 C 
ATOM     49  C   UNL A   1      38.422  28.670  28.399  1.00  0.00     0.029 A 
ATOM     50  C   UNL A   1      39.581  28.695  29.287  1.00  0.00     0.049 A 
ATOM     51  H   UNL A   1      39.939  30.018  30.856  1.00  0.00     0.167 HD
ATOM     52  C   UNL A   1      40.726  32.984  33.956  1.00  0.00     0.031 A 
ATOM     53  C   UNL A   1      40.626  27.849  29.231  1.00  0.00     0.031 A 
ATOM     54  C   UNL A   1      41.887  32.136  33.965  1.00  0.00     0.049 A 
ATOM     55  C   UNL A   1      41.795  28.051  30.156  1.00  0.00     0.074 A 
ATOM     56  C   UNL A   1      42.984  32.182  34.809  1.00  0.00     0.029 A 
ATOM     57  N   UNL A   1      42.096  31.080  33.094  1.00  0.00    -0.354 N 
ATOM     58  N   UNL A   1      41.954  28.943  31.103  1.00  0.00    -0.248 NA
ATOM     59  C   UNL A   1      42.936  27.140  29.988  1.00  0.00     0.031 C 
ATOM     60  C   UNL A   1      43.877  31.178  34.420  1.00  0.00     0.029 A 
ATOM     61  C   UNL A   1      43.313  30.478  33.365  1.00  0.00     0.049 A 
ATOM     62  H   UNL A   1      41.473  30.800  32.385  1.00  0.00     0.167 HD
ATOM     63  C   UNL A   1      43.205  28.692  31.652  1.00  0.00     0.074 A 
ATOM     64  C   UNL A   1      43.754  27.554  30.944  1.00  0.00     0.031 C 
ATOM     65  C   UNL A   1      43.845  29.349  32.650  1.00  0.00     0.031 A 
BRANCH  52  66
ATOM     66  C   UNL A   1      40.658  34.112  34.944  1.00  0.00    -0.014 A 
ATOM     67  C   UNL A   1      41.150  35.389  34.635  1.00  0.00     0.009 A 
ATOM     68  C   UNL A   1      40.073  33.892  36.200  1.00  0.00     0.009 A 
ATOM     69  C   UNL A   1      41.083  36.416  35.580  1.00  0.00     0.001 A 
ATOM     70  C   UNL A   1      39.986  34.925  37.133  1.00  0.00     0.001 A 
ATOM     71  C   UNL A   1      40.499  36.185  36.825  1.00  0.00     0.000 A 
ENDBRANCH  52  66
BRANCH  53  72
ATOM     72  C   UNL A   1      40.651  26.764  28.216  1.00  0.00    -0.014 A 
ATOM     73  C   UNL A   1      40.155  25.489  28.520  1.00  0.00     0.009 A 
ATOM     74  C   UNL A   1      41.191  26.997  26.940  1.00  0.00     0.009 A 
ATOM     75  C   UNL A   1      40.215  24.464  27.573  1.00  0.00     0.001 A 
ATOM     76  C   UNL A   1      41.224  25.979  25.987  1.00  0.00     0.001 A 
ATOM     77  C   UNL A   1      40.744  24.710  26.307  1.00  0.00     0.000 A 
ENDBRANCH  53  72
BRANCH  65  78
ATOM     78  C   UNL A   1      45.195  28.832  33.054  1.00  0.00    -0.014 A 
ATOM     79  C   UNL A   1      45.324  27.792  33.989  1.00  0.00     0.009 A 
ATOM     80  C   UNL A   1      46.351  29.370  32.467  1.00  0.00     0.009 A 
ATOM     81  C   UNL A   1      46.589  27.322  34.350  1.00  0.00     0.001 A 
ATOM     82  C   UNL A   1      47.612  28.881  32.813  1.00  0.00     0.001 A 
ATOM     83  C   UNL A   1      47.730  27.865  33.759  1.00  0.00     0.000 A 
ENDBRANCH  65  78
ENDBRANCH  39  40
ENDBRANCH  32  34
ENDBRANCH  31  32
ENDBRANCH  30  31
ENDBRANCH  29  30
ENDBRANCH  28  29
ENDBRANCH  27  28
ENDBRANCH   1  27
TORSDOF 21
ENDMDL
