MODEL 1
REMARK VINA RESULT:     -10.1      0.000      0.000
REMARK SMILES COc1ccc(CCN2/C(=[NH+]/C(=O)CCC(=O)OCCOCCOCCOC(=O)c3ccc(-c4c5nc(c(-c6ccccc6)c6ccc([nH]6)c(-c6ccccc6)c6nc(c(-c7ccccc7)c7ccc4[nH]7)C=C6)C=C5)cc3)S[C@@H]3CS(=O)(=O)C[C@@H]32)cc1
REMARK SMILES IDX 20 1 19 2 18 3 16 4 17 5 15 6 14 7 12 8 9 9 10 10 85 11
REMARK SMILES IDX 11 12 78 13 79 14 84 15 80 17 81 18 13 19 82 20 83 21 8 22
REMARK SMILES IDX 7 23 6 24 3 25 4 26 87 27 5 28 86 29 2 30 1 31 21 32 22 33
REMARK SMILES IDX 23 34 24 35 25 36 26 37 27 38 28 39 29 40 30 41 31 42 77 43
REMARK SMILES IDX 32 44 76 45 33 46 34 47 35 48 70 49 36 50 75 51 69 52 71 53
REMARK SMILES IDX 37 54 74 55 68 56 67 57 38 59 60 60 45 61 59 62 46 63 49 64
REMARK SMILES IDX 58 65 72 66 47 67 48 68 57 70 73 71 50 72 39 73 40 74 44 75
REMARK SMILES IDX 41 76 43 77 42 78 61 79 62 80 66 81 63 82 65 83 64 84 51 85
REMARK SMILES IDX 52 86 56 87 53 88 55 89 54 90
REMARK H PARENT 11 16 71 58 49 69
REMARK Flexibility Score: inf
ROOT
ATOM      1  C   UNL A   1      38.577  22.384  25.763  1.00  0.00     0.202 C 
ENDROOT
BRANCH   1   2
ATOM      2  C   UNL A   1      37.645  21.510  24.943  1.00  0.00     0.261 C 
BRANCH   2   3
ATOM      3  O   UNL A   1      36.331  22.035  24.715  1.00  0.00    -0.463 OA
BRANCH   3   4
ATOM      4  C   UNL A   1      36.027  22.578  23.524  1.00  0.00     0.306 C 
ATOM      5  O   UNL A   1      36.848  23.025  22.736  1.00  0.00    -0.252 OA
BRANCH   4   6
ATOM      6  C   UNL A   1      34.543  22.470  23.234  1.00  0.00     0.135 C 
BRANCH   6   7
ATOM      7  C   UNL A   1      34.022  23.298  22.059  1.00  0.00     0.139 C 
BRANCH   7   8
ATOM      8  C   UNL A   1      33.565  24.677  22.474  1.00  0.00     0.308 C 
ATOM      9  N   UNL A   1      31.862  26.105  25.344  1.00  0.00    -0.251 N 
ATOM     10  C   UNL A   1      32.193  25.593  24.089  1.00  0.00     0.314 C 
ATOM     11  C   UNL A   1      30.869  27.198  25.347  1.00  0.00     0.206 C 
ATOM     12  N   UNL A   1      33.193  24.831  23.795  1.00  0.00    -0.205 N 
ATOM     13  S   UNL A   1      31.044  26.241  22.900  1.00  0.00    -0.030 SA
ATOM     14  C   UNL A   1      30.792  27.717  23.902  1.00  0.00     0.120 C 
ATOM     15  C   UNL A   1      31.234  28.376  26.258  1.00  0.00     0.187 C 
ATOM     16  H   UNL A   1      33.687  24.364  24.507  1.00  0.00     0.316 HD
ATOM     17  C   UNL A   1      31.931  28.709  23.727  1.00  0.00     0.156 C 
ATOM     18  S   UNL A   1      31.772  29.694  25.190  1.00  0.00     0.155 S 
ATOM     19  O   UNL A   1      33.683  25.606  21.675  1.00  0.00    -0.247 OA
ATOM     20  O   UNL A   1      33.069  30.178  25.608  1.00  0.00    -0.229 OA
ATOM     21  O   UNL A   1      30.651  30.589  24.999  1.00  0.00    -0.229 OA
BRANCH   9  22
ATOM     22  C   UNL A   1      32.171  25.470  26.625  1.00  0.00     0.242 C 
BRANCH  22  23
ATOM     23  C   UNL A   1      31.490  24.123  26.867  1.00  0.00     0.081 C 
BRANCH  23  24
ATOM     24  C   UNL A   1      32.140  22.839  26.450  1.00  0.00    -0.044 A 
ATOM     25  C   UNL A   1      33.172  20.344  25.703  1.00  0.00     0.118 A 
ATOM     26  C   UNL A   1      32.008  20.822  25.113  1.00  0.00     0.046 A 
ATOM     27  C   UNL A   1      33.807  21.097  26.692  1.00  0.00     0.046 A 
ATOM     28  C   UNL A   1      31.489  22.049  25.496  1.00  0.00     0.007 A 
ATOM     29  C   UNL A   1      33.293  22.345  27.067  1.00  0.00     0.007 A 
BRANCH  25  30
ATOM     30  O   UNL A   1      33.660  19.189  25.165  1.00  0.00    -0.497 OA
ATOM     31  C   UNL A   1      32.813  18.542  24.230  1.00  0.00     0.278 C 
ENDBRANCH  25  30
ENDBRANCH  23  24
ENDBRANCH  22  23
ENDBRANCH   9  22
ENDBRANCH   7   8
ENDBRANCH   6   7
ENDBRANCH   4   6
ENDBRANCH   3   4
ENDBRANCH   2   3
ENDBRANCH   1   2
BRANCH   1  32
ATOM     32  O   UNL A   1      39.448  21.625  26.606  1.00  0.00    -0.376 OA
BRANCH  32  33
ATOM     33  C   UNL A   1      39.901  20.430  25.990  1.00  0.00     0.188 C 
BRANCH  33  34
ATOM     34  C   UNL A   1      41.363  20.043  26.292  1.00  0.00     0.188 C 
BRANCH  34  35
ATOM     35  O   UNL A   1      42.242  19.593  25.274  1.00  0.00    -0.376 OA
BRANCH  35  36
ATOM     36  C   UNL A   1      43.641  19.610  25.535  1.00  0.00     0.202 C 
BRANCH  36  37
ATOM     37  C   UNL A   1      44.500  20.805  25.088  1.00  0.00     0.261 C 
BRANCH  37  38
ATOM     38  O   UNL A   1      44.368  21.967  25.922  1.00  0.00    -0.460 OA
BRANCH  38  39
ATOM     39  C   UNL A   1      43.604  22.972  25.414  1.00  0.00     0.338 C 
ATOM     40  O   UNL A   1      43.011  22.988  24.351  1.00  0.00    -0.246 OA
BRANCH  39  41
ATOM     41  C   UNL A   1      43.341  23.933  26.508  1.00  0.00     0.060 A 
ATOM     42  C   UNL A   1      42.425  23.560  27.509  1.00  0.00     0.016 A 
ATOM     43  C   UNL A   1      44.055  25.126  26.610  1.00  0.00     0.016 A 
ATOM     44  C   UNL A   1      42.241  24.363  28.629  1.00  0.00     0.010 A 
ATOM     45  C   UNL A   1      43.818  25.967  27.698  1.00  0.00     0.010 A 
ATOM     46  C   UNL A   1      42.897  25.596  28.697  1.00  0.00    -0.014 A 
BRANCH  46  47
ATOM     47  C   UNL A   1      42.387  26.616  29.638  1.00  0.00     0.031 A 
ATOM     48  C   UNL A   1      43.105  26.743  30.952  1.00  0.00     0.074 A 
ATOM     49  C   UNL A   1      41.355  27.418  29.335  1.00  0.00     0.049 A 
ATOM     50  N   UNL A   1      42.832  27.507  31.977  1.00  0.00    -0.248 NA
ATOM     51  C   UNL A   1      44.293  25.890  31.132  1.00  0.00     0.031 C 
ATOM     52  C   UNL A   1      40.627  27.434  28.068  1.00  0.00     0.029 A 
ATOM     53  N   UNL A   1      40.735  28.379  30.094  1.00  0.00    -0.354 N 
ATOM     54  C   UNL A   1      43.812  27.224  32.918  1.00  0.00     0.074 A 
ATOM     55  C   UNL A   1      44.666  26.200  32.362  1.00  0.00     0.031 C 
ATOM     56  C   UNL A   1      39.641  28.347  28.146  1.00  0.00     0.029 A 
ATOM     57  C   UNL A   1      39.649  28.951  29.477  1.00  0.00     0.049 A 
ATOM     58  H   UNL A   1      41.040  28.634  30.995  1.00  0.00     0.167 HD
ATOM     59  C   UNL A   1      43.991  27.771  34.142  1.00  0.00     0.031 A 
ATOM     60  C   UNL A   1      38.752  29.837  29.954  1.00  0.00     0.031 A 
ATOM     61  C   UNL A   1      43.119  28.761  34.707  1.00  0.00     0.049 A 
ATOM     62  C   UNL A   1      38.909  30.355  31.362  1.00  0.00     0.074 A 
ATOM     63  C   UNL A   1      43.193  29.366  35.949  1.00  0.00     0.029 A 
ATOM     64  N   UNL A   1      42.007  29.284  34.068  1.00  0.00    -0.354 N 
ATOM     65  N   UNL A   1      39.840  30.087  32.246  1.00  0.00    -0.248 NA
ATOM     66  C   UNL A   1      37.892  31.307  31.834  1.00  0.00     0.031 C 
ATOM     67  C   UNL A   1      42.091  30.215  36.082  1.00  0.00     0.029 A 
ATOM     68  C   UNL A   1      41.372  30.191  34.897  1.00  0.00     0.049 A 
ATOM     69  H   UNL A   1      41.711  29.046  33.160  1.00  0.00     0.167 HD
ATOM     70  C   UNL A   1      39.541  30.859  33.363  1.00  0.00     0.074 A 
ATOM     71  C   UNL A   1      38.351  31.618  33.039  1.00  0.00     0.031 C 
ATOM     72  C   UNL A   1      40.191  30.938  34.551  1.00  0.00     0.031 A 
BRANCH  59  73
ATOM     73  C   UNL A   1      45.150  27.271  34.954  1.00  0.00    -0.014 A 
ATOM     74  C   UNL A   1      46.407  27.894  34.889  1.00  0.00     0.009 A 
ATOM     75  C   UNL A   1      44.980  26.168  35.804  1.00  0.00     0.009 A 
ATOM     76  C   UNL A   1      47.477  27.403  35.638  1.00  0.00     0.001 A 
ATOM     77  C   UNL A   1      46.043  25.698  36.575  1.00  0.00     0.001 A 
ATOM     78  C   UNL A   1      47.293  26.310  36.485  1.00  0.00     0.000 A 
ENDBRANCH  59  73
BRANCH  60  79
ATOM     79  C   UNL A   1      37.599  30.264  29.115  1.00  0.00    -0.014 A 
ATOM     80  C   UNL A   1      37.421  31.612  28.764  1.00  0.00     0.009 A 
ATOM     81  C   UNL A   1      36.644  29.326  28.694  1.00  0.00     0.009 A 
ATOM     82  C   UNL A   1      36.296  32.013  28.040  1.00  0.00     0.001 A 
ATOM     83  C   UNL A   1      35.537  29.725  27.942  1.00  0.00     0.001 A 
ATOM     84  C   UNL A   1      35.357  31.069  27.626  1.00  0.00     0.000 A 
ENDBRANCH  60  79
BRANCH  72  85
ATOM     85  C   UNL A   1      39.662  31.911  35.568  1.00  0.00    -0.014 A 
ATOM     86  C   UNL A   1      40.123  33.234  35.628  1.00  0.00     0.009 A 
ATOM     87  C   UNL A   1      38.641  31.506  36.444  1.00  0.00     0.009 A 
ATOM     88  C   UNL A   1      39.597  34.123  36.570  1.00  0.00     0.001 A 
ATOM     89  C   UNL A   1      38.094  32.404  37.361  1.00  0.00     0.001 A 
ATOM     90  C   UNL A   1      38.580  33.708  37.430  1.00  0.00     0.000 A 
ENDBRANCH  72  85
ENDBRANCH  46  47
ENDBRANCH  39  41
ENDBRANCH  38  39
ENDBRANCH  37  38
ENDBRANCH  36  37
ENDBRANCH  35  36
ENDBRANCH  34  35
ENDBRANCH  33  34
ENDBRANCH  32  33
ENDBRANCH   1  32
TORSDOF 23
ENDMDL
MODEL 2
REMARK VINA RESULT:     -10.0      4.364      8.093
REMARK SMILES COc1ccc(CCN2/C(=[NH+]/C(=O)CCC(=O)OCCOCCOCCOC(=O)c3ccc(-c4c5nc(c(-c6ccccc6)c6ccc([nH]6)c(-c6ccccc6)c6nc(c(-c7ccccc7)c7ccc4[nH]7)C=C6)C=C5)cc3)S[C@@H]3CS(=O)(=O)C[C@@H]32)cc1
REMARK SMILES IDX 20 1 19 2 18 3 16 4 17 5 15 6 14 7 12 8 9 9 10 10 85 11
REMARK SMILES IDX 11 12 78 13 79 14 84 15 80 17 81 18 13 19 82 20 83 21 8 22
REMARK SMILES IDX 7 23 6 24 3 25 4 26 87 27 5 28 86 29 2 30 1 31 21 32 22 33
REMARK SMILES IDX 23 34 24 35 25 36 26 37 27 38 28 39 29 40 30 41 31 42 77 43
REMARK SMILES IDX 32 44 76 45 33 46 34 47 35 48 70 49 36 50 75 51 69 52 71 53
REMARK SMILES IDX 37 54 74 55 68 56 67 57 38 59 60 60 45 61 59 62 46 63 49 64
REMARK SMILES IDX 58 65 72 66 47 67 48 68 57 70 73 71 50 72 39 73 40 74 44 75
REMARK SMILES IDX 41 76 43 77 42 78 61 79 62 80 66 81 63 82 65 83 64 84 51 85
REMARK SMILES IDX 52 86 56 87 53 88 55 89 54 90
REMARK H PARENT 11 16 71 58 49 69
REMARK Flexibility Score: inf
ROOT
ATOM      1  C   UNL A   1      39.336  24.041  27.521  1.00  0.00     0.202 C 
ENDROOT
BRANCH   1   2
ATOM      2  C   UNL A   1      38.625  23.859  26.192  1.00  0.00     0.261 C 
BRANCH   2   3
ATOM      3  O   UNL A   1      37.229  23.545  26.265  1.00  0.00    -0.463 OA
BRANCH   3   4
ATOM      4  C   UNL A   1      36.573  23.157  25.158  1.00  0.00     0.306 C 
ATOM      5  O   UNL A   1      37.052  23.158  24.032  1.00  0.00    -0.252 OA
BRANCH   4   6
ATOM      6  C   UNL A   1      35.198  22.615  25.495  1.00  0.00     0.135 C 
BRANCH   6   7
ATOM      7  C   UNL A   1      34.311  22.236  24.309  1.00  0.00     0.139 C 
BRANCH   7   8
ATOM      8  C   UNL A   1      33.549  23.415  23.749  1.00  0.00     0.308 C 
ATOM      9  N   UNL A   1      31.696  26.214  25.130  1.00  0.00    -0.251 N 
ATOM     10  C   UNL A   1      32.078  25.010  24.538  1.00  0.00     0.314 C 
ATOM     11  C   UNL A   1      30.465  26.828  24.594  1.00  0.00     0.206 C 
ATOM     12  N   UNL A   1      33.220  24.415  24.643  1.00  0.00    -0.205 N 
ATOM     13  S   UNL A   1      30.745  24.445  23.509  1.00  0.00    -0.030 SA
ATOM     14  C   UNL A   1      30.188  26.138  23.249  1.00  0.00     0.120 C 
ATOM     15  C   UNL A   1      30.574  28.337  24.343  1.00  0.00     0.187 C 
ATOM     16  H   UNL A   1      33.850  24.673  25.354  1.00  0.00     0.316 HD
ATOM     17  C   UNL A   1      31.035  26.848  22.205  1.00  0.00     0.156 C 
ATOM     18  S   UNL A   1      30.712  28.548  22.582  1.00  0.00     0.155 S 
ATOM     19  O   UNL A   1      33.393  23.495  22.531  1.00  0.00    -0.247 OA
ATOM     20  O   UNL A   1      31.869  29.356  22.265  1.00  0.00    -0.229 OA
ATOM     21  O   UNL A   1      29.396  28.870  22.073  1.00  0.00    -0.229 OA
BRANCH   9  22
ATOM     22  C   UNL A   1      32.218  26.738  26.392  1.00  0.00     0.242 C 
BRANCH  22  23
ATOM     23  C   UNL A   1      33.583  27.420  26.301  1.00  0.00     0.081 C 
BRANCH  23  24
ATOM     24  C   UNL A   1      33.769  28.844  26.729  1.00  0.00    -0.044 A 
ATOM     25  C   UNL A   1      34.196  31.434  27.705  1.00  0.00     0.118 A 
ATOM     26  C   UNL A   1      35.233  30.509  27.706  1.00  0.00     0.046 A 
ATOM     27  C   UNL A   1      32.933  31.059  27.245  1.00  0.00     0.046 A 
ATOM     28  C   UNL A   1      35.016  29.222  27.239  1.00  0.00     0.007 A 
ATOM     29  C   UNL A   1      32.717  29.764  26.756  1.00  0.00     0.007 A 
BRANCH  25  30
ATOM     30  O   UNL A   1      34.552  32.701  28.068  1.00  0.00    -0.497 OA
ATOM     31  C   UNL A   1      34.403  33.008  29.444  1.00  0.00     0.278 C 
ENDBRANCH  25  30
ENDBRANCH  23  24
ENDBRANCH  22  23
ENDBRANCH   9  22
ENDBRANCH   7   8
ENDBRANCH   6   7
ENDBRANCH   4   6
ENDBRANCH   3   4
ENDBRANCH   2   3
ENDBRANCH   1   2
BRANCH   1  32
ATOM     32  O   UNL A   1      40.412  23.115  27.703  1.00  0.00    -0.376 OA
BRANCH  32  33
ATOM     33  C   UNL A   1      40.720  22.395  26.521  1.00  0.00     0.188 C 
BRANCH  33  34
ATOM     34  C   UNL A   1      41.026  20.897  26.720  1.00  0.00     0.188 C 
BRANCH  34  35
ATOM     35  O   UNL A   1      41.817  20.167  25.796  1.00  0.00    -0.376 OA
BRANCH  35  36
ATOM     36  C   UNL A   1      42.610  19.092  26.289  1.00  0.00     0.202 C 
BRANCH  36  37
ATOM     37  C   UNL A   1      43.601  18.368  25.361  1.00  0.00     0.261 C 
BRANCH  37  38
ATOM     38  O   UNL A   1      44.850  19.055  25.185  1.00  0.00    -0.460 OA
BRANCH  38  39
ATOM     39  C   UNL A   1      44.889  19.954  24.165  1.00  0.00     0.338 C 
ATOM     40  O   UNL A   1      44.631  19.757  22.992  1.00  0.00    -0.246 OA
BRANCH  39  41
ATOM     41  C   UNL A   1      44.987  21.306  24.761  1.00  0.00     0.060 A 
ATOM     42  C   UNL A   1      44.650  22.409  23.955  1.00  0.00     0.016 A 
ATOM     43  C   UNL A   1      45.298  21.481  26.108  1.00  0.00     0.016 A 
ATOM     44  C   UNL A   1      44.594  23.686  24.500  1.00  0.00     0.010 A 
ATOM     45  C   UNL A   1      45.312  22.772  26.639  1.00  0.00     0.010 A 
ATOM     46  C   UNL A   1      44.979  23.876  25.831  1.00  0.00    -0.014 A 
BRANCH  46  47
ATOM     47  C   UNL A   1      45.332  25.241  26.275  1.00  0.00     0.031 A 
ATOM     48  C   UNL A   1      44.215  26.086  26.820  1.00  0.00     0.074 A 
ATOM     49  C   UNL A   1      46.590  25.707  26.231  1.00  0.00     0.049 A 
ATOM     50  N   UNL A   1      44.233  27.330  27.220  1.00  0.00    -0.248 NA
ATOM     51  C   UNL A   1      42.897  25.434  26.927  1.00  0.00     0.031 C 
ATOM     52  C   UNL A   1      47.764  24.957  25.789  1.00  0.00     0.029 A 
ATOM     53  N   UNL A   1      47.083  26.944  26.562  1.00  0.00    -0.354 N 
ATOM     54  C   UNL A   1      42.933  27.606  27.623  1.00  0.00     0.074 A 
ATOM     55  C   UNL A   1      42.145  26.418  27.391  1.00  0.00     0.031 C 
ATOM     56  C   UNL A   1      48.841  25.762  25.854  1.00  0.00     0.029 A 
ATOM     57  C   UNL A   1      48.425  27.087  26.309  1.00  0.00     0.049 A 
ATOM     58  H   UNL A   1      46.526  27.661  26.943  1.00  0.00     0.167 HD
ATOM     59  C   UNL A   1      42.436  28.750  28.144  1.00  0.00     0.031 A 
ATOM     60  C   UNL A   1      49.211  28.177  26.407  1.00  0.00     0.031 A 
ATOM     61  C   UNL A   1      43.213  29.941  28.338  1.00  0.00     0.049 A 
ATOM     62  C   UNL A   1      48.611  29.474  26.890  1.00  0.00     0.074 A 
ATOM     63  C   UNL A   1      42.803  31.165  28.836  1.00  0.00     0.029 A 
ATOM     64  N   UNL A   1      44.558  30.059  28.031  1.00  0.00    -0.354 N 
ATOM     65  N   UNL A   1      47.382  29.729  27.274  1.00  0.00    -0.248 NA
ATOM     66  C   UNL A   1      49.512  30.635  26.962  1.00  0.00     0.031 C 
ATOM     67  C   UNL A   1      43.891  32.041  28.778  1.00  0.00     0.029 A 
ATOM     68  C   UNL A   1      44.993  31.342  28.310  1.00  0.00     0.049 A 
ATOM     69  H   UNL A   1      45.122  29.338  27.668  1.00  0.00     0.167 HD
ATOM     70  C   UNL A   1      47.372  31.063  27.662  1.00  0.00     0.074 A 
ATOM     71  C   UNL A   1      48.720  31.561  27.483  1.00  0.00     0.031 C 
ATOM     72  C   UNL A   1      46.342  31.813  28.128  1.00  0.00     0.031 A 
BRANCH  59  73
ATOM     73  C   UNL A   1      40.977  28.766  28.497  1.00  0.00    -0.014 A 
ATOM     74  C   UNL A   1      40.013  29.222  27.584  1.00  0.00     0.009 A 
ATOM     75  C   UNL A   1      40.560  28.308  29.755  1.00  0.00     0.009 A 
ATOM     76  C   UNL A   1      38.663  29.246  27.937  1.00  0.00     0.001 A 
ATOM     77  C   UNL A   1      39.207  28.304  30.094  1.00  0.00     0.001 A 
ATOM     78  C   UNL A   1      38.260  28.781  29.189  1.00  0.00     0.000 A 
ENDBRANCH  59  73
BRANCH  60  79
ATOM     79  C   UNL A   1      50.642  28.111  26.003  1.00  0.00    -0.014 A 
ATOM     80  C   UNL A   1      51.036  28.406  24.688  1.00  0.00     0.009 A 
ATOM     81  C   UNL A   1      51.621  27.710  26.927  1.00  0.00     0.009 A 
ATOM     82  C   UNL A   1      52.371  28.268  24.301  1.00  0.00     0.001 A 
ATOM     83  C   UNL A   1      52.960  27.606  26.546  1.00  0.00     0.001 A 
ATOM     84  C   UNL A   1      53.333  27.873  25.231  1.00  0.00     0.000 A 
ENDBRANCH  60  79
BRANCH  72  85
ATOM     85  C   UNL A   1      46.640  33.233  28.524  1.00  0.00    -0.014 A 
ATOM     86  C   UNL A   1      47.080  33.559  29.815  1.00  0.00     0.009 A 
ATOM     87  C   UNL A   1      46.531  34.253  27.564  1.00  0.00     0.009 A 
ATOM     88  C   UNL A   1      47.371  34.884  30.148  1.00  0.00     0.001 A 
ATOM     89  C   UNL A   1      46.854  35.571  27.890  1.00  0.00     0.001 A 
ATOM     90  C   UNL A   1      47.264  35.887  29.183  1.00  0.00     0.000 A 
ENDBRANCH  72  85
ENDBRANCH  46  47
ENDBRANCH  39  41
ENDBRANCH  38  39
ENDBRANCH  37  38
ENDBRANCH  36  37
ENDBRANCH  35  36
ENDBRANCH  34  35
ENDBRANCH  33  34
ENDBRANCH  32  33
ENDBRANCH   1  32
TORSDOF 23
ENDMDL
MODEL 3
REMARK VINA RESULT:      -9.7      2.738      9.751
REMARK SMILES COc1ccc(CCN2/C(=[NH+]/C(=O)CCC(=O)OCCOCCOCCOC(=O)c3ccc(-c4c5nc(c(-c6ccccc6)c6ccc([nH]6)c(-c6ccccc6)c6nc(c(-c7ccccc7)c7ccc4[nH]7)C=C6)C=C5)cc3)S[C@@H]3CS(=O)(=O)C[C@@H]32)cc1
REMARK SMILES IDX 20 1 19 2 18 3 16 4 17 5 15 6 14 7 12 8 9 9 10 10 85 11
REMARK SMILES IDX 11 12 78 13 79 14 84 15 80 17 81 18 13 19 82 20 83 21 8 22
REMARK SMILES IDX 7 23 6 24 3 25 4 26 87 27 5 28 86 29 2 30 1 31 21 32 22 33
REMARK SMILES IDX 23 34 24 35 25 36 26 37 27 38 28 39 29 40 30 41 31 42 77 43
REMARK SMILES IDX 32 44 76 45 33 46 34 47 35 48 70 49 36 50 75 51 69 52 71 53
REMARK SMILES IDX 37 54 74 55 68 56 67 57 38 59 60 60 45 61 59 62 46 63 49 64
REMARK SMILES IDX 58 65 72 66 47 67 48 68 57 70 73 71 50 72 39 73 40 74 44 75
REMARK SMILES IDX 41 76 43 77 42 78 61 79 62 80 66 81 63 82 65 83 64 84 51 85
REMARK SMILES IDX 52 86 56 87 53 88 55 89 54 90
REMARK H PARENT 11 16 71 58 49 69
REMARK Flexibility Score: inf
ROOT
ATOM      1  C   UNL A   1      33.301  30.425  27.237  1.00  0.00     0.202 C 
ENDROOT
BRANCH   1   2
ATOM      2  C   UNL A   1      32.080  30.348  26.338  1.00  0.00     0.261 C 
BRANCH   2   3
ATOM      3  O   UNL A   1      32.140  29.385  25.279  1.00  0.00    -0.463 OA
BRANCH   3   4
ATOM      4  C   UNL A   1      31.199  29.388  24.319  1.00  0.00     0.306 C 
ATOM      5  O   UNL A   1      30.278  30.190  24.254  1.00  0.00    -0.252 OA
BRANCH   4   6
ATOM      6  C   UNL A   1      31.484  28.335  23.267  1.00  0.00     0.135 C 
BRANCH   6   7
ATOM      7  C   UNL A   1      32.833  27.621  23.374  1.00  0.00     0.139 C 
BRANCH   7   8
ATOM      8  C   UNL A   1      32.707  26.214  23.912  1.00  0.00     0.308 C 
ATOM      9  N   UNL A   1      34.819  23.264  24.012  1.00  0.00    -0.251 N 
ATOM     10  C   UNL A   1      33.845  24.216  23.710  1.00  0.00     0.314 C 
ATOM     11  C   UNL A   1      34.400  21.854  23.877  1.00  0.00     0.206 C 
ATOM     12  N   UNL A   1      33.872  25.477  23.986  1.00  0.00    -0.205 N 
ATOM     13  S   UNL A   1      32.473  23.388  22.945  1.00  0.00    -0.030 SA
ATOM     14  C   UNL A   1      32.864  21.863  23.821  1.00  0.00     0.120 C 
ATOM     15  C   UNL A   1      34.830  20.957  25.044  1.00  0.00     0.187 C 
ATOM     16  H   UNL A   1      34.718  25.910  24.246  1.00  0.00     0.316 HD
ATOM     17  C   UNL A   1      32.369  21.906  25.259  1.00  0.00     0.156 C 
ATOM     18  S   UNL A   1      33.370  20.656  26.016  1.00  0.00     0.155 S 
ATOM     19  O   UNL A   1      31.629  25.855  24.383  1.00  0.00    -0.247 OA
ATOM     20  O   UNL A   1      33.616  20.988  27.402  1.00  0.00    -0.229 OA
ATOM     21  O   UNL A   1      32.839  19.368  25.624  1.00  0.00    -0.229 OA
BRANCH   9  22
ATOM     22  C   UNL A   1      36.250  23.533  24.147  1.00  0.00     0.242 C 
BRANCH  22  23
ATOM     23  C   UNL A   1      36.742  23.754  25.577  1.00  0.00     0.081 C 
BRANCH  23  24
ATOM     24  C   UNL A   1      38.091  23.273  26.018  1.00  0.00    -0.044 A 
ATOM     25  C   UNL A   1      40.518  22.212  26.927  1.00  0.00     0.118 A 
ATOM     26  C   UNL A   1      39.642  21.419  26.196  1.00  0.00     0.046 A 
ATOM     27  C   UNL A   1      40.171  23.529  27.234  1.00  0.00     0.046 A 
ATOM     28  C   UNL A   1      38.433  21.941  25.761  1.00  0.00     0.007 A 
ATOM     29  C   UNL A   1      38.958  24.061  26.780  1.00  0.00     0.007 A 
BRANCH  25  30
ATOM     30  O   UNL A   1      41.728  21.639  27.196  1.00  0.00    -0.497 OA
ATOM     31  C   UNL A   1      42.732  22.522  27.667  1.00  0.00     0.278 C 
ENDBRANCH  25  30
ENDBRANCH  23  24
ENDBRANCH  22  23
ENDBRANCH   9  22
ENDBRANCH   7   8
ENDBRANCH   6   7
ENDBRANCH   4   6
ENDBRANCH   3   4
ENDBRANCH   2   3
ENDBRANCH   1   2
BRANCH   1  32
ATOM     32  O   UNL A   1      33.611  31.764  27.633  1.00  0.00    -0.376 OA
BRANCH  32  33
ATOM     33  C   UNL A   1      34.886  31.872  28.246  1.00  0.00     0.188 C 
BRANCH  33  34
ATOM     34  C   UNL A   1      35.628  33.201  28.001  1.00  0.00     0.188 C 
BRANCH  34  35
ATOM     35  O   UNL A   1      35.388  34.348  28.800  1.00  0.00    -0.376 OA
BRANCH  35  36
ATOM     36  C   UNL A   1      34.406  35.282  28.363  1.00  0.00     0.202 C 
BRANCH  36  37
ATOM     37  C   UNL A   1      33.106  35.474  29.163  1.00  0.00     0.261 C 
BRANCH  37  38
ATOM     38  O   UNL A   1      32.964  34.578  30.277  1.00  0.00    -0.460 OA
BRANCH  38  39
ATOM     39  C   UNL A   1      33.101  35.142  31.507  1.00  0.00     0.338 C 
ATOM     40  O   UNL A   1      32.286  35.817  32.109  1.00  0.00    -0.246 OA
BRANCH  39  41
ATOM     41  C   UNL A   1      34.291  34.539  32.148  1.00  0.00     0.060 A 
ATOM     42  C   UNL A   1      35.448  35.331  32.269  1.00  0.00     0.016 A 
ATOM     43  C   UNL A   1      34.240  33.268  32.715  1.00  0.00     0.016 A 
ATOM     44  C   UNL A   1      36.547  34.865  32.981  1.00  0.00     0.010 A 
ATOM     45  C   UNL A   1      35.369  32.770  33.369  1.00  0.00     0.010 A 
ATOM     46  C   UNL A   1      36.529  33.560  33.485  1.00  0.00    -0.014 A 
BRANCH  46  47
ATOM     47  C   UNL A   1      37.813  32.926  33.848  1.00  0.00     0.031 A 
ATOM     48  C   UNL A   1      38.366  31.915  32.884  1.00  0.00     0.074 A 
ATOM     49  C   UNL A   1      38.483  33.251  34.966  1.00  0.00     0.049 A 
ATOM     50  N   UNL A   1      39.435  31.169  32.983  1.00  0.00    -0.248 NA
ATOM     51  C   UNL A   1      37.605  31.719  31.637  1.00  0.00     0.031 C 
ATOM     52  C   UNL A   1      38.081  34.265  35.938  1.00  0.00     0.029 A 
ATOM     53  N   UNL A   1      39.652  32.741  35.470  1.00  0.00    -0.354 N 
ATOM     54  C   UNL A   1      39.470  30.419  31.815  1.00  0.00     0.074 A 
ATOM     55  C   UNL A   1      38.306  30.772  31.037  1.00  0.00     0.031 C 
ATOM     56  C   UNL A   1      38.982  34.286  36.938  1.00  0.00     0.029 A 
ATOM     57  C   UNL A   1      39.999  33.266  36.691  1.00  0.00     0.049 A 
ATOM     58  H   UNL A   1      40.191  32.064  35.001  1.00  0.00     0.167 HD
ATOM     59  C   UNL A   1      40.396  29.516  31.421  1.00  0.00     0.031 A 
ATOM     60  C   UNL A   1      41.007  32.931  37.520  1.00  0.00     0.031 A 
ATOM     61  C   UNL A   1      41.531  29.140  32.213  1.00  0.00     0.049 A 
ATOM     62  C   UNL A   1      41.967  31.844  37.108  1.00  0.00     0.074 A 
ATOM     63  C   UNL A   1      42.518  28.216  31.919  1.00  0.00     0.029 A 
ATOM     64  N   UNL A   1      41.825  29.663  33.461  1.00  0.00    -0.354 N 
ATOM     65  N   UNL A   1      41.999  31.141  35.999  1.00  0.00    -0.248 NA
ATOM     66  C   UNL A   1      43.038  31.509  38.058  1.00  0.00     0.031 C 
ATOM     67  C   UNL A   1      43.379  28.141  33.018  1.00  0.00     0.029 A 
ATOM     68  C   UNL A   1      42.968  29.068  33.963  1.00  0.00     0.049 A 
ATOM     69  H   UNL A   1      41.299  30.355  33.924  1.00  0.00     0.167 HD
ATOM     70  C   UNL A   1      43.107  30.308  36.107  1.00  0.00     0.074 A 
ATOM     71  C   UNL A   1      43.730  30.604  37.380  1.00  0.00     0.031 C 
ATOM     72  C   UNL A   1      43.573  29.382  35.231  1.00  0.00     0.031 A 
BRANCH  59  73
ATOM     73  C   UNL A   1      40.181  28.851  30.092  1.00  0.00    -0.014 A 
ATOM     74  C   UNL A   1      40.729  29.384  28.914  1.00  0.00     0.009 A 
ATOM     75  C   UNL A   1      39.430  27.669  30.019  1.00  0.00     0.009 A 
ATOM     76  C   UNL A   1      40.503  28.762  27.686  1.00  0.00     0.001 A 
ATOM     77  C   UNL A   1      39.231  27.031  28.794  1.00  0.00     0.001 A 
ATOM     78  C   UNL A   1      39.760  27.582  27.627  1.00  0.00     0.000 A 
ENDBRANCH  59  73
BRANCH  60  79
ATOM     79  C   UNL A   1      41.145  33.598  38.844  1.00  0.00    -0.014 A 
ATOM     80  C   UNL A   1      41.953  34.734  39.001  1.00  0.00     0.009 A 
ATOM     81  C   UNL A   1      40.496  33.071  39.972  1.00  0.00     0.009 A 
ATOM     82  C   UNL A   1      42.134  35.307  40.262  1.00  0.00     0.001 A 
ATOM     83  C   UNL A   1      40.652  33.665  41.226  1.00  0.00     0.001 A 
ATOM     84  C   UNL A   1      41.480  34.775  41.373  1.00  0.00     0.000 A 
ENDBRANCH  60  79
BRANCH  72  85
ATOM     85  C   UNL A   1      44.840  28.658  35.595  1.00  0.00    -0.014 A 
ATOM     86  C   UNL A   1      46.098  29.132  35.194  1.00  0.00     0.009 A 
ATOM     87  C   UNL A   1      44.771  27.512  36.403  1.00  0.00     0.009 A 
ATOM     88  C   UNL A   1      47.259  28.451  35.565  1.00  0.00     0.001 A 
ATOM     89  C   UNL A   1      45.935  26.852  36.801  1.00  0.00     0.001 A 
ATOM     90  C   UNL A   1      47.177  27.316  36.373  1.00  0.00     0.000 A 
ENDBRANCH  72  85
ENDBRANCH  46  47
ENDBRANCH  39  41
ENDBRANCH  38  39
ENDBRANCH  37  38
ENDBRANCH  36  37
ENDBRANCH  35  36
ENDBRANCH  34  35
ENDBRANCH  33  34
ENDBRANCH  32  33
ENDBRANCH   1  32
TORSDOF 23
ENDMDL
