MODEL 1
REMARK VINA RESULT:     -10.5      0.000      0.000
REMARK SMILES CS(=O)(=O)c1ccc(NS(=O)(=O)c2ccc(F)c(C(=O)OCCOCCOCCOC(=O)c3ccc(-c4c5nc(c(-c6ccccc6)c6ccc([nH]6)c(-c6ccccc6)c6nc(c(-c7ccccc7)c7ccc4[nH]7)C=C6)C=C5)cc3)c2)cc1
REMARK SMILES IDX 25 1 24 2 23 3 22 4 21 5 19 6 20 7 18 8 13 9 14 10 81 11
REMARK SMILES IDX 15 12 16 13 17 14 10 15 11 16 12 17 9 18 8 20 5 21 6 22
REMARK SMILES IDX 83 23 7 24 82 25 2 26 1 27 3 28 4 29 26 30 27 31 28 32 29 33
REMARK SMILES IDX 30 34 31 35 32 36 33 37 34 38 80 39 35 40 79 41 36 42 37 43
REMARK SMILES IDX 38 44 73 45 39 46 78 47 72 48 74 49 40 50 77 51 71 52 70 53
REMARK SMILES IDX 41 55 63 56 48 57 62 58 49 59 52 60 61 61 75 62 50 63 51 64
REMARK SMILES IDX 60 66 76 67 53 68 42 69 43 70 47 71 44 72 46 73 45 74 64 75
REMARK SMILES IDX 65 76 69 77 66 78 68 79 67 80 54 81 55 82 59 83 56 84 58 85
REMARK SMILES IDX 57 86
REMARK H PARENT 9 19 74 54 52 65
REMARK Flexibility Score: inf
ROOT
ATOM      1  C   UNL A   1      39.263  22.108  26.496  1.00  0.00     0.188 C 
ENDROOT
BRANCH   1   2
ATOM      2  O   UNL A   1      38.286  22.684  25.662  1.00  0.00    -0.376 OA
BRANCH   2   3
ATOM      3  C   UNL A   1      37.395  21.853  24.937  1.00  0.00     0.202 C 
BRANCH   3   4
ATOM      4  C   UNL A   1      36.140  21.173  25.527  1.00  0.00     0.261 C 
BRANCH   4   5
ATOM      5  O   UNL A   1      35.073  20.850  24.627  1.00  0.00    -0.460 OA
BRANCH   5   6
ATOM      6  C   UNL A   1      33.832  20.847  25.163  1.00  0.00     0.341 C 
ATOM      7  O   UNL A   1      33.409  20.065  26.000  1.00  0.00    -0.246 OA
BRANCH   6   8
ATOM      8  C   UNL A   1      33.039  21.992  24.665  1.00  0.00     0.097 A 
ATOM      9  C   UNL A   1      32.391  24.334  24.643  1.00  0.00     0.088 A 
ATOM     10  C   UNL A   1      31.854  24.158  23.364  1.00  0.00     0.025 A 
ATOM     11  C   UNL A   1      33.015  23.250  25.294  1.00  0.00     0.041 A 
ATOM     12  C   UNL A   1      31.768  22.884  22.808  1.00  0.00     0.041 A 
ATOM     13  C   UNL A   1      32.356  21.810  23.461  1.00  0.00     0.137 A 
ATOM     14  F   UNL A   1      32.243  20.594  22.910  1.00  0.00    -0.206 F 
BRANCH   9  15
ATOM     15  S   UNL A   1      32.453  25.968  25.360  1.00  0.00     0.261 S 
ATOM     16  O   UNL A   1      33.682  26.041  26.120  1.00  0.00    -0.201 OA
ATOM     17  O   UNL A   1      31.177  26.198  26.007  1.00  0.00    -0.201 OA
BRANCH  15  18
ATOM     18  N   UNL A   1      32.553  27.164  24.145  1.00  0.00    -0.280 N 
ATOM     19  H   UNL A   1      33.371  27.226  23.601  1.00  0.00     0.180 HD
BRANCH  18  20
ATOM     20  C   UNL A   1      31.482  28.080  23.898  1.00  0.00     0.049 A 
ATOM     21  C   UNL A   1      29.386  29.836  23.308  1.00  0.00     0.067 A 
ATOM     22  C   UNL A   1      29.432  28.571  22.711  1.00  0.00     0.022 A 
ATOM     23  C   UNL A   1      30.367  30.214  24.229  1.00  0.00     0.022 A 
ATOM     24  C   UNL A   1      30.464  27.688  23.029  1.00  0.00     0.028 A 
ATOM     25  C   UNL A   1      31.428  29.339  24.510  1.00  0.00     0.028 A 
BRANCH  21  26
ATOM     26  S   UNL A   1      28.067  30.932  22.829  1.00  0.00     0.175 S 
ATOM     27  C   UNL A   1      28.687  32.583  22.988  1.00  0.00     0.163 C 
ATOM     28  O   UNL A   1      27.006  30.747  23.797  1.00  0.00    -0.224 OA
ATOM     29  O   UNL A   1      27.847  30.707  21.412  1.00  0.00    -0.224 OA
ENDBRANCH  21  26
ENDBRANCH  18  20
ENDBRANCH  15  18
ENDBRANCH   9  15
ENDBRANCH   6   8
ENDBRANCH   5   6
ENDBRANCH   4   5
ENDBRANCH   3   4
ENDBRANCH   2   3
ENDBRANCH   1   2
BRANCH   1  30
ATOM     30  C   UNL A   1      40.075  20.973  25.835  1.00  0.00     0.188 C 
BRANCH  30  31
ATOM     31  O   UNL A   1      41.085  20.289  26.563  1.00  0.00    -0.376 OA
BRANCH  31  32
ATOM     32  C   UNL A   1      42.447  20.664  26.402  1.00  0.00     0.202 C 
BRANCH  32  33
ATOM     33  C   UNL A   1      42.838  21.905  25.582  1.00  0.00     0.261 C 
BRANCH  33  34
ATOM     34  O   UNL A   1      43.909  22.695  26.118  1.00  0.00    -0.460 OA
BRANCH  34  35
ATOM     35  C   UNL A   1      44.017  23.944  25.602  1.00  0.00     0.338 C 
ATOM     36  O   UNL A   1      44.501  24.270  24.532  1.00  0.00    -0.246 OA
BRANCH  35  37
ATOM     37  C   UNL A   1      43.289  24.892  26.464  1.00  0.00     0.060 A 
ATOM     38  C   UNL A   1      43.704  26.231  26.476  1.00  0.00     0.016 A 
ATOM     39  C   UNL A   1      42.257  24.457  27.295  1.00  0.00     0.016 A 
ATOM     40  C   UNL A   1      43.097  27.141  27.339  1.00  0.00     0.010 A 
ATOM     41  C   UNL A   1      41.667  25.365  28.179  1.00  0.00     0.010 A 
ATOM     42  C   UNL A   1      42.104  26.702  28.222  1.00  0.00    -0.014 A 
BRANCH  42  43
ATOM     43  C   UNL A   1      41.643  27.596  29.308  1.00  0.00     0.031 A 
ATOM     44  C   UNL A   1      42.364  27.562  30.626  1.00  0.00     0.074 A 
ATOM     45  C   UNL A   1      40.608  28.434  29.125  1.00  0.00     0.049 A 
ATOM     46  N   UNL A   1      42.107  28.217  31.730  1.00  0.00    -0.248 NA
ATOM     47  C   UNL A   1      43.530  26.669  30.710  1.00  0.00     0.031 C 
ATOM     48  C   UNL A   1      39.859  28.598  27.880  1.00  0.00     0.029 A 
ATOM     49  N   UNL A   1      40.006  29.302  30.000  1.00  0.00    -0.354 N 
ATOM     50  C   UNL A   1      43.074  27.809  32.640  1.00  0.00     0.074 A 
ATOM     51  C   UNL A   1      43.905  26.833  31.970  1.00  0.00     0.031 C 
ATOM     52  C   UNL A   1      38.885  29.504  28.076  1.00  0.00     0.029 A 
ATOM     53  C   UNL A   1      38.924  29.957  29.466  1.00  0.00     0.049 A 
ATOM     54  H   UNL A   1      40.318  29.441  30.923  1.00  0.00     0.167 HD
ATOM     55  C   UNL A   1      43.256  28.212  33.920  1.00  0.00     0.031 A 
ATOM     56  C   UNL A   1      38.052  30.808  30.042  1.00  0.00     0.031 A 
ATOM     57  C   UNL A   1      42.418  29.166  34.595  1.00  0.00     0.049 A 
ATOM     58  C   UNL A   1      38.222  31.173  31.493  1.00  0.00     0.074 A 
ATOM     59  C   UNL A   1      42.525  29.646  35.888  1.00  0.00     0.029 A 
ATOM     60  N   UNL A   1      41.309  29.778  34.031  1.00  0.00    -0.354 N 
ATOM     61  N   UNL A   1      39.151  30.799  32.338  1.00  0.00    -0.248 NA
ATOM     62  C   UNL A   1      37.221  32.085  32.066  1.00  0.00     0.031 C 
ATOM     63  C   UNL A   1      41.448  30.505  36.126  1.00  0.00     0.029 A 
ATOM     64  C   UNL A   1      40.705  30.608  34.960  1.00  0.00     0.049 A 
ATOM     65  H   UNL A   1      40.997  29.642  33.107  1.00  0.00     0.167 HD
ATOM     66  C   UNL A   1      38.866  31.453  33.531  1.00  0.00     0.074 A 
ATOM     67  C   UNL A   1      37.683  32.254  33.297  1.00  0.00     0.031 C 
ATOM     68  C   UNL A   1      39.528  31.400  34.713  1.00  0.00     0.031 A 
BRANCH  55  69
ATOM     69  C   UNL A   1      44.385  27.583  34.684  1.00  0.00    -0.014 A 
ATOM     70  C   UNL A   1      44.196  26.413  35.435  1.00  0.00     0.009 A 
ATOM     71  C   UNL A   1      45.663  28.161  34.635  1.00  0.00     0.009 A 
ATOM     72  C   UNL A   1      45.257  25.854  36.151  1.00  0.00     0.001 A 
ATOM     73  C   UNL A   1      46.728  27.585  35.328  1.00  0.00     0.001 A 
ATOM     74  C   UNL A   1      46.522  26.438  36.094  1.00  0.00     0.000 A 
ENDBRANCH  55  69
BRANCH  56  75
ATOM     75  C   UNL A   1      36.921  31.358  29.252  1.00  0.00    -0.014 A 
ATOM     76  C   UNL A   1      36.993  32.645  28.700  1.00  0.00     0.009 A 
ATOM     77  C   UNL A   1      35.751  30.604  29.066  1.00  0.00     0.009 A 
ATOM     78  C   UNL A   1      35.908  33.175  27.996  1.00  0.00     0.001 A 
ATOM     79  C   UNL A   1      34.680  31.126  28.338  1.00  0.00     0.001 A 
ATOM     80  C   UNL A   1      34.755  32.414  27.812  1.00  0.00     0.000 A 
ENDBRANCH  56  75
BRANCH  68  81
ATOM     81  C   UNL A   1      39.014  32.260  35.834  1.00  0.00    -0.014 A 
ATOM     82  C   UNL A   1      38.110  31.761  36.784  1.00  0.00     0.009 A 
ATOM     83  C   UNL A   1      39.484  33.576  35.967  1.00  0.00     0.009 A 
ATOM     84  C   UNL A   1      37.664  32.575  37.827  1.00  0.00     0.001 A 
ATOM     85  C   UNL A   1      39.058  34.377  37.028  1.00  0.00     0.001 A 
ATOM     86  C   UNL A   1      38.142  33.879  37.951  1.00  0.00     0.000 A 
ENDBRANCH  68  81
ENDBRANCH  42  43
ENDBRANCH  35  37
ENDBRANCH  34  35
ENDBRANCH  33  34
ENDBRANCH  32  33
ENDBRANCH  31  32
ENDBRANCH  30  31
ENDBRANCH   1  30
TORSDOF 21
ENDMDL
MODEL 2
REMARK VINA RESULT:     -10.5      5.742     12.274
REMARK SMILES CS(=O)(=O)c1ccc(NS(=O)(=O)c2ccc(F)c(C(=O)OCCOCCOCCOC(=O)c3ccc(-c4c5nc(c(-c6ccccc6)c6ccc([nH]6)c(-c6ccccc6)c6nc(c(-c7ccccc7)c7ccc4[nH]7)C=C6)C=C5)cc3)c2)cc1
REMARK SMILES IDX 25 1 24 2 23 3 22 4 21 5 19 6 20 7 18 8 13 9 14 10 81 11
REMARK SMILES IDX 15 12 16 13 17 14 10 15 11 16 12 17 9 18 8 20 5 21 6 22
REMARK SMILES IDX 83 23 7 24 82 25 2 26 1 27 3 28 4 29 26 30 27 31 28 32 29 33
REMARK SMILES IDX 30 34 31 35 32 36 33 37 34 38 80 39 35 40 79 41 36 42 37 43
REMARK SMILES IDX 38 44 73 45 39 46 78 47 72 48 74 49 40 50 77 51 71 52 70 53
REMARK SMILES IDX 41 55 63 56 48 57 62 58 49 59 52 60 61 61 75 62 50 63 51 64
REMARK SMILES IDX 60 66 76 67 53 68 42 69 43 70 47 71 44 72 46 73 45 74 64 75
REMARK SMILES IDX 65 76 69 77 66 78 68 79 67 80 54 81 55 82 59 83 56 84 58 85
REMARK SMILES IDX 57 86
REMARK H PARENT 9 19 74 54 52 65
REMARK Flexibility Score: inf
ROOT
ATOM      1  C   UNL A   1      33.236  37.215  30.162  1.00  0.00     0.188 C 
ENDROOT
BRANCH   1   2
ATOM      2  O   UNL A   1      32.388  36.719  31.169  1.00  0.00    -0.376 OA
BRANCH   2   3
ATOM      3  C   UNL A   1      32.909  35.873  32.182  1.00  0.00     0.202 C 
BRANCH   3   4
ATOM      4  C   UNL A   1      34.068  36.242  33.133  1.00  0.00     0.261 C 
BRANCH   4   5
ATOM      5  O   UNL A   1      34.606  35.203  33.960  1.00  0.00    -0.460 OA
BRANCH   5   6
ATOM      6  C   UNL A   1      34.471  33.944  33.485  1.00  0.00     0.341 C 
ATOM      7  O   UNL A   1      33.418  33.361  33.275  1.00  0.00    -0.246 OA
BRANCH   6   8
ATOM      8  C   UNL A   1      35.789  33.359  33.157  1.00  0.00     0.097 A 
ATOM      9  C   UNL A   1      37.640  31.832  33.541  1.00  0.00     0.088 A 
ATOM     10  C   UNL A   1      38.038  32.004  32.212  1.00  0.00     0.025 A 
ATOM     11  C   UNL A   1      36.489  32.493  34.016  1.00  0.00     0.041 A 
ATOM     12  C   UNL A   1      37.418  32.960  31.411  1.00  0.00     0.041 A 
ATOM     13  C   UNL A   1      36.302  33.634  31.888  1.00  0.00     0.137 A 
ATOM     14  F   UNL A   1      35.736  34.560  31.101  1.00  0.00    -0.206 F 
BRANCH   9  15
ATOM     15  S   UNL A   1      38.475  30.634  34.567  1.00  0.00     0.261 S 
ATOM     16  O   UNL A   1      38.199  29.334  33.995  1.00  0.00    -0.201 OA
ATOM     17  O   UNL A   1      38.112  30.922  35.940  1.00  0.00    -0.201 OA
BRANCH  15  18
ATOM     18  N   UNL A   1      40.168  30.850  34.504  1.00  0.00    -0.280 N 
ATOM     19  H   UNL A   1      40.531  31.760  34.415  1.00  0.00     0.180 HD
BRANCH  18  20
ATOM     20  C   UNL A   1      41.073  29.743  34.574  1.00  0.00     0.049 A 
ATOM     21  C   UNL A   1      42.782  27.531  34.633  1.00  0.00     0.067 A 
ATOM     22  C   UNL A   1      42.240  27.967  33.418  1.00  0.00     0.022 A 
ATOM     23  C   UNL A   1      42.502  28.219  35.816  1.00  0.00     0.022 A 
ATOM     24  C   UNL A   1      41.410  29.088  33.390  1.00  0.00     0.028 A 
ATOM     25  C   UNL A   1      41.629  29.319  35.787  1.00  0.00     0.028 A 
BRANCH  21  26
ATOM     26  S   UNL A   1      43.800  26.070  34.609  1.00  0.00     0.175 S 
ATOM     27  C   UNL A   1      44.279  25.804  32.925  1.00  0.00     0.163 C 
ATOM     28  O   UNL A   1      42.953  24.970  35.022  1.00  0.00    -0.224 OA
ATOM     29  O   UNL A   1      45.011  26.407  35.336  1.00  0.00    -0.224 OA
ENDBRANCH  21  26
ENDBRANCH  18  20
ENDBRANCH  15  18
ENDBRANCH   9  15
ENDBRANCH   6   8
ENDBRANCH   5   6
ENDBRANCH   4   5
ENDBRANCH   3   4
ENDBRANCH   2   3
ENDBRANCH   1   2
BRANCH   1  30
ATOM     30  C   UNL A   1      33.506  36.223  29.011  1.00  0.00     0.188 C 
BRANCH  30  31
ATOM     31  O   UNL A   1      32.717  35.050  28.868  1.00  0.00    -0.376 OA
BRANCH  31  32
ATOM     32  C   UNL A   1      33.248  33.921  28.185  1.00  0.00     0.202 C 
BRANCH  32  33
ATOM     33  C   UNL A   1      34.693  33.452  28.430  1.00  0.00     0.261 C 
BRANCH  33  34
ATOM     34  O   UNL A   1      34.835  32.204  29.124  1.00  0.00    -0.460 OA
BRANCH  34  35
ATOM     35  C   UNL A   1      34.761  31.100  28.342  1.00  0.00     0.338 C 
ATOM     36  O   UNL A   1      33.881  30.800  27.554  1.00  0.00    -0.246 OA
BRANCH  35  37
ATOM     37  C   UNL A   1      36.023  30.346  28.443  1.00  0.00     0.060 A 
ATOM     38  C   UNL A   1      36.353  29.764  29.675  1.00  0.00     0.016 A 
ATOM     39  C   UNL A   1      36.900  30.268  27.361  1.00  0.00     0.016 A 
ATOM     40  C   UNL A   1      37.575  29.116  29.835  1.00  0.00     0.010 A 
ATOM     41  C   UNL A   1      38.137  29.641  27.531  1.00  0.00     0.010 A 
ATOM     42  C   UNL A   1      38.489  29.087  28.775  1.00  0.00    -0.014 A 
BRANCH  42  43
ATOM     43  C   UNL A   1      39.876  28.632  29.017  1.00  0.00     0.031 A 
ATOM     44  C   UNL A   1      40.849  29.587  29.652  1.00  0.00     0.074 A 
ATOM     45  C   UNL A   1      40.266  27.388  28.690  1.00  0.00     0.049 A 
ATOM     46  N   UNL A   1      42.121  29.424  29.912  1.00  0.00    -0.248 NA
ATOM     47  C   UNL A   1      40.314  30.900  30.044  1.00  0.00     0.031 C 
ATOM     48  C   UNL A   1      39.408  26.353  28.117  1.00  0.00     0.029 A 
ATOM     49  N   UNL A   1      41.496  26.791  28.791  1.00  0.00    -0.354 N 
ATOM     50  C   UNL A   1      42.539  30.616  30.491  1.00  0.00     0.074 A 
ATOM     51  C   UNL A   1      41.394  31.500  30.520  1.00  0.00     0.031 C 
ATOM     52  C   UNL A   1      40.143  25.249  27.903  1.00  0.00     0.029 A 
ATOM     53  C   UNL A   1      41.528  25.512  28.294  1.00  0.00     0.049 A 
ATOM     54  H   UNL A   1      42.283  27.237  29.181  1.00  0.00     0.167 HD
ATOM     55  C   UNL A   1      43.766  30.945  30.959  1.00  0.00     0.031 A 
ATOM     56  C   UNL A   1      42.561  24.659  28.151  1.00  0.00     0.031 A 
ATOM     57  C   UNL A   1      44.910  30.076  30.912  1.00  0.00     0.049 A 
ATOM     58  C   UNL A   1      43.936  25.081  28.598  1.00  0.00     0.074 A 
ATOM     59  C   UNL A   1      46.195  30.315  31.368  1.00  0.00     0.029 A 
ATOM     60  N   UNL A   1      44.909  28.802  30.365  1.00  0.00    -0.354 N 
ATOM     61  N   UNL A   1      44.316  26.201  29.163  1.00  0.00    -0.248 NA
ATOM     62  C   UNL A   1      45.024  24.114  28.390  1.00  0.00     0.031 C 
ATOM     63  C   UNL A   1      46.985  29.207  31.047  1.00  0.00     0.029 A 
ATOM     64  C   UNL A   1      46.178  28.254  30.446  1.00  0.00     0.049 A 
ATOM     65  H   UNL A   1      44.123  28.353  29.978  1.00  0.00     0.167 HD
ATOM     66  C   UNL A   1      45.678  26.061  29.406  1.00  0.00     0.074 A 
ATOM     67  C   UNL A   1      46.055  24.744  28.935  1.00  0.00     0.031 C 
ATOM     68  C   UNL A   1      46.538  26.942  29.974  1.00  0.00     0.031 A 
BRANCH  55  69
ATOM     69  C   UNL A   1      43.937  32.327  31.524  1.00  0.00    -0.014 A 
ATOM     70  C   UNL A   1      43.828  32.571  32.901  1.00  0.00     0.009 A 
ATOM     71  C   UNL A   1      44.231  33.396  30.663  1.00  0.00     0.009 A 
ATOM     72  C   UNL A   1      43.975  33.867  33.402  1.00  0.00     0.001 A 
ATOM     73  C   UNL A   1      44.405  34.685  31.170  1.00  0.00     0.001 A 
ATOM     74  C   UNL A   1      44.267  34.921  32.537  1.00  0.00     0.000 A 
ENDBRANCH  55  69
BRANCH  56  75
ATOM     75  C   UNL A   1      42.344  23.325  27.536  1.00  0.00    -0.014 A 
ATOM     76  C   UNL A   1      42.381  23.166  26.142  1.00  0.00     0.009 A 
ATOM     77  C   UNL A   1      42.076  22.206  28.340  1.00  0.00     0.009 A 
ATOM     78  C   UNL A   1      42.132  21.917  25.567  1.00  0.00     0.001 A 
ATOM     79  C   UNL A   1      41.855  20.954  27.762  1.00  0.00     0.001 A 
ATOM     80  C   UNL A   1      41.874  20.812  26.376  1.00  0.00     0.000 A 
ENDBRANCH  56  75
BRANCH  68  81
ATOM     81  C   UNL A   1      47.963  26.499  30.155  1.00  0.00    -0.014 A 
ATOM     82  C   UNL A   1      48.396  25.891  31.343  1.00  0.00     0.009 A 
ATOM     83  C   UNL A   1      48.874  26.649  29.096  1.00  0.00     0.009 A 
ATOM     84  C   UNL A   1      49.721  25.470  31.478  1.00  0.00     0.001 A 
ATOM     85  C   UNL A   1      50.190  26.202  29.225  1.00  0.00     0.001 A 
ATOM     86  C   UNL A   1      50.614  25.621  30.418  1.00  0.00     0.000 A 
ENDBRANCH  68  81
ENDBRANCH  42  43
ENDBRANCH  35  37
ENDBRANCH  34  35
ENDBRANCH  33  34
ENDBRANCH  32  33
ENDBRANCH  31  32
ENDBRANCH  30  31
ENDBRANCH   1  30
TORSDOF 21
ENDMDL
MODEL 3
REMARK VINA RESULT:     -10.1      3.238     10.043
REMARK SMILES CS(=O)(=O)c1ccc(NS(=O)(=O)c2ccc(F)c(C(=O)OCCOCCOCCOC(=O)c3ccc(-c4c5nc(c(-c6ccccc6)c6ccc([nH]6)c(-c6ccccc6)c6nc(c(-c7ccccc7)c7ccc4[nH]7)C=C6)C=C5)cc3)c2)cc1
REMARK SMILES IDX 25 1 24 2 23 3 22 4 21 5 19 6 20 7 18 8 13 9 14 10 81 11
REMARK SMILES IDX 15 12 16 13 17 14 10 15 11 16 12 17 9 18 8 20 5 21 6 22
REMARK SMILES IDX 83 23 7 24 82 25 2 26 1 27 3 28 4 29 26 30 27 31 28 32 29 33
REMARK SMILES IDX 30 34 31 35 32 36 33 37 34 38 80 39 35 40 79 41 36 42 37 43
REMARK SMILES IDX 38 44 73 45 39 46 78 47 72 48 74 49 40 50 77 51 71 52 70 53
REMARK SMILES IDX 41 55 63 56 48 57 62 58 49 59 52 60 61 61 75 62 50 63 51 64
REMARK SMILES IDX 60 66 76 67 53 68 42 69 43 70 47 71 44 72 46 73 45 74 64 75
REMARK SMILES IDX 65 76 69 77 66 78 68 79 67 80 54 81 55 82 59 83 56 84 58 85
REMARK SMILES IDX 57 86
REMARK H PARENT 9 19 74 54 52 65
REMARK Flexibility Score: inf
ROOT
ATOM      1  C   UNL A   1      35.039  32.369  28.015  1.00  0.00     0.188 C 
ENDROOT
BRANCH   1   2
ATOM      2  O   UNL A   1      34.733  30.997  27.952  1.00  0.00    -0.376 OA
BRANCH   2   3
ATOM      3  C   UNL A   1      33.584  30.559  27.246  1.00  0.00     0.202 C 
BRANCH   3   4
ATOM      4  C   UNL A   1      33.033  29.117  27.258  1.00  0.00     0.261 C 
BRANCH   4   5
ATOM      5  O   UNL A   1      33.779  28.113  26.558  1.00  0.00    -0.460 OA
BRANCH   5   6
ATOM      6  C   UNL A   1      33.296  27.760  25.345  1.00  0.00     0.341 C 
ATOM      7  O   UNL A   1      33.307  28.447  24.336  1.00  0.00    -0.246 OA
BRANCH   6   8
ATOM      8  C   UNL A   1      32.810  26.363  25.358  1.00  0.00     0.097 A 
ATOM      9  C   UNL A   1      33.112  23.961  25.154  1.00  0.00     0.088 A 
ATOM     10  C   UNL A   1      31.917  23.766  25.855  1.00  0.00     0.025 A 
ATOM     11  C   UNL A   1      33.581  25.270  24.924  1.00  0.00     0.041 A 
ATOM     12  C   UNL A   1      31.100  24.850  26.164  1.00  0.00     0.041 A 
ATOM     13  C   UNL A   1      31.548  26.140  25.911  1.00  0.00     0.137 A 
ATOM     14  F   UNL A   1      30.733  27.163  26.204  1.00  0.00    -0.206 F 
BRANCH   9  15
ATOM     15  S   UNL A   1      34.125  22.555  24.726  1.00  0.00     0.261 S 
ATOM     16  O   UNL A   1      33.478  21.903  23.608  1.00  0.00    -0.201 OA
ATOM     17  O   UNL A   1      34.381  21.825  25.952  1.00  0.00    -0.201 OA
BRANCH  15  18
ATOM     18  N   UNL A   1      35.665  23.055  24.182  1.00  0.00    -0.280 N 
ATOM     19  H   UNL A   1      35.732  23.570  23.346  1.00  0.00     0.180 HD
BRANCH  18  20
ATOM     20  C   UNL A   1      36.859  22.743  24.906  1.00  0.00     0.049 A 
ATOM     21  C   UNL A   1      39.228  22.240  26.305  1.00  0.00     0.067 A 
ATOM     22  C   UNL A   1      38.591  23.481  26.425  1.00  0.00     0.022 A 
ATOM     23  C   UNL A   1      38.665  21.235  25.515  1.00  0.00     0.022 A 
ATOM     24  C   UNL A   1      37.396  23.718  25.747  1.00  0.00     0.028 A 
ATOM     25  C   UNL A   1      37.485  21.495  24.798  1.00  0.00     0.028 A 
BRANCH  21  26
ATOM     26  S   UNL A   1      40.772  22.014  27.162  1.00  0.00     0.175 S 
ATOM     27  C   UNL A   1      42.041  21.954  25.929  1.00  0.00     0.163 C 
ATOM     28  O   UNL A   1      40.700  20.719  27.807  1.00  0.00    -0.224 OA
ATOM     29  O   UNL A   1      40.994  23.228  27.926  1.00  0.00    -0.224 OA
ENDBRANCH  21  26
ENDBRANCH  18  20
ENDBRANCH  15  18
ENDBRANCH   9  15
ENDBRANCH   6   8
ENDBRANCH   5   6
ENDBRANCH   4   5
ENDBRANCH   3   4
ENDBRANCH   2   3
ENDBRANCH   1   2
BRANCH   1  30
ATOM     30  C   UNL A   1      34.136  33.179  28.971  1.00  0.00     0.188 C 
BRANCH  30  31
ATOM     31  O   UNL A   1      33.259  34.175  28.466  1.00  0.00    -0.376 OA
BRANCH  31  32
ATOM     32  C   UNL A   1      33.452  35.536  28.831  1.00  0.00     0.202 C 
BRANCH  32  33
ATOM     33  C   UNL A   1      32.609  36.190  29.939  1.00  0.00     0.261 C 
BRANCH  33  34
ATOM     34  O   UNL A   1      33.278  36.401  31.190  1.00  0.00    -0.460 OA
BRANCH  34  35
ATOM     35  C   UNL A   1      33.109  35.417  32.106  1.00  0.00     0.338 C 
ATOM     36  O   UNL A   1      32.081  35.097  32.677  1.00  0.00    -0.246 OA
BRANCH  35  37
ATOM     37  C   UNL A   1      34.351  34.630  32.210  1.00  0.00     0.060 A 
ATOM     38  C   UNL A   1      34.297  33.388  32.859  1.00  0.00     0.016 A 
ATOM     39  C   UNL A   1      35.561  35.134  31.734  1.00  0.00     0.016 A 
ATOM     40  C   UNL A   1      35.464  32.652  33.052  1.00  0.00     0.010 A 
ATOM     41  C   UNL A   1      36.734  34.407  31.953  1.00  0.00     0.010 A 
ATOM     42  C   UNL A   1      36.692  33.177  32.635  1.00  0.00    -0.014 A 
BRANCH  42  43
ATOM     43  C   UNL A   1      37.950  32.526  33.064  1.00  0.00     0.031 A 
ATOM     44  C   UNL A   1      38.553  31.470  32.182  1.00  0.00     0.074 A 
ATOM     45  C   UNL A   1      38.555  32.874  34.213  1.00  0.00     0.049 A 
ATOM     46  N   UNL A   1      39.618  30.733  32.377  1.00  0.00    -0.248 NA
ATOM     47  C   UNL A   1      37.862  31.208  30.909  1.00  0.00     0.031 C 
ATOM     48  C   UNL A   1      38.100  33.916  35.131  1.00  0.00     0.029 A 
ATOM     49  N   UNL A   1      39.687  32.372  34.805  1.00  0.00    -0.354 N 
ATOM     50  C   UNL A   1      39.719  29.918  31.256  1.00  0.00     0.074 A 
ATOM     51  C   UNL A   1      38.596  30.230  30.400  1.00  0.00     0.031 C 
ATOM     52  C   UNL A   1      38.939  33.969  36.179  1.00  0.00     0.029 A 
ATOM     53  C   UNL A   1      39.969  32.942  36.021  1.00  0.00     0.049 A 
ATOM     54  H   UNL A   1      40.243  31.670  34.396  1.00  0.00     0.167 HD
ATOM     55  C   UNL A   1      40.663  28.992  30.966  1.00  0.00     0.031 A 
ATOM     56  C   UNL A   1      40.935  32.652  36.914  1.00  0.00     0.031 A 
ATOM     57  C   UNL A   1      41.768  28.665  31.826  1.00  0.00     0.049 A 
ATOM     58  C   UNL A   1      41.922  31.557  36.607  1.00  0.00     0.074 A 
ATOM     59  C   UNL A   1      42.782  27.748  31.616  1.00  0.00     0.029 A 
ATOM     60  N   UNL A   1      41.996  29.238  33.067  1.00  0.00    -0.354 N 
ATOM     61  N   UNL A   1      42.022  30.807  35.537  1.00  0.00    -0.248 NA
ATOM     62  C   UNL A   1      42.935  31.273  37.636  1.00  0.00     0.031 C 
ATOM     63  C   UNL A   1      43.593  27.725  32.755  1.00  0.00     0.029 A 
ATOM     64  C   UNL A   1      43.118  28.673  33.648  1.00  0.00     0.049 A 
ATOM     65  H   UNL A   1      41.442  29.943  33.475  1.00  0.00     0.167 HD
ATOM     66  C   UNL A   1      43.124  29.986  35.749  1.00  0.00     0.074 A 
ATOM     67  C   UNL A   1      43.665  30.337  37.046  1.00  0.00     0.031 C 
ATOM     68  C   UNL A   1      43.645  29.032  34.939  1.00  0.00     0.031 A 
BRANCH  55  69
ATOM     69  C   UNL A   1      40.510  28.238  29.676  1.00  0.00    -0.014 A 
ATOM     70  C   UNL A   1      41.221  28.608  28.524  1.00  0.00     0.009 A 
ATOM     71  C   UNL A   1      39.654  27.127  29.619  1.00  0.00     0.009 A 
ATOM     72  C   UNL A   1      41.051  27.902  27.331  1.00  0.00     0.001 A 
ATOM     73  C   UNL A   1      39.507  26.406  28.434  1.00  0.00     0.001 A 
ATOM     74  C   UNL A   1      40.197  26.801  27.288  1.00  0.00     0.000 A 
ENDBRANCH  55  69
BRANCH  56  75
ATOM     75  C   UNL A   1      41.006  33.394  38.199  1.00  0.00    -0.014 A 
ATOM     76  C   UNL A   1      41.815  34.534  38.323  1.00  0.00     0.009 A 
ATOM     77  C   UNL A   1      40.279  32.952  39.315  1.00  0.00     0.009 A 
ATOM     78  C   UNL A   1      41.911  35.201  39.547  1.00  0.00     0.001 A 
ATOM     79  C   UNL A   1      40.356  33.639  40.529  1.00  0.00     0.001 A 
ATOM     80  C   UNL A   1      41.180  34.757  40.647  1.00  0.00     0.000 A 
ENDBRANCH  56  75
BRANCH  68  81
ATOM     81  C   UNL A   1      44.885  28.325  35.411  1.00  0.00    -0.014 A 
ATOM     82  C   UNL A   1      46.159  28.889  35.241  1.00  0.00     0.009 A 
ATOM     83  C   UNL A   1      44.768  27.098  36.083  1.00  0.00     0.009 A 
ATOM     84  C   UNL A   1      47.293  28.220  35.707  1.00  0.00     0.001 A 
ATOM     85  C   UNL A   1      45.901  26.446  36.573  1.00  0.00     0.001 A 
ATOM     86  C   UNL A   1      47.163  27.004  36.377  1.00  0.00     0.000 A 
ENDBRANCH  68  81
ENDBRANCH  42  43
ENDBRANCH  35  37
ENDBRANCH  34  35
ENDBRANCH  33  34
ENDBRANCH  32  33
ENDBRANCH  31  32
ENDBRANCH  30  31
ENDBRANCH   1  30
TORSDOF 21
ENDMDL
