MODEL 1
REMARK VINA RESULT:     -10.1      0.000      0.000
REMARK SMILES C[C@H]1CCN1c1cc(C(=O)OCCOCCOCCOC(=O)c2ccc(-c3c4nc(c(-c5ccccc5)c5ccc([nH]5)c(-c5ccccc5)c5nc(c(-c6ccccc6)c6ccc3[nH]6)C=C5)C=C4)cc2)ccc1Cl
REMARK SMILES IDX 16 1 15 2 14 3 13 4 12 5 11 6 9 7 10 8 8 9 6 10 7 11 73 12
REMARK SMILES IDX 72 13 74 14 71 15 5 16 1 17 2 18 3 19 4 20 17 21 18 22 19 23
REMARK SMILES IDX 20 24 21 25 22 26 23 27 24 28 70 29 25 30 69 31 26 32 27 33
REMARK SMILES IDX 28 34 63 35 29 36 68 37 62 38 64 39 30 40 67 41 61 42 60 43
REMARK SMILES IDX 31 45 53 46 38 47 52 48 39 49 42 50 51 51 65 52 40 53 41 54
REMARK SMILES IDX 50 56 66 57 43 58 32 59 33 60 37 61 34 62 36 63 35 64 54 65
REMARK SMILES IDX 55 66 59 67 56 68 58 69 57 70 44 71 45 72 49 73 46 74 48 75
REMARK SMILES IDX 47 76
REMARK H PARENT 64 44 42 55
REMARK Flexibility Score: inf
ROOT
ATOM      1  C   UNL A   1      43.276  18.830  25.456  1.00  0.00     0.188 C 
ENDROOT
BRANCH   1   2
ATOM      2  C   UNL A   1      42.213  19.260  26.489  1.00  0.00     0.188 C 
BRANCH   2   3
ATOM      3  O   UNL A   1      41.004  19.876  26.054  1.00  0.00    -0.376 OA
BRANCH   3   4
ATOM      4  C   UNL A   1      40.397  20.887  26.849  1.00  0.00     0.202 C 
BRANCH   4   5
ATOM      5  C   UNL A   1      39.788  22.110  26.149  1.00  0.00     0.261 C 
BRANCH   5   6
ATOM      6  O   UNL A   1      38.492  21.873  25.574  1.00  0.00    -0.460 OA
BRANCH   6   7
ATOM      7  C   UNL A   1      37.568  22.837  25.810  1.00  0.00     0.338 C 
ATOM      8  O   UNL A   1      37.730  23.879  26.419  1.00  0.00    -0.246 OA
BRANCH   7   9
ATOM      9  C   UNL A   1      36.335  22.545  25.043  1.00  0.00     0.062 A 
ATOM     10  C   UNL A   1      34.486  20.990  24.671  1.00  0.00     0.057 A 
ATOM     11  C   UNL A   1      35.687  21.333  25.310  1.00  0.00     0.043 A 
ATOM     12  C   UNL A   1      33.947  21.895  23.739  1.00  0.00     0.064 A 
ATOM     13  C   UNL A   1      34.601  23.107  23.464  1.00  0.00     0.023 A 
ATOM     14  Cl  UNL A   1      32.470  21.585  22.898  1.00  0.00    -0.082 Cl
ATOM     15  C   UNL A   1      35.791  23.437  24.117  1.00  0.00     0.017 A 
BRANCH  10  16
ATOM     16  N   UNL A   1      33.931  19.739  25.014  1.00  0.00    -0.367 N 
ATOM     17  C   UNL A   1      34.919  17.597  24.415  1.00  0.00     0.031 C 
ATOM     18  C   UNL A   1      33.818  18.605  24.134  1.00  0.00     0.081 C 
ATOM     19  C   UNL A   1      32.440  18.319  24.737  1.00  0.00     0.046 C 
ATOM     20  C   UNL A   1      32.674  19.507  25.663  1.00  0.00     0.119 C 
ENDBRANCH  10  16
ENDBRANCH   7   9
ENDBRANCH   6   7
ENDBRANCH   5   6
ENDBRANCH   4   5
ENDBRANCH   3   4
ENDBRANCH   2   3
ENDBRANCH   1   2
BRANCH   1  21
ATOM     21  O   UNL A   1      44.306  19.778  25.279  1.00  0.00    -0.376 OA
BRANCH  21  22
ATOM     22  C   UNL A   1      44.007  21.145  25.502  1.00  0.00     0.202 C 
BRANCH  22  23
ATOM     23  C   UNL A   1      44.322  22.190  24.417  1.00  0.00     0.261 C 
BRANCH  23  24
ATOM     24  O   UNL A   1      43.679  23.466  24.534  1.00  0.00    -0.460 OA
BRANCH  24  25
ATOM     25  C   UNL A   1      44.443  24.505  24.939  1.00  0.00     0.338 C 
ATOM     26  O   UNL A   1      45.550  24.804  24.540  1.00  0.00    -0.246 OA
BRANCH  25  27
ATOM     27  C   UNL A   1      43.631  25.335  25.857  1.00  0.00     0.060 A 
ATOM     28  C   UNL A   1      43.947  26.693  25.992  1.00  0.00     0.016 A 
ATOM     29  C   UNL A   1      42.588  24.774  26.598  1.00  0.00     0.016 A 
ATOM     30  C   UNL A   1      43.247  27.483  26.906  1.00  0.00     0.010 A 
ATOM     31  C   UNL A   1      41.897  25.563  27.523  1.00  0.00     0.010 A 
ATOM     32  C   UNL A   1      42.249  26.912  27.708  1.00  0.00    -0.014 A 
BRANCH  32  33
ATOM     33  C   UNL A   1      41.714  27.674  28.864  1.00  0.00     0.031 A 
ATOM     34  C   UNL A   1      42.428  27.572  30.185  1.00  0.00     0.074 A 
ATOM     35  C   UNL A   1      40.637  28.471  28.743  1.00  0.00     0.049 A 
ATOM     36  N   UNL A   1      42.155  28.154  31.325  1.00  0.00    -0.248 NA
ATOM     37  C   UNL A   1      43.612  26.696  30.223  1.00  0.00     0.031 C 
ATOM     38  C   UNL A   1      39.877  28.691  27.515  1.00  0.00     0.029 A 
ATOM     39  N   UNL A   1      40.000  29.246  29.680  1.00  0.00    -0.354 N 
ATOM     40  C   UNL A   1      43.131  27.717  32.213  1.00  0.00     0.074 A 
ATOM     41  C   UNL A   1      43.981  26.796  31.490  1.00  0.00     0.031 C 
ATOM     42  C   UNL A   1      38.870  29.545  27.774  1.00  0.00     0.029 A 
ATOM     43  C   UNL A   1      38.901  29.908  29.190  1.00  0.00     0.049 A 
ATOM     44  H   UNL A   1      40.301  29.321  30.614  1.00  0.00     0.167 HD
ATOM     45  C   UNL A   1      43.313  28.057  33.511  1.00  0.00     0.031 A 
ATOM     46  C   UNL A   1      38.014  30.706  29.817  1.00  0.00     0.031 A 
ATOM     47  C   UNL A   1      42.459  28.954  34.242  1.00  0.00     0.049 A 
ATOM     48  C   UNL A   1      38.186  31.003  31.285  1.00  0.00     0.074 A 
ATOM     49  C   UNL A   1      42.568  29.367  35.559  1.00  0.00     0.029 A 
ATOM     50  N   UNL A   1      41.331  29.566  33.721  1.00  0.00    -0.354 N 
ATOM     51  N   UNL A   1      39.134  30.613  32.102  1.00  0.00    -0.248 NA
ATOM     52  C   UNL A   1      37.170  31.862  31.910  1.00  0.00     0.031 C 
ATOM     53  C   UNL A   1      41.474  30.190  35.849  1.00  0.00     0.029 A 
ATOM     54  C   UNL A   1      40.719  30.335  34.696  1.00  0.00     0.049 A 
ATOM     55  H   UNL A   1      41.013  29.470  32.794  1.00  0.00     0.167 HD
ATOM     56  C   UNL A   1      38.847  31.204  33.328  1.00  0.00     0.074 A 
ATOM     57  C   UNL A   1      37.642  31.987  33.143  1.00  0.00     0.031 C 
ATOM     58  C   UNL A   1      39.524  31.113  34.499  1.00  0.00     0.031 A 
BRANCH  45  59
ATOM     59  C   UNL A   1      44.468  27.422  34.232  1.00  0.00    -0.014 A 
ATOM     60  C   UNL A   1      45.734  28.029  34.255  1.00  0.00     0.009 A 
ATOM     61  C   UNL A   1      44.282  26.210  34.914  1.00  0.00     0.009 A 
ATOM     62  C   UNL A   1      46.800  27.415  34.917  1.00  0.00     0.001 A 
ATOM     63  C   UNL A   1      45.344  25.612  35.598  1.00  0.00     0.001 A 
ATOM     64  C   UNL A   1      46.602  26.211  35.591  1.00  0.00     0.000 A 
ENDBRANCH  45  59
BRANCH  46  65
ATOM     65  C   UNL A   1      36.868  31.283  29.065  1.00  0.00    -0.014 A 
ATOM     66  C   UNL A   1      36.896  32.616  28.629  1.00  0.00     0.009 A 
ATOM     67  C   UNL A   1      35.729  30.507  28.802  1.00  0.00     0.009 A 
ATOM     68  C   UNL A   1      35.797  33.167  27.966  1.00  0.00     0.001 A 
ATOM     69  C   UNL A   1      34.643  31.052  28.114  1.00  0.00     0.001 A 
ATOM     70  C   UNL A   1      34.673  32.384  27.704  1.00  0.00     0.000 A 
ENDBRANCH  46  65
BRANCH  58  71
ATOM     71  C   UNL A   1      39.007  31.911  35.662  1.00  0.00    -0.014 A 
ATOM     72  C   UNL A   1      38.146  31.347  36.616  1.00  0.00     0.009 A 
ATOM     73  C   UNL A   1      39.432  33.240  35.832  1.00  0.00     0.009 A 
ATOM     74  C   UNL A   1      37.696  32.107  37.698  1.00  0.00     0.001 A 
ATOM     75  C   UNL A   1      39.002  33.988  36.929  1.00  0.00     0.001 A 
ATOM     76  C   UNL A   1      38.127  33.424  37.856  1.00  0.00     0.000 A 
ENDBRANCH  58  71
ENDBRANCH  32  33
ENDBRANCH  25  27
ENDBRANCH  24  25
ENDBRANCH  23  24
ENDBRANCH  22  23
ENDBRANCH  21  22
ENDBRANCH   1  21
TORSDOF 18
ENDMDL
MODEL 2
REMARK VINA RESULT:      -9.7      4.678     10.633
REMARK SMILES C[C@H]1CCN1c1cc(C(=O)OCCOCCOCCOC(=O)c2ccc(-c3c4nc(c(-c5ccccc5)c5ccc([nH]5)c(-c5ccccc5)c5nc(c(-c6ccccc6)c6ccc3[nH]6)C=C5)C=C4)cc2)ccc1Cl
REMARK SMILES IDX 16 1 15 2 14 3 13 4 12 5 11 6 9 7 10 8 8 9 6 10 7 11 73 12
REMARK SMILES IDX 72 13 74 14 71 15 5 16 1 17 2 18 3 19 4 20 17 21 18 22 19 23
REMARK SMILES IDX 20 24 21 25 22 26 23 27 24 28 70 29 25 30 69 31 26 32 27 33
REMARK SMILES IDX 28 34 63 35 29 36 68 37 62 38 64 39 30 40 67 41 61 42 60 43
REMARK SMILES IDX 31 45 53 46 38 47 52 48 39 49 42 50 51 51 65 52 40 53 41 54
REMARK SMILES IDX 50 56 66 57 43 58 32 59 33 60 37 61 34 62 36 63 35 64 54 65
REMARK SMILES IDX 55 66 59 67 56 68 58 69 57 70 44 71 45 72 49 73 46 74 48 75
REMARK SMILES IDX 47 76
REMARK H PARENT 64 44 42 55
REMARK Flexibility Score: inf
ROOT
ATOM      1  C   UNL A   1      33.344  34.929  29.379  1.00  0.00     0.188 C 
ENDROOT
BRANCH   1   2
ATOM      2  C   UNL A   1      34.504  35.011  28.365  1.00  0.00     0.188 C 
BRANCH   2   3
ATOM      3  O   UNL A   1      34.842  33.875  27.575  1.00  0.00    -0.376 OA
BRANCH   3   4
ATOM      4  C   UNL A   1      35.068  32.617  28.201  1.00  0.00     0.202 C 
BRANCH   4   5
ATOM      5  C   UNL A   1      33.978  31.540  28.109  1.00  0.00     0.261 C 
BRANCH   5   6
ATOM      6  O   UNL A   1      34.054  30.727  26.928  1.00  0.00    -0.460 OA
BRANCH   6   7
ATOM      7  C   UNL A   1      34.569  29.486  27.108  1.00  0.00     0.338 C 
ATOM      8  O   UNL A   1      35.653  29.201  27.586  1.00  0.00    -0.246 OA
BRANCH   7   9
ATOM      9  C   UNL A   1      33.534  28.467  26.816  1.00  0.00     0.062 A 
ATOM     10  C   UNL A   1      32.977  26.415  25.612  1.00  0.00     0.057 A 
ATOM     11  C   UNL A   1      33.873  27.452  25.913  1.00  0.00     0.043 A 
ATOM     12  C   UNL A   1      31.716  26.423  26.234  1.00  0.00     0.064 A 
ATOM     13  C   UNL A   1      31.372  27.446  27.133  1.00  0.00     0.023 A 
ATOM     14  Cl  UNL A   1      30.535  25.194  25.947  1.00  0.00    -0.082 Cl
ATOM     15  C   UNL A   1      32.280  28.466  27.429  1.00  0.00     0.017 A 
BRANCH  10  16
ATOM     16  N   UNL A   1      33.425  25.454  24.681  1.00  0.00    -0.367 N 
ATOM     17  C   UNL A   1      33.499  25.814  22.275  1.00  0.00     0.031 C 
ATOM     18  C   UNL A   1      32.784  25.137  23.431  1.00  0.00     0.081 C 
ATOM     19  C   UNL A   1      33.104  23.661  23.681  1.00  0.00     0.046 C 
ATOM     20  C   UNL A   1      33.806  24.100  24.961  1.00  0.00     0.119 C 
ENDBRANCH  10  16
ENDBRANCH   7   9
ENDBRANCH   6   7
ENDBRANCH   5   6
ENDBRANCH   4   5
ENDBRANCH   3   4
ENDBRANCH   2   3
ENDBRANCH   1   2
BRANCH   1  21
ATOM     21  O   UNL A   1      33.671  34.221  30.555  1.00  0.00    -0.376 OA
BRANCH  21  22
ATOM     22  C   UNL A   1      34.165  34.952  31.664  1.00  0.00     0.202 C 
BRANCH  22  23
ATOM     23  C   UNL A   1      35.034  34.252  32.723  1.00  0.00     0.261 C 
BRANCH  23  24
ATOM     24  O   UNL A   1      35.402  32.889  32.468  1.00  0.00    -0.460 OA
BRANCH  24  25
ATOM     25  C   UNL A   1      36.379  32.361  33.238  1.00  0.00     0.338 C 
ATOM     26  O   UNL A   1      36.420  32.321  34.451  1.00  0.00    -0.246 OA
BRANCH  25  27
ATOM     27  C   UNL A   1      37.343  31.680  32.345  1.00  0.00     0.060 A 
ATOM     28  C   UNL A   1      38.344  30.886  32.918  1.00  0.00     0.016 A 
ATOM     29  C   UNL A   1      37.277  31.846  30.960  1.00  0.00     0.016 A 
ATOM     30  C   UNL A   1      39.311  30.292  32.105  1.00  0.00     0.010 A 
ATOM     31  C   UNL A   1      38.255  31.262  30.147  1.00  0.00     0.010 A 
ATOM     32  C   UNL A   1      39.298  30.513  30.720  1.00  0.00    -0.014 A 
BRANCH  32  33
ATOM     33  C   UNL A   1      40.476  30.125  29.906  1.00  0.00     0.031 A 
ATOM     34  C   UNL A   1      40.478  28.773  29.243  1.00  0.00     0.074 A 
ATOM     35  C   UNL A   1      41.513  30.962  29.725  1.00  0.00     0.049 A 
ATOM     36  N   UNL A   1      41.385  28.224  28.476  1.00  0.00    -0.248 NA
ATOM     37  C   UNL A   1      39.293  27.930  29.474  1.00  0.00     0.031 C 
ATOM     38  C   UNL A   1      41.622  32.310  30.277  1.00  0.00     0.029 A 
ATOM     39  N   UNL A   1      42.677  30.790  29.018  1.00  0.00    -0.354 N 
ATOM     40  C   UNL A   1      40.882  26.975  28.134  1.00  0.00     0.074 A 
ATOM     41  C   UNL A   1      39.606  26.833  28.802  1.00  0.00     0.031 C 
ATOM     42  C   UNL A   1      42.795  32.845  29.889  1.00  0.00     0.029 A 
ATOM     43  C   UNL A   1      43.526  31.868  29.086  1.00  0.00     0.049 A 
ATOM     44  H   UNL A   1      42.885  29.973  28.509  1.00  0.00     0.167 HD
ATOM     45  C   UNL A   1      41.424  26.032  27.328  1.00  0.00     0.031 A 
ATOM     46  C   UNL A   1      44.759  32.038  28.569  1.00  0.00     0.031 A 
ATOM     47  C   UNL A   1      42.700  26.156  26.678  1.00  0.00     0.049 A 
ATOM     48  C   UNL A   1      45.380  30.940  27.745  1.00  0.00     0.074 A 
ATOM     49  C   UNL A   1      43.330  25.257  25.834  1.00  0.00     0.029 A 
ATOM     50  N   UNL A   1      43.548  27.244  26.810  1.00  0.00    -0.354 N 
ATOM     51  N   UNL A   1      44.878  29.779  27.399  1.00  0.00    -0.248 NA
ATOM     52  C   UNL A   1      46.737  31.184  27.231  1.00  0.00     0.031 C 
ATOM     53  C   UNL A   1      44.583  25.780  25.498  1.00  0.00     0.029 A 
ATOM     54  C   UNL A   1      44.707  27.029  26.084  1.00  0.00     0.049 A 
ATOM     55  H   UNL A   1      43.355  28.050  27.341  1.00  0.00     0.167 HD
ATOM     56  C   UNL A   1      45.840  29.170  26.601  1.00  0.00     0.074 A 
ATOM     57  C   UNL A   1      46.952  30.094  26.507  1.00  0.00     0.031 C 
ATOM     58  C   UNL A   1      45.804  27.958  25.995  1.00  0.00     0.031 A 
BRANCH  45  59
ATOM     59  C   UNL A   1      40.644  24.763  27.134  1.00  0.00    -0.014 A 
ATOM     60  C   UNL A   1      41.085  23.546  27.680  1.00  0.00     0.009 A 
ATOM     61  C   UNL A   1      39.441  24.788  26.411  1.00  0.00     0.009 A 
ATOM     62  C   UNL A   1      40.353  22.374  27.475  1.00  0.00     0.001 A 
ATOM     63  C   UNL A   1      38.698  23.618  26.231  1.00  0.00     0.001 A 
ATOM     64  C   UNL A   1      39.160  22.412  26.755  1.00  0.00     0.000 A 
ENDBRANCH  45  59
BRANCH  46  65
ATOM     65  C   UNL A   1      45.504  33.301  28.818  1.00  0.00    -0.014 A 
ATOM     66  C   UNL A   1      46.331  33.434  29.944  1.00  0.00     0.009 A 
ATOM     67  C   UNL A   1      45.370  34.388  27.941  1.00  0.00     0.009 A 
ATOM     68  C   UNL A   1      46.989  34.640  30.199  1.00  0.00     0.001 A 
ATOM     69  C   UNL A   1      46.051  35.583  28.184  1.00  0.00     0.001 A 
ATOM     70  C   UNL A   1      46.853  35.711  29.317  1.00  0.00     0.000 A 
ENDBRANCH  46  65
BRANCH  58  71
ATOM     71  C   UNL A   1      46.979  27.575  25.140  1.00  0.00    -0.014 A 
ATOM     72  C   UNL A   1      48.051  26.831  25.655  1.00  0.00     0.009 A 
ATOM     73  C   UNL A   1      46.986  27.923  23.779  1.00  0.00     0.009 A 
ATOM     74  C   UNL A   1      49.122  26.473  24.833  1.00  0.00     0.001 A 
ATOM     75  C   UNL A   1      48.044  27.540  22.953  1.00  0.00     0.001 A 
ATOM     76  C   UNL A   1      49.115  26.824  23.483  1.00  0.00     0.000 A 
ENDBRANCH  58  71
ENDBRANCH  32  33
ENDBRANCH  25  27
ENDBRANCH  24  25
ENDBRANCH  23  24
ENDBRANCH  22  23
ENDBRANCH  21  22
ENDBRANCH   1  21
TORSDOF 18
ENDMDL
MODEL 3
REMARK VINA RESULT:      -9.6      1.672      2.641
REMARK SMILES C[C@H]1CCN1c1cc(C(=O)OCCOCCOCCOC(=O)c2ccc(-c3c4nc(c(-c5ccccc5)c5ccc([nH]5)c(-c5ccccc5)c5nc(c(-c6ccccc6)c6ccc3[nH]6)C=C5)C=C4)cc2)ccc1Cl
REMARK SMILES IDX 16 1 15 2 14 3 13 4 12 5 11 6 9 7 10 8 8 9 6 10 7 11 73 12
REMARK SMILES IDX 72 13 74 14 71 15 5 16 1 17 2 18 3 19 4 20 17 21 18 22 19 23
REMARK SMILES IDX 20 24 21 25 22 26 23 27 24 28 70 29 25 30 69 31 26 32 27 33
REMARK SMILES IDX 28 34 63 35 29 36 68 37 62 38 64 39 30 40 67 41 61 42 60 43
REMARK SMILES IDX 31 45 53 46 38 47 52 48 39 49 42 50 51 51 65 52 40 53 41 54
REMARK SMILES IDX 50 56 66 57 43 58 32 59 33 60 37 61 34 62 36 63 35 64 54 65
REMARK SMILES IDX 55 66 59 67 56 68 58 69 57 70 44 71 45 72 49 73 46 74 48 75
REMARK SMILES IDX 47 76
REMARK H PARENT 64 44 42 55
REMARK Flexibility Score: inf
ROOT
ATOM      1  C   UNL A   1      42.075  20.626  26.210  1.00  0.00     0.188 C 
ENDROOT
BRANCH   1   2
ATOM      2  C   UNL A   1      41.430  21.594  27.224  1.00  0.00     0.188 C 
BRANCH   2   3
ATOM      3  O   UNL A   1      40.013  21.735  27.273  1.00  0.00    -0.376 OA
BRANCH   3   4
ATOM      4  C   UNL A   1      39.369  22.711  26.463  1.00  0.00     0.202 C 
BRANCH   4   5
ATOM      5  C   UNL A   1      38.082  22.322  25.722  1.00  0.00     0.261 C 
BRANCH   5   6
ATOM      6  O   UNL A   1      37.278  23.440  25.314  1.00  0.00    -0.460 OA
BRANCH   6   7
ATOM      7  C   UNL A   1      36.492  23.226  24.229  1.00  0.00     0.338 C 
ATOM      8  O   UNL A   1      36.851  22.875  23.119  1.00  0.00    -0.246 OA
BRANCH   7   9
ATOM      9  C   UNL A   1      35.066  23.290  24.624  1.00  0.00     0.062 A 
ATOM     10  C   UNL A   1      33.175  24.726  25.202  1.00  0.00     0.057 A 
ATOM     11  C   UNL A   1      34.528  24.559  24.872  1.00  0.00     0.043 A 
ATOM     12  C   UNL A   1      32.365  23.578  25.290  1.00  0.00     0.064 A 
ATOM     13  C   UNL A   1      32.907  22.305  25.050  1.00  0.00     0.023 A 
ATOM     14  Cl  UNL A   1      30.684  23.662  25.680  1.00  0.00    -0.082 Cl
ATOM     15  C   UNL A   1      34.255  22.158  24.712  1.00  0.00     0.017 A 
BRANCH  10  16
ATOM     16  N   UNL A   1      32.748  26.049  25.440  1.00  0.00    -0.367 N 
ATOM     17  C   UNL A   1      33.510  27.978  24.167  1.00  0.00     0.031 C 
ATOM     18  C   UNL A   1      33.599  27.210  25.473  1.00  0.00     0.081 C 
ATOM     19  C   UNL A   1      32.774  27.737  26.650  1.00  0.00     0.046 C 
ATOM     20  C   UNL A   1      31.898  26.499  26.502  1.00  0.00     0.119 C 
ENDBRANCH  10  16
ENDBRANCH   7   9
ENDBRANCH   6   7
ENDBRANCH   5   6
ENDBRANCH   4   5
ENDBRANCH   3   4
ENDBRANCH   2   3
ENDBRANCH   1   2
BRANCH   1  21
ATOM     21  O   UNL A   1      42.783  21.279  25.179  1.00  0.00    -0.376 OA
BRANCH  21  22
ATOM     22  C   UNL A   1      44.195  21.358  25.279  1.00  0.00     0.202 C 
BRANCH  22  23
ATOM     23  C   UNL A   1      44.961  22.454  24.517  1.00  0.00     0.261 C 
BRANCH  23  24
ATOM     24  O   UNL A   1      44.348  23.748  24.444  1.00  0.00    -0.460 OA
BRANCH  24  25
ATOM     25  C   UNL A   1      45.039  24.786  24.965  1.00  0.00     0.338 C 
ATOM     26  O   UNL A   1      46.155  25.157  24.657  1.00  0.00    -0.246 OA
BRANCH  25  27
ATOM     27  C   UNL A   1      44.138  25.518  25.883  1.00  0.00     0.060 A 
ATOM     28  C   UNL A   1      44.304  26.900  26.028  1.00  0.00     0.016 A 
ATOM     29  C   UNL A   1      43.159  24.842  26.615  1.00  0.00     0.016 A 
ATOM     30  C   UNL A   1      43.518  27.604  26.942  1.00  0.00     0.010 A 
ATOM     31  C   UNL A   1      42.381  25.545  27.541  1.00  0.00     0.010 A 
ATOM     32  C   UNL A   1      42.584  26.923  27.736  1.00  0.00    -0.014 A 
BRANCH  32  33
ATOM     33  C   UNL A   1      41.964  27.615  28.893  1.00  0.00     0.031 A 
ATOM     34  C   UNL A   1      42.635  27.512  30.236  1.00  0.00     0.074 A 
ATOM     35  C   UNL A   1      40.847  28.352  28.756  1.00  0.00     0.049 A 
ATOM     36  N   UNL A   1      42.287  28.040  31.382  1.00  0.00    -0.248 NA
ATOM     37  C   UNL A   1      43.866  26.706  30.293  1.00  0.00     0.031 C 
ATOM     38  C   UNL A   1      40.120  28.567  27.507  1.00  0.00     0.029 A 
ATOM     39  N   UNL A   1      40.131  29.058  29.691  1.00  0.00    -0.354 N 
ATOM     40  C   UNL A   1      43.255  27.632  32.293  1.00  0.00     0.074 A 
ATOM     41  C   UNL A   1      44.184  26.786  31.575  1.00  0.00     0.031 C 
ATOM     42  C   UNL A   1      39.055  29.352  27.754  1.00  0.00     0.029 A 
ATOM     43  C   UNL A   1      39.014  29.671  29.180  1.00  0.00     0.049 A 
ATOM     44  H   UNL A   1      40.394  29.120  30.638  1.00  0.00     0.167 HD
ATOM     45  C   UNL A   1      43.370  27.939  33.606  1.00  0.00     0.031 A 
ATOM     46  C   UNL A   1      38.059  30.395  29.798  1.00  0.00     0.031 A 
ATOM     47  C   UNL A   1      42.439  28.762  34.331  1.00  0.00     0.049 A 
ATOM     48  C   UNL A   1      38.161  30.654  31.279  1.00  0.00     0.074 A 
ATOM     49  C   UNL A   1      42.477  29.137  35.663  1.00  0.00     0.029 A 
ATOM     50  N   UNL A   1      41.297  29.324  33.787  1.00  0.00    -0.354 N 
ATOM     51  N   UNL A   1      39.100  30.293  32.119  1.00  0.00    -0.248 NA
ATOM     52  C   UNL A   1      37.074  31.432  31.891  1.00  0.00     0.031 C 
ATOM     53  C   UNL A   1      41.326  29.885  35.937  1.00  0.00     0.029 A 
ATOM     54  C   UNL A   1      40.605  30.024  34.762  1.00  0.00     0.049 A 
ATOM     55  H   UNL A   1      41.017  29.239  32.847  1.00  0.00     0.167 HD
ATOM     56  C   UNL A   1      38.735  30.827  33.350  1.00  0.00     0.074 A 
ATOM     57  C   UNL A   1      37.494  31.544  33.144  1.00  0.00     0.031 C 
ATOM     58  C   UNL A   1      39.374  30.737  34.543  1.00  0.00     0.031 A 
BRANCH  45  59
ATOM     59  C   UNL A   1      44.534  27.350  34.351  1.00  0.00    -0.014 A 
ATOM     60  C   UNL A   1      44.450  26.081  34.947  1.00  0.00     0.009 A 
ATOM     61  C   UNL A   1      45.738  28.065  34.440  1.00  0.00     0.009 A 
ATOM     62  C   UNL A   1      45.538  25.557  35.649  1.00  0.00     0.001 A 
ATOM     63  C   UNL A   1      46.833  27.526  35.120  1.00  0.00     0.001 A 
ATOM     64  C   UNL A   1      46.728  26.278  35.731  1.00  0.00     0.000 A 
ENDBRANCH  45  59
BRANCH  46  65
ATOM     65  C   UNL A   1      36.909  30.928  29.021  1.00  0.00    -0.014 A 
ATOM     66  C   UNL A   1      36.838  32.290  28.690  1.00  0.00     0.009 A 
ATOM     67  C   UNL A   1      35.863  30.079  28.628  1.00  0.00     0.009 A 
ATOM     68  C   UNL A   1      35.732  32.795  28.002  1.00  0.00     0.001 A 
ATOM     69  C   UNL A   1      34.772  30.581  27.916  1.00  0.00     0.001 A 
ATOM     70  C   UNL A   1      34.702  31.939  27.612  1.00  0.00     0.000 A 
ENDBRANCH  46  65
BRANCH  58  71
ATOM     71  C   UNL A   1      38.770  31.466  35.709  1.00  0.00    -0.014 A 
ATOM     72  C   UNL A   1      38.005  30.798  36.677  1.00  0.00     0.009 A 
ATOM     73  C   UNL A   1      39.015  32.841  35.868  1.00  0.00     0.009 A 
ATOM     74  C   UNL A   1      37.470  31.497  37.761  1.00  0.00     0.001 A 
ATOM     75  C   UNL A   1      38.503  33.531  36.967  1.00  0.00     0.001 A 
ATOM     76  C   UNL A   1      37.723  32.861  37.908  1.00  0.00     0.000 A 
ENDBRANCH  58  71
ENDBRANCH  32  33
ENDBRANCH  25  27
ENDBRANCH  24  25
ENDBRANCH  23  24
ENDBRANCH  22  23
ENDBRANCH  21  22
ENDBRANCH   1  21
TORSDOF 18
ENDMDL
