MODEL 1
REMARK VINA RESULT:     -10.9      0.000      0.000
REMARK SMILES COc1ccc2c(c1)c(CC(=O)OCCOCCOCCOC(=O)c1ccc(-c3c4nc(c(-c5ccccc5)c5ccc([nH]5)c(-c5ccccc5)c5nc(c(-c6ccccc6)c6ccc3[nH]6)C=C5)C=C4)cc1)c(C)n2Cc1ccn(C(F)F)c(=O)c1
REMARK SMILES IDX 17 1 16 2 15 3 14 4 13 5 11 6 12 7 10 8 9 9 3 10 4 11 8 12
REMARK SMILES IDX 5 13 7 14 6 15 75 16 73 17 74 18 2 19 1 20 76 21 77 22 78 23
REMARK SMILES IDX 86 24 79 25 84 26 80 27 85 28 81 29 82 30 83 31 18 32 19 33
REMARK SMILES IDX 20 34 21 35 22 36 23 37 24 38 25 39 26 40 72 41 27 42 71 43
REMARK SMILES IDX 28 44 29 45 30 46 65 47 31 48 70 49 64 50 66 51 32 52 69 53
REMARK SMILES IDX 63 54 62 55 33 57 55 58 40 59 54 60 41 61 44 62 53 63 67 64
REMARK SMILES IDX 42 65 43 66 52 68 68 69 45 70 34 71 35 72 39 73 36 74 38 75
REMARK SMILES IDX 37 76 56 77 57 78 61 79 58 80 60 81 59 82 46 83 47 84 51 85
REMARK SMILES IDX 48 86 50 87 49 88
REMARK H PARENT 66 56 44 67
REMARK Flexibility Score: inf
ROOT
ATOM      1  C   UNL A   1      34.014  22.544  26.175  1.00  0.00     0.188 C 
ENDROOT
BRANCH   1   2
ATOM      2  O   UNL A   1      33.222  22.895  25.048  1.00  0.00    -0.376 OA
BRANCH   2   3
ATOM      3  C   UNL A   1      33.199  22.021  23.928  1.00  0.00     0.202 C 
BRANCH   3   4
ATOM      4  C   UNL A   1      32.835  22.781  22.644  1.00  0.00     0.261 C 
BRANCH   4   5
ATOM      5  O   UNL A   1      33.768  23.856  22.363  1.00  0.00    -0.463 OA
BRANCH   5   6
ATOM      6  C   UNL A   1      33.229  25.085  22.153  1.00  0.00     0.310 C 
ATOM      7  O   UNL A   1      33.649  25.862  21.296  1.00  0.00    -0.252 OA
BRANCH   6   8
ATOM      8  C   UNL A   1      31.918  25.344  22.880  1.00  0.00     0.160 C 
BRANCH   8   9
ATOM      9  C   UNL A   1      31.680  26.499  23.790  1.00  0.00    -0.008 A 
ATOM     10  C   UNL A   1      29.462  29.369  22.524  1.00  0.00     0.119 A 
ATOM     11  C   UNL A   1      29.762  30.263  23.540  1.00  0.00     0.048 A 
ATOM     12  C   UNL A   1      29.953  28.060  22.563  1.00  0.00     0.057 A 
ATOM     13  C   UNL A   1      30.588  29.874  24.601  1.00  0.00     0.031 A 
ATOM     14  C   UNL A   1      30.852  27.657  23.571  1.00  0.00     0.007 A 
ATOM     15  C   UNL A   1      31.142  28.582  24.579  1.00  0.00     0.049 A 
ATOM     16  N   UNL A   1      31.998  27.940  25.447  1.00  0.00    -0.340 N 
ATOM     17  C   UNL A   1      32.560  26.862  24.804  1.00  0.00     0.020 A 
ATOM     18  C   UNL A   1      33.882  26.270  25.153  1.00  0.00     0.065 C 
BRANCH  10  19
ATOM     19  O   UNL A   1      28.657  29.694  21.463  1.00  0.00    -0.497 OA
ATOM     20  C   UNL A   1      28.339  31.087  21.399  1.00  0.00     0.278 C 
ENDBRANCH  10  19
BRANCH  16  21
ATOM     21  C   UNL A   1      32.150  28.239  26.869  1.00  0.00     0.158 C 
BRANCH  21  22
ATOM     22  C   UNL A   1      33.147  29.365  27.026  1.00  0.00    -0.021 A 
ATOM     23  C   UNL A   1      34.559  29.039  27.072  1.00  0.00     0.024 A 
ATOM     24  C   UNL A   1      32.758  30.626  27.279  1.00  0.00     0.077 A 
ATOM     25  C   UNL A   1      35.439  29.924  27.549  1.00  0.00     0.095 A 
ATOM     26  C   UNL A   1      33.748  31.657  27.703  1.00  0.00     0.255 A 
ATOM     27  N   UNL A   1      35.041  31.199  27.901  1.00  0.00    -0.258 N 
ATOM     28  O   UNL A   1      33.358  32.807  27.876  1.00  0.00    -0.269 OA
BRANCH  27  29
ATOM     29  C   UNL A   1      35.999  32.138  28.423  1.00  0.00     0.451 C 
ATOM     30  F   UNL A   1      37.162  31.517  28.731  1.00  0.00    -0.185 F 
ATOM     31  F   UNL A   1      36.269  33.124  27.533  1.00  0.00    -0.185 F 
ENDBRANCH  27  29
ENDBRANCH  21  22
ENDBRANCH  16  21
ENDBRANCH   8   9
ENDBRANCH   6   8
ENDBRANCH   5   6
ENDBRANCH   4   5
ENDBRANCH   3   4
ENDBRANCH   2   3
ENDBRANCH   1   2
BRANCH   1  32
ATOM     32  C   UNL A   1      35.123  21.501  26.045  1.00  0.00     0.188 C 
BRANCH  32  33
ATOM     33  O   UNL A   1      36.426  21.915  25.676  1.00  0.00    -0.376 OA
BRANCH  33  34
ATOM     34  C   UNL A   1      37.241  20.941  25.034  1.00  0.00     0.202 C 
BRANCH  34  35
ATOM     35  C   UNL A   1      38.634  20.751  25.652  1.00  0.00     0.261 C 
BRANCH  35  36
ATOM     36  O   UNL A   1      39.272  22.036  25.845  1.00  0.00    -0.460 OA
BRANCH  36  37
ATOM     37  C   UNL A   1      40.100  22.093  26.922  1.00  0.00     0.338 C 
ATOM     38  O   UNL A   1      40.995  21.306  27.186  1.00  0.00    -0.246 OA
BRANCH  37  39
ATOM     39  C   UNL A   1      40.018  23.469  27.482  1.00  0.00     0.060 A 
ATOM     40  C   UNL A   1      38.967  24.359  27.244  1.00  0.00     0.016 A 
ATOM     41  C   UNL A   1      41.185  23.937  28.092  1.00  0.00     0.016 A 
ATOM     42  C   UNL A   1      39.107  25.718  27.594  1.00  0.00     0.010 A 
ATOM     43  C   UNL A   1      41.349  25.291  28.375  1.00  0.00     0.010 A 
ATOM     44  C   UNL A   1      40.312  26.196  28.130  1.00  0.00    -0.014 A 
BRANCH  44  45
ATOM     45  C   UNL A   1      40.479  27.549  28.682  1.00  0.00     0.031 A 
ATOM     46  C   UNL A   1      41.528  28.352  28.044  1.00  0.00     0.074 A 
ATOM     47  C   UNL A   1      39.872  28.161  29.719  1.00  0.00     0.049 A 
ATOM     48  N   UNL A   1      42.667  28.545  28.617  1.00  0.00    -0.248 NA
ATOM     49  C   UNL A   1      41.399  28.928  26.713  1.00  0.00     0.031 C 
ATOM     50  C   UNL A   1      39.057  27.561  30.750  1.00  0.00     0.029 A 
ATOM     51  N   UNL A   1      39.865  29.497  30.062  1.00  0.00    -0.354 N 
ATOM     52  C   UNL A   1      43.383  29.377  27.792  1.00  0.00     0.074 A 
ATOM     53  C   UNL A   1      42.593  29.519  26.587  1.00  0.00     0.031 C 
ATOM     54  C   UNL A   1      38.472  28.527  31.498  1.00  0.00     0.029 A 
ATOM     55  C   UNL A   1      38.937  29.831  31.040  1.00  0.00     0.049 A 
ATOM     56  H   UNL A   1      40.467  30.158  29.649  1.00  0.00     0.167 HD
ATOM     57  C   UNL A   1      44.513  29.981  28.241  1.00  0.00     0.031 A 
ATOM     58  C   UNL A   1      38.917  30.890  31.884  1.00  0.00     0.031 A 
ATOM     59  C   UNL A   1      44.954  29.453  29.513  1.00  0.00     0.049 A 
ATOM     60  C   UNL A   1      40.315  31.190  32.241  1.00  0.00     0.074 A 
ATOM     61  C   UNL A   1      45.398  28.220  29.949  1.00  0.00     0.029 A 
ATOM     62  N   UNL A   1      44.619  30.158  30.645  1.00  0.00    -0.354 N 
ATOM     63  N   UNL A   1      41.031  30.434  33.022  1.00  0.00    -0.248 NA
ATOM     64  C   UNL A   1      41.059  32.183  31.484  1.00  0.00     0.031 C 
ATOM     65  C   UNL A   1      44.943  28.098  31.294  1.00  0.00     0.029 A 
ATOM     66  C   UNL A   1      44.253  29.265  31.625  1.00  0.00     0.049 A 
ATOM     67  H   UNL A   1      44.639  31.139  30.739  1.00  0.00     0.167 HD
ATOM     68  C   UNL A   1      42.318  30.541  32.525  1.00  0.00     0.074 A 
ATOM     69  C   UNL A   1      42.301  31.746  31.706  1.00  0.00     0.031 C 
ATOM     70  C   UNL A   1      43.198  29.498  32.599  1.00  0.00     0.031 A 
BRANCH  57  71
ATOM     71  C   UNL A   1      45.102  31.210  27.634  1.00  0.00    -0.014 A 
ATOM     72  C   UNL A   1      46.480  31.358  27.396  1.00  0.00     0.009 A 
ATOM     73  C   UNL A   1      44.247  32.189  27.108  1.00  0.00     0.009 A 
ATOM     74  C   UNL A   1      46.989  32.462  26.709  1.00  0.00     0.001 A 
ATOM     75  C   UNL A   1      44.749  33.274  26.384  1.00  0.00     0.001 A 
ATOM     76  C   UNL A   1      46.121  33.415  26.194  1.00  0.00     0.000 A 
ENDBRANCH  57  71
BRANCH  58  77
ATOM     77  C   UNL A   1      37.809  31.869  31.975  1.00  0.00    -0.014 A 
ATOM     78  C   UNL A   1      37.969  33.208  31.574  1.00  0.00     0.009 A 
ATOM     79  C   UNL A   1      36.579  31.507  32.549  1.00  0.00     0.009 A 
ATOM     80  C   UNL A   1      36.946  34.149  31.745  1.00  0.00     0.001 A 
ATOM     81  C   UNL A   1      35.555  32.449  32.724  1.00  0.00     0.001 A 
ATOM     82  C   UNL A   1      35.740  33.770  32.325  1.00  0.00     0.000 A 
ENDBRANCH  58  77
BRANCH  70  83
ATOM     83  C   UNL A   1      42.867  28.346  33.531  1.00  0.00    -0.014 A 
ATOM     84  C   UNL A   1      41.546  27.881  33.611  1.00  0.00     0.009 A 
ATOM     85  C   UNL A   1      43.795  27.821  34.446  1.00  0.00     0.009 A 
ATOM     86  C   UNL A   1      41.166  26.943  34.580  1.00  0.00     0.001 A 
ATOM     87  C   UNL A   1      43.428  26.865  35.399  1.00  0.00     0.001 A 
ATOM     88  C   UNL A   1      42.108  26.436  35.474  1.00  0.00     0.000 A 
ENDBRANCH  70  83
ENDBRANCH  44  45
ENDBRANCH  37  39
ENDBRANCH  36  37
ENDBRANCH  35  36
ENDBRANCH  34  35
ENDBRANCH  33  34
ENDBRANCH  32  33
ENDBRANCH   1  32
TORSDOF 22
ENDMDL
MODEL 2
REMARK VINA RESULT:     -10.1      1.968      3.419
REMARK SMILES COc1ccc2c(c1)c(CC(=O)OCCOCCOCCOC(=O)c1ccc(-c3c4nc(c(-c5ccccc5)c5ccc([nH]5)c(-c5ccccc5)c5nc(c(-c6ccccc6)c6ccc3[nH]6)C=C5)C=C4)cc1)c(C)n2Cc1ccn(C(F)F)c(=O)c1
REMARK SMILES IDX 17 1 16 2 15 3 14 4 13 5 11 6 12 7 10 8 9 9 3 10 4 11 8 12
REMARK SMILES IDX 5 13 7 14 6 15 75 16 73 17 74 18 2 19 1 20 76 21 77 22 78 23
REMARK SMILES IDX 86 24 79 25 84 26 80 27 85 28 81 29 82 30 83 31 18 32 19 33
REMARK SMILES IDX 20 34 21 35 22 36 23 37 24 38 25 39 26 40 72 41 27 42 71 43
REMARK SMILES IDX 28 44 29 45 30 46 65 47 31 48 70 49 64 50 66 51 32 52 69 53
REMARK SMILES IDX 63 54 62 55 33 57 55 58 40 59 54 60 41 61 44 62 53 63 67 64
REMARK SMILES IDX 42 65 43 66 52 68 68 69 45 70 34 71 35 72 39 73 36 74 38 75
REMARK SMILES IDX 37 76 56 77 57 78 61 79 58 80 60 81 59 82 46 83 47 84 51 85
REMARK SMILES IDX 48 86 50 87 49 88
REMARK H PARENT 66 56 44 67
REMARK Flexibility Score: inf
ROOT
ATOM      1  C   UNL A   1      38.534  24.052  26.129  1.00  0.00     0.188 C 
ENDROOT
BRANCH   1   2
ATOM      2  O   UNL A   1      37.136  23.965  25.885  1.00  0.00    -0.376 OA
BRANCH   2   3
ATOM      3  C   UNL A   1      36.500  22.699  25.993  1.00  0.00     0.202 C 
BRANCH   3   4
ATOM      4  C   UNL A   1      35.018  22.792  25.598  1.00  0.00     0.261 C 
BRANCH   4   5
ATOM      5  O   UNL A   1      34.762  22.202  24.299  1.00  0.00    -0.463 OA
BRANCH   5   6
ATOM      6  C   UNL A   1      34.864  23.030  23.227  1.00  0.00     0.310 C 
ATOM      7  O   UNL A   1      35.939  23.304  22.693  1.00  0.00    -0.252 OA
BRANCH   6   8
ATOM      8  C   UNL A   1      33.541  23.405  22.577  1.00  0.00     0.160 C 
BRANCH   8   9
ATOM      9  C   UNL A   1      32.699  24.560  22.998  1.00  0.00    -0.008 A 
ATOM     10  C   UNL A   1      30.614  24.198  26.206  1.00  0.00     0.119 A 
ATOM     11  C   UNL A   1      29.844  25.337  26.024  1.00  0.00     0.048 A 
ATOM     12  C   UNL A   1      31.661  23.902  25.326  1.00  0.00     0.057 A 
ATOM     13  C   UNL A   1      30.086  26.186  24.939  1.00  0.00     0.031 A 
ATOM     14  C   UNL A   1      31.881  24.689  24.176  1.00  0.00     0.007 A 
ATOM     15  C   UNL A   1      31.085  25.828  24.017  1.00  0.00     0.049 A 
ATOM     16  N   UNL A   1      31.518  26.433  22.857  1.00  0.00    -0.340 N 
ATOM     17  C   UNL A   1      32.219  25.515  22.110  1.00  0.00     0.020 A 
ATOM     18  C   UNL A   1      32.363  25.573  20.627  1.00  0.00     0.065 C 
BRANCH  10  19
ATOM     19  O   UNL A   1      30.426  23.332  27.251  1.00  0.00    -0.497 OA
ATOM     20  C   UNL A   1      31.501  22.403  27.417  1.00  0.00     0.278 C 
ENDBRANCH  10  19
BRANCH  16  21
ATOM     21  C   UNL A   1      31.414  27.858  22.551  1.00  0.00     0.158 C 
BRANCH  21  22
ATOM     22  C   UNL A   1      32.115  28.641  23.639  1.00  0.00    -0.021 A 
ATOM     23  C   UNL A   1      33.483  28.295  23.970  1.00  0.00     0.024 A 
ATOM     24  C   UNL A   1      31.461  29.532  24.403  1.00  0.00     0.077 A 
ATOM     25  C   UNL A   1      34.019  28.701  25.125  1.00  0.00     0.095 A 
ATOM     26  C   UNL A   1      32.092  30.084  25.636  1.00  0.00     0.255 A 
ATOM     27  N   UNL A   1      33.325  29.546  25.970  1.00  0.00    -0.258 N 
ATOM     28  O   UNL A   1      31.480  30.931  26.278  1.00  0.00    -0.269 OA
BRANCH  27  29
ATOM     29  C   UNL A   1      33.912  29.967  27.215  1.00  0.00     0.451 C 
ATOM     30  F   UNL A   1      34.184  28.899  28.002  1.00  0.00    -0.185 F 
ATOM     31  F   UNL A   1      35.065  30.651  27.018  1.00  0.00    -0.185 F 
ENDBRANCH  27  29
ENDBRANCH  21  22
ENDBRANCH  16  21
ENDBRANCH   8   9
ENDBRANCH   6   8
ENDBRANCH   5   6
ENDBRANCH   4   5
ENDBRANCH   3   4
ENDBRANCH   2   3
ENDBRANCH   1   2
BRANCH   1  32
ATOM     32  C   UNL A   1      39.243  22.979  26.955  1.00  0.00     0.188 C 
BRANCH  32  33
ATOM     33  O   UNL A   1      40.035  22.007  26.297  1.00  0.00    -0.376 OA
BRANCH  33  34
ATOM     34  C   UNL A   1      40.720  21.080  27.132  1.00  0.00     0.202 C 
BRANCH  34  35
ATOM     35  C   UNL A   1      42.243  21.271  27.199  1.00  0.00     0.261 C 
BRANCH  35  36
ATOM     36  O   UNL A   1      42.623  22.484  26.507  1.00  0.00    -0.460 OA
BRANCH  36  37
ATOM     37  C   UNL A   1      43.546  23.237  27.164  1.00  0.00     0.338 C 
ATOM     38  O   UNL A   1      44.747  23.023  27.215  1.00  0.00    -0.246 OA
BRANCH  37  39
ATOM     39  C   UNL A   1      42.930  24.562  27.444  1.00  0.00     0.060 A 
ATOM     40  C   UNL A   1      42.092  25.248  26.560  1.00  0.00     0.016 A 
ATOM     41  C   UNL A   1      43.423  25.224  28.571  1.00  0.00     0.016 A 
ATOM     42  C   UNL A   1      41.778  26.601  26.800  1.00  0.00     0.010 A 
ATOM     43  C   UNL A   1      43.168  26.579  28.771  1.00  0.00     0.010 A 
ATOM     44  C   UNL A   1      42.342  27.282  27.889  1.00  0.00    -0.014 A 
BRANCH  44  45
ATOM     45  C   UNL A   1      41.933  28.630  28.309  1.00  0.00     0.031 A 
ATOM     46  C   UNL A   1      42.897  29.693  28.006  1.00  0.00     0.074 A 
ATOM     47  C   UNL A   1      40.843  29.052  28.983  1.00  0.00     0.049 A 
ATOM     48  N   UNL A   1      43.645  30.203  28.924  1.00  0.00    -0.248 NA
ATOM     49  C   UNL A   1      43.134  30.201  26.661  1.00  0.00     0.031 C 
ATOM     50  C   UNL A   1      39.886  28.254  29.712  1.00  0.00     0.029 A 
ATOM     51  N   UNL A   1      40.361  30.335  29.148  1.00  0.00    -0.354 N 
ATOM     52  C   UNL A   1      44.376  31.199  28.324  1.00  0.00     0.074 A 
ATOM     53  C   UNL A   1      44.090  31.104  26.908  1.00  0.00     0.031 C 
ATOM     54  C   UNL A   1      38.833  29.019  30.087  1.00  0.00     0.029 A 
ATOM     55  C   UNL A   1      39.081  30.399  29.683  1.00  0.00     0.049 A 
ATOM     56  H   UNL A   1      40.881  31.136  28.908  1.00  0.00     0.167 HD
ATOM     57  C   UNL A   1      45.056  32.100  29.080  1.00  0.00     0.031 A 
ATOM     58  C   UNL A   1      38.471  31.414  30.340  1.00  0.00     0.031 A 
ATOM     59  C   UNL A   1      45.105  31.725  30.475  1.00  0.00     0.049 A 
ATOM     60  C   UNL A   1      39.502  32.099  31.140  1.00  0.00     0.074 A 
ATOM     61  C   UNL A   1      45.656  30.671  31.176  1.00  0.00     0.029 A 
ATOM     62  N   UNL A   1      44.199  32.315  31.325  1.00  0.00    -0.354 N 
ATOM     63  N   UNL A   1      40.041  31.580  32.205  1.00  0.00    -0.248 NA
ATOM     64  C   UNL A   1      40.191  33.257  30.595  1.00  0.00     0.031 C 
ATOM     65  C   UNL A   1      44.777  30.433  32.272  1.00  0.00     0.029 A 
ATOM     66  C   UNL A   1      43.735  31.361  32.200  1.00  0.00     0.049 A 
ATOM     67  H   UNL A   1      43.927  33.261  31.309  1.00  0.00     0.167 HD
ATOM     68  C   UNL A   1      41.345  32.044  32.196  1.00  0.00     0.074 A 
ATOM     69  C   UNL A   1      41.326  33.190  31.296  1.00  0.00     0.031 C 
ATOM     70  C   UNL A   1      42.370  31.292  32.697  1.00  0.00     0.031 A 
BRANCH  57  71
ATOM     71  C   UNL A   1      45.490  33.441  28.591  1.00  0.00    -0.014 A 
ATOM     72  C   UNL A   1      46.750  33.670  28.010  1.00  0.00     0.009 A 
ATOM     73  C   UNL A   1      44.553  34.483  28.535  1.00  0.00     0.009 A 
ATOM     74  C   UNL A   1      47.080  34.903  27.445  1.00  0.00     0.001 A 
ATOM     75  C   UNL A   1      44.867  35.705  27.933  1.00  0.00     0.001 A 
ATOM     76  C   UNL A   1      46.134  35.918  27.398  1.00  0.00     0.000 A 
ENDBRANCH  57  71
BRANCH  58  77
ATOM     77  C   UNL A   1      37.197  32.042  29.916  1.00  0.00    -0.014 A 
ATOM     78  C   UNL A   1      35.989  31.796  30.593  1.00  0.00     0.009 A 
ATOM     79  C   UNL A   1      37.144  32.842  28.763  1.00  0.00     0.009 A 
ATOM     80  C   UNL A   1      34.774  32.322  30.134  1.00  0.00     0.001 A 
ATOM     81  C   UNL A   1      35.928  33.366  28.300  1.00  0.00     0.001 A 
ATOM     82  C   UNL A   1      34.744  33.103  28.984  1.00  0.00     0.000 A 
ENDBRANCH  58  77
BRANCH  70  83
ATOM     83  C   UNL A   1      42.024  30.099  33.571  1.00  0.00    -0.014 A 
ATOM     84  C   UNL A   1      42.176  30.196  34.962  1.00  0.00     0.009 A 
ATOM     85  C   UNL A   1      41.708  28.838  33.039  1.00  0.00     0.009 A 
ATOM     86  C   UNL A   1      42.037  29.071  35.785  1.00  0.00     0.001 A 
ATOM     87  C   UNL A   1      41.542  27.715  33.858  1.00  0.00     0.001 A 
ATOM     88  C   UNL A   1      41.720  27.831  35.232  1.00  0.00     0.000 A 
ENDBRANCH  70  83
ENDBRANCH  44  45
ENDBRANCH  37  39
ENDBRANCH  36  37
ENDBRANCH  35  36
ENDBRANCH  34  35
ENDBRANCH  33  34
ENDBRANCH  32  33
ENDBRANCH   1  32
TORSDOF 22
ENDMDL
MODEL 3
REMARK VINA RESULT:      -9.4      3.691      8.806
REMARK SMILES COc1ccc2c(c1)c(CC(=O)OCCOCCOCCOC(=O)c1ccc(-c3c4nc(c(-c5ccccc5)c5ccc([nH]5)c(-c5ccccc5)c5nc(c(-c6ccccc6)c6ccc3[nH]6)C=C5)C=C4)cc1)c(C)n2Cc1ccn(C(F)F)c(=O)c1
REMARK SMILES IDX 17 1 16 2 15 3 14 4 13 5 11 6 12 7 10 8 9 9 3 10 4 11 8 12
REMARK SMILES IDX 5 13 7 14 6 15 75 16 73 17 74 18 2 19 1 20 76 21 77 22 78 23
REMARK SMILES IDX 86 24 79 25 84 26 80 27 85 28 81 29 82 30 83 31 18 32 19 33
REMARK SMILES IDX 20 34 21 35 22 36 23 37 24 38 25 39 26 40 72 41 27 42 71 43
REMARK SMILES IDX 28 44 29 45 30 46 65 47 31 48 70 49 64 50 66 51 32 52 69 53
REMARK SMILES IDX 63 54 62 55 33 57 55 58 40 59 54 60 41 61 44 62 53 63 67 64
REMARK SMILES IDX 42 65 43 66 52 68 68 69 45 70 34 71 35 72 39 73 36 74 38 75
REMARK SMILES IDX 37 76 56 77 57 78 61 79 58 80 60 81 59 82 46 83 47 84 51 85
REMARK SMILES IDX 48 86 50 87 49 88
REMARK H PARENT 66 56 44 67
REMARK Flexibility Score: inf
ROOT
ATOM      1  C   UNL A   1      32.480  27.008  26.857  1.00  0.00     0.188 C 
ENDROOT
BRANCH   1   2
ATOM      2  O   UNL A   1      31.902  25.714  26.967  1.00  0.00    -0.376 OA
BRANCH   2   3
ATOM      3  C   UNL A   1      32.684  24.582  26.610  1.00  0.00     0.202 C 
BRANCH   3   4
ATOM      4  C   UNL A   1      34.154  24.974  26.396  1.00  0.00     0.261 C 
BRANCH   4   5
ATOM      5  O   UNL A   1      35.009  23.815  26.230  1.00  0.00    -0.463 OA
BRANCH   5   6
ATOM      6  C   UNL A   1      36.011  23.927  25.320  1.00  0.00     0.310 C 
ATOM      7  O   UNL A   1      37.192  24.064  25.638  1.00  0.00    -0.252 OA
BRANCH   6   8
ATOM      8  C   UNL A   1      35.609  23.629  23.883  1.00  0.00     0.160 C 
BRANCH   8   9
ATOM      9  C   UNL A   1      34.267  23.126  23.477  1.00  0.00    -0.008 A 
ATOM     10  C   UNL A   1      31.387  25.659  23.240  1.00  0.00     0.119 A 
ATOM     11  C   UNL A   1      30.366  24.728  23.121  1.00  0.00     0.048 A 
ATOM     12  C   UNL A   1      32.724  25.247  23.255  1.00  0.00     0.057 A 
ATOM     13  C   UNL A   1      30.662  23.362  23.047  1.00  0.00     0.031 A 
ATOM     14  C   UNL A   1      33.056  23.876  23.265  1.00  0.00     0.007 A 
ATOM     15  C   UNL A   1      32.005  22.961  23.150  1.00  0.00     0.049 A 
ATOM     16  N   UNL A   1      32.589  21.713  23.146  1.00  0.00    -0.340 N 
ATOM     17  C   UNL A   1      33.858  21.812  23.669  1.00  0.00     0.020 A 
ATOM     18  C   UNL A   1      34.581  20.693  24.337  1.00  0.00     0.065 C 
BRANCH  10  19
ATOM     19  O   UNL A   1      31.158  27.008  23.313  1.00  0.00    -0.497 OA
ATOM     20  C   UNL A   1      29.885  27.335  23.878  1.00  0.00     0.278 C 
ENDBRANCH  10  19
BRANCH  16  21
ATOM     21  C   UNL A   1      32.032  20.515  22.522  1.00  0.00     0.158 C 
BRANCH  21  22
ATOM     22  C   UNL A   1      32.515  19.300  23.283  1.00  0.00    -0.021 A 
ATOM     23  C   UNL A   1      33.045  18.179  22.532  1.00  0.00     0.024 A 
ATOM     24  C   UNL A   1      32.324  19.171  24.606  1.00  0.00     0.077 A 
ATOM     25  C   UNL A   1      33.155  16.977  23.106  1.00  0.00     0.095 A 
ATOM     26  C   UNL A   1      32.554  17.863  25.283  1.00  0.00     0.255 A 
ATOM     27  N   UNL A   1      32.875  16.804  24.448  1.00  0.00    -0.258 N 
ATOM     28  O   UNL A   1      32.415  17.801  26.500  1.00  0.00    -0.269 OA
BRANCH  27  29
ATOM     29  C   UNL A   1      32.988  15.502  25.049  1.00  0.00     0.451 C 
ATOM     30  F   UNL A   1      33.918  15.507  26.033  1.00  0.00    -0.185 F 
ATOM     31  F   UNL A   1      31.811  15.094  25.583  1.00  0.00    -0.185 F 
ENDBRANCH  27  29
ENDBRANCH  21  22
ENDBRANCH  16  21
ENDBRANCH   8   9
ENDBRANCH   6   8
ENDBRANCH   5   6
ENDBRANCH   4   5
ENDBRANCH   3   4
ENDBRANCH   2   3
ENDBRANCH   1   2
BRANCH   1  32
ATOM     32  C   UNL A   1      31.834  28.205  27.554  1.00  0.00     0.188 C 
BRANCH  32  33
ATOM     33  O   UNL A   1      31.627  29.403  26.828  1.00  0.00    -0.376 OA
BRANCH  33  34
ATOM     34  C   UNL A   1      32.794  30.131  26.463  1.00  0.00     0.202 C 
BRANCH  34  35
ATOM     35  C   UNL A   1      32.898  31.537  27.072  1.00  0.00     0.261 C 
BRANCH  35  36
ATOM     36  O   UNL A   1      33.771  31.518  28.225  1.00  0.00    -0.460 OA
BRANCH  36  37
ATOM     37  C   UNL A   1      34.858  32.329  28.118  1.00  0.00     0.338 C 
ATOM     38  O   UNL A   1      34.843  33.547  28.041  1.00  0.00    -0.246 OA
BRANCH  37  39
ATOM     39  C   UNL A   1      36.052  31.542  28.531  1.00  0.00     0.060 A 
ATOM     40  C   UNL A   1      37.218  32.096  29.066  1.00  0.00     0.016 A 
ATOM     41  C   UNL A   1      36.050  30.202  28.136  1.00  0.00     0.016 A 
ATOM     42  C   UNL A   1      38.382  31.307  29.175  1.00  0.00     0.010 A 
ATOM     43  C   UNL A   1      37.217  29.444  28.180  1.00  0.00     0.010 A 
ATOM     44  C   UNL A   1      38.396  29.987  28.701  1.00  0.00    -0.014 A 
BRANCH  44  45
ATOM     45  C   UNL A   1      39.503  29.048  28.935  1.00  0.00     0.031 A 
ATOM     46  C   UNL A   1      39.742  28.710  30.342  1.00  0.00     0.074 A 
ATOM     47  C   UNL A   1      40.380  28.488  28.077  1.00  0.00     0.049 A 
ATOM     48  N   UNL A   1      40.729  29.219  30.996  1.00  0.00    -0.248 NA
ATOM     49  C   UNL A   1      38.864  27.843  31.118  1.00  0.00     0.031 C 
ATOM     50  C   UNL A   1      40.641  28.857  26.705  1.00  0.00     0.029 A 
ATOM     51  N   UNL A   1      41.244  27.430  28.279  1.00  0.00    -0.354 N 
ATOM     52  C   UNL A   1      40.700  28.653  32.248  1.00  0.00     0.074 A 
ATOM     53  C   UNL A   1      39.481  27.875  32.305  1.00  0.00     0.031 C 
ATOM     54  C   UNL A   1      41.448  27.939  26.124  1.00  0.00     0.029 A 
ATOM     55  C   UNL A   1      41.828  26.941  27.117  1.00  0.00     0.049 A 
ATOM     56  H   UNL A   1      41.430  27.055  29.170  1.00  0.00     0.167 HD
ATOM     57  C   UNL A   1      41.765  28.780  33.081  1.00  0.00     0.031 A 
ATOM     58  C   UNL A   1      42.971  26.233  26.960  1.00  0.00     0.031 A 
ATOM     59  C   UNL A   1      42.734  29.738  32.598  1.00  0.00     0.049 A 
ATOM     60  C   UNL A   1      43.931  26.722  27.967  1.00  0.00     0.074 A 
ATOM     61  C   UNL A   1      42.716  31.097  32.359  1.00  0.00     0.029 A 
ATOM     62  N   UNL A   1      43.835  29.249  31.934  1.00  0.00    -0.354 N 
ATOM     63  N   UNL A   1      44.506  27.887  27.897  1.00  0.00    -0.248 NA
ATOM     64  C   UNL A   1      44.038  26.049  29.251  1.00  0.00     0.031 C 
ATOM     65  C   UNL A   1      43.579  31.306  31.244  1.00  0.00     0.029 A 
ATOM     66  C   UNL A   1      44.096  30.067  30.860  1.00  0.00     0.049 A 
ATOM     67  H   UNL A   1      44.350  28.448  32.186  1.00  0.00     0.167 HD
ATOM     68  C   UNL A   1      44.645  28.285  29.216  1.00  0.00     0.074 A 
ATOM     69  C   UNL A   1      44.503  27.059  29.991  1.00  0.00     0.031 C 
ATOM     70  C   UNL A   1      44.584  29.603  29.570  1.00  0.00     0.031 A 
BRANCH  57  71
ATOM     71  C   UNL A   1      42.038  27.870  34.232  1.00  0.00    -0.014 A 
ATOM     72  C   UNL A   1      41.579  28.129  35.535  1.00  0.00     0.009 A 
ATOM     73  C   UNL A   1      42.618  26.616  33.987  1.00  0.00     0.009 A 
ATOM     74  C   UNL A   1      41.738  27.199  36.564  1.00  0.00     0.001 A 
ATOM     75  C   UNL A   1      42.741  25.667  35.006  1.00  0.00     0.001 A 
ATOM     76  C   UNL A   1      42.310  25.963  36.296  1.00  0.00     0.000 A 
ENDBRANCH  57  71
BRANCH  58  77
ATOM     77  C   UNL A   1      43.050  24.900  26.318  1.00  0.00    -0.014 A 
ATOM     78  C   UNL A   1      42.446  23.766  26.888  1.00  0.00     0.009 A 
ATOM     79  C   UNL A   1      43.811  24.712  25.152  1.00  0.00     0.009 A 
ATOM     80  C   UNL A   1      42.598  22.493  26.323  1.00  0.00     0.001 A 
ATOM     81  C   UNL A   1      43.968  23.438  24.587  1.00  0.00     0.001 A 
ATOM     82  C   UNL A   1      43.364  22.329  25.174  1.00  0.00     0.000 A 
ENDBRANCH  58  77
BRANCH  70  83
ATOM     83  C   UNL A   1      44.707  30.647  28.474  1.00  0.00    -0.014 A 
ATOM     84  C   UNL A   1      43.657  30.811  27.558  1.00  0.00     0.009 A 
ATOM     85  C   UNL A   1      45.896  31.353  28.231  1.00  0.00     0.009 A 
ATOM     86  C   UNL A   1      43.801  31.634  26.434  1.00  0.00     0.001 A 
ATOM     87  C   UNL A   1      46.037  32.197  27.124  1.00  0.00     0.001 A 
ATOM     88  C   UNL A   1      44.991  32.327  26.217  1.00  0.00     0.000 A 
ENDBRANCH  70  83
ENDBRANCH  44  45
ENDBRANCH  37  39
ENDBRANCH  36  37
ENDBRANCH  35  36
ENDBRANCH  34  35
ENDBRANCH  33  34
ENDBRANCH  32  33
ENDBRANCH   1  32
TORSDOF 22
ENDMDL
