MODEL 1
REMARK VINA RESULT:     -10.8      0.000      0.000
REMARK SMILES O=C(COc1ccc(Br)cc1/C=C1\C(=O)Nc2ccc(Br)cc21)OCCOCCOCCOC(=O)c1ccc(-c2c3nc(c(-c4ccccc4)c4ccc([nH]4)c(-c4ccccc4)c4nc(c(-c5ccccc5)c5ccc2[nH]5)C=C4)C=C3)cc1
REMARK SMILES IDX 28 1 27 2 26 3 25 4 24 5 2 6 1 7 3 8 4 9 5 10 6 11 11 12
REMARK SMILES IDX 7 13 10 14 8 15 9 16 12 17 13 18 14 19 23 20 15 21 16 22
REMARK SMILES IDX 17 23 22 24 18 26 20 27 19 28 21 29 29 30 30 31 31 32 32 33
REMARK SMILES IDX 33 34 34 35 35 36 36 37 37 38 83 39 38 40 82 41 39 42 40 43
REMARK SMILES IDX 41 44 76 45 42 46 81 47 75 48 77 49 43 50 80 51 74 52 73 53
REMARK SMILES IDX 44 55 66 56 51 57 65 58 52 59 55 60 64 61 78 62 53 63 54 64
REMARK SMILES IDX 63 66 79 67 56 68 45 69 46 70 50 71 47 72 49 73 48 74 67 75
REMARK SMILES IDX 68 76 72 77 69 78 71 79 70 80 57 81 58 82 62 83 59 84 61 85
REMARK SMILES IDX 60 86
REMARK H PARENT 16 25 77 54 55 65
REMARK Flexibility Score: inf
ROOT
ATOM      1  C   UNL A   1      33.023  35.378  29.082  1.00  0.00     0.188 C 
ENDROOT
BRANCH   1   2
ATOM      2  O   UNL A   1      34.298  34.936  28.630  1.00  0.00    -0.376 OA
BRANCH   2   3
ATOM      3  C   UNL A   1      34.651  33.598  28.926  1.00  0.00     0.202 C 
BRANCH   3   4
ATOM      4  C   UNL A   1      34.018  32.611  27.951  1.00  0.00     0.261 C 
BRANCH   4   5
ATOM      5  O   UNL A   1      34.763  31.384  27.776  1.00  0.00    -0.461 OA
BRANCH   5   6
ATOM      6  C   UNL A   1      34.277  30.210  27.315  1.00  0.00     0.344 C 
ATOM      7  O   UNL A   1      35.052  29.344  26.912  1.00  0.00    -0.248 OA
BRANCH   6   8
ATOM      8  C   UNL A   1      32.767  30.007  27.248  1.00  0.00     0.351 C 
BRANCH   8   9
ATOM      9  O   UNL A   1      32.291  28.766  26.712  1.00  0.00    -0.481 OA
BRANCH   9  10
ATOM     10  C   UNL A   1      31.711  29.031  25.488  1.00  0.00     0.127 A 
ATOM     11  C   UNL A   1      31.271  30.346  25.253  1.00  0.00     0.048 A 
ATOM     12  C   UNL A   1      31.414  27.970  24.613  1.00  0.00     0.018 A 
ATOM     13  C   UNL A   1      30.356  30.601  24.245  1.00  0.00     0.019 A 
ATOM     14  C   UNL A   1      30.418  28.252  23.670  1.00  0.00     0.027 A 
ATOM     15  C   UNL A   1      29.898  29.538  23.486  1.00  0.00     0.018 A 
ATOM     16  Br  UNL A   1      28.530  29.816  22.210  1.00  0.00    -0.051 Br
BRANCH  12  17
ATOM     17  C   UNL A   1      32.033  26.621  24.798  1.00  0.00     0.026 C 
ATOM     18  C   UNL A   1      32.698  25.845  23.917  1.00  0.00     0.050 C 
ATOM     19  C   UNL A   1      32.935  26.124  22.461  1.00  0.00     0.256 C 
ATOM     20  C   UNL A   1      32.863  24.388  24.060  1.00  0.00     0.012 A 
ATOM     21  O   UNL A   1      33.362  27.135  21.936  1.00  0.00    -0.269 OA
ATOM     22  N   UNL A   1      32.650  24.925  21.838  1.00  0.00    -0.321 N 
ATOM     23  C   UNL A   1      32.646  23.889  22.766  1.00  0.00     0.049 A 
ATOM     24  C   UNL A   1      33.232  23.527  25.075  1.00  0.00     0.026 A 
ATOM     25  H   UNL A   1      32.474  24.818  20.874  1.00  0.00     0.170 HD
ATOM     26  C   UNL A   1      32.599  22.546  22.472  1.00  0.00     0.028 A 
ATOM     27  C   UNL A   1      33.279  22.157  24.772  1.00  0.00     0.018 A 
ATOM     28  C   UNL A   1      32.913  21.664  23.503  1.00  0.00     0.018 A 
ATOM     29  Br  UNL A   1      33.920  20.932  26.065  1.00  0.00    -0.051 Br
ENDBRANCH  12  17
ENDBRANCH   9  10
ENDBRANCH   8   9
ENDBRANCH   6   8
ENDBRANCH   5   6
ENDBRANCH   4   5
ENDBRANCH   3   4
ENDBRANCH   2   3
ENDBRANCH   1   2
BRANCH   1  30
ATOM     30  C   UNL A   1      33.056  35.899  30.528  1.00  0.00     0.188 C 
BRANCH  30  31
ATOM     31  O   UNL A   1      32.857  35.000  31.617  1.00  0.00    -0.376 OA
BRANCH  31  32
ATOM     32  C   UNL A   1      33.812  34.926  32.666  1.00  0.00     0.202 C 
BRANCH  32  33
ATOM     33  C   UNL A   1      34.020  33.545  33.292  1.00  0.00     0.261 C 
BRANCH  33  34
ATOM     34  O   UNL A   1      34.970  32.735  32.578  1.00  0.00    -0.460 OA
BRANCH  34  35
ATOM     35  C   UNL A   1      36.096  32.410  33.258  1.00  0.00     0.338 C 
ATOM     36  O   UNL A   1      36.301  32.558  34.451  1.00  0.00    -0.246 OA
BRANCH  35  37
ATOM     37  C   UNL A   1      37.038  31.685  32.370  1.00  0.00     0.060 A 
ATOM     38  C   UNL A   1      36.936  31.727  30.976  1.00  0.00     0.016 A 
ATOM     39  C   UNL A   1      38.084  30.969  32.969  1.00  0.00     0.016 A 
ATOM     40  C   UNL A   1      37.913  31.101  30.189  1.00  0.00     0.010 A 
ATOM     41  C   UNL A   1      39.054  30.339  32.183  1.00  0.00     0.010 A 
ATOM     42  C   UNL A   1      38.997  30.428  30.785  1.00  0.00    -0.014 A 
BRANCH  42  43
ATOM     43  C   UNL A   1      40.167  30.013  29.966  1.00  0.00     0.031 A 
ATOM     44  C   UNL A   1      41.347  30.905  29.720  1.00  0.00     0.074 A 
ATOM     45  C   UNL A   1      40.137  28.793  29.394  1.00  0.00     0.049 A 
ATOM     46  N   UNL A   1      42.460  30.621  29.088  1.00  0.00    -0.248 NA
ATOM     47  C   UNL A   1      41.280  32.280  30.234  1.00  0.00     0.031 C 
ATOM     48  C   UNL A   1      39.029  27.842  29.507  1.00  0.00     0.029 A 
ATOM     49  N   UNL A   1      41.058  28.144  28.608  1.00  0.00    -0.354 N 
ATOM     50  C   UNL A   1      43.234  31.770  29.141  1.00  0.00     0.074 A 
ATOM     51  C   UNL A   1      42.454  32.770  29.842  1.00  0.00     0.031 C 
ATOM     52  C   UNL A   1      39.343  26.726  28.832  1.00  0.00     0.029 A 
ATOM     53  C   UNL A   1      40.663  26.885  28.226  1.00  0.00     0.049 A 
ATOM     54  H   UNL A   1      41.919  28.542  28.345  1.00  0.00     0.167 HD
ATOM     55  C   UNL A   1      44.486  31.962  28.664  1.00  0.00     0.031 A 
ATOM     56  C   UNL A   1      41.286  25.950  27.481  1.00  0.00     0.031 A 
ATOM     57  C   UNL A   1      45.274  30.976  27.970  1.00  0.00     0.049 A 
ATOM     58  C   UNL A   1      42.671  26.199  26.961  1.00  0.00     0.074 A 
ATOM     59  C   UNL A   1      46.584  31.092  27.531  1.00  0.00     0.029 A 
ATOM     60  N   UNL A   1      44.838  29.718  27.599  1.00  0.00    -0.354 N 
ATOM     61  N   UNL A   1      43.434  27.251  27.127  1.00  0.00    -0.248 NA
ATOM     62  C   UNL A   1      43.292  25.126  26.170  1.00  0.00     0.031 C 
ATOM     63  C   UNL A   1      46.927  29.920  26.856  1.00  0.00     0.029 A 
ATOM     64  C   UNL A   1      45.846  29.058  26.914  1.00  0.00     0.049 A 
ATOM     65  H   UNL A   1      43.947  29.346  27.793  1.00  0.00     0.167 HD
ATOM     66  C   UNL A   1      44.630  26.956  26.484  1.00  0.00     0.074 A 
ATOM     67  C   UNL A   1      44.500  25.624  25.936  1.00  0.00     0.031 C 
ATOM     68  C   UNL A   1      45.734  27.731  26.369  1.00  0.00     0.031 A 
BRANCH  55  69
ATOM     69  C   UNL A   1      45.154  33.283  28.901  1.00  0.00    -0.014 A 
ATOM     70  C   UNL A   1      45.771  33.549  30.135  1.00  0.00     0.009 A 
ATOM     71  C   UNL A   1      44.949  34.332  27.995  1.00  0.00     0.009 A 
ATOM     72  C   UNL A   1      46.143  34.852  30.467  1.00  0.00     0.001 A 
ATOM     73  C   UNL A   1      45.322  35.633  28.332  1.00  0.00     0.001 A 
ATOM     74  C   UNL A   1      45.910  35.895  29.570  1.00  0.00     0.000 A 
ENDBRANCH  55  69
BRANCH  56  75
ATOM     75  C   UNL A   1      40.600  24.658  27.229  1.00  0.00    -0.014 A 
ATOM     76  C   UNL A   1      41.115  23.463  27.755  1.00  0.00     0.009 A 
ATOM     77  C   UNL A   1      39.456  24.611  26.419  1.00  0.00     0.009 A 
ATOM     78  C   UNL A   1      40.508  22.242  27.459  1.00  0.00     0.001 A 
ATOM     79  C   UNL A   1      38.835  23.390  26.149  1.00  0.00     0.001 A 
ATOM     80  C   UNL A   1      39.366  22.207  26.660  1.00  0.00     0.000 A 
ENDBRANCH  56  75
BRANCH  68  81
ATOM     81  C   UNL A   1      46.921  27.179  25.631  1.00  0.00    -0.014 A 
ATOM     82  C   UNL A   1      47.867  26.398  26.315  1.00  0.00     0.009 A 
ATOM     83  C   UNL A   1      47.165  27.522  24.293  1.00  0.00     0.009 A 
ATOM     84  C   UNL A   1      49.041  25.986  25.679  1.00  0.00     0.001 A 
ATOM     85  C   UNL A   1      48.327  27.087  23.652  1.00  0.00     0.001 A 
ATOM     86  C   UNL A   1      49.268  26.329  24.348  1.00  0.00     0.000 A 
ENDBRANCH  68  81
ENDBRANCH  42  43
ENDBRANCH  35  37
ENDBRANCH  34  35
ENDBRANCH  33  34
ENDBRANCH  32  33
ENDBRANCH  31  32
ENDBRANCH  30  31
ENDBRANCH   1  30
TORSDOF 20
ENDMDL
MODEL 2
REMARK VINA RESULT:     -10.6      3.542      6.557
REMARK SMILES O=C(COc1ccc(Br)cc1/C=C1\C(=O)Nc2ccc(Br)cc21)OCCOCCOCCOC(=O)c1ccc(-c2c3nc(c(-c4ccccc4)c4ccc([nH]4)c(-c4ccccc4)c4nc(c(-c5ccccc5)c5ccc2[nH]5)C=C4)C=C3)cc1
REMARK SMILES IDX 28 1 27 2 26 3 25 4 24 5 2 6 1 7 3 8 4 9 5 10 6 11 11 12
REMARK SMILES IDX 7 13 10 14 8 15 9 16 12 17 13 18 14 19 23 20 15 21 16 22
REMARK SMILES IDX 17 23 22 24 18 26 20 27 19 28 21 29 29 30 30 31 31 32 32 33
REMARK SMILES IDX 33 34 34 35 35 36 36 37 37 38 83 39 38 40 82 41 39 42 40 43
REMARK SMILES IDX 41 44 76 45 42 46 81 47 75 48 77 49 43 50 80 51 74 52 73 53
REMARK SMILES IDX 44 55 66 56 51 57 65 58 52 59 55 60 64 61 78 62 53 63 54 64
REMARK SMILES IDX 63 66 79 67 56 68 45 69 46 70 50 71 47 72 49 73 48 74 67 75
REMARK SMILES IDX 68 76 72 77 69 78 71 79 70 80 57 81 58 82 62 83 59 84 61 85
REMARK SMILES IDX 60 86
REMARK H PARENT 16 25 77 54 55 65
REMARK Flexibility Score: inf
ROOT
ATOM      1  C   UNL A   1      33.123  35.193  29.341  1.00  0.00     0.188 C 
ENDROOT
BRANCH   1   2
ATOM      2  O   UNL A   1      34.317  34.605  28.839  1.00  0.00    -0.376 OA
BRANCH   2   3
ATOM      3  C   UNL A   1      34.538  33.243  29.155  1.00  0.00     0.202 C 
BRANCH   3   4
ATOM      4  C   UNL A   1      34.091  32.315  28.030  1.00  0.00     0.261 C 
BRANCH   4   5
ATOM      5  O   UNL A   1      34.986  31.208  27.778  1.00  0.00    -0.461 OA
BRANCH   5   6
ATOM      6  C   UNL A   1      34.627  29.935  27.498  1.00  0.00     0.344 C 
ATOM      7  O   UNL A   1      35.469  29.039  27.543  1.00  0.00    -0.248 OA
BRANCH   6   8
ATOM      8  C   UNL A   1      33.192  29.645  27.070  1.00  0.00     0.351 C 
BRANCH   8   9
ATOM      9  O   UNL A   1      32.928  28.375  26.463  1.00  0.00    -0.481 OA
BRANCH   9  10
ATOM     10  C   UNL A   1      32.161  28.597  25.337  1.00  0.00     0.127 A 
ATOM     11  C   UNL A   1      31.630  29.888  25.162  1.00  0.00     0.048 A 
ATOM     12  C   UNL A   1      31.789  27.513  24.521  1.00  0.00     0.018 A 
ATOM     13  C   UNL A   1      30.564  30.088  24.299  1.00  0.00     0.019 A 
ATOM     14  C   UNL A   1      30.651  27.737  23.735  1.00  0.00     0.027 A 
ATOM     15  C   UNL A   1      30.049  28.995  23.623  1.00  0.00     0.018 A 
ATOM     16  Br  UNL A   1      28.496  29.195  22.563  1.00  0.00    -0.051 Br
BRANCH  12  17
ATOM     17  C   UNL A   1      32.491  26.196  24.619  1.00  0.00     0.026 C 
ATOM     18  C   UNL A   1      32.111  25.054  25.228  1.00  0.00     0.050 C 
ATOM     19  C   UNL A   1      30.870  24.831  26.044  1.00  0.00     0.256 C 
ATOM     20  C   UNL A   1      33.041  23.992  25.647  1.00  0.00     0.012 A 
ATOM     21  O   UNL A   1      29.717  25.105  25.771  1.00  0.00    -0.269 OA
ATOM     22  N   UNL A   1      31.318  24.146  27.156  1.00  0.00    -0.321 N 
ATOM     23  C   UNL A   1      32.580  23.612  26.917  1.00  0.00     0.049 A 
ATOM     24  C   UNL A   1      34.097  23.315  25.068  1.00  0.00     0.026 A 
ATOM     25  H   UNL A   1      30.816  24.049  27.998  1.00  0.00     0.170 HD
ATOM     26  C   UNL A   1      33.237  22.710  27.721  1.00  0.00     0.028 A 
ATOM     27  C   UNL A   1      34.726  22.324  25.840  1.00  0.00     0.018 A 
ATOM     28  C   UNL A   1      34.340  22.062  27.170  1.00  0.00     0.018 A 
ATOM     29  Br  UNL A   1      36.080  21.251  25.065  1.00  0.00    -0.051 Br
ENDBRANCH  12  17
ENDBRANCH   9  10
ENDBRANCH   8   9
ENDBRANCH   6   8
ENDBRANCH   5   6
ENDBRANCH   4   5
ENDBRANCH   3   4
ENDBRANCH   2   3
ENDBRANCH   1   2
BRANCH   1  30
ATOM     30  C   UNL A   1      33.307  36.670  29.727  1.00  0.00     0.188 C 
BRANCH  30  31
ATOM     31  O   UNL A   1      32.750  37.166  30.942  1.00  0.00    -0.376 OA
BRANCH  31  32
ATOM     32  C   UNL A   1      33.579  37.819  31.893  1.00  0.00     0.202 C 
BRANCH  32  33
ATOM     33  C   UNL A   1      33.889  37.034  33.170  1.00  0.00     0.261 C 
BRANCH  33  34
ATOM     34  O   UNL A   1      34.894  36.022  32.985  1.00  0.00    -0.460 OA
BRANCH  34  35
ATOM     35  C   UNL A   1      34.435  34.752  32.863  1.00  0.00     0.338 C 
ATOM     36  O   UNL A   1      33.272  34.387  32.882  1.00  0.00    -0.246 OA
BRANCH  35  37
ATOM     37  C   UNL A   1      35.555  33.833  32.544  1.00  0.00     0.060 A 
ATOM     38  C   UNL A   1      36.676  34.243  31.816  1.00  0.00     0.016 A 
ATOM     39  C   UNL A   1      35.485  32.521  33.033  1.00  0.00     0.016 A 
ATOM     40  C   UNL A   1      37.746  33.355  31.629  1.00  0.00     0.010 A 
ATOM     41  C   UNL A   1      36.550  31.635  32.840  1.00  0.00     0.010 A 
ATOM     42  C   UNL A   1      37.705  32.054  32.166  1.00  0.00    -0.014 A 
BRANCH  42  43
ATOM     43  C   UNL A   1      38.936  31.221  32.212  1.00  0.00     0.031 A 
ATOM     44  C   UNL A   1      39.205  30.109  31.242  1.00  0.00     0.074 A 
ATOM     45  C   UNL A   1      39.824  31.460  33.197  1.00  0.00     0.049 A 
ATOM     46  N   UNL A   1      40.281  29.368  31.137  1.00  0.00    -0.248 NA
ATOM     47  C   UNL A   1      38.149  29.779  30.275  1.00  0.00     0.031 C 
ATOM     48  C   UNL A   1      39.665  32.476  34.240  1.00  0.00     0.029 A 
ATOM     49  N   UNL A   1      41.032  30.872  33.483  1.00  0.00    -0.354 N 
ATOM     50  C   UNL A   1      40.044  28.496  30.086  1.00  0.00     0.074 A 
ATOM     51  C   UNL A   1      38.708  28.778  29.600  1.00  0.00     0.031 C 
ATOM     52  C   UNL A   1      40.742  32.452  35.039  1.00  0.00     0.029 A 
ATOM     53  C   UNL A   1      41.660  31.413  34.579  1.00  0.00     0.049 A 
ATOM     54  H   UNL A   1      41.412  30.135  32.954  1.00  0.00     0.167 HD
ATOM     55  C   UNL A   1      40.874  27.562  29.566  1.00  0.00     0.031 A 
ATOM     56  C   UNL A   1      42.844  31.123  35.154  1.00  0.00     0.031 A 
ATOM     57  C   UNL A   1      42.204  27.275  30.036  1.00  0.00     0.049 A 
ATOM     58  C   UNL A   1      43.736  30.075  34.555  1.00  0.00     0.074 A 
ATOM     59  C   UNL A   1      43.123  26.388  29.495  1.00  0.00     0.029 A 
ATOM     60  N   UNL A   1      42.801  27.839  31.147  1.00  0.00    -0.354 N 
ATOM     61  N   UNL A   1      43.543  29.345  33.485  1.00  0.00    -0.248 NA
ATOM     62  C   UNL A   1      45.020  29.825  35.229  1.00  0.00     0.031 C 
ATOM     63  C   UNL A   1      44.259  26.384  30.304  1.00  0.00     0.029 A 
ATOM     64  C   UNL A   1      44.066  27.300  31.323  1.00  0.00     0.049 A 
ATOM     65  H   UNL A   1      42.390  28.521  31.727  1.00  0.00     0.167 HD
ATOM     66  C   UNL A   1      44.687  28.569  33.344  1.00  0.00     0.074 A 
ATOM     67  C   UNL A   1      45.577  28.925  34.427  1.00  0.00     0.031 C 
ATOM     68  C   UNL A   1      44.964  27.649  32.392  1.00  0.00     0.031 A 
BRANCH  55  69
ATOM     69  C   UNL A   1      40.419  26.775  28.373  1.00  0.00    -0.014 A 
ATOM     70  C   UNL A   1      39.682  25.593  28.549  1.00  0.00     0.009 A 
ATOM     71  C   UNL A   1      40.937  27.081  27.107  1.00  0.00     0.009 A 
ATOM     72  C   UNL A   1      39.498  24.714  27.480  1.00  0.00     0.001 A 
ATOM     73  C   UNL A   1      40.752  26.199  26.042  1.00  0.00     0.001 A 
ATOM     74  C   UNL A   1      40.041  25.014  26.230  1.00  0.00     0.000 A 
ENDBRANCH  55  69
BRANCH  56  75
ATOM     75  C   UNL A   1      43.269  31.888  36.352  1.00  0.00    -0.014 A 
ATOM     76  C   UNL A   1      42.945  31.434  37.640  1.00  0.00     0.009 A 
ATOM     77  C   UNL A   1      43.959  33.101  36.210  1.00  0.00     0.009 A 
ATOM     78  C   UNL A   1      43.284  32.190  38.762  1.00  0.00     0.001 A 
ATOM     79  C   UNL A   1      44.322  33.841  37.337  1.00  0.00     0.001 A 
ATOM     80  C   UNL A   1      43.977  33.390  38.610  1.00  0.00     0.000 A 
ENDBRANCH  56  75
BRANCH  68  81
ATOM     81  C   UNL A   1      46.291  26.944  32.443  1.00  0.00    -0.014 A 
ATOM     82  C   UNL A   1      46.448  25.810  33.258  1.00  0.00     0.009 A 
ATOM     83  C   UNL A   1      47.413  27.464  31.781  1.00  0.00     0.009 A 
ATOM     84  C   UNL A   1      47.704  25.221  33.420  1.00  0.00     0.001 A 
ATOM     85  C   UNL A   1      48.662  26.857  31.924  1.00  0.00     0.001 A 
ATOM     86  C   UNL A   1      48.809  25.743  32.750  1.00  0.00     0.000 A 
ENDBRANCH  68  81
ENDBRANCH  42  43
ENDBRANCH  35  37
ENDBRANCH  34  35
ENDBRANCH  33  34
ENDBRANCH  32  33
ENDBRANCH  31  32
ENDBRANCH  30  31
ENDBRANCH   1  30
TORSDOF 20
ENDMDL
MODEL 3
REMARK VINA RESULT:     -10.4      3.926      8.326
REMARK SMILES O=C(COc1ccc(Br)cc1/C=C1\C(=O)Nc2ccc(Br)cc21)OCCOCCOCCOC(=O)c1ccc(-c2c3nc(c(-c4ccccc4)c4ccc([nH]4)c(-c4ccccc4)c4nc(c(-c5ccccc5)c5ccc2[nH]5)C=C4)C=C3)cc1
REMARK SMILES IDX 28 1 27 2 26 3 25 4 24 5 2 6 1 7 3 8 4 9 5 10 6 11 11 12
REMARK SMILES IDX 7 13 10 14 8 15 9 16 12 17 13 18 14 19 23 20 15 21 16 22
REMARK SMILES IDX 17 23 22 24 18 26 20 27 19 28 21 29 29 30 30 31 31 32 32 33
REMARK SMILES IDX 33 34 34 35 35 36 36 37 37 38 83 39 38 40 82 41 39 42 40 43
REMARK SMILES IDX 41 44 76 45 42 46 81 47 75 48 77 49 43 50 80 51 74 52 73 53
REMARK SMILES IDX 44 55 66 56 51 57 65 58 52 59 55 60 64 61 78 62 53 63 54 64
REMARK SMILES IDX 63 66 79 67 56 68 45 69 46 70 50 71 47 72 49 73 48 74 67 75
REMARK SMILES IDX 68 76 72 77 69 78 71 79 70 80 57 81 58 82 62 83 59 84 61 85
REMARK SMILES IDX 60 86
REMARK H PARENT 16 25 77 54 55 65
REMARK Flexibility Score: inf
ROOT
ATOM      1  C   UNL A   1      32.971  29.638  25.677  1.00  0.00     0.188 C 
ENDROOT
BRANCH   1   2
ATOM      2  O   UNL A   1      32.785  28.248  25.919  1.00  0.00    -0.376 OA
BRANCH   2   3
ATOM      3  C   UNL A   1      33.953  27.477  26.128  1.00  0.00     0.202 C 
BRANCH   3   4
ATOM      4  C   UNL A   1      33.706  25.990  25.892  1.00  0.00     0.261 C 
BRANCH   4   5
ATOM      5  O   UNL A   1      34.644  25.364  24.988  1.00  0.00    -0.461 OA
BRANCH   5   6
ATOM      6  C   UNL A   1      35.105  24.096  25.063  1.00  0.00     0.344 C 
ATOM      7  O   UNL A   1      35.933  23.698  24.244  1.00  0.00    -0.248 OA
BRANCH   6   8
ATOM      8  C   UNL A   1      34.541  23.162  26.129  1.00  0.00     0.351 C 
BRANCH   8   9
ATOM      9  O   UNL A   1      33.116  23.076  26.244  1.00  0.00    -0.481 OA
BRANCH   9  10
ATOM     10  C   UNL A   1      32.709  21.930  25.591  1.00  0.00     0.127 A 
ATOM     11  C   UNL A   1      33.168  20.700  26.098  1.00  0.00     0.048 A 
ATOM     12  C   UNL A   1      32.025  22.031  24.366  1.00  0.00     0.018 A 
ATOM     13  C   UNL A   1      33.133  19.567  25.303  1.00  0.00     0.019 A 
ATOM     14  C   UNL A   1      32.097  20.886  23.560  1.00  0.00     0.027 A 
ATOM     15  C   UNL A   1      32.638  19.679  24.015  1.00  0.00     0.018 A 
ATOM     16  Br  UNL A   1      32.723  18.196  22.844  1.00  0.00    -0.051 Br
BRANCH  12  17
ATOM     17  C   UNL A   1      31.403  23.320  23.933  1.00  0.00     0.026 C 
ATOM     18  C   UNL A   1      31.779  24.182  22.966  1.00  0.00     0.050 C 
ATOM     19  C   UNL A   1      32.998  24.091  22.094  1.00  0.00     0.256 C 
ATOM     20  C   UNL A   1      31.382  25.600  22.923  1.00  0.00     0.012 A 
ATOM     21  O   UNL A   1      33.408  23.145  21.450  1.00  0.00    -0.269 OA
ATOM     22  N   UNL A   1      33.514  25.372  22.103  1.00  0.00    -0.321 N 
ATOM     23  C   UNL A   1      32.555  26.275  22.552  1.00  0.00     0.049 A 
ATOM     24  C   UNL A   1      30.203  26.304  23.072  1.00  0.00     0.026 A 
ATOM     25  H   UNL A   1      34.431  25.613  21.832  1.00  0.00     0.170 HD
ATOM     26  C   UNL A   1      32.655  27.646  22.500  1.00  0.00     0.028 A 
ATOM     27  C   UNL A   1      30.264  27.699  22.932  1.00  0.00     0.018 A 
ATOM     28  C   UNL A   1      31.483  28.370  22.705  1.00  0.00     0.018 A 
ATOM     29  Br  UNL A   1      28.668  28.718  22.972  1.00  0.00    -0.051 Br
ENDBRANCH  12  17
ENDBRANCH   9  10
ENDBRANCH   8   9
ENDBRANCH   6   8
ENDBRANCH   5   6
ENDBRANCH   4   5
ENDBRANCH   3   4
ENDBRANCH   2   3
ENDBRANCH   1   2
BRANCH   1  30
ATOM     30  C   UNL A   1      31.658  30.434  25.761  1.00  0.00     0.188 C 
BRANCH  30  31
ATOM     31  O   UNL A   1      31.553  31.547  26.646  1.00  0.00    -0.376 OA
BRANCH  31  32
ATOM     32  C   UNL A   1      32.624  31.867  27.521  1.00  0.00     0.202 C 
BRANCH  32  33
ATOM     33  C   UNL A   1      33.147  33.305  27.451  1.00  0.00     0.261 C 
BRANCH  33  34
ATOM     34  O   UNL A   1      32.302  34.250  28.130  1.00  0.00    -0.460 OA
BRANCH  34  35
ATOM     35  C   UNL A   1      32.943  35.258  28.771  1.00  0.00     0.338 C 
ATOM     36  O   UNL A   1      32.589  36.423  28.844  1.00  0.00    -0.246 OA
BRANCH  35  37
ATOM     37  C   UNL A   1      34.101  34.726  29.531  1.00  0.00     0.060 A 
ATOM     38  C   UNL A   1      33.972  34.200  30.820  1.00  0.00     0.016 A 
ATOM     39  C   UNL A   1      35.353  34.724  28.901  1.00  0.00     0.016 A 
ATOM     40  C   UNL A   1      35.086  33.623  31.449  1.00  0.00     0.010 A 
ATOM     41  C   UNL A   1      36.464  34.156  29.532  1.00  0.00     0.010 A 
ATOM     42  C   UNL A   1      36.333  33.568  30.798  1.00  0.00    -0.014 A 
BRANCH  42  43
ATOM     43  C   UNL A   1      37.427  32.718  31.339  1.00  0.00     0.031 A 
ATOM     44  C   UNL A   1      38.022  31.573  30.576  1.00  0.00     0.074 A 
ATOM     45  C   UNL A   1      37.868  32.976  32.586  1.00  0.00     0.049 A 
ATOM     46  N   UNL A   1      39.034  30.812  30.916  1.00  0.00    -0.248 NA
ATOM     47  C   UNL A   1      37.416  31.228  29.283  1.00  0.00     0.031 C 
ATOM     48  C   UNL A   1      37.343  34.026  33.462  1.00  0.00     0.029 A 
ATOM     49  N   UNL A   1      38.854  32.378  33.334  1.00  0.00    -0.354 N 
ATOM     50  C   UNL A   1      39.201  29.911  29.875  1.00  0.00     0.074 A 
ATOM     51  C   UNL A   1      38.168  30.198  28.902  1.00  0.00     0.031 C 
ATOM     52  C   UNL A   1      38.024  34.011  34.617  1.00  0.00     0.029 A 
ATOM     53  C   UNL A   1      39.021  32.944  34.575  1.00  0.00     0.049 A 
ATOM     54  H   UNL A   1      39.391  31.619  33.011  1.00  0.00     0.167 HD
ATOM     55  C   UNL A   1      40.143  28.948  29.741  1.00  0.00     0.031 A 
ATOM     56  C   UNL A   1      39.881  32.654  35.571  1.00  0.00     0.031 A 
ATOM     57  C   UNL A   1      41.178  28.656  30.699  1.00  0.00     0.049 A 
ATOM     58  C   UNL A   1      40.907  31.573  35.392  1.00  0.00     0.074 A 
ATOM     59  C   UNL A   1      42.212  27.739  30.579  1.00  0.00     0.029 A 
ATOM     60  N   UNL A   1      41.311  29.246  31.941  1.00  0.00    -0.354 N 
ATOM     61  N   UNL A   1      41.125  30.813  34.348  1.00  0.00    -0.248 NA
ATOM     62  C   UNL A   1      41.821  31.325  36.518  1.00  0.00     0.031 C 
ATOM     63  C   UNL A   1      42.943  27.743  31.767  1.00  0.00     0.029 A 
ATOM     64  C   UNL A   1      42.394  28.693  32.609  1.00  0.00     0.049 A 
ATOM     65  H   UNL A   1      40.725  29.952  32.300  1.00  0.00     0.167 HD
ATOM     66  C   UNL A   1      42.214  30.016  34.682  1.00  0.00     0.074 A 
ATOM     67  C   UNL A   1      42.621  30.392  36.017  1.00  0.00     0.031 C 
ATOM     68  C   UNL A   1      42.815  29.062  33.934  1.00  0.00     0.031 A 
BRANCH  55  69
ATOM     69  C   UNL A   1      40.167  28.131  28.484  1.00  0.00    -0.014 A 
ATOM     70  C   UNL A   1      39.650  26.826  28.483  1.00  0.00     0.009 A 
ATOM     71  C   UNL A   1      40.923  28.573  27.390  1.00  0.00     0.009 A 
ATOM     72  C   UNL A   1      39.917  25.966  27.417  1.00  0.00     0.001 A 
ATOM     73  C   UNL A   1      41.188  27.709  26.327  1.00  0.00     0.001 A 
ATOM     74  C   UNL A   1      40.693  26.405  26.344  1.00  0.00     0.000 A 
ENDBRANCH  55  69
BRANCH  56  75
ATOM     75  C   UNL A   1      39.826  33.450  36.823  1.00  0.00    -0.014 A 
ATOM     76  C   UNL A   1      40.533  34.658  36.930  1.00  0.00     0.009 A 
ATOM     77  C   UNL A   1      39.106  32.979  37.930  1.00  0.00     0.009 A 
ATOM     78  C   UNL A   1      40.537  35.370  38.130  1.00  0.00     0.001 A 
ATOM     79  C   UNL A   1      39.089  33.709  39.121  1.00  0.00     0.001 A 
ATOM     80  C   UNL A   1      39.810  34.898  39.222  1.00  0.00     0.000 A 
ENDBRANCH  56  75
BRANCH  68  81
ATOM     81  C   UNL A   1      43.998  28.339  34.514  1.00  0.00    -0.014 A 
ATOM     82  C   UNL A   1      45.298  28.805  34.255  1.00  0.00     0.009 A 
ATOM     83  C   UNL A   1      43.837  27.137  35.219  1.00  0.00     0.009 A 
ATOM     84  C   UNL A   1      46.411  28.074  34.675  1.00  0.00     0.001 A 
ATOM     85  C   UNL A   1      44.952  26.422  35.661  1.00  0.00     0.001 A 
ATOM     86  C   UNL A   1      46.237  26.885  35.380  1.00  0.00     0.000 A 
ENDBRANCH  68  81
ENDBRANCH  42  43
ENDBRANCH  35  37
ENDBRANCH  34  35
ENDBRANCH  33  34
ENDBRANCH  32  33
ENDBRANCH  31  32
ENDBRANCH  30  31
ENDBRANCH   1  30
TORSDOF 20
ENDMDL
