MODEL 1
REMARK VINA RESULT:      -9.8      0.000      0.000
REMARK SMILES Cc1ccc(C(=O)/C(C#N)=C/c2ccccc2OCC(=O)OCCOCCOCCOC(=O)c2ccc(-c3c4nc(c(-c5ccccc5)c5ccc([nH]5)c(-c5ccccc5)c5nc(c(-c6ccccc6)c6ccc3[nH]6)C=C5)C=C4)cc2)cc1F
REMARK SMILES IDX 25 1 24 2 23 3 22 4 20 5 21 6 19 7 18 8 17 9 12 10 13 11
REMARK SMILES IDX 14 12 16 13 15 14 11 15 8 16 6 17 7 18 5 19 1 20 2 21 3 22
REMARK SMILES IDX 83 23 4 24 82 25 84 26 9 27 10 28 26 29 27 30 28 31 29 32
REMARK SMILES IDX 30 33 31 34 32 35 33 36 34 37 35 38 81 39 36 40 80 41 37 42
REMARK SMILES IDX 38 43 39 44 74 45 40 46 79 47 73 48 75 49 41 50 78 51 72 52
REMARK SMILES IDX 71 53 42 55 64 56 49 57 63 58 50 59 53 60 62 61 76 62 51 63
REMARK SMILES IDX 52 64 61 66 77 67 54 68 43 69 44 70 48 71 45 72 47 73 46 74
REMARK SMILES IDX 65 75 66 76 70 77 67 78 69 79 68 80 55 81 56 82 60 83 57 84
REMARK SMILES IDX 59 85 58 86
REMARK H PARENT 75 54 53 65
REMARK Flexibility Score: inf
ROOT
ATOM      1  O   UNL A   1      34.268  32.588  28.123  1.00  0.00    -0.376 OA
ENDROOT
BRANCH   1   2
ATOM      2  C   UNL A   1      35.537  31.966  27.848  1.00  0.00     0.202 C 
BRANCH   2   3
ATOM      3  C   UNL A   1      35.634  30.410  28.064  1.00  0.00     0.261 C 
BRANCH   3   4
ATOM      4  O   UNL A   1      35.071  29.635  26.929  1.00  0.00    -0.461 OA
BRANCH   4   5
ATOM      5  C   UNL A   1      33.736  29.313  26.981  1.00  0.00     0.344 C 
ATOM      6  O   UNL A   1      33.358  28.448  27.772  1.00  0.00    -0.248 OA
BRANCH   5   7
ATOM      7  C   UNL A   1      32.603  30.082  25.944  1.00  0.00     0.351 C 
BRANCH   7   8
ATOM      8  O   UNL A   1      31.805  29.911  24.754  1.00  0.00    -0.481 OA
BRANCH   8   9
ATOM      9  C   UNL A   1      30.863  29.058  24.197  1.00  0.00     0.127 A 
ATOM     10  C   UNL A   1      30.487  27.669  24.356  1.00  0.00     0.018 A 
ATOM     11  C   UNL A   1      29.302  27.188  23.725  1.00  0.00     0.012 A 
ATOM     12  C   UNL A   1      28.437  28.031  23.038  1.00  0.00     0.001 A 
ATOM     13  C   UNL A   1      29.970  29.853  23.436  1.00  0.00     0.047 A 
ATOM     14  C   UNL A   1      28.767  29.367  22.904  1.00  0.00     0.004 A 
BRANCH  10  15
ATOM     15  C   UNL A   1      30.911  26.645  25.389  1.00  0.00     0.035 C 
ATOM     16  C   UNL A   1      32.201  26.186  25.415  1.00  0.00     0.101 C 
BRANCH  16  17
ATOM     17  C   UNL A   1      32.267  24.941  26.235  1.00  0.00     0.203 C 
ATOM     18  O   UNL A   1      31.274  24.575  26.861  1.00  0.00    -0.288 OA
BRANCH  17  19
ATOM     19  C   UNL A   1      33.494  24.091  26.269  1.00  0.00     0.026 A 
ATOM     20  C   UNL A   1      36.770  21.398  25.560  1.00  0.00     0.047 C 
ATOM     21  C   UNL A   1      35.748  22.417  25.979  1.00  0.00    -0.015 A 
ATOM     22  C   UNL A   1      34.732  22.086  26.882  1.00  0.00     0.007 A 
ATOM     23  C   UNL A   1      35.705  23.678  25.385  1.00  0.00     0.126 A 
ATOM     24  C   UNL A   1      33.613  22.926  27.035  1.00  0.00     0.013 A 
ATOM     25  C   UNL A   1      34.601  24.515  25.533  1.00  0.00     0.051 A 
ATOM     26  F   UNL A   1      36.722  24.086  24.614  1.00  0.00    -0.207 F 
ENDBRANCH  17  19
ENDBRANCH  16  17
BRANCH  16  27
ATOM     27  C   UNL A   1      32.665  26.450  23.993  1.00  0.00     0.103 C 
ATOM     28  N   UNL A   1      33.051  26.669  22.812  1.00  0.00    -0.192 NA
ENDBRANCH  16  27
ENDBRANCH  10  15
ENDBRANCH   8   9
ENDBRANCH   7   8
ENDBRANCH   5   7
ENDBRANCH   4   5
ENDBRANCH   3   4
ENDBRANCH   2   3
ENDBRANCH   1   2
BRANCH   1  29
ATOM     29  C   UNL A   1      34.183  33.981  28.426  1.00  0.00     0.188 C 
BRANCH  29  30
ATOM     30  C   UNL A   1      33.993  34.462  29.886  1.00  0.00     0.188 C 
BRANCH  30  31
ATOM     31  O   UNL A   1      34.911  33.991  30.859  1.00  0.00    -0.376 OA
BRANCH  31  32
ATOM     32  C   UNL A   1      34.564  32.780  31.506  1.00  0.00     0.202 C 
BRANCH  32  33
ATOM     33  C   UNL A   1      35.071  32.658  32.946  1.00  0.00     0.261 C 
BRANCH  33  34
ATOM     34  O   UNL A   1      36.216  31.784  33.086  1.00  0.00    -0.460 OA
BRANCH  34  35
ATOM     35  C   UNL A   1      37.400  32.364  32.796  1.00  0.00     0.338 C 
ATOM     36  O   UNL A   1      37.743  33.523  33.064  1.00  0.00    -0.246 OA
BRANCH  35  37
ATOM     37  C   UNL A   1      38.303  31.484  32.042  1.00  0.00     0.060 A 
ATOM     38  C   UNL A   1      39.261  30.706  32.700  1.00  0.00     0.016 A 
ATOM     39  C   UNL A   1      38.362  31.631  30.653  1.00  0.00     0.016 A 
ATOM     40  C   UNL A   1      40.313  30.127  31.970  1.00  0.00     0.010 A 
ATOM     41  C   UNL A   1      39.390  31.021  29.926  1.00  0.00     0.010 A 
ATOM     42  C   UNL A   1      40.408  30.300  30.578  1.00  0.00    -0.014 A 
BRANCH  42  43
ATOM     43  C   UNL A   1      41.597  29.846  29.791  1.00  0.00     0.031 A 
ATOM     44  C   UNL A   1      41.627  28.447  29.215  1.00  0.00     0.074 A 
ATOM     45  C   UNL A   1      42.667  30.640  29.585  1.00  0.00     0.049 A 
ATOM     46  N   UNL A   1      42.636  27.760  28.737  1.00  0.00    -0.248 NA
ATOM     47  C   UNL A   1      40.342  27.730  29.173  1.00  0.00     0.031 C 
ATOM     48  C   UNL A   1      42.778  32.043  29.976  1.00  0.00     0.029 A 
ATOM     49  N   UNL A   1      43.881  30.358  28.999  1.00  0.00    -0.354 N 
ATOM     50  C   UNL A   1      42.122  26.514  28.390  1.00  0.00     0.074 A 
ATOM     51  C   UNL A   1      40.708  26.544  28.708  1.00  0.00     0.031 C 
ATOM     52  C   UNL A   1      43.990  32.500  29.618  1.00  0.00     0.029 A 
ATOM     53  C   UNL A   1      44.772  31.403  29.052  1.00  0.00     0.049 A 
ATOM     54  H   UNL A   1      44.091  29.491  28.583  1.00  0.00     0.167 HD
ATOM     55  C   UNL A   1      42.761  25.440  27.865  1.00  0.00     0.031 A 
ATOM     56  C   UNL A   1      46.082  31.464  28.740  1.00  0.00     0.031 A 
ATOM     57  C   UNL A   1      44.160  25.405  27.519  1.00  0.00     0.049 A 
ATOM     58  C   UNL A   1      46.802  30.232  28.258  1.00  0.00     0.074 A 
ATOM     59  C   UNL A   1      44.893  24.353  26.997  1.00  0.00     0.029 A 
ATOM     60  N   UNL A   1      45.031  26.472  27.647  1.00  0.00    -0.354 N 
ATOM     61  N   UNL A   1      46.327  29.036  28.014  1.00  0.00    -0.248 NA
ATOM     62  C   UNL A   1      48.250  30.360  28.026  1.00  0.00     0.031 C 
ATOM     63  C   UNL A   1      46.221  24.771  26.853  1.00  0.00     0.029 A 
ATOM     64  C   UNL A   1      46.299  26.100  27.232  1.00  0.00     0.049 A 
ATOM     65  H   UNL A   1      44.787  27.365  27.982  1.00  0.00     0.167 HD
ATOM     66  C   UNL A   1      47.411  28.277  27.584  1.00  0.00     0.074 A 
ATOM     67  C   UNL A   1      48.564  29.151  27.581  1.00  0.00     0.031 C 
ATOM     68  C   UNL A   1      47.444  26.971  27.226  1.00  0.00     0.031 A 
BRANCH  55  69
ATOM     69  C   UNL A   1      41.964  24.178  27.681  1.00  0.00    -0.014 A 
ATOM     70  C   UNL A   1      41.147  23.978  26.558  1.00  0.00     0.009 A 
ATOM     71  C   UNL A   1      42.068  23.152  28.636  1.00  0.00     0.009 A 
ATOM     72  C   UNL A   1      40.426  22.789  26.413  1.00  0.00     0.001 A 
ATOM     73  C   UNL A   1      41.369  21.956  28.474  1.00  0.00     0.001 A 
ATOM     74  C   UNL A   1      40.540  21.779  27.368  1.00  0.00     0.000 A 
ENDBRANCH  55  69
BRANCH  56  75
ATOM     75  C   UNL A   1      46.836  32.730  28.946  1.00  0.00    -0.014 A 
ATOM     76  C   UNL A   1      47.339  33.068  30.212  1.00  0.00     0.009 A 
ATOM     77  C   UNL A   1      47.030  33.624  27.880  1.00  0.00     0.009 A 
ATOM     78  C   UNL A   1      48.003  34.281  30.409  1.00  0.00     0.001 A 
ATOM     79  C   UNL A   1      47.724  34.819  28.072  1.00  0.00     0.001 A 
ATOM     80  C   UNL A   1      48.202  35.151  29.337  1.00  0.00     0.000 A 
ENDBRANCH  56  75
BRANCH  68  81
ATOM     81  C   UNL A   1      48.760  26.413  26.758  1.00  0.00    -0.014 A 
ATOM     82  C   UNL A   1      49.211  26.604  25.443  1.00  0.00     0.009 A 
ATOM     83  C   UNL A   1      49.577  25.710  27.660  1.00  0.00     0.009 A 
ATOM     84  C   UNL A   1      50.438  26.076  25.031  1.00  0.00     0.001 A 
ATOM     85  C   UNL A   1      50.814  25.207  27.253  1.00  0.00     0.001 A 
ATOM     86  C   UNL A   1      51.239  25.381  25.938  1.00  0.00     0.000 A 
ENDBRANCH  68  81
ENDBRANCH  42  43
ENDBRANCH  35  37
ENDBRANCH  34  35
ENDBRANCH  33  34
ENDBRANCH  32  33
ENDBRANCH  31  32
ENDBRANCH  30  31
ENDBRANCH  29  30
ENDBRANCH   1  29
TORSDOF 23
ENDMDL
MODEL 2
REMARK VINA RESULT:      -8.7      4.464      9.786
REMARK SMILES Cc1ccc(C(=O)/C(C#N)=C/c2ccccc2OCC(=O)OCCOCCOCCOC(=O)c2ccc(-c3c4nc(c(-c5ccccc5)c5ccc([nH]5)c(-c5ccccc5)c5nc(c(-c6ccccc6)c6ccc3[nH]6)C=C5)C=C4)cc2)cc1F
REMARK SMILES IDX 25 1 24 2 23 3 22 4 20 5 21 6 19 7 18 8 17 9 12 10 13 11
REMARK SMILES IDX 14 12 16 13 15 14 11 15 8 16 6 17 7 18 5 19 1 20 2 21 3 22
REMARK SMILES IDX 83 23 4 24 82 25 84 26 9 27 10 28 26 29 27 30 28 31 29 32
REMARK SMILES IDX 30 33 31 34 32 35 33 36 34 37 35 38 81 39 36 40 80 41 37 42
REMARK SMILES IDX 38 43 39 44 74 45 40 46 79 47 73 48 75 49 41 50 78 51 72 52
REMARK SMILES IDX 71 53 42 55 64 56 49 57 63 58 50 59 53 60 62 61 76 62 51 63
REMARK SMILES IDX 52 64 61 66 77 67 54 68 43 69 44 70 48 71 45 72 47 73 46 74
REMARK SMILES IDX 65 75 66 76 70 77 67 78 69 79 68 80 55 81 56 82 60 83 57 84
REMARK SMILES IDX 59 85 58 86
REMARK H PARENT 75 54 53 65
REMARK Flexibility Score: inf
ROOT
ATOM      1  O   UNL A   1      42.253  25.287  24.961  1.00  0.00    -0.376 OA
ENDROOT
BRANCH   1   2
ATOM      2  C   UNL A   1      41.275  26.089  25.650  1.00  0.00     0.202 C 
BRANCH   2   3
ATOM      3  C   UNL A   1      41.818  27.174  26.654  1.00  0.00     0.261 C 
BRANCH   3   4
ATOM      4  O   UNL A   1      41.694  26.757  28.074  1.00  0.00    -0.461 OA
BRANCH   4   5
ATOM      5  C   UNL A   1      40.466  26.306  28.498  1.00  0.00     0.344 C 
ATOM      6  O   UNL A   1      40.221  25.100  28.449  1.00  0.00    -0.248 OA
BRANCH   5   7
ATOM      7  C   UNL A   1      39.273  27.403  29.068  1.00  0.00     0.351 C 
BRANCH   7   8
ATOM      8  O   UNL A   1      38.395  27.702  30.172  1.00  0.00    -0.481 OA
BRANCH   8   9
ATOM      9  C   UNL A   1      37.903  28.774  30.904  1.00  0.00     0.127 A 
ATOM     10  C   UNL A   1      36.889  29.790  30.717  1.00  0.00     0.018 A 
ATOM     11  C   UNL A   1      36.530  30.630  31.812  1.00  0.00     0.012 A 
ATOM     12  C   UNL A   1      37.053  30.447  33.087  1.00  0.00     0.001 A 
ATOM     13  C   UNL A   1      38.440  28.675  32.212  1.00  0.00     0.047 A 
ATOM     14  C   UNL A   1      38.001  29.460  33.288  1.00  0.00     0.004 A 
BRANCH  10  15
ATOM     15  C   UNL A   1      35.818  29.930  29.654  1.00  0.00     0.035 C 
ATOM     16  C   UNL A   1      36.125  30.467  28.433  1.00  0.00     0.101 C 
BRANCH  16  17
ATOM     17  C   UNL A   1      34.867  30.849  27.728  1.00  0.00     0.203 C 
ATOM     18  O   UNL A   1      34.516  32.027  27.711  1.00  0.00    -0.288 OA
BRANCH  17  19
ATOM     19  C   UNL A   1      34.048  29.843  26.988  1.00  0.00     0.026 A 
ATOM     20  C   UNL A   1      31.132  27.038  25.534  1.00  0.00     0.047 C 
ATOM     21  C   UNL A   1      32.237  28.012  25.834  1.00  0.00    -0.015 A 
ATOM     22  C   UNL A   1      33.466  27.571  26.336  1.00  0.00     0.007 A 
ATOM     23  C   UNL A   1      32.025  29.387  25.745  1.00  0.00     0.126 A 
ATOM     24  C   UNL A   1      34.375  28.485  26.901  1.00  0.00     0.013 A 
ATOM     25  C   UNL A   1      32.921  30.298  26.302  1.00  0.00     0.051 A 
ATOM     26  F   UNL A   1      30.917  29.854  25.155  1.00  0.00    -0.207 F 
ENDBRANCH  17  19
ENDBRANCH  16  17
BRANCH  16  27
ATOM     27  C   UNL A   1      37.363  31.291  28.746  1.00  0.00     0.103 C 
ATOM     28  N   UNL A   1      38.391  31.975  29.006  1.00  0.00    -0.192 NA
ENDBRANCH  16  27
ENDBRANCH  10  15
ENDBRANCH   8   9
ENDBRANCH   7   8
ENDBRANCH   5   7
ENDBRANCH   4   5
ENDBRANCH   3   4
ENDBRANCH   2   3
ENDBRANCH   1   2
BRANCH   1  29
ATOM     29  C   UNL A   1      43.331  24.675  25.670  1.00  0.00     0.188 C 
BRANCH  29  30
ATOM     30  C   UNL A   1      44.279  23.678  24.958  1.00  0.00     0.188 C 
BRANCH  30  31
ATOM     31  O   UNL A   1      45.388  24.213  24.255  1.00  0.00    -0.376 OA
BRANCH  31  32
ATOM     32  C   UNL A   1      46.647  24.089  24.891  1.00  0.00     0.202 C 
BRANCH  32  33
ATOM     33  C   UNL A   1      47.663  25.170  24.515  1.00  0.00     0.261 C 
BRANCH  33  34
ATOM     34  O   UNL A   1      47.079  26.482  24.341  1.00  0.00    -0.460 OA
BRANCH  34  35
ATOM     35  C   UNL A   1      47.698  27.464  25.029  1.00  0.00     0.338 C 
ATOM     36  O   UNL A   1      48.702  28.099  24.676  1.00  0.00    -0.246 OA
BRANCH  35  37
ATOM     37  C   UNL A   1      47.090  27.719  26.343  1.00  0.00     0.060 A 
ATOM     38  C   UNL A   1      45.743  27.428  26.579  1.00  0.00     0.016 A 
ATOM     39  C   UNL A   1      47.807  28.490  27.263  1.00  0.00     0.016 A 
ATOM     40  C   UNL A   1      45.099  27.962  27.708  1.00  0.00     0.010 A 
ATOM     41  C   UNL A   1      47.170  28.988  28.406  1.00  0.00     0.010 A 
ATOM     42  C   UNL A   1      45.797  28.772  28.621  1.00  0.00    -0.014 A 
BRANCH  42  43
ATOM     43  C   UNL A   1      45.113  29.496  29.739  1.00  0.00     0.031 A 
ATOM     44  C   UNL A   1      44.817  28.771  31.033  1.00  0.00     0.074 A 
ATOM     45  C   UNL A   1      44.729  30.783  29.630  1.00  0.00     0.049 A 
ATOM     46  N   UNL A   1      44.017  29.106  32.016  1.00  0.00    -0.248 NA
ATOM     47  C   UNL A   1      45.522  27.496  31.244  1.00  0.00     0.031 C 
ATOM     48  C   UNL A   1      45.013  31.669  28.504  1.00  0.00     0.029 A 
ATOM     49  N   UNL A   1      43.993  31.565  30.493  1.00  0.00    -0.354 N 
ATOM     50  C   UNL A   1      44.079  28.061  32.934  1.00  0.00     0.074 A 
ATOM     51  C   UNL A   1      45.001  27.084  32.392  1.00  0.00     0.031 C 
ATOM     52  C   UNL A   1      44.463  32.871  28.744  1.00  0.00     0.029 A 
ATOM     53  C   UNL A   1      43.714  32.816  29.998  1.00  0.00     0.049 A 
ATOM     54  H   UNL A   1      43.694  31.257  31.380  1.00  0.00     0.167 HD
ATOM     55  C   UNL A   1      43.427  27.919  34.114  1.00  0.00     0.031 A 
ATOM     56  C   UNL A   1      42.904  33.790  30.462  1.00  0.00     0.031 A 
ATOM     57  C   UNL A   1      42.529  28.894  34.680  1.00  0.00     0.049 A 
ATOM     58  C   UNL A   1      42.105  33.573  31.719  1.00  0.00     0.074 A 
ATOM     59  C   UNL A   1      41.812  28.824  35.862  1.00  0.00     0.029 A 
ATOM     60  N   UNL A   1      42.235  30.120  34.109  1.00  0.00    -0.354 N 
ATOM     61  N   UNL A   1      42.104  32.547  32.535  1.00  0.00    -0.248 NA
ATOM     62  C   UNL A   1      41.177  34.648  32.108  1.00  0.00     0.031 C 
ATOM     63  C   UNL A   1      41.048  29.990  35.984  1.00  0.00     0.029 A 
ATOM     64  C   UNL A   1      41.334  30.809  34.905  1.00  0.00     0.049 A 
ATOM     65  H   UNL A   1      42.611  30.455  33.263  1.00  0.00     0.167 HD
ATOM     66  C   UNL A   1      41.194  32.862  33.540  1.00  0.00     0.074 A 
ATOM     67  C   UNL A   1      40.676  34.179  33.242  1.00  0.00     0.031 C 
ATOM     68  C   UNL A   1      40.822  32.121  34.611  1.00  0.00     0.031 A 
BRANCH  55  69
ATOM     69  C   UNL A   1      43.614  26.626  34.860  1.00  0.00    -0.014 A 
ATOM     70  C   UNL A   1      42.764  25.528  34.658  1.00  0.00     0.009 A 
ATOM     71  C   UNL A   1      44.692  26.495  35.751  1.00  0.00     0.009 A 
ATOM     72  C   UNL A   1      42.971  24.337  35.360  1.00  0.00     0.001 A 
ATOM     73  C   UNL A   1      44.912  25.296  36.430  1.00  0.00     0.001 A 
ATOM     74  C   UNL A   1      44.046  24.221  36.242  1.00  0.00     0.000 A 
ENDBRANCH  55  69
BRANCH  56  75
ATOM     75  C   UNL A   1      42.741  35.050  29.688  1.00  0.00    -0.014 A 
ATOM     76  C   UNL A   1      41.791  35.141  28.658  1.00  0.00     0.009 A 
ATOM     77  C   UNL A   1      43.558  36.161  29.957  1.00  0.00     0.009 A 
ATOM     78  C   UNL A   1      41.676  36.312  27.903  1.00  0.00     0.001 A 
ATOM     79  C   UNL A   1      43.417  37.340  29.224  1.00  0.00     0.001 A 
ATOM     80  C   UNL A   1      42.484  37.412  28.192  1.00  0.00     0.000 A 
ENDBRANCH  56  75
BRANCH  68  81
ATOM     81  C   UNL A   1      39.836  32.731  35.569  1.00  0.00    -0.014 A 
ATOM     82  C   UNL A   1      38.454  32.547  35.412  1.00  0.00     0.009 A 
ATOM     83  C   UNL A   1      40.302  33.475  36.665  1.00  0.00     0.009 A 
ATOM     84  C   UNL A   1      37.556  33.124  36.315  1.00  0.00     0.001 A 
ATOM     85  C   UNL A   1      39.404  34.027  37.581  1.00  0.00     0.001 A 
ATOM     86  C   UNL A   1      38.033  33.860  37.400  1.00  0.00     0.000 A 
ENDBRANCH  68  81
ENDBRANCH  42  43
ENDBRANCH  35  37
ENDBRANCH  34  35
ENDBRANCH  33  34
ENDBRANCH  32  33
ENDBRANCH  31  32
ENDBRANCH  30  31
ENDBRANCH  29  30
ENDBRANCH   1  29
TORSDOF 23
ENDMDL
MODEL 3
REMARK VINA RESULT:      -8.7      6.694      8.297
REMARK SMILES Cc1ccc(C(=O)/C(C#N)=C/c2ccccc2OCC(=O)OCCOCCOCCOC(=O)c2ccc(-c3c4nc(c(-c5ccccc5)c5ccc([nH]5)c(-c5ccccc5)c5nc(c(-c6ccccc6)c6ccc3[nH]6)C=C5)C=C4)cc2)cc1F
REMARK SMILES IDX 25 1 24 2 23 3 22 4 20 5 21 6 19 7 18 8 17 9 12 10 13 11
REMARK SMILES IDX 14 12 16 13 15 14 11 15 8 16 6 17 7 18 5 19 1 20 2 21 3 22
REMARK SMILES IDX 83 23 4 24 82 25 84 26 9 27 10 28 26 29 27 30 28 31 29 32
REMARK SMILES IDX 30 33 31 34 32 35 33 36 34 37 35 38 81 39 36 40 80 41 37 42
REMARK SMILES IDX 38 43 39 44 74 45 40 46 79 47 73 48 75 49 41 50 78 51 72 52
REMARK SMILES IDX 71 53 42 55 64 56 49 57 63 58 50 59 53 60 62 61 76 62 51 63
REMARK SMILES IDX 52 64 61 66 77 67 54 68 43 69 44 70 48 71 45 72 47 73 46 74
REMARK SMILES IDX 65 75 66 76 70 77 67 78 69 79 68 80 55 81 56 82 60 83 57 84
REMARK SMILES IDX 59 85 58 86
REMARK H PARENT 75 54 53 65
REMARK Flexibility Score: inf
ROOT
ATOM      1  O   UNL A   1      33.998  32.201  27.966  1.00  0.00    -0.376 OA
ENDROOT
BRANCH   1   2
ATOM      2  C   UNL A   1      35.149  31.405  27.627  1.00  0.00     0.202 C 
BRANCH   2   3
ATOM      3  C   UNL A   1      35.012  29.844  27.783  1.00  0.00     0.261 C 
BRANCH   3   4
ATOM      4  O   UNL A   1      34.371  29.203  26.607  1.00  0.00    -0.461 OA
BRANCH   4   5
ATOM      5  C   UNL A   1      33.045  28.860  26.715  1.00  0.00     0.344 C 
ATOM      6  O   UNL A   1      32.747  27.735  27.118  1.00  0.00    -0.248 OA
BRANCH   5   7
ATOM      7  C   UNL A   1      31.808  29.968  26.274  1.00  0.00     0.351 C 
BRANCH   7   8
ATOM      8  O   UNL A   1      31.068  30.509  25.160  1.00  0.00    -0.481 OA
BRANCH   8   9
ATOM      9  C   UNL A   1      30.177  30.129  24.167  1.00  0.00     0.127 A 
ATOM     10  C   UNL A   1      29.795  28.889  23.523  1.00  0.00     0.018 A 
ATOM     11  C   UNL A   1      28.667  28.872  22.652  1.00  0.00     0.012 A 
ATOM     12  C   UNL A   1      27.855  29.986  22.472  1.00  0.00     0.001 A 
ATOM     13  C   UNL A   1      29.344  31.244  23.897  1.00  0.00     0.047 A 
ATOM     14  C   UNL A   1      28.189  31.169  23.104  1.00  0.00     0.004 A 
BRANCH  10  15
ATOM     15  C   UNL A   1      30.140  27.454  23.865  1.00  0.00     0.035 C 
ATOM     16  C   UNL A   1      31.449  27.060  23.945  1.00  0.00     0.101 C 
BRANCH  16  17
ATOM     17  C   UNL A   1      31.521  25.570  23.906  1.00  0.00     0.203 C 
ATOM     18  O   UNL A   1      31.126  24.971  22.908  1.00  0.00    -0.288 OA
BRANCH  17  19
ATOM     19  C   UNL A   1      32.117  24.786  25.028  1.00  0.00     0.026 A 
ATOM     20  C   UNL A   1      34.030  21.946  27.628  1.00  0.00     0.047 C 
ATOM     21  C   UNL A   1      33.380  23.083  26.891  1.00  0.00    -0.015 A 
ATOM     22  C   UNL A   1      31.991  23.254  26.916  1.00  0.00     0.007 A 
ATOM     23  C   UNL A   1      34.124  23.918  26.059  1.00  0.00     0.126 A 
ATOM     24  C   UNL A   1      31.362  24.113  25.995  1.00  0.00     0.013 A 
ATOM     25  C   UNL A   1      33.508  24.771  25.145  1.00  0.00     0.051 A 
ATOM     26  F   UNL A   1      35.462  23.877  26.097  1.00  0.00    -0.207 F 
ENDBRANCH  17  19
ENDBRANCH  16  17
BRANCH  16  27
ATOM     27  C   UNL A   1      32.150  28.099  23.085  1.00  0.00     0.103 C 
ATOM     28  N   UNL A   1      32.733  28.961  22.372  1.00  0.00    -0.192 NA
ENDBRANCH  16  27
ENDBRANCH  10  15
ENDBRANCH   8   9
ENDBRANCH   7   8
ENDBRANCH   5   7
ENDBRANCH   4   5
ENDBRANCH   3   4
ENDBRANCH   2   3
ENDBRANCH   1   2
BRANCH   1  29
ATOM     29  C   UNL A   1      34.080  33.626  28.016  1.00  0.00     0.188 C 
BRANCH  29  30
ATOM     30  C   UNL A   1      33.887  34.382  29.354  1.00  0.00     0.188 C 
BRANCH  30  31
ATOM     31  O   UNL A   1      34.813  34.121  30.396  1.00  0.00    -0.376 OA
BRANCH  31  32
ATOM     32  C   UNL A   1      34.409  33.169  31.364  1.00  0.00     0.202 C 
BRANCH  32  33
ATOM     33  C   UNL A   1      34.532  33.641  32.815  1.00  0.00     0.261 C 
BRANCH  33  34
ATOM     34  O   UNL A   1      35.544  32.935  33.571  1.00  0.00    -0.460 OA
BRANCH  34  35
ATOM     35  C   UNL A   1      36.642  33.667  33.854  1.00  0.00     0.338 C 
ATOM     36  O   UNL A   1      36.769  34.893  33.726  1.00  0.00    -0.246 OA
BRANCH  35  37
ATOM     37  C   UNL A   1      37.776  32.852  34.311  1.00  0.00     0.060 A 
ATOM     38  C   UNL A   1      37.646  31.990  35.404  1.00  0.00     0.016 A 
ATOM     39  C   UNL A   1      39.045  33.142  33.801  1.00  0.00     0.016 A 
ATOM     40  C   UNL A   1      38.795  31.469  36.024  1.00  0.00     0.010 A 
ATOM     41  C   UNL A   1      40.183  32.591  34.399  1.00  0.00     0.010 A 
ATOM     42  C   UNL A   1      40.079  31.785  35.548  1.00  0.00    -0.014 A 
BRANCH  42  43
ATOM     43  C   UNL A   1      41.326  31.391  36.276  1.00  0.00     0.031 A 
ATOM     44  C   UNL A   1      41.917  30.014  36.065  1.00  0.00     0.074 A 
ATOM     45  C   UNL A   1      41.944  32.221  37.141  1.00  0.00     0.049 A 
ATOM     46  N   UNL A   1      42.817  29.372  36.770  1.00  0.00    -0.248 NA
ATOM     47  C   UNL A   1      41.424  29.264  34.898  1.00  0.00     0.031 C 
ATOM     48  C   UNL A   1      41.580  33.612  37.399  1.00  0.00     0.029 A 
ATOM     49  N   UNL A   1      43.013  31.993  37.979  1.00  0.00    -0.354 N 
ATOM     50  C   UNL A   1      42.958  28.126  36.166  1.00  0.00     0.074 A 
ATOM     51  C   UNL A   1      42.053  28.106  35.035  1.00  0.00     0.031 C 
ATOM     52  C   UNL A   1      42.412  34.115  38.327  1.00  0.00     0.029 A 
ATOM     53  C   UNL A   1      43.309  33.060  38.793  1.00  0.00     0.049 A 
ATOM     54  H   UNL A   1      43.516  31.147  37.993  1.00  0.00     0.167 HD
ATOM     55  C   UNL A   1      43.755  27.089  36.522  1.00  0.00     0.031 A 
ATOM     56  C   UNL A   1      44.160  33.167  39.834  1.00  0.00     0.031 A 
ATOM     57  C   UNL A   1      44.679  27.104  37.628  1.00  0.00     0.049 A 
ATOM     58  C   UNL A   1      44.961  31.973  40.281  1.00  0.00     0.074 A 
ATOM     59  C   UNL A   1      45.513  26.091  38.069  1.00  0.00     0.029 A 
ATOM     60  N   UNL A   1      44.899  28.190  38.458  1.00  0.00    -0.354 N 
ATOM     61  N   UNL A   1      45.024  30.773  39.759  1.00  0.00    -0.248 NA
ATOM     62  C   UNL A   1      45.797  32.149  41.480  1.00  0.00     0.031 C 
ATOM     63  C   UNL A   1      46.206  26.550  39.196  1.00  0.00     0.029 A 
ATOM     64  C   UNL A   1      45.842  27.867  39.419  1.00  0.00     0.049 A 
ATOM     65  H   UNL A   1      44.452  29.063  38.376  1.00  0.00     0.167 HD
ATOM     66  C   UNL A   1      45.917  30.060  40.553  1.00  0.00     0.074 A 
ATOM     67  C   UNL A   1      46.386  30.965  41.579  1.00  0.00     0.031 C 
ATOM     68  C   UNL A   1      46.310  28.769  40.438  1.00  0.00     0.031 A 
BRANCH  55  69
ATOM     69  C   UNL A   1      43.626  25.812  35.736  1.00  0.00    -0.014 A 
ATOM     70  C   UNL A   1      42.631  24.866  36.023  1.00  0.00     0.009 A 
ATOM     71  C   UNL A   1      44.497  25.576  34.659  1.00  0.00     0.009 A 
ATOM     72  C   UNL A   1      42.532  23.694  35.268  1.00  0.00     0.001 A 
ATOM     73  C   UNL A   1      44.379  24.418  33.889  1.00  0.00     0.001 A 
ATOM     74  C   UNL A   1      43.403  23.473  34.200  1.00  0.00     0.000 A 
ENDBRANCH  55  69
BRANCH  56  75
ATOM     75  C   UNL A   1      44.250  34.446  40.589  1.00  0.00    -0.014 A 
ATOM     76  C   UNL A   1      43.396  34.699  41.674  1.00  0.00     0.009 A 
ATOM     77  C   UNL A   1      45.172  35.434  40.208  1.00  0.00     0.009 A 
ATOM     78  C   UNL A   1      43.453  35.921  42.349  1.00  0.00     0.001 A 
ATOM     79  C   UNL A   1      45.250  36.640  40.906  1.00  0.00     0.001 A 
ATOM     80  C   UNL A   1      44.384  36.887  41.969  1.00  0.00     0.000 A 
ENDBRANCH  56  75
BRANCH  68  81
ATOM     81  C   UNL A   1      47.329  28.263  41.422  1.00  0.00    -0.014 A 
ATOM     82  C   UNL A   1      46.972  27.920  42.735  1.00  0.00     0.009 A 
ATOM     83  C   UNL A   1      48.664  28.097  41.017  1.00  0.00     0.009 A 
ATOM     84  C   UNL A   1      47.936  27.452  43.632  1.00  0.00     0.001 A 
ATOM     85  C   UNL A   1      49.619  27.605  41.907  1.00  0.00     0.001 A 
ATOM     86  C   UNL A   1      49.258  27.292  43.216  1.00  0.00     0.000 A 
ENDBRANCH  68  81
ENDBRANCH  42  43
ENDBRANCH  35  37
ENDBRANCH  34  35
ENDBRANCH  33  34
ENDBRANCH  32  33
ENDBRANCH  31  32
ENDBRANCH  30  31
ENDBRANCH  29  30
ENDBRANCH   1  29
TORSDOF 23
ENDMDL
