MODEL 1
REMARK VINA RESULT:     -10.4      0.000      0.000
REMARK SMILES Cc1cc(C)n(-c2nc(C)c(C)c(Oc3cccc(C(=O)OCCOCCOCCOC(=O)c4ccc(-c5c6nc(c(-c7ccccc7)c7ccc([nH]7)c(-c7ccccc7)c7nc(c(-c8ccccc8)c8ccc5[nH]8)C=C7)C=C6)cc4)c3)n2)n1
REMARK SMILES IDX 26 1 25 2 24 3 23 4 22 5 20 6 21 7 19 8 15 9 16 10 82 11
REMARK SMILES IDX 17 12 18 13 14 14 13 15 7 16 8 17 83 18 9 19 10 20 11 21
REMARK SMILES IDX 12 22 6 23 1 24 2 25 3 26 84 27 4 28 5 29 27 30 28 31 29 32
REMARK SMILES IDX 30 33 31 34 32 35 33 36 34 37 35 38 81 39 36 40 80 41 37 42
REMARK SMILES IDX 38 43 39 44 74 45 40 46 79 47 73 48 75 49 41 50 78 51 72 52
REMARK SMILES IDX 71 53 42 55 64 56 49 57 63 58 50 59 53 60 62 61 76 62 51 63
REMARK SMILES IDX 52 64 61 66 77 67 54 68 43 69 44 70 48 71 45 72 47 73 46 74
REMARK SMILES IDX 65 75 66 76 70 77 67 78 69 79 68 80 55 81 56 82 60 83 57 84
REMARK SMILES IDX 59 85 58 86
REMARK H PARENT 75 54 53 65
REMARK Flexibility Score: inf
ROOT
ATOM      1  C   UNL A   1      37.970  22.509  25.380  1.00  0.00     0.188 C 
ENDROOT
BRANCH   1   2
ATOM      2  O   UNL A   1      36.836  23.133  25.931  1.00  0.00    -0.376 OA
BRANCH   2   3
ATOM      3  C   UNL A   1      35.611  22.421  26.025  1.00  0.00     0.202 C 
BRANCH   3   4
ATOM      4  C   UNL A   1      34.899  21.693  24.860  1.00  0.00     0.261 C 
BRANCH   4   5
ATOM      5  O   UNL A   1      34.241  22.481  23.864  1.00  0.00    -0.460 OA
BRANCH   5   6
ATOM      6  C   UNL A   1      32.894  22.602  23.986  1.00  0.00     0.338 C 
ATOM      7  O   UNL A   1      32.172  21.931  24.703  1.00  0.00    -0.246 OA
BRANCH   6   8
ATOM      8  C   UNL A   1      32.457  23.847  23.308  1.00  0.00     0.063 A 
ATOM      9  C   UNL A   1      30.977  25.738  23.064  1.00  0.00     0.130 A 
ATOM     10  C   UNL A   1      31.704  26.173  21.955  1.00  0.00     0.047 A 
ATOM     11  C   UNL A   1      31.300  24.527  23.690  1.00  0.00     0.062 A 
ATOM     12  C   UNL A   1      32.821  25.454  21.529  1.00  0.00     0.005 A 
ATOM     13  C   UNL A   1      33.218  24.312  22.227  1.00  0.00     0.016 A 
BRANCH   9  14
ATOM     14  O   UNL A   1      29.946  26.556  23.478  1.00  0.00    -0.439 OA
BRANCH  14  15
ATOM     15  C   UNL A   1      30.254  27.887  23.763  1.00  0.00     0.227 A 
ATOM     16  C   UNL A   1      31.519  29.387  24.933  1.00  0.00     0.254 A 
ATOM     17  N   UNL A   1      30.666  30.395  24.665  1.00  0.00    -0.216 NA
ATOM     18  N   UNL A   1      31.379  28.150  24.448  1.00  0.00    -0.175 NA
ATOM     19  C   UNL A   1      29.647  30.141  23.810  1.00  0.00     0.050 A 
ATOM     20  C   UNL A   1      28.894  31.362  23.367  1.00  0.00     0.067 C 
ATOM     21  C   UNL A   1      29.358  28.861  23.355  1.00  0.00     0.033 A 
ATOM     22  C   UNL A   1      28.187  28.559  22.473  1.00  0.00     0.052 C 
BRANCH  16  23
ATOM     23  N   UNL A   1      32.597  29.619  25.853  1.00  0.00    -0.203 N 
ATOM     24  C   UNL A   1      34.241  31.773  28.162  1.00  0.00     0.069 C 
ATOM     25  C   UNL A   1      33.793  30.662  27.289  1.00  0.00     0.060 A 
ATOM     26  C   UNL A   1      34.278  29.339  27.264  1.00  0.00     0.049 A 
ATOM     27  N   UNL A   1      32.847  30.860  26.367  1.00  0.00    -0.170 NA
ATOM     28  C   UNL A   1      33.533  28.694  26.301  1.00  0.00     0.045 A 
ATOM     29  C   UNL A   1      33.689  27.341  25.712  1.00  0.00     0.067 C 
ENDBRANCH  16  23
ENDBRANCH  14  15
ENDBRANCH   9  14
ENDBRANCH   6   8
ENDBRANCH   5   6
ENDBRANCH   4   5
ENDBRANCH   3   4
ENDBRANCH   2   3
ENDBRANCH   1   2
BRANCH   1  30
ATOM     30  C   UNL A   1      38.958  21.907  26.401  1.00  0.00     0.188 C 
BRANCH  30  31
ATOM     31  O   UNL A   1      40.211  21.355  26.023  1.00  0.00    -0.376 OA
BRANCH  31  32
ATOM     32  C   UNL A   1      41.455  22.004  26.234  1.00  0.00     0.202 C 
BRANCH  32  33
ATOM     33  C   UNL A   1      41.755  23.431  25.777  1.00  0.00     0.261 C 
BRANCH  33  34
ATOM     34  O   UNL A   1      41.275  24.428  26.652  1.00  0.00    -0.460 OA
BRANCH  34  35
ATOM     35  C   UNL A   1      41.585  25.677  26.257  1.00  0.00     0.338 C 
ATOM     36  O   UNL A   1      42.544  26.036  25.603  1.00  0.00    -0.246 OA
BRANCH  35  37
ATOM     37  C   UNL A   1      40.578  26.596  26.793  1.00  0.00     0.060 A 
ATOM     38  C   UNL A   1      40.780  27.945  26.502  1.00  0.00     0.016 A 
ATOM     39  C   UNL A   1      39.775  26.155  27.852  1.00  0.00     0.016 A 
ATOM     40  C   UNL A   1      40.480  28.848  27.487  1.00  0.00     0.010 A 
ATOM     41  C   UNL A   1      39.484  27.055  28.839  1.00  0.00     0.010 A 
ATOM     42  C   UNL A   1      39.974  28.348  28.690  1.00  0.00    -0.014 A 
BRANCH  42  43
ATOM     43  C   UNL A   1      40.059  29.202  29.848  1.00  0.00     0.031 A 
ATOM     44  C   UNL A   1      38.897  30.088  30.010  1.00  0.00     0.074 A 
ATOM     45  C   UNL A   1      41.093  29.110  30.705  1.00  0.00     0.049 A 
ATOM     46  N   UNL A   1      38.870  31.374  29.931  1.00  0.00    -0.248 NA
ATOM     47  C   UNL A   1      37.577  29.448  30.112  1.00  0.00     0.031 C 
ATOM     48  C   UNL A   1      42.144  28.089  30.785  1.00  0.00     0.029 A 
ATOM     49  N   UNL A   1      41.347  29.888  31.783  1.00  0.00    -0.354 N 
ATOM     50  C   UNL A   1      37.543  31.727  30.124  1.00  0.00     0.074 A 
ATOM     51  C   UNL A   1      36.775  30.509  30.064  1.00  0.00     0.031 C 
ATOM     52  C   UNL A   1      42.753  28.175  31.992  1.00  0.00     0.029 A 
ATOM     53  C   UNL A   1      42.233  29.336  32.695  1.00  0.00     0.049 A 
ATOM     54  H   UNL A   1      40.936  30.773  31.909  1.00  0.00     0.167 HD
ATOM     55  C   UNL A   1      37.184  32.970  30.538  1.00  0.00     0.031 A 
ATOM     56  C   UNL A   1      42.432  29.777  33.962  1.00  0.00     0.031 A 
ATOM     57  C   UNL A   1      38.246  33.924  30.372  1.00  0.00     0.049 A 
ATOM     58  C   UNL A   1      41.912  31.166  34.032  1.00  0.00     0.074 A 
ATOM     59  C   UNL A   1      38.899  34.458  29.280  1.00  0.00     0.029 A 
ATOM     60  N   UNL A   1      39.060  34.161  31.455  1.00  0.00    -0.354 N 
ATOM     61  N   UNL A   1      42.453  32.166  33.394  1.00  0.00    -0.248 NA
ATOM     62  C   UNL A   1      40.521  31.355  34.419  1.00  0.00     0.031 C 
ATOM     63  C   UNL A   1      40.263  34.562  29.680  1.00  0.00     0.029 A 
ATOM     64  C   UNL A   1      40.358  34.142  31.008  1.00  0.00     0.049 A 
ATOM     65  H   UNL A   1      38.766  34.317  32.381  1.00  0.00     0.167 HD
ATOM     66  C   UNL A   1      41.381  32.914  32.926  1.00  0.00     0.074 A 
ATOM     67  C   UNL A   1      40.220  32.416  33.663  1.00  0.00     0.031 C 
ATOM     68  C   UNL A   1      41.481  33.659  31.785  1.00  0.00     0.031 A 
BRANCH  55  69
ATOM     69  C   UNL A   1      35.991  33.214  31.415  1.00  0.00    -0.014 A 
ATOM     70  C   UNL A   1      35.004  34.114  30.993  1.00  0.00     0.009 A 
ATOM     71  C   UNL A   1      35.924  32.773  32.754  1.00  0.00     0.009 A 
ATOM     72  C   UNL A   1      34.023  34.577  31.878  1.00  0.00     0.001 A 
ATOM     73  C   UNL A   1      34.923  33.198  33.626  1.00  0.00     0.001 A 
ATOM     74  C   UNL A   1      33.984  34.119  33.193  1.00  0.00     0.000 A 
ENDBRANCH  55  69
BRANCH  56  75
ATOM     75  C   UNL A   1      42.666  28.968  35.179  1.00  0.00    -0.014 A 
ATOM     76  C   UNL A   1      41.732  28.005  35.590  1.00  0.00     0.009 A 
ATOM     77  C   UNL A   1      43.943  28.934  35.772  1.00  0.00     0.009 A 
ATOM     78  C   UNL A   1      42.076  27.020  36.527  1.00  0.00     0.001 A 
ATOM     79  C   UNL A   1      44.287  27.952  36.707  1.00  0.00     0.001 A 
ATOM     80  C   UNL A   1      43.357  26.984  37.072  1.00  0.00     0.000 A 
ENDBRANCH  56  75
BRANCH  68  81
ATOM     81  C   UNL A   1      42.845  33.769  31.139  1.00  0.00    -0.014 A 
ATOM     82  C   UNL A   1      43.357  32.792  30.263  1.00  0.00     0.009 A 
ATOM     83  C   UNL A   1      43.563  34.963  31.288  1.00  0.00     0.009 A 
ATOM     84  C   UNL A   1      44.562  32.998  29.580  1.00  0.00     0.001 A 
ATOM     85  C   UNL A   1      44.754  35.177  30.590  1.00  0.00     0.001 A 
ATOM     86  C   UNL A   1      45.256  34.193  29.740  1.00  0.00     0.000 A 
ENDBRANCH  68  81
ENDBRANCH  42  43
ENDBRANCH  35  37
ENDBRANCH  34  35
ENDBRANCH  33  34
ENDBRANCH  32  33
ENDBRANCH  31  32
ENDBRANCH  30  31
ENDBRANCH   1  30
TORSDOF 20
ENDMDL
MODEL 2
REMARK VINA RESULT:     -10.3      3.463      7.574
REMARK SMILES Cc1cc(C)n(-c2nc(C)c(C)c(Oc3cccc(C(=O)OCCOCCOCCOC(=O)c4ccc(-c5c6nc(c(-c7ccccc7)c7ccc([nH]7)c(-c7ccccc7)c7nc(c(-c8ccccc8)c8ccc5[nH]8)C=C7)C=C6)cc4)c3)n2)n1
REMARK SMILES IDX 26 1 25 2 24 3 23 4 22 5 20 6 21 7 19 8 15 9 16 10 82 11
REMARK SMILES IDX 17 12 18 13 14 14 13 15 7 16 8 17 83 18 9 19 10 20 11 21
REMARK SMILES IDX 12 22 6 23 1 24 2 25 3 26 84 27 4 28 5 29 27 30 28 31 29 32
REMARK SMILES IDX 30 33 31 34 32 35 33 36 34 37 35 38 81 39 36 40 80 41 37 42
REMARK SMILES IDX 38 43 39 44 74 45 40 46 79 47 73 48 75 49 41 50 78 51 72 52
REMARK SMILES IDX 71 53 42 55 64 56 49 57 63 58 50 59 53 60 62 61 76 62 51 63
REMARK SMILES IDX 52 64 61 66 77 67 54 68 43 69 44 70 48 71 45 72 47 73 46 74
REMARK SMILES IDX 65 75 66 76 70 77 67 78 69 79 68 80 55 81 56 82 60 83 57 84
REMARK SMILES IDX 59 85 58 86
REMARK H PARENT 75 54 53 65
REMARK Flexibility Score: inf
ROOT
ATOM      1  C   UNL A   1      37.907  22.042  25.301  1.00  0.00     0.188 C 
ENDROOT
BRANCH   1   2
ATOM      2  O   UNL A   1      37.479  23.338  25.643  1.00  0.00    -0.376 OA
BRANCH   2   3
ATOM      3  C   UNL A   1      36.124  23.565  26.000  1.00  0.00     0.202 C 
BRANCH   3   4
ATOM      4  C   UNL A   1      34.902  22.796  25.441  1.00  0.00     0.261 C 
BRANCH   4   5
ATOM      5  O   UNL A   1      34.371  23.190  24.173  1.00  0.00    -0.460 OA
BRANCH   5   6
ATOM      6  C   UNL A   1      33.027  23.079  24.022  1.00  0.00     0.338 C 
ATOM      7  O   UNL A   1      32.296  22.309  24.622  1.00  0.00    -0.246 OA
BRANCH   6   8
ATOM      8  C   UNL A   1      32.536  24.213  23.202  1.00  0.00     0.063 A 
ATOM      9  C   UNL A   1      31.014  26.039  22.777  1.00  0.00     0.130 A 
ATOM     10  C   UNL A   1      31.678  26.321  21.582  1.00  0.00     0.047 A 
ATOM     11  C   UNL A   1      31.388  24.929  23.546  1.00  0.00     0.062 A 
ATOM     12  C   UNL A   1      32.783  25.560  21.201  1.00  0.00     0.005 A 
ATOM     13  C   UNL A   1      33.233  24.530  22.029  1.00  0.00     0.016 A 
BRANCH   9  14
ATOM     14  O   UNL A   1      29.993  26.897  23.126  1.00  0.00    -0.439 OA
BRANCH  14  15
ATOM     15  C   UNL A   1      30.346  28.153  23.618  1.00  0.00     0.227 A 
ATOM     16  C   UNL A   1      31.663  29.404  25.005  1.00  0.00     0.254 A 
ATOM     17  N   UNL A   1      30.845  30.471  24.905  1.00  0.00    -0.216 NA
ATOM     18  N   UNL A   1      31.480  28.266  24.330  1.00  0.00    -0.175 NA
ATOM     19  C   UNL A   1      29.818  30.391  24.027  1.00  0.00     0.050 A 
ATOM     20  C   UNL A   1      29.107  31.692  23.788  1.00  0.00     0.067 C 
ATOM     21  C   UNL A   1      29.484  29.210  23.375  1.00  0.00     0.033 A 
ATOM     22  C   UNL A   1      28.304  29.093  22.463  1.00  0.00     0.052 C 
BRANCH  16  23
ATOM     23  N   UNL A   1      32.748  29.449  25.945  1.00  0.00    -0.203 N 
ATOM     24  C   UNL A   1      35.035  31.361  27.890  1.00  0.00     0.069 C 
ATOM     25  C   UNL A   1      34.228  30.308  27.230  1.00  0.00     0.060 A 
ATOM     26  C   UNL A   1      34.213  28.928  27.519  1.00  0.00     0.049 A 
ATOM     27  N   UNL A   1      33.418  30.609  26.211  1.00  0.00    -0.170 NA
ATOM     28  C   UNL A   1      33.293  28.383  26.650  1.00  0.00     0.045 A 
ATOM     29  C   UNL A   1      32.963  26.964  26.367  1.00  0.00     0.067 C 
ENDBRANCH  16  23
ENDBRANCH  14  15
ENDBRANCH   9  14
ENDBRANCH   6   8
ENDBRANCH   5   6
ENDBRANCH   4   5
ENDBRANCH   3   4
ENDBRANCH   2   3
ENDBRANCH   1   2
BRANCH   1  30
ATOM     30  C   UNL A   1      39.111  21.507  26.107  1.00  0.00     0.188 C 
BRANCH  30  31
ATOM     31  O   UNL A   1      40.437  21.512  25.598  1.00  0.00    -0.376 OA
BRANCH  31  32
ATOM     32  C   UNL A   1      41.564  21.051  26.327  1.00  0.00     0.202 C 
BRANCH  32  33
ATOM     33  C   UNL A   1      42.419  19.859  25.901  1.00  0.00     0.261 C 
BRANCH  33  34
ATOM     34  O   UNL A   1      43.798  20.143  25.810  1.00  0.00    -0.460 OA
BRANCH  34  35
ATOM     35  C   UNL A   1      44.209  20.387  24.552  1.00  0.00     0.338 C 
ATOM     36  O   UNL A   1      44.177  19.634  23.598  1.00  0.00    -0.246 OA
BRANCH  35  37
ATOM     37  C   UNL A   1      44.772  21.738  24.501  1.00  0.00     0.060 A 
ATOM     38  C   UNL A   1      45.914  21.943  25.274  1.00  0.00     0.016 A 
ATOM     39  C   UNL A   1      43.948  22.783  24.063  1.00  0.00     0.016 A 
ATOM     40  C   UNL A   1      46.026  23.149  25.915  1.00  0.00     0.010 A 
ATOM     41  C   UNL A   1      44.056  23.983  24.709  1.00  0.00     0.010 A 
ATOM     42  C   UNL A   1      45.004  24.082  25.721  1.00  0.00    -0.014 A 
BRANCH  42  43
ATOM     43  C   UNL A   1      44.886  25.143  26.689  1.00  0.00     0.031 A 
ATOM     44  C   UNL A   1      46.029  26.068  26.687  1.00  0.00     0.074 A 
ATOM     45  C   UNL A   1      43.784  25.270  27.451  1.00  0.00     0.049 A 
ATOM     46  N   UNL A   1      46.893  26.254  27.625  1.00  0.00    -0.248 NA
ATOM     47  C   UNL A   1      46.338  26.747  25.420  1.00  0.00     0.031 C 
ATOM     48  C   UNL A   1      42.494  24.579  27.340  1.00  0.00     0.029 A 
ATOM     49  N   UNL A   1      43.564  26.161  28.446  1.00  0.00    -0.354 N 
ATOM     50  C   UNL A   1      47.782  27.195  27.125  1.00  0.00     0.074 A 
ATOM     51  C   UNL A   1      47.492  27.337  25.721  1.00  0.00     0.031 C 
ATOM     52  C   UNL A   1      41.566  25.257  28.058  1.00  0.00     0.029 A 
ATOM     53  C   UNL A   1      42.229  26.328  28.782  1.00  0.00     0.049 A 
ATOM     54  H   UNL A   1      44.290  26.650  28.893  1.00  0.00     0.167 HD
ATOM     55  C   UNL A   1      48.553  27.958  27.943  1.00  0.00     0.031 A 
ATOM     56  C   UNL A   1      41.729  27.342  29.533  1.00  0.00     0.031 A 
ATOM     57  C   UNL A   1      48.624  27.423  29.275  1.00  0.00     0.049 A 
ATOM     58  C   UNL A   1      42.865  27.937  30.282  1.00  0.00     0.074 A 
ATOM     59  C   UNL A   1      49.152  26.272  29.824  1.00  0.00     0.029 A 
ATOM     60  N   UNL A   1      47.738  27.915  30.204  1.00  0.00    -0.354 N 
ATOM     61  N   UNL A   1      43.513  27.305  31.220  1.00  0.00    -0.248 NA
ATOM     62  C   UNL A   1      43.586  29.042  29.664  1.00  0.00     0.031 C 
ATOM     63  C   UNL A   1      48.220  25.882  30.830  1.00  0.00     0.029 A 
ATOM     64  C   UNL A   1      47.208  26.843  30.879  1.00  0.00     0.049 A 
ATOM     65  H   UNL A   1      47.522  28.863  30.358  1.00  0.00     0.167 HD
ATOM     66  C   UNL A   1      44.846  27.638  31.022  1.00  0.00     0.074 A 
ATOM     67  C   UNL A   1      44.820  28.779  30.107  1.00  0.00     0.031 C 
ATOM     68  C   UNL A   1      45.851  26.785  31.381  1.00  0.00     0.031 A 
BRANCH  55  69
ATOM     69  C   UNL A   1      48.938  29.368  27.603  1.00  0.00    -0.014 A 
ATOM     70  C   UNL A   1      50.258  29.787  27.818  1.00  0.00     0.009 A 
ATOM     71  C   UNL A   1      47.989  30.369  27.306  1.00  0.00     0.009 A 
ATOM     72  C   UNL A   1      50.600  31.144  27.774  1.00  0.00     0.001 A 
ATOM     73  C   UNL A   1      48.334  31.717  27.219  1.00  0.00     0.001 A 
ATOM     74  C   UNL A   1      49.638  32.107  27.476  1.00  0.00     0.000 A 
ENDBRANCH  55  69
BRANCH  56  75
ATOM     75  C   UNL A   1      40.452  28.066  29.347  1.00  0.00    -0.014 A 
ATOM     76  C   UNL A   1      40.121  28.630  28.105  1.00  0.00     0.009 A 
ATOM     77  C   UNL A   1      39.426  27.948  30.305  1.00  0.00     0.009 A 
ATOM     78  C   UNL A   1      38.806  29.022  27.818  1.00  0.00     0.001 A 
ATOM     79  C   UNL A   1      38.114  28.339  30.019  1.00  0.00     0.001 A 
ATOM     80  C   UNL A   1      37.801  28.861  28.768  1.00  0.00     0.000 A 
ENDBRANCH  56  75
BRANCH  68  81
ATOM     81  C   UNL A   1      45.469  25.537  32.147  1.00  0.00    -0.014 A 
ATOM     82  C   UNL A   1      45.715  25.381  33.525  1.00  0.00     0.009 A 
ATOM     83  C   UNL A   1      44.698  24.562  31.500  1.00  0.00     0.009 A 
ATOM     84  C   UNL A   1      45.223  24.271  34.223  1.00  0.00     0.001 A 
ATOM     85  C   UNL A   1      44.190  23.466  32.201  1.00  0.00     0.001 A 
ATOM     86  C   UNL A   1      44.456  23.318  33.561  1.00  0.00     0.000 A 
ENDBRANCH  68  81
ENDBRANCH  42  43
ENDBRANCH  35  37
ENDBRANCH  34  35
ENDBRANCH  33  34
ENDBRANCH  32  33
ENDBRANCH  31  32
ENDBRANCH  30  31
ENDBRANCH   1  30
TORSDOF 20
ENDMDL
MODEL 3
REMARK VINA RESULT:     -10.1      3.756      8.565
REMARK SMILES Cc1cc(C)n(-c2nc(C)c(C)c(Oc3cccc(C(=O)OCCOCCOCCOC(=O)c4ccc(-c5c6nc(c(-c7ccccc7)c7ccc([nH]7)c(-c7ccccc7)c7nc(c(-c8ccccc8)c8ccc5[nH]8)C=C7)C=C6)cc4)c3)n2)n1
REMARK SMILES IDX 26 1 25 2 24 3 23 4 22 5 20 6 21 7 19 8 15 9 16 10 82 11
REMARK SMILES IDX 17 12 18 13 14 14 13 15 7 16 8 17 83 18 9 19 10 20 11 21
REMARK SMILES IDX 12 22 6 23 1 24 2 25 3 26 84 27 4 28 5 29 27 30 28 31 29 32
REMARK SMILES IDX 30 33 31 34 32 35 33 36 34 37 35 38 81 39 36 40 80 41 37 42
REMARK SMILES IDX 38 43 39 44 74 45 40 46 79 47 73 48 75 49 41 50 78 51 72 52
REMARK SMILES IDX 71 53 42 55 64 56 49 57 63 58 50 59 53 60 62 61 76 62 51 63
REMARK SMILES IDX 52 64 61 66 77 67 54 68 43 69 44 70 48 71 45 72 47 73 46 74
REMARK SMILES IDX 65 75 66 76 70 77 67 78 69 79 68 80 55 81 56 82 60 83 57 84
REMARK SMILES IDX 59 85 58 86
REMARK H PARENT 75 54 53 65
REMARK Flexibility Score: inf
ROOT
ATOM      1  C   UNL A   1      35.347  34.180  28.414  1.00  0.00     0.188 C 
ENDROOT
BRANCH   1   2
ATOM      2  O   UNL A   1      35.427  32.990  27.668  1.00  0.00    -0.376 OA
BRANCH   2   3
ATOM      3  C   UNL A   1      34.374  32.041  27.733  1.00  0.00     0.202 C 
BRANCH   3   4
ATOM      4  C   UNL A   1      34.540  30.503  27.669  1.00  0.00     0.261 C 
BRANCH   4   5
ATOM      5  O   UNL A   1      34.320  29.845  26.419  1.00  0.00    -0.460 OA
BRANCH   5   6
ATOM      6  C   UNL A   1      33.709  28.634  26.475  1.00  0.00     0.338 C 
ATOM      7  O   UNL A   1      33.165  28.146  27.450  1.00  0.00    -0.246 OA
BRANCH   6   8
ATOM      8  C   UNL A   1      33.573  28.096  25.099  1.00  0.00     0.063 A 
ATOM      9  C   UNL A   1      32.891  26.392  23.531  1.00  0.00     0.130 A 
ATOM     10  C   UNL A   1      33.376  27.162  22.473  1.00  0.00     0.047 A 
ATOM     11  C   UNL A   1      33.068  26.818  24.853  1.00  0.00     0.062 A 
ATOM     12  C   UNL A   1      33.946  28.410  22.724  1.00  0.00     0.005 A 
ATOM     13  C   UNL A   1      34.012  28.892  24.032  1.00  0.00     0.016 A 
BRANCH   9  14
ATOM     14  O   UNL A   1      32.257  25.215  23.190  1.00  0.00    -0.439 OA
BRANCH  14  15
ATOM     15  C   UNL A   1      32.212  24.206  24.151  1.00  0.00     0.227 A 
ATOM     16  C   UNL A   1      33.041  22.228  24.941  1.00  0.00     0.254 A 
ATOM     17  N   UNL A   1      31.960  22.027  25.722  1.00  0.00    -0.216 NA
ATOM     18  N   UNL A   1      33.226  23.326  24.203  1.00  0.00    -0.175 NA
ATOM     19  C   UNL A   1      31.049  23.025  25.796  1.00  0.00     0.050 A 
ATOM     20  C   UNL A   1      30.012  22.836  26.866  1.00  0.00     0.067 C 
ATOM     21  C   UNL A   1      31.100  24.145  24.975  1.00  0.00     0.033 A 
ATOM     22  C   UNL A   1      30.054  25.214  24.996  1.00  0.00     0.052 C 
BRANCH  16  23
ATOM     23  N   UNL A   1      34.015  21.179  24.824  1.00  0.00    -0.203 N 
ATOM     24  C   UNL A   1      37.407  20.116  25.018  1.00  0.00     0.069 C 
ATOM     25  C   UNL A   1      35.937  20.240  24.870  1.00  0.00     0.060 A 
ATOM     26  C   UNL A   1      34.998  19.200  24.720  1.00  0.00     0.049 A 
ATOM     27  N   UNL A   1      35.355  21.442  24.831  1.00  0.00    -0.170 NA
ATOM     28  C   UNL A   1      33.771  19.824  24.641  1.00  0.00     0.045 A 
ATOM     29  C   UNL A   1      32.432  19.272  24.319  1.00  0.00     0.067 C 
ENDBRANCH  16  23
ENDBRANCH  14  15
ENDBRANCH   9  14
ENDBRANCH   6   8
ENDBRANCH   5   6
ENDBRANCH   4   5
ENDBRANCH   3   4
ENDBRANCH   2   3
ENDBRANCH   1   2
BRANCH   1  30
ATOM     30  C   UNL A   1      34.014  34.408  29.159  1.00  0.00     0.188 C 
BRANCH  30  31
ATOM     31  O   UNL A   1      33.834  34.072  30.527  1.00  0.00    -0.376 OA
BRANCH  31  32
ATOM     32  C   UNL A   1      34.553  33.044  31.190  1.00  0.00     0.202 C 
BRANCH  32  33
ATOM     33  C   UNL A   1      35.614  33.305  32.257  1.00  0.00     0.261 C 
BRANCH  33  34
ATOM     34  O   UNL A   1      35.946  32.170  33.028  1.00  0.00    -0.460 OA
BRANCH  34  35
ATOM     35  C   UNL A   1      37.272  31.964  33.127  1.00  0.00     0.338 C 
ATOM     36  O   UNL A   1      38.004  32.252  34.054  1.00  0.00    -0.246 OA
BRANCH  35  37
ATOM     37  C   UNL A   1      37.743  31.357  31.880  1.00  0.00     0.060 A 
ATOM     38  C   UNL A   1      37.283  30.064  31.630  1.00  0.00     0.016 A 
ATOM     39  C   UNL A   1      38.886  31.892  31.273  1.00  0.00     0.016 A 
ATOM     40  C   UNL A   1      38.168  29.186  31.061  1.00  0.00     0.010 A 
ATOM     41  C   UNL A   1      39.771  31.014  30.712  1.00  0.00     0.010 A 
ATOM     42  C   UNL A   1      39.445  29.662  30.754  1.00  0.00    -0.014 A 
BRANCH  42  43
ATOM     43  C   UNL A   1      40.487  28.685  30.566  1.00  0.00     0.031 A 
ATOM     44  C   UNL A   1      41.226  28.371  31.798  1.00  0.00     0.074 A 
ATOM     45  C   UNL A   1      40.681  28.097  29.371  1.00  0.00     0.049 A 
ATOM     46  N   UNL A   1      42.464  28.615  32.058  1.00  0.00    -0.248 NA
ATOM     47  C   UNL A   1      40.443  27.870  32.938  1.00  0.00     0.031 C 
ATOM     48  C   UNL A   1      39.838  28.134  28.171  1.00  0.00     0.029 A 
ATOM     49  N   UNL A   1      41.659  27.227  29.026  1.00  0.00    -0.354 N 
ATOM     50  C   UNL A   1      42.665  28.160  33.353  1.00  0.00     0.074 A 
ATOM     51  C   UNL A   1      41.364  27.868  33.898  1.00  0.00     0.031 C 
ATOM     52  C   UNL A   1      40.209  27.130  27.339  1.00  0.00     0.029 A 
ATOM     53  C   UNL A   1      41.393  26.488  27.883  1.00  0.00     0.049 A 
ATOM     54  H   UNL A   1      42.490  27.126  29.543  1.00  0.00     0.167 HD
ATOM     55  C   UNL A   1      43.902  27.843  33.818  1.00  0.00     0.031 A 
ATOM     56  C   UNL A   1      42.067  25.377  27.493  1.00  0.00     0.031 A 
ATOM     57  C   UNL A   1      44.947  28.387  32.993  1.00  0.00     0.049 A 
ATOM     58  C   UNL A   1      43.366  25.373  28.212  1.00  0.00     0.074 A 
ATOM     59  C   UNL A   1      45.369  29.665  32.691  1.00  0.00     0.029 A 
ATOM     60  N   UNL A   1      45.471  27.573  32.017  1.00  0.00    -0.354 N 
ATOM     61  N   UNL A   1      44.304  26.251  27.998  1.00  0.00    -0.248 NA
ATOM     62  C   UNL A   1      43.431  24.693  29.499  1.00  0.00     0.031 C 
ATOM     63  C   UNL A   1      45.720  29.622  31.310  1.00  0.00     0.029 A 
ATOM     64  C   UNL A   1      45.548  28.310  30.861  1.00  0.00     0.049 A 
ATOM     65  H   UNL A   1      45.742  26.633  32.126  1.00  0.00     0.167 HD
ATOM     66  C   UNL A   1      44.812  26.545  29.256  1.00  0.00     0.074 A 
ATOM     67  C   UNL A   1      44.298  25.491  30.130  1.00  0.00     0.031 C 
ATOM     68  C   UNL A   1      45.359  27.767  29.532  1.00  0.00     0.031 A 
BRANCH  55  69
ATOM     69  C   UNL A   1      44.131  26.748  34.817  1.00  0.00    -0.014 A 
ATOM     70  C   UNL A   1      43.697  25.449  34.521  1.00  0.00     0.009 A 
ATOM     71  C   UNL A   1      44.542  26.998  36.144  1.00  0.00     0.009 A 
ATOM     72  C   UNL A   1      43.642  24.462  35.513  1.00  0.00     0.001 A 
ATOM     73  C   UNL A   1      44.530  26.007  37.124  1.00  0.00     0.001 A 
ATOM     74  C   UNL A   1      44.057  24.742  36.813  1.00  0.00     0.000 A 
ENDBRANCH  55  69
BRANCH  56  75
ATOM     75  C   UNL A   1      41.516  24.153  26.868  1.00  0.00    -0.014 A 
ATOM     76  C   UNL A   1      42.369  23.148  26.386  1.00  0.00     0.009 A 
ATOM     77  C   UNL A   1      40.151  23.838  27.012  1.00  0.00     0.009 A 
ATOM     78  C   UNL A   1      41.882  21.865  26.100  1.00  0.00     0.001 A 
ATOM     79  C   UNL A   1      39.664  22.558  26.726  1.00  0.00     0.001 A 
ATOM     80  C   UNL A   1      40.534  21.567  26.285  1.00  0.00     0.000 A 
ENDBRANCH  56  75
BRANCH  68  81
ATOM     81  C   UNL A   1      45.537  28.730  28.379  1.00  0.00    -0.014 A 
ATOM     82  C   UNL A   1      44.518  29.600  27.944  1.00  0.00     0.009 A 
ATOM     83  C   UNL A   1      46.814  28.880  27.822  1.00  0.00     0.009 A 
ATOM     84  C   UNL A   1      44.767  30.570  26.966  1.00  0.00     0.001 A 
ATOM     85  C   UNL A   1      47.068  29.862  26.861  1.00  0.00     0.001 A 
ATOM     86  C   UNL A   1      46.045  30.703  26.430  1.00  0.00     0.000 A 
ENDBRANCH  68  81
ENDBRANCH  42  43
ENDBRANCH  35  37
ENDBRANCH  34  35
ENDBRANCH  33  34
ENDBRANCH  32  33
ENDBRANCH  31  32
ENDBRANCH  30  31
ENDBRANCH   1  30
TORSDOF 20
ENDMDL
