MODEL 1
REMARK VINA RESULT:     -11.3      0.000      0.000
REMARK SMILES O=C(OCCOCCOCCOC(=O)c1ccc([C@@H]2CC(O)=Nc3c2ncn3-c2cccc(Cl)c2)cc1)c1ccc(-c2c3nc(c(-c4ccccc4)c4ccc([nH]4)c(-c4ccccc4)c4nc(c(-c5ccccc5)c5ccc2[nH]5)C=C4)C=C3)cc1
REMARK SMILES IDX 7 1 6 2 5 3 4 4 3 5 2 6 1 7 38 8 39 9 85 10 40 11 84 12
REMARK SMILES IDX 41 13 42 14 43 15 78 16 44 17 83 18 77 19 79 20 45 21 82 22
REMARK SMILES IDX 76 23 75 24 46 26 68 27 53 28 67 29 54 30 57 31 66 32 80 33
REMARK SMILES IDX 55 34 56 35 65 37 81 38 58 39 47 40 48 41 52 42 49 43 51 44
REMARK SMILES IDX 50 45 69 46 70 47 74 48 71 49 73 50 72 51 59 52 60 53 64 54
REMARK SMILES IDX 61 55 63 56 62 57 8 58 9 59 10 60 11 61 12 62 13 63 14 64
REMARK SMILES IDX 15 65 16 66 37 67 17 68 36 69 18 70 19 71 20 72 25 73 21 74
REMARK SMILES IDX 24 75 26 76 23 77 28 78 27 79 22 80 29 82 30 83 35 84 31 85
REMARK SMILES IDX 33 86 32 87 34 88
REMARK H PARENT 79 25 57 36 22 81
REMARK Flexibility Score: inf
ROOT
ATOM      1  C   UNL A   1      36.456  32.828  31.447  1.00  0.00     0.188 C 
ENDROOT
BRANCH   1   2
ATOM      2  O   UNL A   1      36.698  32.708  32.838  1.00  0.00    -0.376 OA
BRANCH   2   3
ATOM      3  C   UNL A   1      37.867  33.317  33.349  1.00  0.00     0.202 C 
BRANCH   3   4
ATOM      4  C   UNL A   1      38.501  34.418  32.491  1.00  0.00     0.261 C 
BRANCH   4   5
ATOM      5  O   UNL A   1      39.843  34.172  32.041  1.00  0.00    -0.460 OA
BRANCH   5   6
ATOM      6  C   UNL A   1      40.358  33.898  30.831  1.00  0.00     0.338 C 
ATOM      7  O   UNL A   1      40.483  34.811  30.018  1.00  0.00    -0.246 OA
BRANCH   6   8
ATOM      8  C   UNL A   1      40.642  32.518  30.352  1.00  0.00     0.060 A 
ATOM      9  C   UNL A   1      39.714  31.483  30.246  1.00  0.00     0.016 A 
ATOM     10  C   UNL A   1      41.993  32.251  30.048  1.00  0.00     0.016 A 
ATOM     11  C   UNL A   1      40.138  30.189  29.959  1.00  0.00     0.010 A 
ATOM     12  C   UNL A   1      42.423  30.963  29.766  1.00  0.00     0.010 A 
ATOM     13  C   UNL A   1      41.498  29.925  29.796  1.00  0.00    -0.014 A 
BRANCH  13  14
ATOM     14  C   UNL A   1      41.917  28.531  29.785  1.00  0.00     0.031 A 
ATOM     15  C   UNL A   1      42.645  28.015  30.971  1.00  0.00     0.074 A 
ATOM     16  C   UNL A   1      41.607  27.718  28.756  1.00  0.00     0.049 A 
ATOM     17  N   UNL A   1      43.833  27.507  31.015  1.00  0.00    -0.248 NA
ATOM     18  C   UNL A   1      41.973  28.101  32.274  1.00  0.00     0.031 C 
ATOM     19  C   UNL A   1      40.673  27.983  27.657  1.00  0.00     0.029 A 
ATOM     20  N   UNL A   1      41.983  26.426  28.544  1.00  0.00    -0.354 N 
ATOM     21  C   UNL A   1      44.015  27.066  32.324  1.00  0.00     0.074 A 
ATOM     22  C   UNL A   1      42.880  27.540  33.077  1.00  0.00     0.031 C 
ATOM     23  C   UNL A   1      40.377  26.818  27.041  1.00  0.00     0.029 A 
ATOM     24  C   UNL A   1      41.200  25.765  27.611  1.00  0.00     0.049 A 
ATOM     25  H   UNL A   1      42.740  26.002  29.010  1.00  0.00     0.167 HD
ATOM     26  C   UNL A   1      44.992  26.183  32.669  1.00  0.00     0.031 A 
ATOM     27  C   UNL A   1      41.171  24.434  27.374  1.00  0.00     0.031 A 
ATOM     28  C   UNL A   1      46.017  26.067  31.670  1.00  0.00     0.049 A 
ATOM     29  C   UNL A   1      42.415  23.839  27.907  1.00  0.00     0.074 A 
ATOM     30  C   UNL A   1      46.932  26.930  31.101  1.00  0.00     0.029 A 
ATOM     31  N   UNL A   1      46.010  24.949  30.873  1.00  0.00    -0.354 N 
ATOM     32  N   UNL A   1      43.591  24.029  27.384  1.00  0.00    -0.248 NA
ATOM     33  C   UNL A   1      42.416  23.323  29.267  1.00  0.00     0.031 C 
ATOM     34  C   UNL A   1      47.071  26.487  29.754  1.00  0.00     0.029 A 
ATOM     35  C   UNL A   1      46.250  25.370  29.591  1.00  0.00     0.049 A 
ATOM     36  H   UNL A   1      45.861  24.022  31.167  1.00  0.00     0.167 HD
ATOM     37  C   UNL A   1      44.458  24.070  28.464  1.00  0.00     0.074 A 
ATOM     38  C   UNL A   1      43.703  23.501  29.576  1.00  0.00     0.031 C 
ATOM     39  C   UNL A   1      45.601  24.818  28.424  1.00  0.00     0.031 A 
BRANCH  26  40
ATOM     40  C   UNL A   1      44.842  25.161  33.765  1.00  0.00    -0.014 A 
ATOM     41  C   UNL A   1      45.850  25.045  34.741  1.00  0.00     0.009 A 
ATOM     42  C   UNL A   1      43.890  24.125  33.710  1.00  0.00     0.009 A 
ATOM     43  C   UNL A   1      45.928  23.927  35.579  1.00  0.00     0.001 A 
ATOM     44  C   UNL A   1      43.941  23.028  34.573  1.00  0.00     0.001 A 
ATOM     45  C   UNL A   1      44.975  22.917  35.492  1.00  0.00     0.000 A 
ENDBRANCH  26  40
BRANCH  27  46
ATOM     46  C   UNL A   1      40.017  23.621  26.938  1.00  0.00    -0.014 A 
ATOM     47  C   UNL A   1      38.780  24.216  26.658  1.00  0.00     0.009 A 
ATOM     48  C   UNL A   1      40.199  22.276  26.563  1.00  0.00     0.009 A 
ATOM     49  C   UNL A   1      37.771  23.497  26.003  1.00  0.00     0.001 A 
ATOM     50  C   UNL A   1      39.191  21.556  25.918  1.00  0.00     0.001 A 
ATOM     51  C   UNL A   1      37.981  22.172  25.625  1.00  0.00     0.000 A 
ENDBRANCH  27  46
BRANCH  39  52
ATOM     52  C   UNL A   1      46.034  25.375  27.090  1.00  0.00    -0.014 A 
ATOM     53  C   UNL A   1      45.484  26.549  26.547  1.00  0.00     0.009 A 
ATOM     54  C   UNL A   1      47.129  24.789  26.438  1.00  0.00     0.009 A 
ATOM     55  C   UNL A   1      45.989  27.098  25.366  1.00  0.00     0.001 A 
ATOM     56  C   UNL A   1      47.648  25.351  25.270  1.00  0.00     0.001 A 
ATOM     57  C   UNL A   1      47.075  26.501  24.730  1.00  0.00     0.000 A 
ENDBRANCH  39  52
ENDBRANCH  13  14
ENDBRANCH   6   8
ENDBRANCH   5   6
ENDBRANCH   4   5
ENDBRANCH   3   4
ENDBRANCH   2   3
ENDBRANCH   1   2
BRANCH   1  58
ATOM     58  C   UNL A   1      35.689  31.631  30.842  1.00  0.00     0.188 C 
BRANCH  58  59
ATOM     59  O   UNL A   1      36.257  30.327  30.870  1.00  0.00    -0.376 OA
BRANCH  59  60
ATOM     60  C   UNL A   1      36.438  29.618  29.654  1.00  0.00     0.202 C 
BRANCH  60  61
ATOM     61  C   UNL A   1      36.441  30.410  28.340  1.00  0.00     0.261 C 
BRANCH  61  62
ATOM     62  O   UNL A   1      35.549  29.913  27.325  1.00  0.00    -0.460 OA
BRANCH  62  63
ATOM     63  C   UNL A   1      34.301  30.433  27.328  1.00  0.00     0.338 C 
ATOM     64  O   UNL A   1      33.953  31.547  27.708  1.00  0.00    -0.246 OA
BRANCH  63  65
ATOM     65  C   UNL A   1      33.365  29.493  26.695  1.00  0.00     0.060 A 
ATOM     66  C   UNL A   1      33.506  28.124  26.940  1.00  0.00     0.016 A 
ATOM     67  C   UNL A   1      32.404  29.950  25.793  1.00  0.00     0.016 A 
ATOM     68  C   UNL A   1      32.661  27.211  26.311  1.00  0.00     0.005 A 
ATOM     69  C   UNL A   1      31.589  29.026  25.128  1.00  0.00     0.005 A 
ATOM     70  C   UNL A   1      31.694  27.645  25.387  1.00  0.00    -0.038 A 
BRANCH  70  71
ATOM     71  C   UNL A   1      30.896  26.583  24.641  1.00  0.00     0.081 C 
ATOM     72  C   UNL A   1      29.797  25.973  25.536  1.00  0.00     0.111 C 
ATOM     73  C   UNL A   1      31.841  25.545  24.163  1.00  0.00     0.093 A 
ATOM     74  C   UNL A   1      30.101  24.577  26.053  1.00  0.00     0.188 C 
ATOM     75  C   UNL A   1      31.787  24.254  24.639  1.00  0.00     0.164 A 
ATOM     76  N   UNL A   1      32.881  25.727  23.294  1.00  0.00    -0.238 NA
ATOM     77  N   UNL A   1      30.984  23.744  25.603  1.00  0.00    -0.198 NA
ATOM     78  N   UNL A   1      32.866  23.612  24.062  1.00  0.00    -0.283 N 
ATOM     79  C   UNL A   1      33.504  24.565  23.292  1.00  0.00     0.206 A 
BRANCH  74  80
ATOM     80  O   UNL A   1      29.297  24.172  27.056  1.00  0.00    -0.496 OA
ATOM     81  H   UNL A   1      28.392  24.415  27.057  1.00  0.00     0.294 HD
ENDBRANCH  74  80
BRANCH  78  82
ATOM     82  C   UNL A   1      33.267  22.270  24.256  1.00  0.00     0.050 A 
ATOM     83  C   UNL A   1      34.316  21.974  25.133  1.00  0.00     0.027 A 
ATOM     84  C   UNL A   1      32.590  21.242  23.585  1.00  0.00     0.047 A 
ATOM     85  C   UNL A   1      34.658  20.640  25.369  1.00  0.00     0.004 A 
ATOM     86  C   UNL A   1      32.976  19.921  23.792  1.00  0.00     0.043 A 
ATOM     87  C   UNL A   1      33.995  19.614  24.691  1.00  0.00     0.020 A 
ATOM     88  Cl  UNL A   1      32.200  18.659  22.916  1.00  0.00    -0.084 Cl
ENDBRANCH  78  82
ENDBRANCH  70  71
ENDBRANCH  63  65
ENDBRANCH  62  63
ENDBRANCH  61  62
ENDBRANCH  60  61
ENDBRANCH  59  60
ENDBRANCH  58  59
ENDBRANCH   1  58
TORSDOF 20
ENDMDL
MODEL 2
REMARK VINA RESULT:     -11.3      4.349      9.031
REMARK SMILES O=C(OCCOCCOCCOC(=O)c1ccc([C@@H]2CC(O)=Nc3c2ncn3-c2cccc(Cl)c2)cc1)c1ccc(-c2c3nc(c(-c4ccccc4)c4ccc([nH]4)c(-c4ccccc4)c4nc(c(-c5ccccc5)c5ccc2[nH]5)C=C4)C=C3)cc1
REMARK SMILES IDX 7 1 6 2 5 3 4 4 3 5 2 6 1 7 38 8 39 9 85 10 40 11 84 12
REMARK SMILES IDX 41 13 42 14 43 15 78 16 44 17 83 18 77 19 79 20 45 21 82 22
REMARK SMILES IDX 76 23 75 24 46 26 68 27 53 28 67 29 54 30 57 31 66 32 80 33
REMARK SMILES IDX 55 34 56 35 65 37 81 38 58 39 47 40 48 41 52 42 49 43 51 44
REMARK SMILES IDX 50 45 69 46 70 47 74 48 71 49 73 50 72 51 59 52 60 53 64 54
REMARK SMILES IDX 61 55 63 56 62 57 8 58 9 59 10 60 11 61 12 62 13 63 14 64
REMARK SMILES IDX 15 65 16 66 37 67 17 68 36 69 18 70 19 71 20 72 25 73 21 74
REMARK SMILES IDX 24 75 26 76 23 77 28 78 27 79 22 80 29 82 30 83 35 84 31 85
REMARK SMILES IDX 33 86 32 87 34 88
REMARK H PARENT 79 25 57 36 22 81
REMARK Flexibility Score: inf
ROOT
ATOM      1  C   UNL A   1      37.301  23.459  25.847  1.00  0.00     0.188 C 
ENDROOT
BRANCH   1   2
ATOM      2  O   UNL A   1      37.634  22.385  24.984  1.00  0.00    -0.376 OA
BRANCH   2   3
ATOM      3  C   UNL A   1      38.483  21.378  25.499  1.00  0.00     0.202 C 
BRANCH   3   4
ATOM      4  C   UNL A   1      39.574  21.830  26.475  1.00  0.00     0.261 C 
BRANCH   4   5
ATOM      5  O   UNL A   1      40.827  22.214  25.885  1.00  0.00    -0.460 OA
BRANCH   5   6
ATOM      6  C   UNL A   1      41.688  23.211  26.151  1.00  0.00     0.338 C 
ATOM      7  O   UNL A   1      42.887  23.030  25.948  1.00  0.00    -0.246 OA
BRANCH   6   8
ATOM      8  C   UNL A   1      41.297  24.474  26.832  1.00  0.00     0.060 A 
ATOM      9  C   UNL A   1      40.507  25.486  26.287  1.00  0.00     0.016 A 
ATOM     10  C   UNL A   1      41.843  24.660  28.119  1.00  0.00     0.016 A 
ATOM     11  C   UNL A   1      40.363  26.698  26.955  1.00  0.00     0.010 A 
ATOM     12  C   UNL A   1      41.707  25.868  28.788  1.00  0.00     0.010 A 
ATOM     13  C   UNL A   1      41.025  26.907  28.164  1.00  0.00    -0.014 A 
BRANCH  13  14
ATOM     14  C   UNL A   1      41.080  28.269  28.676  1.00  0.00     0.031 A 
ATOM     15  C   UNL A   1      42.235  29.113  28.282  1.00  0.00     0.074 A 
ATOM     16  C   UNL A   1      40.086  28.767  29.438  1.00  0.00     0.049 A 
ATOM     17  N   UNL A   1      43.108  29.674  29.054  1.00  0.00    -0.248 NA
ATOM     18  C   UNL A   1      42.458  29.338  26.849  1.00  0.00     0.031 C 
ATOM     19  C   UNL A   1      38.767  28.177  29.686  1.00  0.00     0.029 A 
ATOM     20  N   UNL A   1      40.012  29.975  30.063  1.00  0.00    -0.354 N 
ATOM     21  C   UNL A   1      43.912  30.451  28.223  1.00  0.00     0.074 A 
ATOM     22  C   UNL A   1      43.529  30.134  26.869  1.00  0.00     0.031 C 
ATOM     23  C   UNL A   1      37.951  29.123  30.199  1.00  0.00     0.029 A 
ATOM     24  C   UNL A   1      38.726  30.329  30.438  1.00  0.00     0.049 A 
ATOM     25  H   UNL A   1      40.798  30.544  30.231  1.00  0.00     0.167 HD
ATOM     26  C   UNL A   1      44.715  31.442  28.700  1.00  0.00     0.031 A 
ATOM     27  C   UNL A   1      38.306  31.548  30.846  1.00  0.00     0.031 A 
ATOM     28  C   UNL A   1      44.942  31.343  30.115  1.00  0.00     0.049 A 
ATOM     29  C   UNL A   1      39.486  32.324  31.285  1.00  0.00     0.074 A 
ATOM     30  C   UNL A   1      45.517  30.408  30.951  1.00  0.00     0.029 A 
ATOM     31  N   UNL A   1      44.262  32.211  30.933  1.00  0.00    -0.354 N 
ATOM     32  N   UNL A   1      40.163  32.062  32.364  1.00  0.00    -0.248 NA
ATOM     33  C   UNL A   1      40.160  33.177  30.320  1.00  0.00     0.031 C 
ATOM     34  C   UNL A   1      44.774  30.489  32.164  1.00  0.00     0.029 A 
ATOM     35  C   UNL A   1      43.806  31.482  31.999  1.00  0.00     0.049 A 
ATOM     36  H   UNL A   1      44.128  33.174  30.782  1.00  0.00     0.167 HD
ATOM     37  C   UNL A   1      41.479  32.350  32.036  1.00  0.00     0.074 A 
ATOM     38  C   UNL A   1      41.398  33.151  30.820  1.00  0.00     0.031 C 
ATOM     39  C   UNL A   1      42.515  31.675  32.619  1.00  0.00     0.031 A 
BRANCH  26  40
ATOM     40  C   UNL A   1      45.020  32.706  27.941  1.00  0.00    -0.014 A 
ATOM     41  C   UNL A   1      43.981  33.620  27.681  1.00  0.00     0.009 A 
ATOM     42  C   UNL A   1      46.222  32.894  27.233  1.00  0.00     0.009 A 
ATOM     43  C   UNL A   1      44.124  34.632  26.724  1.00  0.00     0.001 A 
ATOM     44  C   UNL A   1      46.382  33.929  26.308  1.00  0.00     0.001 A 
ATOM     45  C   UNL A   1      45.324  34.784  26.036  1.00  0.00     0.000 A 
ENDBRANCH  26  40
BRANCH  27  46
ATOM     46  C   UNL A   1      36.977  32.159  30.640  1.00  0.00    -0.014 A 
ATOM     47  C   UNL A   1      35.888  31.807  31.448  1.00  0.00     0.009 A 
ATOM     48  C   UNL A   1      36.834  33.275  29.793  1.00  0.00     0.009 A 
ATOM     49  C   UNL A   1      34.708  32.563  31.427  1.00  0.00     0.001 A 
ATOM     50  C   UNL A   1      35.655  34.023  29.766  1.00  0.00     0.001 A 
ATOM     51  C   UNL A   1      34.596  33.675  30.595  1.00  0.00     0.000 A 
ENDBRANCH  27  46
BRANCH  39  52
ATOM     52  C   UNL A   1      42.210  30.811  33.817  1.00  0.00    -0.014 A 
ATOM     53  C   UNL A   1      41.748  29.488  33.697  1.00  0.00     0.009 A 
ATOM     54  C   UNL A   1      42.542  31.286  35.094  1.00  0.00     0.009 A 
ATOM     55  C   UNL A   1      41.586  28.680  34.826  1.00  0.00     0.001 A 
ATOM     56  C   UNL A   1      42.402  30.471  36.219  1.00  0.00     0.001 A 
ATOM     57  C   UNL A   1      41.918  29.171  36.086  1.00  0.00     0.000 A 
ENDBRANCH  39  52
ENDBRANCH  13  14
ENDBRANCH   6   8
ENDBRANCH   5   6
ENDBRANCH   4   5
ENDBRANCH   3   4
ENDBRANCH   2   3
ENDBRANCH   1   2
BRANCH   1  58
ATOM     58  C   UNL A   1      35.910  24.071  25.572  1.00  0.00     0.188 C 
BRANCH  58  59
ATOM     59  O   UNL A   1      34.735  23.429  26.053  1.00  0.00    -0.376 OA
BRANCH  59  60
ATOM     60  C   UNL A   1      34.851  22.210  26.771  1.00  0.00     0.202 C 
BRANCH  60  61
ATOM     61  C   UNL A   1      34.349  20.921  26.107  1.00  0.00     0.261 C 
BRANCH  61  62
ATOM     62  O   UNL A   1      34.366  20.928  24.668  1.00  0.00    -0.460 OA
BRANCH  62  63
ATOM     63  C   UNL A   1      33.165  20.804  24.061  1.00  0.00     0.338 C 
ATOM     64  O   UNL A   1      32.546  19.771  23.824  1.00  0.00    -0.246 OA
BRANCH  63  65
ATOM     65  C   UNL A   1      32.601  22.135  23.788  1.00  0.00     0.060 A 
ATOM     66  C   UNL A   1      33.317  23.024  22.982  1.00  0.00     0.016 A 
ATOM     67  C   UNL A   1      31.412  22.538  24.395  1.00  0.00     0.016 A 
ATOM     68  C   UNL A   1      32.826  24.308  22.751  1.00  0.00     0.005 A 
ATOM     69  C   UNL A   1      30.947  23.844  24.198  1.00  0.00     0.005 A 
ATOM     70  C   UNL A   1      31.638  24.744  23.363  1.00  0.00    -0.038 A 
BRANCH  70  71
ATOM     71  C   UNL A   1      31.231  26.200  23.170  1.00  0.00     0.081 C 
ATOM     72  C   UNL A   1      32.041  26.864  22.037  1.00  0.00     0.111 C 
ATOM     73  C   UNL A   1      31.423  26.908  24.458  1.00  0.00     0.093 A 
ATOM     74  C   UNL A   1      33.127  27.817  22.507  1.00  0.00     0.188 C 
ATOM     75  C   UNL A   1      32.355  27.913  24.590  1.00  0.00     0.164 A 
ATOM     76  N   UNL A   1      30.796  26.632  25.641  1.00  0.00    -0.238 NA
ATOM     77  N   UNL A   1      33.248  28.360  23.676  1.00  0.00    -0.198 NA
ATOM     78  N   UNL A   1      32.327  28.256  25.929  1.00  0.00    -0.283 N 
ATOM     79  C   UNL A   1      31.394  27.421  26.512  1.00  0.00     0.206 A 
BRANCH  74  80
ATOM     80  O   UNL A   1      34.013  28.160  21.551  1.00  0.00    -0.496 OA
ATOM     81  H   UNL A   1      33.734  28.234  20.660  1.00  0.00     0.294 HD
ENDBRANCH  74  80
BRANCH  78  82
ATOM     82  C   UNL A   1      33.124  29.224  26.580  1.00  0.00     0.050 A 
ATOM     83  C   UNL A   1      34.406  28.887  27.031  1.00  0.00     0.027 A 
ATOM     84  C   UNL A   1      32.633  30.526  26.747  1.00  0.00     0.047 A 
ATOM     85  C   UNL A   1      35.210  29.871  27.613  1.00  0.00     0.004 A 
ATOM     86  C   UNL A   1      33.427  31.482  27.374  1.00  0.00     0.043 A 
ATOM     87  C   UNL A   1      34.717  31.165  27.792  1.00  0.00     0.020 A 
ATOM     88  Cl  UNL A   1      32.803  33.062  27.648  1.00  0.00    -0.084 Cl
ENDBRANCH  78  82
ENDBRANCH  70  71
ENDBRANCH  63  65
ENDBRANCH  62  63
ENDBRANCH  61  62
ENDBRANCH  60  61
ENDBRANCH  59  60
ENDBRANCH  58  59
ENDBRANCH   1  58
TORSDOF 20
ENDMDL
MODEL 3
REMARK VINA RESULT:     -11.1      1.763      2.516
REMARK SMILES O=C(OCCOCCOCCOC(=O)c1ccc([C@@H]2CC(O)=Nc3c2ncn3-c2cccc(Cl)c2)cc1)c1ccc(-c2c3nc(c(-c4ccccc4)c4ccc([nH]4)c(-c4ccccc4)c4nc(c(-c5ccccc5)c5ccc2[nH]5)C=C4)C=C3)cc1
REMARK SMILES IDX 7 1 6 2 5 3 4 4 3 5 2 6 1 7 38 8 39 9 85 10 40 11 84 12
REMARK SMILES IDX 41 13 42 14 43 15 78 16 44 17 83 18 77 19 79 20 45 21 82 22
REMARK SMILES IDX 76 23 75 24 46 26 68 27 53 28 67 29 54 30 57 31 66 32 80 33
REMARK SMILES IDX 55 34 56 35 65 37 81 38 58 39 47 40 48 41 52 42 49 43 51 44
REMARK SMILES IDX 50 45 69 46 70 47 74 48 71 49 73 50 72 51 59 52 60 53 64 54
REMARK SMILES IDX 61 55 63 56 62 57 8 58 9 59 10 60 11 61 12 62 13 63 14 64
REMARK SMILES IDX 15 65 16 66 37 67 17 68 36 69 18 70 19 71 20 72 25 73 21 74
REMARK SMILES IDX 24 75 26 76 23 77 28 78 27 79 22 80 29 82 30 83 35 84 31 85
REMARK SMILES IDX 33 86 32 87 34 88
REMARK H PARENT 79 25 57 36 22 81
REMARK Flexibility Score: inf
ROOT
ATOM      1  C   UNL A   1      32.837  35.897  30.522  1.00  0.00     0.188 C 
ENDROOT
BRANCH   1   2
ATOM      2  O   UNL A   1      33.076  34.998  31.591  1.00  0.00    -0.376 OA
BRANCH   2   3
ATOM      3  C   UNL A   1      34.384  34.477  31.721  1.00  0.00     0.202 C 
BRANCH   3   4
ATOM      4  C   UNL A   1      34.513  32.951  31.793  1.00  0.00     0.261 C 
BRANCH   4   5
ATOM      5  O   UNL A   1      35.386  32.348  30.824  1.00  0.00    -0.460 OA
BRANCH   5   6
ATOM      6  C   UNL A   1      36.718  32.392  30.652  1.00  0.00     0.338 C 
ATOM      7  O   UNL A   1      37.276  33.486  30.615  1.00  0.00    -0.246 OA
BRANCH   6   8
ATOM      8  C   UNL A   1      37.546  31.195  30.341  1.00  0.00     0.060 A 
ATOM      9  C   UNL A   1      37.166  29.867  30.530  1.00  0.00     0.016 A 
ATOM     10  C   UNL A   1      38.849  31.468  29.877  1.00  0.00     0.016 A 
ATOM     11  C   UNL A   1      38.095  28.844  30.372  1.00  0.00     0.010 A 
ATOM     12  C   UNL A   1      39.783  30.453  29.723  1.00  0.00     0.010 A 
ATOM     13  C   UNL A   1      39.416  29.151  30.044  1.00  0.00    -0.014 A 
BRANCH  13  14
ATOM     14  C   UNL A   1      40.406  28.091  30.172  1.00  0.00     0.031 A 
ATOM     15  C   UNL A   1      41.172  28.005  31.440  1.00  0.00     0.074 A 
ATOM     16  C   UNL A   1      40.584  27.182  29.193  1.00  0.00     0.049 A 
ATOM     17  N   UNL A   1      42.453  28.083  31.601  1.00  0.00    -0.248 NA
ATOM     18  C   UNL A   1      40.413  27.838  32.685  1.00  0.00     0.031 C 
ATOM     19  C   UNL A   1      39.736  26.954  28.018  1.00  0.00     0.029 A 
ATOM     20  N   UNL A   1      41.509  26.186  29.110  1.00  0.00    -0.354 N 
ATOM     21  C   UNL A   1      42.687  27.826  32.950  1.00  0.00     0.074 A 
ATOM     22  C   UNL A   1      41.394  27.776  33.588  1.00  0.00     0.031 C 
ATOM     23  C   UNL A   1      40.044  25.755  27.479  1.00  0.00     0.029 A 
ATOM     24  C   UNL A   1      41.189  25.205  28.184  1.00  0.00     0.049 A 
ATOM     25  H   UNL A   1      42.328  26.164  29.657  1.00  0.00     0.167 HD
ATOM     26  C   UNL A   1      43.916  27.487  33.427  1.00  0.00     0.031 A 
ATOM     27  C   UNL A   1      41.772  23.991  28.053  1.00  0.00     0.031 A 
ATOM     28  C   UNL A   1      44.976  27.799  32.509  1.00  0.00     0.049 A 
ATOM     29  C   UNL A   1      43.095  24.038  28.712  1.00  0.00     0.074 A 
ATOM     30  C   UNL A   1      45.465  28.954  31.934  1.00  0.00     0.029 A 
ATOM     31  N   UNL A   1      45.537  26.761  31.806  1.00  0.00    -0.354 N 
ATOM     32  N   UNL A   1      44.110  24.709  28.252  1.00  0.00    -0.248 NA
ATOM     33  C   UNL A   1      43.196  23.635  30.106  1.00  0.00     0.031 C 
ATOM     34  C   UNL A   1      45.911  28.562  30.638  1.00  0.00     0.029 A 
ATOM     35  C   UNL A   1      45.685  27.189  30.513  1.00  0.00     0.049 A 
ATOM     36  H   UNL A   1      45.785  25.879  32.162  1.00  0.00     0.167 HD
ATOM     37  C   UNL A   1      44.765  25.179  29.380  1.00  0.00     0.074 A 
ATOM     38  C   UNL A   1      44.238  24.382  30.482  1.00  0.00     0.031 C 
ATOM     39  C   UNL A   1      45.459  26.356  29.354  1.00  0.00     0.031 A 
BRANCH  26  40
ATOM     40  C   UNL A   1      44.130  26.554  34.590  1.00  0.00    -0.014 A 
ATOM     41  C   UNL A   1      43.663  25.229  34.504  1.00  0.00     0.009 A 
ATOM     42  C   UNL A   1      44.520  27.009  35.864  1.00  0.00     0.009 A 
ATOM     43  C   UNL A   1      43.543  24.424  35.643  1.00  0.00     0.001 A 
ATOM     44  C   UNL A   1      44.441  26.193  36.996  1.00  0.00     0.001 A 
ATOM     45  C   UNL A   1      43.930  24.908  36.889  1.00  0.00     0.000 A 
ENDBRANCH  26  40
BRANCH  27  46
ATOM     46  C   UNL A   1      41.141  22.732  27.610  1.00  0.00    -0.014 A 
ATOM     47  C   UNL A   1      40.014  22.743  26.777  1.00  0.00     0.009 A 
ATOM     48  C   UNL A   1      41.796  21.502  27.813  1.00  0.00     0.009 A 
ATOM     49  C   UNL A   1      39.576  21.569  26.151  1.00  0.00     0.001 A 
ATOM     50  C   UNL A   1      41.353  20.329  27.196  1.00  0.00     0.001 A 
ATOM     51  C   UNL A   1      40.251  20.366  26.352  1.00  0.00     0.000 A 
ENDBRANCH  27  46
BRANCH  39  52
ATOM     52  C   UNL A   1      45.725  26.990  28.011  1.00  0.00    -0.014 A 
ATOM     53  C   UNL A   1      46.838  26.649  27.221  1.00  0.00     0.009 A 
ATOM     54  C   UNL A   1      44.753  27.836  27.459  1.00  0.00     0.009 A 
ATOM     55  C   UNL A   1      46.991  27.171  25.934  1.00  0.00     0.001 A 
ATOM     56  C   UNL A   1      44.894  28.339  26.164  1.00  0.00     0.001 A 
ATOM     57  C   UNL A   1      46.016  28.013  25.404  1.00  0.00     0.000 A 
ENDBRANCH  39  52
ENDBRANCH  13  14
ENDBRANCH   6   8
ENDBRANCH   5   6
ENDBRANCH   4   5
ENDBRANCH   3   4
ENDBRANCH   2   3
ENDBRANCH   1   2
BRANCH   1  58
ATOM     58  C   UNL A   1      33.847  35.767  29.360  1.00  0.00     0.188 C 
BRANCH  58  59
ATOM     59  O   UNL A   1      33.443  35.206  28.117  1.00  0.00    -0.376 OA
BRANCH  59  60
ATOM     60  C   UNL A   1      33.078  33.835  28.056  1.00  0.00     0.202 C 
BRANCH  60  61
ATOM     61  C   UNL A   1      34.193  32.785  27.965  1.00  0.00     0.261 C 
BRANCH  61  62
ATOM     62  O   UNL A   1      33.764  31.423  28.136  1.00  0.00    -0.460 OA
BRANCH  62  63
ATOM     63  C   UNL A   1      34.455  30.492  27.439  1.00  0.00     0.338 C 
ATOM     64  O   UNL A   1      35.670  30.327  27.408  1.00  0.00    -0.246 OA
BRANCH  63  65
ATOM     65  C   UNL A   1      33.522  29.583  26.757  1.00  0.00     0.060 A 
ATOM     66  C   UNL A   1      33.636  28.206  26.970  1.00  0.00     0.016 A 
ATOM     67  C   UNL A   1      32.593  30.077  25.841  1.00  0.00     0.016 A 
ATOM     68  C   UNL A   1      32.795  27.323  26.295  1.00  0.00     0.005 A 
ATOM     69  C   UNL A   1      31.783  29.183  25.131  1.00  0.00     0.005 A 
ATOM     70  C   UNL A   1      31.861  27.794  25.357  1.00  0.00    -0.038 A 
BRANCH  70  71
ATOM     71  C   UNL A   1      31.068  26.764  24.563  1.00  0.00     0.081 C 
ATOM     72  C   UNL A   1      29.900  26.192  25.393  1.00  0.00     0.111 C 
ATOM     73  C   UNL A   1      32.000  25.694  24.134  1.00  0.00     0.093 A 
ATOM     74  C   UNL A   1      30.124  24.784  25.919  1.00  0.00     0.188 C 
ATOM     75  C   UNL A   1      31.873  24.404  24.600  1.00  0.00     0.164 A 
ATOM     76  N   UNL A   1      33.092  25.840  23.324  1.00  0.00    -0.238 NA
ATOM     77  N   UNL A   1      30.999  23.921  25.515  1.00  0.00    -0.198 NA
ATOM     78  N   UNL A   1      32.958  23.725  24.080  1.00  0.00    -0.283 N 
ATOM     79  C   UNL A   1      33.673  24.657  23.352  1.00  0.00     0.206 A 
BRANCH  74  80
ATOM     80  O   UNL A   1      29.251  24.406  26.874  1.00  0.00    -0.496 OA
ATOM     81  H   UNL A   1      28.825  25.053  27.401  1.00  0.00     0.294 HD
ENDBRANCH  74  80
BRANCH  78  82
ATOM     82  C   UNL A   1      33.299  22.370  24.290  1.00  0.00     0.050 A 
ATOM     83  C   UNL A   1      32.304  21.386  24.263  1.00  0.00     0.027 A 
ATOM     84  C   UNL A   1      34.640  22.018  24.499  1.00  0.00     0.047 A 
ATOM     85  C   UNL A   1      32.662  20.043  24.404  1.00  0.00     0.004 A 
ATOM     86  C   UNL A   1      34.974  20.680  24.689  1.00  0.00     0.043 A 
ATOM     87  C   UNL A   1      33.996  19.691  24.626  1.00  0.00     0.020 A 
ATOM     88  Cl  UNL A   1      36.607  20.248  25.019  1.00  0.00    -0.084 Cl
ENDBRANCH  78  82
ENDBRANCH  70  71
ENDBRANCH  63  65
ENDBRANCH  62  63
ENDBRANCH  61  62
ENDBRANCH  60  61
ENDBRANCH  59  60
ENDBRANCH  58  59
ENDBRANCH   1  58
TORSDOF 20
ENDMDL
