MODEL 1
REMARK VINA RESULT:     -11.3      0.000      0.000
REMARK SMILES O=C(OCCOCCOCCOC(=O)c1ccc(-c2c3nc(c(-c4ccccc4)c4ccc([nH]4)c(-c4ccccc4)c4nc(c(-c5ccccc5)c5ccc2[nH]5)C=C4)C=C3)cc1)C1=Cc2cc(Cl)cc(C#Cc3ccccc3)c2O[C@@H]1C(F)(F)F
REMARK SMILES IDX 7 1 6 2 5 3 4 4 3 5 2 6 1 7 63 8 64 9 81 10 65 11 80 12
REMARK SMILES IDX 66 13 79 14 67 15 70 16 68 17 69 18 82 19 83 20 84 21 85 22
REMARK SMILES IDX 71 23 72 24 73 25 74 26 78 27 75 28 77 29 76 30 8 31 9 32
REMARK SMILES IDX 10 33 11 34 12 35 13 36 14 37 15 38 16 39 62 40 17 41 61 42
REMARK SMILES IDX 18 43 19 44 20 45 55 46 21 47 60 48 54 49 56 50 22 51 59 52
REMARK SMILES IDX 53 53 52 54 23 56 45 57 30 58 44 59 31 60 34 61 43 62 57 63
REMARK SMILES IDX 32 64 33 65 42 67 58 68 35 69 24 70 25 71 29 72 26 73 28 74
REMARK SMILES IDX 27 75 46 76 47 77 51 78 48 79 50 80 49 81 36 82 37 83 41 84
REMARK SMILES IDX 38 85 40 86 39 87
REMARK H PARENT 56 55 34 66
REMARK Flexibility Score: inf
ROOT
ATOM      1  C   UNL A   1      37.604  19.790  25.002  1.00  0.00     0.188 C 
ENDROOT
BRANCH   1   2
ATOM      2  O   UNL A   1      36.190  19.852  24.729  1.00  0.00    -0.376 OA
BRANCH   2   3
ATOM      3  C   UNL A   1      35.023  18.744  24.764  1.00  0.00     0.202 C 
BRANCH   3   4
ATOM      4  C   UNL A   1      32.887  18.980  25.103  1.00  0.00     0.261 C 
BRANCH   4   5
ATOM      5  O   UNL A   1      31.981  20.062  24.453  1.00  0.00    -0.460 OA
BRANCH   5   6
ATOM      6  C   UNL A   1      31.871  21.174  25.190  1.00  0.00     0.338 C 
ATOM      7  O   UNL A   1      30.924  21.647  25.761  1.00  0.00    -0.246 OA
BRANCH   6   8
ATOM      8  C   UNL A   1      33.118  21.743  24.751  1.00  0.00     0.087 C 
ATOM      9  C   UNL A   1      33.083  22.068  23.305  1.00  0.00     0.027 C 
ATOM     10  C   UNL A   1      33.284  23.046  26.174  1.00  0.00     0.316 C 
ATOM     11  C   UNL A   1      32.997  23.763  22.661  1.00  0.00     0.020 A 
ATOM     12  O   UNL A   1      33.102  24.856  25.504  1.00  0.00    -0.474 OA
ATOM     13  C   UNL A   1      32.893  23.946  21.309  1.00  0.00     0.032 A 
ATOM     14  C   UNL A   1      32.949  25.154  23.713  1.00  0.00     0.143 A 
ATOM     15  C   UNL A   1      32.775  25.284  20.903  1.00  0.00     0.043 A 
ATOM     16  C   UNL A   1      32.836  26.426  23.207  1.00  0.00     0.069 A 
ATOM     17  Cl  UNL A   1      32.637  25.575  19.199  1.00  0.00    -0.084 Cl
ATOM     18  C   UNL A   1      32.754  26.438  21.786  1.00  0.00     0.041 A 
BRANCH  10  19
ATOM     19  C   UNL A   1      34.485  22.330  26.988  1.00  0.00     0.430 C 
ATOM     20  F   UNL A   1      35.662  22.162  26.364  1.00  0.00    -0.167 F 
ATOM     21  F   UNL A   1      34.779  23.146  28.047  1.00  0.00    -0.167 F 
ATOM     22  F   UNL A   1      34.142  21.149  27.554  1.00  0.00    -0.167 F 
ENDBRANCH  10  19
BRANCH  16  23
ATOM     23  C   UNL A   1      32.849  27.683  23.877  1.00  0.00    -0.058 C 
ATOM     24  C   UNL A   1      32.923  28.621  24.624  1.00  0.00    -0.062 C 
BRANCH  24  25
ATOM     25  C   UNL A   1      32.916  29.659  25.618  1.00  0.00     0.025 A 
ATOM     26  C   UNL A   1      33.989  29.831  26.497  1.00  0.00     0.017 A 
ATOM     27  C   UNL A   1      31.784  30.466  25.753  1.00  0.00     0.017 A 
ATOM     28  C   UNL A   1      33.926  30.808  27.498  1.00  0.00     0.001 A 
ATOM     29  C   UNL A   1      31.715  31.431  26.758  1.00  0.00     0.001 A 
ATOM     30  C   UNL A   1      32.788  31.604  27.630  1.00  0.00     0.000 A 
ENDBRANCH  24  25
ENDBRANCH  16  23
ENDBRANCH   6   8
ENDBRANCH   5   6
ENDBRANCH   4   5
ENDBRANCH   3   4
ENDBRANCH   2   3
ENDBRANCH   1   2
BRANCH   1  31
ATOM     31  C   UNL A   1      38.523  20.998  25.224  1.00  0.00     0.188 C 
BRANCH  31  32
ATOM     32  O   UNL A   1      39.388  21.107  26.321  1.00  0.00    -0.376 OA
BRANCH  32  33
ATOM     33  C   UNL A   1      40.785  21.088  26.129  1.00  0.00     0.202 C 
BRANCH  33  34
ATOM     34  C   UNL A   1      41.524  22.328  26.614  1.00  0.00     0.261 C 
BRANCH  34  35
ATOM     35  O   UNL A   1      40.771  23.531  26.394  1.00  0.00    -0.460 OA
BRANCH  35  36
ATOM     36  C   UNL A   1      41.485  24.648  26.126  1.00  0.00     0.338 C 
ATOM     37  O   UNL A   1      42.387  24.781  25.317  1.00  0.00    -0.246 OA
BRANCH  36  38
ATOM     38  C   UNL A   1      40.894  25.779  26.868  1.00  0.00     0.060 A 
ATOM     39  C   UNL A   1      41.514  27.033  26.764  1.00  0.00     0.016 A 
ATOM     40  C   UNL A   1      39.751  25.611  27.654  1.00  0.00     0.016 A 
ATOM     41  C   UNL A   1      41.025  28.111  27.492  1.00  0.00     0.010 A 
ATOM     42  C   UNL A   1      39.281  26.682  28.415  1.00  0.00     0.010 A 
ATOM     43  C   UNL A   1      39.956  27.914  28.376  1.00  0.00    -0.014 A 
BRANCH  43  44
ATOM     44  C   UNL A   1      39.802  28.870  29.493  1.00  0.00     0.031 A 
ATOM     45  C   UNL A   1      40.757  28.722  30.648  1.00  0.00     0.074 A 
ATOM     46  C   UNL A   1      38.898  29.862  29.465  1.00  0.00     0.049 A 
ATOM     47  N   UNL A   1      40.897  29.462  31.715  1.00  0.00    -0.248 NA
ATOM     48  C   UNL A   1      41.689  27.580  30.581  1.00  0.00     0.031 C 
ATOM     49  C   UNL A   1      37.956  30.126  28.380  1.00  0.00     0.029 A 
ATOM     50  N   UNL A   1      38.640  30.843  30.388  1.00  0.00    -0.354 N 
ATOM     51  C   UNL A   1      41.933  28.880  32.437  1.00  0.00     0.074 A 
ATOM     52  C   UNL A   1      42.359  27.705  31.714  1.00  0.00     0.031 C 
ATOM     53  C   UNL A   1      37.219  31.206  28.700  1.00  0.00     0.029 A 
ATOM     54  C   UNL A   1      37.628  31.693  30.017  1.00  0.00     0.049 A 
ATOM     55  H   UNL A   1      39.133  30.930  31.235  1.00  0.00     0.167 HD
ATOM     56  C   UNL A   1      42.489  29.290  33.600  1.00  0.00     0.031 A 
ATOM     57  C   UNL A   1      37.100  32.741  30.678  1.00  0.00     0.031 A 
ATOM     58  C   UNL A   1      42.033  30.434  34.337  1.00  0.00     0.049 A 
ATOM     59  C   UNL A   1      37.679  33.127  32.017  1.00  0.00     0.074 A 
ATOM     60  C   UNL A   1      42.516  30.943  35.528  1.00  0.00     0.029 A 
ATOM     61  N   UNL A   1      40.968  31.237  33.956  1.00  0.00    -0.354 N 
ATOM     62  N   UNL A   1      38.686  32.598  32.672  1.00  0.00    -0.248 NA
ATOM     63  C   UNL A   1      37.059  34.273  32.695  1.00  0.00     0.031 C 
ATOM     64  C   UNL A   1      41.698  32.014  35.902  1.00  0.00     0.029 A 
ATOM     65  C   UNL A   1      40.760  32.223  34.903  1.00  0.00     0.049 A 
ATOM     66  H   UNL A   1      40.439  31.122  33.133  1.00  0.00     0.167 HD
ATOM     67  C   UNL A   1      38.848  33.374  33.814  1.00  0.00     0.074 A 
ATOM     68  C   UNL A   1      37.843  34.416  33.754  1.00  0.00     0.031 C 
ATOM     69  C   UNL A   1      39.753  33.249  34.818  1.00  0.00     0.031 A 
BRANCH  56  70
ATOM     70  C   UNL A   1      43.607  28.455  34.160  1.00  0.00    -0.014 A 
ATOM     71  C   UNL A   1      43.366  27.431  35.091  1.00  0.00     0.009 A 
ATOM     72  C   UNL A   1      44.926  28.704  33.754  1.00  0.00     0.009 A 
ATOM     73  C   UNL A   1      44.428  26.701  35.632  1.00  0.00     0.001 A 
ATOM     74  C   UNL A   1      45.982  27.951  34.270  1.00  0.00     0.001 A 
ATOM     75  C   UNL A   1      45.733  26.958  35.216  1.00  0.00     0.000 A 
ENDBRANCH  56  70
BRANCH  57  76
ATOM     76  C   UNL A   1      35.968  33.509  30.092  1.00  0.00    -0.014 A 
ATOM     77  C   UNL A   1      34.715  33.542  30.725  1.00  0.00     0.009 A 
ATOM     78  C   UNL A   1      36.125  34.186  28.871  1.00  0.00     0.009 A 
ATOM     79  C   UNL A   1      33.637  34.203  30.132  1.00  0.00     0.001 A 
ATOM     80  C   UNL A   1      35.053  34.874  28.297  1.00  0.00     0.001 A 
ATOM     81  C   UNL A   1      33.807  34.871  28.920  1.00  0.00     0.000 A 
ENDBRANCH  57  76
BRANCH  69  82
ATOM     82  C   UNL A   1      39.737  34.298  35.897  1.00  0.00    -0.014 A 
ATOM     83  C   UNL A   1      40.433  35.510  35.765  1.00  0.00     0.009 A 
ATOM     84  C   UNL A   1      38.978  34.075  37.058  1.00  0.00     0.009 A 
ATOM     85  C   UNL A   1      40.410  36.452  36.796  1.00  0.00     0.001 A 
ATOM     86  C   UNL A   1      38.924  35.034  38.068  1.00  0.00     0.001 A 
ATOM     87  C   UNL A   1      39.653  36.216  37.943  1.00  0.00     0.000 A 
ENDBRANCH  69  82
ENDBRANCH  43  44
ENDBRANCH  36  38
ENDBRANCH  35  36
ENDBRANCH  34  35
ENDBRANCH  33  34
ENDBRANCH  32  33
ENDBRANCH  31  32
ENDBRANCH   1  31
TORSDOF 20
ENDMDL
MODEL 2
REMARK VINA RESULT:     -11.1      4.137      6.420
REMARK SMILES O=C(OCCOCCOCCOC(=O)c1ccc(-c2c3nc(c(-c4ccccc4)c4ccc([nH]4)c(-c4ccccc4)c4nc(c(-c5ccccc5)c5ccc2[nH]5)C=C4)C=C3)cc1)C1=Cc2cc(Cl)cc(C#Cc3ccccc3)c2O[C@@H]1C(F)(F)F
REMARK SMILES IDX 7 1 6 2 5 3 4 4 3 5 2 6 1 7 63 8 64 9 81 10 65 11 80 12
REMARK SMILES IDX 66 13 79 14 67 15 70 16 68 17 69 18 82 19 83 20 84 21 85 22
REMARK SMILES IDX 71 23 72 24 73 25 74 26 78 27 75 28 77 29 76 30 8 31 9 32
REMARK SMILES IDX 10 33 11 34 12 35 13 36 14 37 15 38 16 39 62 40 17 41 61 42
REMARK SMILES IDX 18 43 19 44 20 45 55 46 21 47 60 48 54 49 56 50 22 51 59 52
REMARK SMILES IDX 53 53 52 54 23 56 45 57 30 58 44 59 31 60 34 61 43 62 57 63
REMARK SMILES IDX 32 64 33 65 42 67 58 68 35 69 24 70 25 71 29 72 26 73 28 74
REMARK SMILES IDX 27 75 46 76 47 77 51 78 48 79 50 80 49 81 36 82 37 83 41 84
REMARK SMILES IDX 38 85 40 86 39 87
REMARK H PARENT 56 55 34 66
REMARK Flexibility Score: inf
ROOT
ATOM      1  C   UNL A   1      34.621  19.575  24.671  1.00  0.00     0.188 C 
ENDROOT
BRANCH   1   2
ATOM      2  O   UNL A   1      33.307  19.535  25.263  1.00  0.00    -0.376 OA
BRANCH   2   3
ATOM      3  C   UNL A   1      32.107  20.605  25.325  1.00  0.00     0.202 C 
BRANCH   3   4
ATOM      4  C   UNL A   1      31.759  22.380  24.116  1.00  0.00     0.261 C 
BRANCH   4   5
ATOM      5  O   UNL A   1      30.814  23.557  24.485  1.00  0.00    -0.460 OA
BRANCH   5   6
ATOM      6  C   UNL A   1      31.273  24.309  25.493  1.00  0.00     0.338 C 
ATOM      7  O   UNL A   1      30.911  24.393  26.637  1.00  0.00    -0.246 OA
BRANCH   6   8
ATOM      8  C   UNL A   1      32.044  25.190  24.656  1.00  0.00     0.087 C 
ATOM      9  C   UNL A   1      31.200  26.264  24.081  1.00  0.00     0.027 C 
ATOM     10  C   UNL A   1      33.496  25.473  25.906  1.00  0.00     0.316 C 
ATOM     11  C   UNL A   1      31.280  27.996  24.616  1.00  0.00     0.020 A 
ATOM     12  O   UNL A   1      33.531  27.301  26.550  1.00  0.00    -0.474 OA
ATOM     13  C   UNL A   1      30.401  28.893  24.071  1.00  0.00     0.032 A 
ATOM     14  C   UNL A   1      32.374  28.531  25.865  1.00  0.00     0.143 A 
ATOM     15  C   UNL A   1      30.496  30.195  24.582  1.00  0.00     0.043 A 
ATOM     16  C   UNL A   1      32.386  29.838  26.289  1.00  0.00     0.069 A 
ATOM     17  Cl  UNL A   1      29.403  31.374  23.929  1.00  0.00    -0.084 Cl
ATOM     18  C   UNL A   1      31.423  30.637  25.610  1.00  0.00     0.041 A 
BRANCH  10  19
ATOM     19  C   UNL A   1      34.619  24.595  25.140  1.00  0.00     0.430 C 
ATOM     20  F   UNL A   1      35.901  24.746  25.507  1.00  0.00    -0.167 F 
ATOM     21  F   UNL A   1      34.342  23.284  25.415  1.00  0.00    -0.167 F 
ATOM     22  F   UNL A   1      34.560  24.680  23.790  1.00  0.00    -0.167 F 
ENDBRANCH  10  19
BRANCH  16  23
ATOM     23  C   UNL A   1      33.235  30.488  27.231  1.00  0.00    -0.058 C 
ATOM     24  C   UNL A   1      33.901  31.225  27.908  1.00  0.00    -0.062 C 
BRANCH  24  25
ATOM     25  C   UNL A   1      34.762  32.159  28.578  1.00  0.00     0.025 A 
ATOM     26  C   UNL A   1      35.779  32.832  27.894  1.00  0.00     0.017 A 
ATOM     27  C   UNL A   1      34.624  32.345  29.956  1.00  0.00     0.017 A 
ATOM     28  C   UNL A   1      36.645  33.686  28.588  1.00  0.00     0.001 A 
ATOM     29  C   UNL A   1      35.494  33.186  30.650  1.00  0.00     0.001 A 
ATOM     30  C   UNL A   1      36.504  33.859  29.965  1.00  0.00     0.000 A 
ENDBRANCH  24  25
ENDBRANCH  16  23
ENDBRANCH   6   8
ENDBRANCH   5   6
ENDBRANCH   4   5
ENDBRANCH   3   4
ENDBRANCH   2   3
ENDBRANCH   1   2
BRANCH   1  31
ATOM     31  C   UNL A   1      35.587  20.766  24.726  1.00  0.00     0.188 C 
BRANCH  31  32
ATOM     32  O   UNL A   1      36.963  20.623  24.941  1.00  0.00    -0.376 OA
BRANCH  32  33
ATOM     33  C   UNL A   1      37.645  21.509  25.800  1.00  0.00     0.202 C 
BRANCH  33  34
ATOM     34  C   UNL A   1      39.164  21.420  25.752  1.00  0.00     0.261 C 
BRANCH  34  35
ATOM     35  O   UNL A   1      39.665  20.273  26.456  1.00  0.00    -0.460 OA
BRANCH  35  36
ATOM     36  C   UNL A   1      40.956  19.941  26.227  1.00  0.00     0.338 C 
ATOM     37  O   UNL A   1      41.385  18.924  25.713  1.00  0.00    -0.246 OA
BRANCH  36  38
ATOM     38  C   UNL A   1      41.809  21.100  26.558  1.00  0.00     0.060 A 
ATOM     39  C   UNL A   1      42.101  21.341  27.909  1.00  0.00     0.016 A 
ATOM     40  C   UNL A   1      42.315  21.937  25.558  1.00  0.00     0.016 A 
ATOM     41  C   UNL A   1      42.852  22.454  28.269  1.00  0.00     0.010 A 
ATOM     42  C   UNL A   1      43.036  23.074  25.920  1.00  0.00     0.010 A 
ATOM     43  C   UNL A   1      43.251  23.361  27.279  1.00  0.00    -0.014 A 
BRANCH  43  44
ATOM     44  C   UNL A   1      43.555  24.746  27.697  1.00  0.00     0.031 A 
ATOM     45  C   UNL A   1      44.995  25.179  27.612  1.00  0.00     0.074 A 
ATOM     46  C   UNL A   1      42.595  25.604  28.078  1.00  0.00     0.049 A 
ATOM     47  N   UNL A   1      45.530  26.348  27.840  1.00  0.00    -0.248 NA
ATOM     48  C   UNL A   1      45.964  24.143  27.205  1.00  0.00     0.031 C 
ATOM     49  C   UNL A   1      41.167  25.306  28.153  1.00  0.00     0.029 A 
ATOM     50  N   UNL A   1      42.692  26.916  28.465  1.00  0.00    -0.354 N 
ATOM     51  C   UNL A   1      46.889  26.189  27.598  1.00  0.00     0.074 A 
ATOM     52  C   UNL A   1      47.107  24.806  27.246  1.00  0.00     0.031 C 
ATOM     53  C   UNL A   1      40.516  26.412  28.562  1.00  0.00     0.029 A 
ATOM     54  C   UNL A   1      41.485  27.481  28.794  1.00  0.00     0.049 A 
ATOM     55  H   UNL A   1      43.545  27.405  28.505  1.00  0.00     0.167 HD
ATOM     56  C   UNL A   1      47.874  27.115  27.655  1.00  0.00     0.031 A 
ATOM     57  C   UNL A   1      41.209  28.725  29.231  1.00  0.00     0.031 A 
ATOM     58  C   UNL A   1      47.657  28.479  28.047  1.00  0.00     0.049 A 
ATOM     59  C   UNL A   1      42.337  29.717  29.372  1.00  0.00     0.074 A 
ATOM     60  C   UNL A   1      48.578  29.505  28.145  1.00  0.00     0.029 A 
ATOM     61  N   UNL A   1      46.429  28.998  28.425  1.00  0.00    -0.354 N 
ATOM     62  N   UNL A   1      43.613  29.571  29.099  1.00  0.00    -0.248 NA
ATOM     63  C   UNL A   1      41.979  31.055  29.860  1.00  0.00     0.031 C 
ATOM     64  C   UNL A   1      47.917  30.629  28.650  1.00  0.00     0.029 A 
ATOM     65  C   UNL A   1      46.571  30.327  28.785  1.00  0.00     0.049 A 
ATOM     66  H   UNL A   1      45.581  28.497  28.436  1.00  0.00     0.167 HD
ATOM     67  C   UNL A   1      44.199  30.809  29.338  1.00  0.00     0.074 A 
ATOM     68  C   UNL A   1      43.136  31.695  29.767  1.00  0.00     0.031 C 
ATOM     69  C   UNL A   1      45.495  31.187  29.206  1.00  0.00     0.031 A 
BRANCH  56  70
ATOM     70  C   UNL A   1      49.270  26.654  27.340  1.00  0.00    -0.014 A 
ATOM     71  C   UNL A   1      50.108  26.114  28.331  1.00  0.00     0.009 A 
ATOM     72  C   UNL A   1      49.758  26.771  26.031  1.00  0.00     0.009 A 
ATOM     73  C   UNL A   1      51.417  25.738  28.022  1.00  0.00     0.001 A 
ATOM     74  C   UNL A   1      51.055  26.363  25.717  1.00  0.00     0.001 A 
ATOM     75  C   UNL A   1      51.887  25.857  26.716  1.00  0.00     0.000 A 
ENDBRANCH  56  70
BRANCH  57  76
ATOM     76  C   UNL A   1      39.812  29.115  29.563  1.00  0.00    -0.014 A 
ATOM     77  C   UNL A   1      39.275  28.857  30.834  1.00  0.00     0.009 A 
ATOM     78  C   UNL A   1      38.992  29.716  28.594  1.00  0.00     0.009 A 
ATOM     79  C   UNL A   1      37.940  29.157  31.116  1.00  0.00     0.001 A 
ATOM     80  C   UNL A   1      37.667  30.045  28.888  1.00  0.00     0.001 A 
ATOM     81  C   UNL A   1      37.137  29.754  30.144  1.00  0.00     0.000 A 
ENDBRANCH  57  76
BRANCH  69  82
ATOM     82  C   UNL A   1      45.823  32.633  29.465  1.00  0.00    -0.014 A 
ATOM     83  C   UNL A   1      45.820  33.591  28.440  1.00  0.00     0.009 A 
ATOM     84  C   UNL A   1      46.109  33.045  30.777  1.00  0.00     0.009 A 
ATOM     85  C   UNL A   1      46.148  34.920  28.715  1.00  0.00     0.001 A 
ATOM     86  C   UNL A   1      46.397  34.381  31.057  1.00  0.00     0.001 A 
ATOM     87  C   UNL A   1      46.431  35.315  30.023  1.00  0.00     0.000 A 
ENDBRANCH  69  82
ENDBRANCH  43  44
ENDBRANCH  36  38
ENDBRANCH  35  36
ENDBRANCH  34  35
ENDBRANCH  33  34
ENDBRANCH  32  33
ENDBRANCH  31  32
ENDBRANCH   1  31
TORSDOF 20
ENDMDL
MODEL 3
REMARK VINA RESULT:     -10.8      4.124      8.084
REMARK SMILES O=C(OCCOCCOCCOC(=O)c1ccc(-c2c3nc(c(-c4ccccc4)c4ccc([nH]4)c(-c4ccccc4)c4nc(c(-c5ccccc5)c5ccc2[nH]5)C=C4)C=C3)cc1)C1=Cc2cc(Cl)cc(C#Cc3ccccc3)c2O[C@@H]1C(F)(F)F
REMARK SMILES IDX 7 1 6 2 5 3 4 4 3 5 2 6 1 7 63 8 64 9 81 10 65 11 80 12
REMARK SMILES IDX 66 13 79 14 67 15 70 16 68 17 69 18 82 19 83 20 84 21 85 22
REMARK SMILES IDX 71 23 72 24 73 25 74 26 78 27 75 28 77 29 76 30 8 31 9 32
REMARK SMILES IDX 10 33 11 34 12 35 13 36 14 37 15 38 16 39 62 40 17 41 61 42
REMARK SMILES IDX 18 43 19 44 20 45 55 46 21 47 60 48 54 49 56 50 22 51 59 52
REMARK SMILES IDX 53 53 52 54 23 56 45 57 30 58 44 59 31 60 34 61 43 62 57 63
REMARK SMILES IDX 32 64 33 65 42 67 58 68 35 69 24 70 25 71 29 72 26 73 28 74
REMARK SMILES IDX 27 75 46 76 47 77 51 78 48 79 50 80 49 81 36 82 37 83 41 84
REMARK SMILES IDX 38 85 40 86 39 87
REMARK H PARENT 56 55 34 66
REMARK Flexibility Score: inf
ROOT
ATOM      1  C   UNL A   1      34.687  19.492  24.626  1.00  0.00     0.188 C 
ENDROOT
BRANCH   1   2
ATOM      2  O   UNL A   1      33.394  19.386  25.254  1.00  0.00    -0.376 OA
BRANCH   2   3
ATOM      3  C   UNL A   1      32.142  20.393  25.348  1.00  0.00     0.202 C 
BRANCH   3   4
ATOM      4  C   UNL A   1      31.760  22.245  24.271  1.00  0.00     0.261 C 
BRANCH   4   5
ATOM      5  O   UNL A   1      30.728  23.333  24.677  1.00  0.00    -0.460 OA
BRANCH   5   6
ATOM      6  C   UNL A   1      31.169  24.146  25.645  1.00  0.00     0.338 C 
ATOM      7  O   UNL A   1      30.781  24.308  26.772  1.00  0.00    -0.246 OA
BRANCH   6   8
ATOM      8  C   UNL A   1      31.967  24.965  24.771  1.00  0.00     0.087 C 
ATOM      9  C   UNL A   1      31.165  26.063  24.179  1.00  0.00     0.027 C 
ATOM     10  C   UNL A   1      33.453  25.212  25.988  1.00  0.00     0.316 C 
ATOM     11  C   UNL A   1      31.338  27.804  24.664  1.00  0.00     0.020 A 
ATOM     12  O   UNL A   1      33.586  27.053  26.580  1.00  0.00    -0.474 OA
ATOM     13  C   UNL A   1      30.494  28.726  24.108  1.00  0.00     0.032 A 
ATOM     14  C   UNL A   1      32.478  28.319  25.880  1.00  0.00     0.143 A 
ATOM     15  C   UNL A   1      30.660  30.036  24.581  1.00  0.00     0.043 A 
ATOM     16  C   UNL A   1      32.560  29.635  26.267  1.00  0.00     0.069 A 
ATOM     17  Cl  UNL A   1      29.614  31.248  23.912  1.00  0.00    -0.084 Cl
ATOM     18  C   UNL A   1      31.625  30.461  25.581  1.00  0.00     0.041 A 
BRANCH  10  19
ATOM     19  C   UNL A   1      34.518  24.261  25.230  1.00  0.00     0.430 C 
ATOM     20  F   UNL A   1      34.362  24.057  23.912  1.00  0.00    -0.167 F 
ATOM     21  F   UNL A   1      35.735  24.878  25.333  1.00  0.00    -0.167 F 
ATOM     22  F   UNL A   1      34.698  23.054  25.818  1.00  0.00    -0.167 F 
ENDBRANCH  10  19
BRANCH  16  23
ATOM     23  C   UNL A   1      33.456  30.268  27.176  1.00  0.00    -0.058 C 
ATOM     24  C   UNL A   1      34.090  30.991  27.897  1.00  0.00    -0.062 C 
BRANCH  24  25
ATOM     25  C   UNL A   1      34.862  31.954  28.633  1.00  0.00     0.025 A 
ATOM     26  C   UNL A   1      34.762  32.057  30.023  1.00  0.00     0.017 A 
ATOM     27  C   UNL A   1      35.676  32.850  27.936  1.00  0.00     0.017 A 
ATOM     28  C   UNL A   1      35.477  33.049  30.706  1.00  0.00     0.001 A 
ATOM     29  C   UNL A   1      36.378  33.846  28.614  1.00  0.00     0.001 A 
ATOM     30  C   UNL A   1      36.281  33.945  30.001  1.00  0.00     0.000 A 
ENDBRANCH  24  25
ENDBRANCH  16  23
ENDBRANCH   6   8
ENDBRANCH   5   6
ENDBRANCH   4   5
ENDBRANCH   3   4
ENDBRANCH   2   3
ENDBRANCH   1   2
BRANCH   1  31
ATOM     31  C   UNL A   1      35.574  20.744  24.620  1.00  0.00     0.188 C 
BRANCH  31  32
ATOM     32  O   UNL A   1      36.960  20.698  24.821  1.00  0.00    -0.376 OA
BRANCH  32  33
ATOM     33  C   UNL A   1      37.562  21.505  25.808  1.00  0.00     0.202 C 
BRANCH  33  34
ATOM     34  C   UNL A   1      39.084  21.525  25.790  1.00  0.00     0.261 C 
BRANCH  34  35
ATOM     35  O   UNL A   1      39.653  20.557  26.685  1.00  0.00    -0.460 OA
BRANCH  35  36
ATOM     36  C   UNL A   1      40.893  20.110  26.382  1.00  0.00     0.338 C 
ATOM     37  O   UNL A   1      41.195  19.062  25.839  1.00  0.00    -0.246 OA
BRANCH  36  38
ATOM     38  C   UNL A   1      41.867  21.181  26.670  1.00  0.00     0.060 A 
ATOM     39  C   UNL A   1      42.044  21.570  28.006  1.00  0.00     0.016 A 
ATOM     40  C   UNL A   1      42.594  21.793  25.645  1.00  0.00     0.016 A 
ATOM     41  C   UNL A   1      42.909  22.614  28.315  1.00  0.00     0.010 A 
ATOM     42  C   UNL A   1      43.433  22.865  25.950  1.00  0.00     0.010 A 
ATOM     43  C   UNL A   1      43.542  23.311  27.278  1.00  0.00    -0.014 A 
BRANCH  43  44
ATOM     44  C   UNL A   1      44.000  24.689  27.555  1.00  0.00     0.031 A 
ATOM     45  C   UNL A   1      42.939  25.693  27.925  1.00  0.00     0.074 A 
ATOM     46  C   UNL A   1      45.298  25.028  27.537  1.00  0.00     0.049 A 
ATOM     47  N   UNL A   1      43.064  26.941  28.289  1.00  0.00    -0.248 NA
ATOM     48  C   UNL A   1      41.545  25.213  27.886  1.00  0.00     0.031 C 
ATOM     49  C   UNL A   1      46.410  24.128  27.237  1.00  0.00     0.029 A 
ATOM     50  N   UNL A   1      45.896  26.235  27.793  1.00  0.00    -0.354 N 
ATOM     51  C   UNL A   1      41.769  27.389  28.526  1.00  0.00     0.074 A 
ATOM     52  C   UNL A   1      40.872  26.298  28.228  1.00  0.00     0.031 C 
ATOM     53  C   UNL A   1      47.562  24.818  27.328  1.00  0.00     0.029 A 
ATOM     54  C   UNL A   1      47.263  26.207  27.673  1.00  0.00     0.049 A 
ATOM     55  H   UNL A   1      45.393  27.044  28.038  1.00  0.00     0.167 HD
ATOM     56  C   UNL A   1      41.360  28.602  28.962  1.00  0.00     0.031 A 
ATOM     57  C   UNL A   1      48.160  27.200  27.828  1.00  0.00     0.031 A 
ATOM     58  C   UNL A   1      42.254  29.697  29.216  1.00  0.00     0.049 A 
ATOM     59  C   UNL A   1      47.671  28.570  28.229  1.00  0.00     0.074 A 
ATOM     60  C   UNL A   1      41.953  30.972  29.657  1.00  0.00     0.029 A 
ATOM     61  N   UNL A   1      43.627  29.645  29.030  1.00  0.00    -0.354 N 
ATOM     62  N   UNL A   1      46.450  28.974  28.494  1.00  0.00    -0.248 NA
ATOM     63  C   UNL A   1      48.693  29.616  28.376  1.00  0.00     0.031 C 
ATOM     64  C   UNL A   1      43.139  31.713  29.671  1.00  0.00     0.029 A 
ATOM     65  C   UNL A   1      44.187  30.876  29.321  1.00  0.00     0.049 A 
ATOM     66  H   UNL A   1      44.128  28.850  28.735  1.00  0.00     0.167 HD
ATOM     67  C   UNL A   1      46.564  30.304  28.882  1.00  0.00     0.074 A 
ATOM     68  C   UNL A   1      47.974  30.633  28.828  1.00  0.00     0.031 C 
ATOM     69  C   UNL A   1      45.595  31.175  29.261  1.00  0.00     0.031 A 
BRANCH  56  70
ATOM     70  C   UNL A   1      39.880  28.809  29.131  1.00  0.00    -0.014 A 
ATOM     71  C   UNL A   1      39.075  29.261  28.071  1.00  0.00     0.009 A 
ATOM     72  C   UNL A   1      39.283  28.555  30.374  1.00  0.00     0.009 A 
ATOM     73  C   UNL A   1      37.711  29.491  28.267  1.00  0.00     0.001 A 
ATOM     74  C   UNL A   1      37.914  28.753  30.558  1.00  0.00     0.001 A 
ATOM     75  C   UNL A   1      37.131  29.231  29.508  1.00  0.00     0.000 A 
ENDBRANCH  56  70
BRANCH  57  76
ATOM     76  C   UNL A   1      49.610  26.946  27.612  1.00  0.00    -0.014 A 
ATOM     77  C   UNL A   1      50.181  27.068  26.335  1.00  0.00     0.009 A 
ATOM     78  C   UNL A   1      50.428  26.543  28.680  1.00  0.00     0.009 A 
ATOM     79  C   UNL A   1      51.526  26.756  26.125  1.00  0.00     0.001 A 
ATOM     80  C   UNL A   1      51.781  26.263  28.474  1.00  0.00     0.001 A 
ATOM     81  C   UNL A   1      52.326  26.357  27.195  1.00  0.00     0.000 A 
ENDBRANCH  57  76
BRANCH  69  82
ATOM     82  C   UNL A   1      46.033  32.544  29.707  1.00  0.00    -0.014 A 
ATOM     83  C   UNL A   1      46.170  33.611  28.806  1.00  0.00     0.009 A 
ATOM     84  C   UNL A   1      46.282  32.773  31.071  1.00  0.00     0.009 A 
ATOM     85  C   UNL A   1      46.597  34.863  29.253  1.00  0.00     0.001 A 
ATOM     86  C   UNL A   1      46.670  34.034  31.522  1.00  0.00     0.001 A 
ATOM     87  C   UNL A   1      46.842  35.075  30.610  1.00  0.00     0.000 A 
ENDBRANCH  69  82
ENDBRANCH  43  44
ENDBRANCH  36  38
ENDBRANCH  35  36
ENDBRANCH  34  35
ENDBRANCH  33  34
ENDBRANCH  32  33
ENDBRANCH  31  32
ENDBRANCH   1  31
TORSDOF 20
ENDMDL
