MODEL 1
REMARK VINA RESULT:     -11.2      0.000      0.000
REMARK SMILES Cc1nc2sc3c(c2c2nc(CCC(=O)OCCOCCOCCOC(=O)c4ccc(-c5c6nc(c(-c7ccccc7)c7ccc([nH]7)c(-c7ccccc7)c7nc(c(-c8ccccc8)c8ccc5[nH]8)C=C7)C=C6)cc4)nn12)[C@@H](C)CCC3
REMARK SMILES IDX 20 1 19 2 18 3 17 4 16 5 14 6 15 7 13 8 12 9 11 10 1 11 2 12
REMARK SMILES IDX 3 13 77 14 4 15 9 16 76 17 5 18 8 19 10 20 6 21 7 22 82 23
REMARK SMILES IDX 78 24 81 25 79 26 80 27 21 28 22 29 23 30 24 31 25 32 26 33
REMARK SMILES IDX 27 34 28 35 29 36 75 37 30 38 74 39 31 40 32 41 33 42 68 43
REMARK SMILES IDX 34 44 73 45 67 46 69 47 35 48 72 49 66 50 65 51 36 53 58 54
REMARK SMILES IDX 43 55 57 56 44 57 47 58 56 59 70 60 45 61 46 62 55 64 71 65
REMARK SMILES IDX 48 66 37 67 38 68 42 69 39 70 41 71 40 72 59 73 60 74 64 75
REMARK SMILES IDX 61 76 63 77 62 78 49 79 50 80 54 81 51 82 53 83 52 84
REMARK H PARENT 69 52 47 63
REMARK Flexibility Score: inf
ROOT
ATOM      1  C   UNL A   1      39.120  21.093  25.807  1.00  0.00     0.188 C 
ENDROOT
BRANCH   1   2
ATOM      2  O   UNL A   1      38.142  22.122  25.879  1.00  0.00    -0.376 OA
BRANCH   2   3
ATOM      3  C   UNL A   1      37.052  21.945  24.971  1.00  0.00     0.202 C 
BRANCH   3   4
ATOM      4  C   UNL A   1      35.617  21.999  25.559  1.00  0.00     0.261 C 
BRANCH   4   5
ATOM      5  O   UNL A   1      34.577  21.510  24.661  1.00  0.00    -0.463 OA
BRANCH   5   6
ATOM      6  C   UNL A   1      33.550  22.361  24.398  1.00  0.00     0.306 C 
ATOM      7  O   UNL A   1      32.494  22.003  23.884  1.00  0.00    -0.252 OA
BRANCH   6   8
ATOM      8  C   UNL A   1      33.792  23.818  24.770  1.00  0.00     0.131 C 
BRANCH   8   9
ATOM      9  C   UNL A   1      33.600  24.937  23.745  1.00  0.00     0.091 C 
BRANCH   9  10
ATOM     10  C   UNL A   1      33.218  26.267  24.298  1.00  0.00     0.152 A 
ATOM     11  C   UNL A   1      34.749  28.918  27.101  1.00  0.00     0.090 C 
ATOM     12  C   UNL A   1      33.553  29.127  26.226  1.00  0.00     0.131 A 
ATOM     13  N   UNL A   1      32.821  30.212  26.282  1.00  0.00    -0.222 NA
ATOM     14  N   UNL A   1      33.267  28.065  25.358  1.00  0.00    -0.199 N 
ATOM     15  C   UNL A   1      31.736  30.250  25.439  1.00  0.00     0.129 A 
ATOM     16  C   UNL A   1      32.212  28.100  24.490  1.00  0.00     0.168 A 
ATOM     17  N   UNL A   1      33.921  26.883  25.268  1.00  0.00    -0.150 NA
ATOM     18  S   UNL A   1      30.641  31.566  25.437  1.00  0.00    -0.120 S 
ATOM     19  C   UNL A   1      31.334  29.291  24.521  1.00  0.00     0.060 A 
ATOM     20  N   UNL A   1      32.172  26.993  23.791  1.00  0.00    -0.211 NA
ATOM     21  C   UNL A   1      29.659  30.839  24.245  1.00  0.00     0.011 A 
ATOM     22  C   UNL A   1      30.131  29.607  23.826  1.00  0.00    -0.018 A 
ATOM     23  C   UNL A   1      28.388  31.477  23.768  1.00  0.00     0.047 C 
ATOM     24  C   UNL A   1      29.395  28.796  22.791  1.00  0.00     0.018 C 
ATOM     25  C   UNL A   1      27.967  30.881  22.418  1.00  0.00     0.006 C 
ATOM     26  C   UNL A   1      29.231  27.344  23.207  1.00  0.00     0.013 C 
ATOM     27  C   UNL A   1      27.993  29.356  22.469  1.00  0.00     0.008 C 
ENDBRANCH   9  10
ENDBRANCH   8   9
ENDBRANCH   6   8
ENDBRANCH   5   6
ENDBRANCH   4   5
ENDBRANCH   3   4
ENDBRANCH   2   3
ENDBRANCH   1   2
BRANCH   1  28
ATOM     28  C   UNL A   1      40.265  21.275  26.774  1.00  0.00     0.188 C 
BRANCH  28  29
ATOM     29  O   UNL A   1      40.710  20.019  27.323  1.00  0.00    -0.376 OA
BRANCH  29  30
ATOM     30  C   UNL A   1      42.118  19.772  27.307  1.00  0.00     0.202 C 
BRANCH  30  31
ATOM     31  C   UNL A   1      42.641  19.026  26.081  1.00  0.00     0.261 C 
BRANCH  31  32
ATOM     32  O   UNL A   1      42.938  19.938  25.050  1.00  0.00    -0.460 OA
BRANCH  32  33
ATOM     33  C   UNL A   1      44.252  19.921  24.707  1.00  0.00     0.338 C 
ATOM     34  O   UNL A   1      44.941  18.973  24.413  1.00  0.00    -0.246 OA
BRANCH  33  35
ATOM     35  C   UNL A   1      44.727  21.306  24.766  1.00  0.00     0.060 A 
ATOM     36  C   UNL A   1      45.762  21.569  25.660  1.00  0.00     0.016 A 
ATOM     37  C   UNL A   1      43.963  22.311  24.161  1.00  0.00     0.016 A 
ATOM     38  C   UNL A   1      45.770  22.806  26.243  1.00  0.00     0.010 A 
ATOM     39  C   UNL A   1      43.951  23.533  24.758  1.00  0.00     0.010 A 
ATOM     40  C   UNL A   1      44.756  23.695  25.878  1.00  0.00    -0.014 A 
BRANCH  40  41
ATOM     41  C   UNL A   1      44.543  24.853  26.696  1.00  0.00     0.031 A 
ATOM     42  C   UNL A   1      45.632  25.820  26.526  1.00  0.00     0.074 A 
ATOM     43  C   UNL A   1      43.435  24.987  27.445  1.00  0.00     0.049 A 
ATOM     44  N   UNL A   1      46.640  25.979  27.313  1.00  0.00    -0.248 NA
ATOM     45  C   UNL A   1      45.771  26.466  25.211  1.00  0.00     0.031 C 
ATOM     46  C   UNL A   1      42.213  24.175  27.451  1.00  0.00     0.029 A 
ATOM     47  N   UNL A   1      43.142  25.972  28.325  1.00  0.00    -0.354 N 
ATOM     48  C   UNL A   1      47.409  26.955  26.700  1.00  0.00     0.074 A 
ATOM     49  C   UNL A   1      46.993  26.985  25.323  1.00  0.00     0.031 C 
ATOM     50  C   UNL A   1      41.237  24.844  28.112  1.00  0.00     0.029 A 
ATOM     51  C   UNL A   1      41.805  26.050  28.691  1.00  0.00     0.049 A 
ATOM     52  H   UNL A   1      43.824  26.587  28.678  1.00  0.00     0.167 HD
ATOM     53  C   UNL A   1      48.020  27.906  27.454  1.00  0.00     0.031 A 
ATOM     54  C   UNL A   1      41.235  27.080  29.367  1.00  0.00     0.031 A 
ATOM     55  C   UNL A   1      48.118  27.488  28.836  1.00  0.00     0.049 A 
ATOM     56  C   UNL A   1      42.337  27.819  30.033  1.00  0.00     0.074 A 
ATOM     57  C   UNL A   1      48.697  26.416  29.485  1.00  0.00     0.029 A 
ATOM     58  N   UNL A   1      47.177  27.997  29.702  1.00  0.00    -0.354 N 
ATOM     59  N   UNL A   1      43.047  27.318  31.003  1.00  0.00    -0.248 NA
ATOM     60  C   UNL A   1      42.960  28.914  29.303  1.00  0.00     0.031 C 
ATOM     61  C   UNL A   1      47.786  26.069  30.525  1.00  0.00     0.029 A 
ATOM     62  C   UNL A   1      46.735  26.989  30.517  1.00  0.00     0.049 A 
ATOM     63  H   UNL A   1      46.872  28.933  29.731  1.00  0.00     0.167 HD
ATOM     64  C   UNL A   1      44.350  27.712  30.726  1.00  0.00     0.074 A 
ATOM     65  C   UNL A   1      44.220  28.773  29.726  1.00  0.00     0.031 C 
ATOM     66  C   UNL A   1      45.410  26.936  31.101  1.00  0.00     0.031 A 
BRANCH  53  67
ATOM     67  C   UNL A   1      48.034  29.363  27.046  1.00  0.00    -0.014 A 
ATOM     68  C   UNL A   1      49.185  30.115  27.324  1.00  0.00     0.009 A 
ATOM     69  C   UNL A   1      46.889  30.090  26.657  1.00  0.00     0.009 A 
ATOM     70  C   UNL A   1      49.160  31.514  27.311  1.00  0.00     0.001 A 
ATOM     71  C   UNL A   1      46.869  31.485  26.606  1.00  0.00     0.001 A 
ATOM     72  C   UNL A   1      47.999  32.198  26.963  1.00  0.00     0.000 A 
ENDBRANCH  53  67
BRANCH  54  73
ATOM     73  C   UNL A   1      39.888  27.677  29.207  1.00  0.00    -0.014 A 
ATOM     74  C   UNL A   1      39.040  27.817  30.321  1.00  0.00     0.009 A 
ATOM     75  C   UNL A   1      39.550  28.385  28.040  1.00  0.00     0.009 A 
ATOM     76  C   UNL A   1      37.935  28.679  30.287  1.00  0.00     0.001 A 
ATOM     77  C   UNL A   1      38.443  29.242  28.005  1.00  0.00     0.001 A 
ATOM     78  C   UNL A   1      37.646  29.403  29.135  1.00  0.00     0.000 A 
ENDBRANCH  54  73
BRANCH  66  79
ATOM     79  C   UNL A   1      45.144  25.769  32.025  1.00  0.00    -0.014 A 
ATOM     80  C   UNL A   1      45.170  25.872  33.428  1.00  0.00     0.009 A 
ATOM     81  C   UNL A   1      44.660  24.582  31.455  1.00  0.00     0.009 A 
ATOM     82  C   UNL A   1      44.725  24.815  34.231  1.00  0.00     0.001 A 
ATOM     83  C   UNL A   1      44.197  23.537  32.256  1.00  0.00     0.001 A 
ATOM     84  C   UNL A   1      44.227  23.653  33.643  1.00  0.00     0.000 A 
ENDBRANCH  66  79
ENDBRANCH  40  41
ENDBRANCH  33  35
ENDBRANCH  32  33
ENDBRANCH  31  32
ENDBRANCH  30  31
ENDBRANCH  29  30
ENDBRANCH  28  29
ENDBRANCH   1  28
TORSDOF 19
ENDMDL
MODEL 2
REMARK VINA RESULT:     -10.2      3.793      7.782
REMARK SMILES Cc1nc2sc3c(c2c2nc(CCC(=O)OCCOCCOCCOC(=O)c4ccc(-c5c6nc(c(-c7ccccc7)c7ccc([nH]7)c(-c7ccccc7)c7nc(c(-c8ccccc8)c8ccc5[nH]8)C=C7)C=C6)cc4)nn12)[C@@H](C)CCC3
REMARK SMILES IDX 20 1 19 2 18 3 17 4 16 5 14 6 15 7 13 8 12 9 11 10 1 11 2 12
REMARK SMILES IDX 3 13 77 14 4 15 9 16 76 17 5 18 8 19 10 20 6 21 7 22 82 23
REMARK SMILES IDX 78 24 81 25 79 26 80 27 21 28 22 29 23 30 24 31 25 32 26 33
REMARK SMILES IDX 27 34 28 35 29 36 75 37 30 38 74 39 31 40 32 41 33 42 68 43
REMARK SMILES IDX 34 44 73 45 67 46 69 47 35 48 72 49 66 50 65 51 36 53 58 54
REMARK SMILES IDX 43 55 57 56 44 57 47 58 56 59 70 60 45 61 46 62 55 64 71 65
REMARK SMILES IDX 48 66 37 67 38 68 42 69 39 70 41 71 40 72 59 73 60 74 64 75
REMARK SMILES IDX 61 76 63 77 62 78 49 79 50 80 54 81 51 82 53 83 52 84
REMARK H PARENT 69 52 47 63
REMARK Flexibility Score: inf
ROOT
ATOM      1  C   UNL A   1      36.173  20.902  25.198  1.00  0.00     0.188 C 
ENDROOT
BRANCH   1   2
ATOM      2  O   UNL A   1      34.833  20.664  25.610  1.00  0.00    -0.376 OA
BRANCH   2   3
ATOM      3  C   UNL A   1      33.958  20.295  24.541  1.00  0.00     0.202 C 
BRANCH   3   4
ATOM      4  C   UNL A   1      32.942  21.360  24.051  1.00  0.00     0.261 C 
BRANCH   4   5
ATOM      5  O   UNL A   1      31.922  21.717  25.030  1.00  0.00    -0.463 OA
BRANCH   5   6
ATOM      6  C   UNL A   1      31.767  23.041  25.292  1.00  0.00     0.306 C 
ATOM      7  O   UNL A   1      30.670  23.588  25.375  1.00  0.00    -0.252 OA
BRANCH   6   8
ATOM      8  C   UNL A   1      33.056  23.832  25.467  1.00  0.00     0.131 C 
BRANCH   8   9
ATOM      9  C   UNL A   1      33.445  24.937  24.482  1.00  0.00     0.091 C 
BRANCH   9  10
ATOM     10  C   UNL A   1      33.073  26.324  24.881  1.00  0.00     0.152 A 
ATOM     11  C   UNL A   1      34.529  29.206  27.488  1.00  0.00     0.090 C 
ATOM     12  C   UNL A   1      33.386  29.353  26.534  1.00  0.00     0.131 A 
ATOM     13  N   UNL A   1      32.683  30.455  26.443  1.00  0.00    -0.222 NA
ATOM     14  N   UNL A   1      33.116  28.217  25.760  1.00  0.00    -0.199 N 
ATOM     15  C   UNL A   1      31.644  30.433  25.543  1.00  0.00     0.129 A 
ATOM     16  C   UNL A   1      32.109  28.189  24.838  1.00  0.00     0.168 A 
ATOM     17  N   UNL A   1      33.741  27.018  25.822  1.00  0.00    -0.150 NA
ATOM     18  S   UNL A   1      30.587  31.766  25.353  1.00  0.00    -0.120 S 
ATOM     19  C   UNL A   1      31.263  29.396  24.704  1.00  0.00     0.060 A 
ATOM     20  N   UNL A   1      32.074  27.019  24.250  1.00  0.00    -0.211 NA
ATOM     21  C   UNL A   1      29.648  30.946  24.187  1.00  0.00     0.011 A 
ATOM     22  C   UNL A   1      30.107  29.668  23.917  1.00  0.00    -0.018 A 
ATOM     23  C   UNL A   1      28.422  31.561  23.581  1.00  0.00     0.047 C 
ATOM     24  C   UNL A   1      29.403  28.775  22.928  1.00  0.00     0.018 C 
ATOM     25  C   UNL A   1      28.054  30.843  22.276  1.00  0.00     0.006 C 
ATOM     26  C   UNL A   1      29.178  27.375  23.476  1.00  0.00     0.013 C 
ATOM     27  C   UNL A   1      28.036  29.330  22.477  1.00  0.00     0.008 C 
ENDBRANCH   9  10
ENDBRANCH   8   9
ENDBRANCH   6   8
ENDBRANCH   5   6
ENDBRANCH   4   5
ENDBRANCH   3   4
ENDBRANCH   2   3
ENDBRANCH   1   2
BRANCH   1  28
ATOM     28  C   UNL A   1      36.708  22.249  25.619  1.00  0.00     0.188 C 
BRANCH  28  29
ATOM     29  O   UNL A   1      38.148  22.283  25.610  1.00  0.00    -0.376 OA
BRANCH  29  30
ATOM     30  C   UNL A   1      38.766  23.466  26.124  1.00  0.00     0.202 C 
BRANCH  30  31
ATOM     31  C   UNL A   1      40.239  23.327  26.504  1.00  0.00     0.261 C 
BRANCH  31  32
ATOM     32  O   UNL A   1      40.637  24.418  27.301  1.00  0.00    -0.460 OA
BRANCH  32  33
ATOM     33  C   UNL A   1      40.762  25.565  26.583  1.00  0.00     0.338 C 
ATOM     34  O   UNL A   1      41.400  25.755  25.575  1.00  0.00    -0.246 OA
BRANCH  33  35
ATOM     35  C   UNL A   1      39.967  26.587  27.268  1.00  0.00     0.060 A 
ATOM     36  C   UNL A   1      40.169  27.904  26.864  1.00  0.00     0.016 A 
ATOM     37  C   UNL A   1      39.284  26.241  28.441  1.00  0.00     0.016 A 
ATOM     38  C   UNL A   1      40.034  28.868  27.824  1.00  0.00     0.010 A 
ATOM     39  C   UNL A   1      39.175  27.194  29.405  1.00  0.00     0.010 A 
ATOM     40  C   UNL A   1      39.691  28.450  29.112  1.00  0.00    -0.014 A 
BRANCH  40  41
ATOM     41  C   UNL A   1      39.862  29.375  30.193  1.00  0.00     0.031 A 
ATOM     42  C   UNL A   1      38.672  30.216  30.355  1.00  0.00     0.074 A 
ATOM     43  C   UNL A   1      40.972  29.368  30.952  1.00  0.00     0.049 A 
ATOM     44  N   UNL A   1      38.523  31.419  29.917  1.00  0.00    -0.248 NA
ATOM     45  C   UNL A   1      37.426  29.560  30.783  1.00  0.00     0.031 C 
ATOM     46  C   UNL A   1      42.064  28.389  30.991  1.00  0.00     0.029 A 
ATOM     47  N   UNL A   1      41.308  30.229  31.939  1.00  0.00    -0.354 N 
ATOM     48  C   UNL A   1      37.225  31.757  30.262  1.00  0.00     0.074 A 
ATOM     49  C   UNL A   1      36.540  30.517  30.506  1.00  0.00     0.031 C 
ATOM     50  C   UNL A   1      42.803  28.591  32.109  1.00  0.00     0.029 A 
ATOM     51  C   UNL A   1      42.323  29.789  32.777  1.00  0.00     0.049 A 
ATOM     52  H   UNL A   1      40.866  31.101  32.055  1.00  0.00     0.167 HD
ATOM     53  C   UNL A   1      36.949  33.014  30.700  1.00  0.00     0.031 A 
ATOM     54  C   UNL A   1      42.670  30.363  33.958  1.00  0.00     0.031 A 
ATOM     55  C   UNL A   1      37.998  33.937  30.323  1.00  0.00     0.049 A 
ATOM     56  C   UNL A   1      42.131  31.747  33.938  1.00  0.00     0.074 A 
ATOM     57  C   UNL A   1      38.551  34.336  29.122  1.00  0.00     0.029 A 
ATOM     58  N   UNL A   1      38.922  34.250  31.293  1.00  0.00    -0.354 N 
ATOM     59  N   UNL A   1      42.572  32.672  33.135  1.00  0.00    -0.248 NA
ATOM     60  C   UNL A   1      40.791  31.962  34.464  1.00  0.00     0.031 C 
ATOM     61  C   UNL A   1      39.947  34.473  29.379  1.00  0.00     0.029 A 
ATOM     62  C   UNL A   1      40.173  34.231  30.735  1.00  0.00     0.049 A 
ATOM     63  H   UNL A   1      38.717  34.455  32.234  1.00  0.00     0.167 HD
ATOM     64  C   UNL A   1      41.432  33.336  32.702  1.00  0.00     0.074 A 
ATOM     65  C   UNL A   1      40.378  32.921  33.630  1.00  0.00     0.031 C 
ATOM     66  C   UNL A   1      41.384  33.909  31.463  1.00  0.00     0.031 A 
BRANCH  53  67
ATOM     67  C   UNL A   1      36.033  33.267  31.877  1.00  0.00    -0.014 A 
ATOM     68  C   UNL A   1      34.930  34.113  31.684  1.00  0.00     0.009 A 
ATOM     69  C   UNL A   1      36.347  32.943  33.213  1.00  0.00     0.009 A 
ATOM     70  C   UNL A   1      34.248  34.677  32.768  1.00  0.00     0.001 A 
ATOM     71  C   UNL A   1      35.647  33.473  34.298  1.00  0.00     0.001 A 
ATOM     72  C   UNL A   1      34.614  34.366  34.074  1.00  0.00     0.000 A 
ENDBRANCH  53  67
BRANCH  54  73
ATOM     73  C   UNL A   1      43.113  29.723  35.219  1.00  0.00    -0.014 A 
ATOM     74  C   UNL A   1      42.674  28.428  35.547  1.00  0.00     0.009 A 
ATOM     75  C   UNL A   1      44.197  30.246  35.948  1.00  0.00     0.009 A 
ATOM     76  C   UNL A   1      43.332  27.664  36.521  1.00  0.00     0.001 A 
ATOM     77  C   UNL A   1      44.851  29.485  36.924  1.00  0.00     0.001 A 
ATOM     78  C   UNL A   1      44.431  28.186  37.197  1.00  0.00     0.000 A 
ENDBRANCH  54  73
BRANCH  66  79
ATOM     79  C   UNL A   1      42.671  34.009  30.676  1.00  0.00    -0.014 A 
ATOM     80  C   UNL A   1      43.098  33.026  29.765  1.00  0.00     0.009 A 
ATOM     81  C   UNL A   1      43.367  35.226  30.716  1.00  0.00     0.009 A 
ATOM     82  C   UNL A   1      44.191  33.259  28.922  1.00  0.00     0.001 A 
ATOM     83  C   UNL A   1      44.444  35.466  29.860  1.00  0.00     0.001 A 
ATOM     84  C   UNL A   1      44.856  34.485  28.962  1.00  0.00     0.000 A 
ENDBRANCH  66  79
ENDBRANCH  40  41
ENDBRANCH  33  35
ENDBRANCH  32  33
ENDBRANCH  31  32
ENDBRANCH  30  31
ENDBRANCH  29  30
ENDBRANCH  28  29
ENDBRANCH   1  28
TORSDOF 19
ENDMDL
MODEL 3
REMARK VINA RESULT:     -10.2      3.488      5.853
REMARK SMILES Cc1nc2sc3c(c2c2nc(CCC(=O)OCCOCCOCCOC(=O)c4ccc(-c5c6nc(c(-c7ccccc7)c7ccc([nH]7)c(-c7ccccc7)c7nc(c(-c8ccccc8)c8ccc5[nH]8)C=C7)C=C6)cc4)nn12)[C@@H](C)CCC3
REMARK SMILES IDX 20 1 19 2 18 3 17 4 16 5 14 6 15 7 13 8 12 9 11 10 1 11 2 12
REMARK SMILES IDX 3 13 77 14 4 15 9 16 76 17 5 18 8 19 10 20 6 21 7 22 82 23
REMARK SMILES IDX 78 24 81 25 79 26 80 27 21 28 22 29 23 30 24 31 25 32 26 33
REMARK SMILES IDX 27 34 28 35 29 36 75 37 30 38 74 39 31 40 32 41 33 42 68 43
REMARK SMILES IDX 34 44 73 45 67 46 69 47 35 48 72 49 66 50 65 51 36 53 58 54
REMARK SMILES IDX 43 55 57 56 44 57 47 58 56 59 70 60 45 61 46 62 55 64 71 65
REMARK SMILES IDX 48 66 37 67 38 68 42 69 39 70 41 71 40 72 59 73 60 74 64 75
REMARK SMILES IDX 61 76 63 77 62 78 49 79 50 80 54 81 51 82 53 83 52 84
REMARK H PARENT 69 52 47 63
REMARK Flexibility Score: inf
ROOT
ATOM      1  C   UNL A   1      34.206  21.074  24.479  1.00  0.00     0.188 C 
ENDROOT
BRANCH   1   2
ATOM      2  O   UNL A   1      33.321  21.475  25.517  1.00  0.00    -0.376 OA
BRANCH   2   3
ATOM      3  C   UNL A   1      33.547  22.807  25.984  1.00  0.00     0.202 C 
BRANCH   3   4
ATOM      4  C   UNL A   1      32.301  23.703  26.214  1.00  0.00     0.261 C 
BRANCH   4   5
ATOM      5  O   UNL A   1      32.554  25.134  26.085  1.00  0.00    -0.463 OA
BRANCH   5   6
ATOM      6  C   UNL A   1      31.565  25.967  26.502  1.00  0.00     0.306 C 
ATOM      7  O   UNL A   1      30.395  25.615  26.626  1.00  0.00    -0.252 OA
BRANCH   6   8
ATOM      8  C   UNL A   1      31.992  27.399  26.798  1.00  0.00     0.131 C 
BRANCH   8   9
ATOM      9  C   UNL A   1      33.442  27.846  26.602  1.00  0.00     0.091 C 
BRANCH   9  10
ATOM     10  C   UNL A   1      33.746  29.252  26.993  1.00  0.00     0.152 A 
ATOM     11  C   UNL A   1      31.744  32.887  26.976  1.00  0.00     0.090 C 
ATOM     12  C   UNL A   1      33.112  32.618  27.518  1.00  0.00     0.131 A 
ATOM     13  N   UNL A   1      33.858  33.558  28.044  1.00  0.00    -0.222 NA
ATOM     14  N   UNL A   1      33.539  31.289  27.403  1.00  0.00    -0.199 N 
ATOM     15  C   UNL A   1      35.105  33.167  28.473  1.00  0.00     0.129 A 
ATOM     16  C   UNL A   1      34.761  30.876  27.854  1.00  0.00     0.168 A 
ATOM     17  N   UNL A   1      32.872  30.263  26.824  1.00  0.00    -0.150 NA
ATOM     18  S   UNL A   1      36.227  34.285  29.120  1.00  0.00    -0.120 S 
ATOM     19  C   UNL A   1      35.660  31.896  28.438  1.00  0.00     0.060 A 
ATOM     20  N   UNL A   1      34.909  29.594  27.633  1.00  0.00    -0.211 NA
ATOM     21  C   UNL A   1      37.419  33.080  29.324  1.00  0.00     0.011 A 
ATOM     22  C   UNL A   1      37.000  31.825  28.917  1.00  0.00    -0.018 A 
ATOM     23  C   UNL A   1      38.789  33.399  29.842  1.00  0.00     0.047 C 
ATOM     24  C   UNL A   1      37.913  30.629  29.001  1.00  0.00     0.018 C 
ATOM     25  C   UNL A   1      39.475  32.127  30.357  1.00  0.00     0.006 C 
ATOM     26  C   UNL A   1      37.919  29.819  27.714  1.00  0.00     0.013 C 
ATOM     27  C   UNL A   1      39.373  31.004  29.328  1.00  0.00     0.008 C 
ENDBRANCH   9  10
ENDBRANCH   8   9
ENDBRANCH   6   8
ENDBRANCH   5   6
ENDBRANCH   4   5
ENDBRANCH   3   4
ENDBRANCH   2   3
ENDBRANCH   1   2
BRANCH   1  28
ATOM     28  C   UNL A   1      35.574  20.668  24.972  1.00  0.00     0.188 C 
BRANCH  28  29
ATOM     29  O   UNL A   1      36.621  21.435  24.347  1.00  0.00    -0.376 OA
BRANCH  29  30
ATOM     30  C   UNL A   1      37.854  21.544  25.063  1.00  0.00     0.202 C 
BRANCH  30  31
ATOM     31  C   UNL A   1      37.826  22.452  26.290  1.00  0.00     0.261 C 
BRANCH  31  32
ATOM     32  O   UNL A   1      38.798  23.464  26.166  1.00  0.00    -0.460 OA
BRANCH  32  33
ATOM     33  C   UNL A   1      39.762  23.375  27.119  1.00  0.00     0.338 C 
ATOM     34  O   UNL A   1      40.097  22.408  27.762  1.00  0.00    -0.246 OA
BRANCH  33  35
ATOM     35  C   UNL A   1      40.352  24.708  27.256  1.00  0.00     0.060 A 
ATOM     36  C   UNL A   1      41.658  24.763  27.737  1.00  0.00     0.016 A 
ATOM     37  C   UNL A   1      39.518  25.831  27.175  1.00  0.00     0.016 A 
ATOM     38  C   UNL A   1      41.988  25.851  28.496  1.00  0.00     0.010 A 
ATOM     39  C   UNL A   1      39.834  26.902  27.952  1.00  0.00     0.010 A 
ATOM     40  C   UNL A   1      40.997  26.813  28.704  1.00  0.00    -0.014 A 
BRANCH  40  41
ATOM     41  C   UNL A   1      41.199  27.779  29.744  1.00  0.00     0.031 A 
ATOM     42  C   UNL A   1      42.446  28.522  29.532  1.00  0.00     0.074 A 
ATOM     43  C   UNL A   1      40.289  27.963  30.716  1.00  0.00     0.049 A 
ATOM     44  N   UNL A   1      43.575  28.298  30.111  1.00  0.00    -0.248 NA
ATOM     45  C   UNL A   1      42.523  29.403  28.355  1.00  0.00     0.031 C 
ATOM     46  C   UNL A   1      38.927  27.431  30.825  1.00  0.00     0.029 A 
ATOM     47  N   UNL A   1      40.383  28.766  31.800  1.00  0.00    -0.354 N 
ATOM     48  C   UNL A   1      44.446  29.211  29.541  1.00  0.00     0.074 A 
ATOM     49  C   UNL A   1      43.836  29.629  28.307  1.00  0.00     0.031 C 
ATOM     50  C   UNL A   1      38.256  28.118  31.782  1.00  0.00     0.029 A 
ATOM     51  C   UNL A   1      39.179  29.027  32.441  1.00  0.00     0.049 A 
ATOM     52  H   UNL A   1      41.240  29.139  32.111  1.00  0.00     0.167 HD
ATOM     53  C   UNL A   1      45.379  29.829  30.313  1.00  0.00     0.031 A 
ATOM     54  C   UNL A   1      38.986  29.974  33.393  1.00  0.00     0.031 A 
ATOM     55  C   UNL A   1      45.593  29.104  31.547  1.00  0.00     0.049 A 
ATOM     56  C   UNL A   1      40.324  30.311  33.942  1.00  0.00     0.074 A 
ATOM     57  C   UNL A   1      45.996  27.820  31.858  1.00  0.00     0.029 A 
ATOM     58  N   UNL A   1      44.951  29.586  32.664  1.00  0.00    -0.354 N 
ATOM     59  N   UNL A   1      41.040  29.476  34.640  1.00  0.00    -0.248 NA
ATOM     60  C   UNL A   1      41.065  31.393  33.310  1.00  0.00     0.031 C 
ATOM     61  C   UNL A   1      45.206  27.441  32.983  1.00  0.00     0.029 A 
ATOM     62  C   UNL A   1      44.417  28.531  33.357  1.00  0.00     0.049 A 
ATOM     63  H   UNL A   1      44.886  30.533  32.924  1.00  0.00     0.167 HD
ATOM     64  C   UNL A   1      42.337  29.652  34.177  1.00  0.00     0.074 A 
ATOM     65  C   UNL A   1      42.306  30.913  33.434  1.00  0.00     0.031 C 
ATOM     66  C   UNL A   1      43.228  28.616  34.180  1.00  0.00     0.031 A 
BRANCH  53  67
ATOM     67  C   UNL A   1      45.673  31.307  30.181  1.00  0.00    -0.014 A 
ATOM     68  C   UNL A   1      46.983  31.744  30.432  1.00  0.00     0.009 A 
ATOM     69  C   UNL A   1      44.685  32.310  30.093  1.00  0.00     0.009 A 
ATOM     70  C   UNL A   1      47.265  33.092  30.679  1.00  0.00     0.001 A 
ATOM     71  C   UNL A   1      44.968  33.660  30.301  1.00  0.00     0.001 A 
ATOM     72  C   UNL A   1      46.255  34.048  30.624  1.00  0.00     0.000 A 
ENDBRANCH  53  67
BRANCH  54  73
ATOM     73  C   UNL A   1      37.812  30.849  33.624  1.00  0.00    -0.014 A 
ATOM     74  C   UNL A   1      37.741  31.647  34.780  1.00  0.00     0.009 A 
ATOM     75  C   UNL A   1      36.914  31.135  32.581  1.00  0.00     0.009 A 
ATOM     76  C   UNL A   1      36.851  32.727  34.862  1.00  0.00     0.001 A 
ATOM     77  C   UNL A   1      36.021  32.211  32.665  1.00  0.00     0.001 A 
ATOM     78  C   UNL A   1      36.003  33.018  33.798  1.00  0.00     0.000 A 
ENDBRANCH  54  73
BRANCH  66  79
ATOM     79  C   UNL A   1      42.842  27.351  34.913  1.00  0.00    -0.014 A 
ATOM     80  C   UNL A   1      42.023  26.352  34.354  1.00  0.00     0.009 A 
ATOM     81  C   UNL A   1      43.491  27.076  36.126  1.00  0.00     0.009 A 
ATOM     82  C   UNL A   1      41.860  25.119  34.997  1.00  0.00     0.001 A 
ATOM     83  C   UNL A   1      43.345  25.839  36.755  1.00  0.00     0.001 A 
ATOM     84  C   UNL A   1      42.531  24.859  36.190  1.00  0.00     0.000 A 
ENDBRANCH  66  79
ENDBRANCH  40  41
ENDBRANCH  33  35
ENDBRANCH  32  33
ENDBRANCH  31  32
ENDBRANCH  30  31
ENDBRANCH  29  30
ENDBRANCH  28  29
ENDBRANCH   1  28
TORSDOF 19
ENDMDL
