MODEL 1
REMARK VINA RESULT:     -11.4      0.000      0.000
REMARK SMILES O=C(OCCOCCOCCOC(=O)c1nccnc1C(=O)Nc1n[nH]c2ncccc12)c1ccc(-c2c3nc(c(-c4ccccc4)c4ccc([nH]4)c(-c4ccccc4)c4nc(c(-c5ccccc5)c5ccc2[nH]5)C=C4)C=C3)cc1
REMARK SMILES IDX 7 1 6 2 5 3 4 4 3 5 2 6 1 7 33 8 34 9 80 10 35 11 79 12
REMARK SMILES IDX 36 13 37 14 38 15 73 16 39 17 78 18 72 19 74 20 40 21 77 22
REMARK SMILES IDX 71 23 70 24 41 26 63 27 48 28 62 29 49 30 52 31 61 32 75 33
REMARK SMILES IDX 50 34 51 35 60 37 76 38 53 39 42 40 43 41 47 42 44 43 46 44
REMARK SMILES IDX 45 45 64 46 65 47 69 48 66 49 68 50 67 51 54 52 55 53 59 54
REMARK SMILES IDX 56 55 58 56 57 57 8 58 9 59 10 60 11 61 12 62 13 63 14 64
REMARK SMILES IDX 15 65 16 66 20 67 17 68 19 69 18 70 21 71 22 72 23 73 24 75
REMARK SMILES IDX 25 76 32 77 26 78 27 79 31 80 28 82 30 83 29 84
REMARK H PARENT 74 25 52 36 23 74 26 81
REMARK Flexibility Score: inf
ROOT
ATOM      1  C   UNL A   1      33.904  32.091  28.215  1.00  0.00     0.188 C 
ENDROOT
BRANCH   1   2
ATOM      2  O   UNL A   1      34.852  32.343  29.252  1.00  0.00    -0.376 OA
BRANCH   2   3
ATOM      3  C   UNL A   1      34.802  33.639  29.830  1.00  0.00     0.202 C 
BRANCH   3   4
ATOM      4  C   UNL A   1      34.530  33.711  31.340  1.00  0.00     0.261 C 
BRANCH   4   5
ATOM      5  O   UNL A   1      34.773  32.519  32.110  1.00  0.00    -0.460 OA
BRANCH   5   6
ATOM      6  C   UNL A   1      35.876  32.100  32.777  1.00  0.00     0.338 C 
ATOM      7  O   UNL A   1      36.030  32.474  33.939  1.00  0.00    -0.246 OA
BRANCH   6   8
ATOM      8  C   UNL A   1      36.981  31.301  32.157  1.00  0.00     0.060 A 
ATOM      9  C   UNL A   1      38.133  30.888  32.820  1.00  0.00     0.016 A 
ATOM     10  C   UNL A   1      36.859  30.973  30.788  1.00  0.00     0.016 A 
ATOM     11  C   UNL A   1      39.117  30.150  32.174  1.00  0.00     0.010 A 
ATOM     12  C   UNL A   1      37.877  30.289  30.107  1.00  0.00     0.010 A 
ATOM     13  C   UNL A   1      39.023  29.904  30.803  1.00  0.00    -0.014 A 
BRANCH  13  14
ATOM     14  C   UNL A   1      40.289  29.539  30.137  1.00  0.00     0.031 A 
ATOM     15  C   UNL A   1      40.327  28.205  29.445  1.00  0.00     0.074 A 
ATOM     16  C   UNL A   1      41.250  30.453  29.929  1.00  0.00     0.049 A 
ATOM     17  N   UNL A   1      41.205  27.735  28.602  1.00  0.00    -0.248 NA
ATOM     18  C   UNL A   1      39.181  27.308  29.688  1.00  0.00     0.031 C 
ATOM     19  C   UNL A   1      41.226  31.826  30.427  1.00  0.00     0.029 A 
ATOM     20  N   UNL A   1      42.405  30.381  29.196  1.00  0.00    -0.354 N 
ATOM     21  C   UNL A   1      40.698  26.512  28.183  1.00  0.00     0.074 A 
ATOM     22  C   UNL A   1      39.452  26.296  28.881  1.00  0.00     0.031 C 
ATOM     23  C   UNL A   1      42.311  32.474  29.969  1.00  0.00     0.029 A 
ATOM     24  C   UNL A   1      43.128  31.548  29.195  1.00  0.00     0.049 A 
ATOM     25  H   UNL A   1      42.689  29.570  28.718  1.00  0.00     0.167 HD
ATOM     26  C   UNL A   1      41.225  25.644  27.291  1.00  0.00     0.031 A 
ATOM     27  C   UNL A   1      44.327  31.821  28.646  1.00  0.00     0.031 A 
ATOM     28  C   UNL A   1      42.505  25.829  26.670  1.00  0.00     0.049 A 
ATOM     29  C   UNL A   1      44.992  30.752  27.821  1.00  0.00     0.074 A 
ATOM     30  C   UNL A   1      43.201  24.963  25.848  1.00  0.00     0.029 A 
ATOM     31  N   UNL A   1      43.293  26.960  26.829  1.00  0.00    -0.354 N 
ATOM     32  N   UNL A   1      44.528  29.577  27.468  1.00  0.00    -0.248 NA
ATOM     33  C   UNL A   1      46.335  31.050  27.311  1.00  0.00     0.031 C 
ATOM     34  C   UNL A   1      44.439  25.547  25.558  1.00  0.00     0.029 A 
ATOM     35  C   UNL A   1      44.481  26.805  26.140  1.00  0.00     0.049 A 
ATOM     36  H   UNL A   1      43.042  27.754  27.354  1.00  0.00     0.167 HD
ATOM     37  C   UNL A   1      45.512  29.006  26.672  1.00  0.00     0.074 A 
ATOM     38  C   UNL A   1      46.585  29.976  26.577  1.00  0.00     0.031 C 
ATOM     39  C   UNL A   1      45.531  27.790  26.072  1.00  0.00     0.031 A 
BRANCH  26  40
ATOM     40  C   UNL A   1      40.443  24.393  27.021  1.00  0.00    -0.014 A 
ATOM     41  C   UNL A   1      40.930  23.130  27.398  1.00  0.00     0.009 A 
ATOM     42  C   UNL A   1      39.215  24.474  26.348  1.00  0.00     0.009 A 
ATOM     43  C   UNL A   1      40.216  21.972  27.078  1.00  0.00     0.001 A 
ATOM     44  C   UNL A   1      38.492  23.318  26.052  1.00  0.00     0.001 A 
ATOM     45  C   UNL A   1      38.996  22.068  26.408  1.00  0.00     0.000 A 
ENDBRANCH  26  40
BRANCH  27  46
ATOM     46  C   UNL A   1      45.012  33.115  28.919  1.00  0.00    -0.014 A 
ATOM     47  C   UNL A   1      45.812  33.303  30.055  1.00  0.00     0.009 A 
ATOM     48  C   UNL A   1      44.802  34.206  28.057  1.00  0.00     0.009 A 
ATOM     49  C   UNL A   1      46.355  34.562  30.339  1.00  0.00     0.001 A 
ATOM     50  C   UNL A   1      45.375  35.451  28.321  1.00  0.00     0.001 A 
ATOM     51  C   UNL A   1      46.139  35.631  29.471  1.00  0.00     0.000 A 
ENDBRANCH  27  46
BRANCH  39  52
ATOM     52  C   UNL A   1      46.734  27.464  25.235  1.00  0.00    -0.014 A 
ATOM     53  C   UNL A   1      46.816  27.850  23.887  1.00  0.00     0.009 A 
ATOM     54  C   UNL A   1      47.819  26.790  25.818  1.00  0.00     0.009 A 
ATOM     55  C   UNL A   1      47.944  27.529  23.132  1.00  0.00     0.001 A 
ATOM     56  C   UNL A   1      48.960  26.505  25.070  1.00  0.00     0.001 A 
ATOM     57  C   UNL A   1      49.017  26.863  23.725  1.00  0.00     0.000 A 
ENDBRANCH  39  52
ENDBRANCH  13  14
ENDBRANCH   6   8
ENDBRANCH   5   6
ENDBRANCH   4   5
ENDBRANCH   3   4
ENDBRANCH   2   3
ENDBRANCH   1   2
BRANCH   1  58
ATOM     58  C   UNL A   1      34.177  30.826  27.411  1.00  0.00     0.188 C 
BRANCH  58  59
ATOM     59  O   UNL A   1      33.307  29.729  27.640  1.00  0.00    -0.376 OA
BRANCH  59  60
ATOM     60  C   UNL A   1      31.943  29.786  27.249  1.00  0.00     0.202 C 
BRANCH  60  61
ATOM     61  C   UNL A   1      31.472  30.279  25.715  1.00  0.00     0.261 C 
BRANCH  61  62
ATOM     62  O   UNL A   1      30.979  29.199  24.058  1.00  0.00    -0.458 OA
BRANCH  62  63
ATOM     63  C   UNL A   1      30.951  28.280  22.970  1.00  0.00     0.359 C 
ATOM     64  O   UNL A   1      30.138  28.456  22.058  1.00  0.00    -0.244 OA
BRANCH  63  65
ATOM     65  C   UNL A   1      31.816  27.031  22.862  1.00  0.00     0.179 A 
ATOM     66  N   UNL A   1      31.760  26.601  21.547  1.00  0.00    -0.245 NA
ATOM     67  C   UNL A   1      32.601  26.332  23.802  1.00  0.00     0.161 A 
ATOM     68  C   UNL A   1      32.474  25.515  21.195  1.00  0.00     0.132 A 
ATOM     69  N   UNL A   1      33.244  25.174  23.400  1.00  0.00    -0.247 NA
ATOM     70  C   UNL A   1      33.183  24.794  22.113  1.00  0.00     0.132 A 
BRANCH  67  71
ATOM     71  C   UNL A   1      32.994  26.558  25.272  1.00  0.00     0.278 C 
ATOM     72  O   UNL A   1      33.954  27.295  25.532  1.00  0.00    -0.267 OA
ATOM     73  N   UNL A   1      32.276  26.119  26.346  1.00  0.00    -0.303 N 
ATOM     74  H   UNL A   1      32.118  26.762  27.075  1.00  0.00     0.172 HD
BRANCH  73  75
ATOM     75  C   UNL A   1      31.764  24.876  26.497  1.00  0.00     0.164 A 
ATOM     76  N   UNL A   1      30.443  24.671  26.423  1.00  0.00    -0.155 NA
ATOM     77  C   UNL A   1      32.556  23.724  26.607  1.00  0.00     0.063 A 
ATOM     78  N   UNL A   1      30.228  23.356  26.106  1.00  0.00    -0.259 N 
ATOM     79  C   UNL A   1      31.351  22.586  26.036  1.00  0.00     0.157 A 
ATOM     80  C   UNL A   1      34.313  23.269  26.484  1.00  0.00     0.017 A 
ATOM     81  H   UNL A   1      29.328  22.993  25.942  1.00  0.00     0.192 HD
ATOM     82  N   UNL A   1      31.719  21.075  25.323  1.00  0.00    -0.237 NA
ATOM     83  C   UNL A   1      34.747  21.731  25.667  1.00  0.00     0.021 A 
ATOM     84  C   UNL A   1      33.434  20.714  25.105  1.00  0.00     0.113 A 
ENDBRANCH  73  75
ENDBRANCH  67  71
ENDBRANCH  63  65
ENDBRANCH  62  63
ENDBRANCH  61  62
ENDBRANCH  60  61
ENDBRANCH  59  60
ENDBRANCH  58  59
ENDBRANCH   1  58
TORSDOF 19
ENDMDL
MODEL 2
REMARK VINA RESULT:     -10.8      4.022      7.855
REMARK SMILES O=C(OCCOCCOCCOC(=O)c1nccnc1C(=O)Nc1n[nH]c2ncccc12)c1ccc(-c2c3nc(c(-c4ccccc4)c4ccc([nH]4)c(-c4ccccc4)c4nc(c(-c5ccccc5)c5ccc2[nH]5)C=C4)C=C3)cc1
REMARK SMILES IDX 7 1 6 2 5 3 4 4 3 5 2 6 1 7 33 8 34 9 80 10 35 11 79 12
REMARK SMILES IDX 36 13 37 14 38 15 73 16 39 17 78 18 72 19 74 20 40 21 77 22
REMARK SMILES IDX 71 23 70 24 41 26 63 27 48 28 62 29 49 30 52 31 61 32 75 33
REMARK SMILES IDX 50 34 51 35 60 37 76 38 53 39 42 40 43 41 47 42 44 43 46 44
REMARK SMILES IDX 45 45 64 46 65 47 69 48 66 49 68 50 67 51 54 52 55 53 59 54
REMARK SMILES IDX 56 55 58 56 57 57 8 58 9 59 10 60 11 61 12 62 13 63 14 64
REMARK SMILES IDX 15 65 16 66 20 67 17 68 19 69 18 70 21 71 22 72 23 73 24 75
REMARK SMILES IDX 25 76 32 77 26 78 27 79 31 80 28 82 30 83 29 84
REMARK H PARENT 74 25 52 36 23 74 26 81
REMARK Flexibility Score: inf
ROOT
ATOM      1  C   UNL A   1      33.740  32.349  27.813  1.00  0.00     0.188 C 
ENDROOT
BRANCH   1   2
ATOM      2  O   UNL A   1      34.045  32.934  29.078  1.00  0.00    -0.376 OA
BRANCH   2   3
ATOM      3  C   UNL A   1      34.362  34.319  29.057  1.00  0.00     0.202 C 
BRANCH   3   4
ATOM      4  C   UNL A   1      33.207  35.294  29.329  1.00  0.00     0.261 C 
BRANCH   4   5
ATOM      5  O   UNL A   1      32.496  35.143  30.572  1.00  0.00    -0.460 OA
BRANCH   5   6
ATOM      6  C   UNL A   1      32.906  35.296  31.856  1.00  0.00     0.338 C 
ATOM      7  O   UNL A   1      32.232  36.009  32.598  1.00  0.00    -0.246 OA
BRANCH   6   8
ATOM      8  C   UNL A   1      34.188  34.747  32.400  1.00  0.00     0.060 A 
ATOM      9  C   UNL A   1      35.403  35.427  32.414  1.00  0.00     0.016 A 
ATOM     10  C   UNL A   1      34.170  33.428  32.905  1.00  0.00     0.016 A 
ATOM     11  C   UNL A   1      36.552  34.848  32.936  1.00  0.00     0.010 A 
ATOM     12  C   UNL A   1      35.338  32.806  33.370  1.00  0.00     0.010 A 
ATOM     13  C   UNL A   1      36.539  33.516  33.355  1.00  0.00    -0.014 A 
BRANCH  13  14
ATOM     14  C   UNL A   1      37.862  32.868  33.447  1.00  0.00     0.031 A 
ATOM     15  C   UNL A   1      38.643  33.103  34.710  1.00  0.00     0.074 A 
ATOM     16  C   UNL A   1      38.226  31.912  32.577  1.00  0.00     0.049 A 
ATOM     17  N   UNL A   1      39.705  32.487  35.153  1.00  0.00    -0.248 NA
ATOM     18  C   UNL A   1      38.109  34.127  35.628  1.00  0.00     0.031 C 
ATOM     19  C   UNL A   1      37.454  31.502  31.407  1.00  0.00     0.029 A 
ATOM     20  N   UNL A   1      39.309  31.073  32.577  1.00  0.00    -0.354 N 
ATOM     21  C   UNL A   1      39.940  33.017  36.415  1.00  0.00     0.074 A 
ATOM     22  C   UNL A   1      38.931  34.022  36.659  1.00  0.00     0.031 C 
ATOM     23  C   UNL A   1      38.082  30.474  30.810  1.00  0.00     0.029 A 
ATOM     24  C   UNL A   1      39.322  30.193  31.523  1.00  0.00     0.049 A 
ATOM     25  H   UNL A   1      40.011  31.099  33.266  1.00  0.00     0.167 HD
ATOM     26  C   UNL A   1      40.913  32.692  37.296  1.00  0.00     0.031 A 
ATOM     27  C   UNL A   1      40.247  29.282  31.168  1.00  0.00     0.031 A 
ATOM     28  C   UNL A   1      41.960  31.756  37.006  1.00  0.00     0.049 A 
ATOM     29  C   UNL A   1      41.436  29.088  32.071  1.00  0.00     0.074 A 
ATOM     30  C   UNL A   1      43.069  31.436  37.766  1.00  0.00     0.029 A 
ATOM     31  N   UNL A   1      42.033  31.002  35.844  1.00  0.00    -0.354 N 
ATOM     32  N   UNL A   1      41.678  29.629  33.242  1.00  0.00    -0.248 NA
ATOM     33  C   UNL A   1      42.469  28.152  31.612  1.00  0.00     0.031 C 
ATOM     34  C   UNL A   1      43.846  30.532  37.033  1.00  0.00     0.029 A 
ATOM     35  C   UNL A   1      43.183  30.235  35.852  1.00  0.00     0.049 A 
ATOM     36  H   UNL A   1      41.365  31.012  35.121  1.00  0.00     0.167 HD
ATOM     37  C   UNL A   1      42.879  29.078  33.671  1.00  0.00     0.074 A 
ATOM     38  C   UNL A   1      43.299  28.145  32.645  1.00  0.00     0.031 C 
ATOM     39  C   UNL A   1      43.574  29.320  34.810  1.00  0.00     0.031 A 
BRANCH  26  40
ATOM     40  C   UNL A   1      40.916  33.429  38.603  1.00  0.00    -0.014 A 
ATOM     41  C   UNL A   1      41.627  34.630  38.763  1.00  0.00     0.009 A 
ATOM     42  C   UNL A   1      40.224  32.897  39.701  1.00  0.00     0.009 A 
ATOM     43  C   UNL A   1      41.670  35.265  40.007  1.00  0.00     0.001 A 
ATOM     44  C   UNL A   1      40.248  33.547  40.935  1.00  0.00     0.001 A 
ATOM     45  C   UNL A   1      40.978  34.724  41.090  1.00  0.00     0.000 A 
ENDBRANCH  26  40
BRANCH  27  46
ATOM     46  C   UNL A   1      40.140  28.549  29.876  1.00  0.00    -0.014 A 
ATOM     47  C   UNL A   1      39.440  27.340  29.768  1.00  0.00     0.009 A 
ATOM     48  C   UNL A   1      40.813  29.040  28.744  1.00  0.00     0.009 A 
ATOM     49  C   UNL A   1      39.447  26.621  28.567  1.00  0.00     0.001 A 
ATOM     50  C   UNL A   1      40.788  28.341  27.535  1.00  0.00     0.001 A 
ATOM     51  C   UNL A   1      40.117  27.124  27.453  1.00  0.00     0.000 A 
ENDBRANCH  27  46
BRANCH  39  52
ATOM     52  C   UNL A   1      44.838  28.535  35.014  1.00  0.00    -0.014 A 
ATOM     53  C   UNL A   1      44.828  27.282  35.646  1.00  0.00     0.009 A 
ATOM     54  C   UNL A   1      46.053  29.047  34.532  1.00  0.00     0.009 A 
ATOM     55  C   UNL A   1      46.018  26.577  35.826  1.00  0.00     0.001 A 
ATOM     56  C   UNL A   1      47.235  28.322  34.682  1.00  0.00     0.001 A 
ATOM     57  C   UNL A   1      47.218  27.094  35.339  1.00  0.00     0.000 A 
ENDBRANCH  39  52
ENDBRANCH  13  14
ENDBRANCH   6   8
ENDBRANCH   5   6
ENDBRANCH   4   5
ENDBRANCH   3   4
ENDBRANCH   2   3
ENDBRANCH   1   2
BRANCH   1  58
ATOM     58  C   UNL A   1      34.490  31.055  27.524  1.00  0.00     0.188 C 
BRANCH  58  59
ATOM     59  O   UNL A   1      33.743  29.853  27.630  1.00  0.00    -0.376 OA
BRANCH  59  60
ATOM     60  C   UNL A   1      32.396  29.790  27.187  1.00  0.00     0.202 C 
BRANCH  60  61
ATOM     61  C   UNL A   1      31.944  30.230  25.632  1.00  0.00     0.261 C 
BRANCH  61  62
ATOM     62  O   UNL A   1      31.310  29.103  24.056  1.00  0.00    -0.458 OA
BRANCH  62  63
ATOM     63  C   UNL A   1      31.183  28.145  23.010  1.00  0.00     0.359 C 
ATOM     64  O   UNL A   1      30.354  28.341  22.115  1.00  0.00    -0.244 OA
BRANCH  63  65
ATOM     65  C   UNL A   1      31.957  26.836  22.928  1.00  0.00     0.179 A 
ATOM     66  N   UNL A   1      31.925  26.417  21.609  1.00  0.00    -0.245 NA
ATOM     67  C   UNL A   1      32.648  26.076  23.895  1.00  0.00     0.161 A 
ATOM     68  C   UNL A   1      32.571  25.282  21.279  1.00  0.00     0.132 A 
ATOM     69  N   UNL A   1      33.219  24.876  23.512  1.00  0.00    -0.247 NA
ATOM     70  C   UNL A   1      33.185  24.506  22.221  1.00  0.00     0.132 A 
BRANCH  67  71
ATOM     71  C   UNL A   1      32.994  26.267  25.381  1.00  0.00     0.278 C 
ATOM     72  O   UNL A   1      33.943  26.998  25.690  1.00  0.00    -0.267 OA
ATOM     73  N   UNL A   1      32.244  25.799  26.422  1.00  0.00    -0.303 N 
ATOM     74  H   UNL A   1      32.062  26.424  27.161  1.00  0.00     0.172 HD
BRANCH  73  75
ATOM     75  C   UNL A   1      31.731  24.551  26.525  1.00  0.00     0.164 A 
ATOM     76  N   UNL A   1      30.418  24.342  26.371  1.00  0.00    -0.155 NA
ATOM     77  C   UNL A   1      32.522  23.402  26.665  1.00  0.00     0.063 A 
ATOM     78  N   UNL A   1      30.229  23.030  26.025  1.00  0.00    -0.259 N 
ATOM     79  C   UNL A   1      31.358  22.267  26.011  1.00  0.00     0.157 A 
ATOM     80  C   UNL A   1      34.286  22.957  26.640  1.00  0.00     0.017 A 
ATOM     81  H   UNL A   1      29.342  22.665  25.804  1.00  0.00     0.192 HD
ATOM     82  N   UNL A   1      31.776  20.767  25.299  1.00  0.00    -0.237 NA
ATOM     83  C   UNL A   1      34.775  21.433  25.829  1.00  0.00     0.021 A 
ATOM     84  C   UNL A   1      33.503  20.418  25.177  1.00  0.00     0.113 A 
ENDBRANCH  73  75
ENDBRANCH  67  71
ENDBRANCH  63  65
ENDBRANCH  62  63
ENDBRANCH  61  62
ENDBRANCH  60  61
ENDBRANCH  59  60
ENDBRANCH  58  59
ENDBRANCH   1  58
TORSDOF 19
ENDMDL
MODEL 3
REMARK VINA RESULT:     -10.7      1.495      6.062
REMARK SMILES O=C(OCCOCCOCCOC(=O)c1nccnc1C(=O)Nc1n[nH]c2ncccc12)c1ccc(-c2c3nc(c(-c4ccccc4)c4ccc([nH]4)c(-c4ccccc4)c4nc(c(-c5ccccc5)c5ccc2[nH]5)C=C4)C=C3)cc1
REMARK SMILES IDX 7 1 6 2 5 3 4 4 3 5 2 6 1 7 33 8 34 9 80 10 35 11 79 12
REMARK SMILES IDX 36 13 37 14 38 15 73 16 39 17 78 18 72 19 74 20 40 21 77 22
REMARK SMILES IDX 71 23 70 24 41 26 63 27 48 28 62 29 49 30 52 31 61 32 75 33
REMARK SMILES IDX 50 34 51 35 60 37 76 38 53 39 42 40 43 41 47 42 44 43 46 44
REMARK SMILES IDX 45 45 64 46 65 47 69 48 66 49 68 50 67 51 54 52 55 53 59 54
REMARK SMILES IDX 56 55 58 56 57 57 8 58 9 59 10 60 11 61 12 62 13 63 14 64
REMARK SMILES IDX 15 65 16 66 20 67 17 68 19 69 18 70 21 71 22 72 23 73 24 75
REMARK SMILES IDX 25 76 32 77 26 78 27 79 31 80 28 82 30 83 29 84
REMARK H PARENT 74 25 52 36 23 74 26 81
REMARK Flexibility Score: inf
ROOT
ATOM      1  C   UNL A   1      34.596  32.993  29.935  1.00  0.00     0.188 C 
ENDROOT
BRANCH   1   2
ATOM      2  O   UNL A   1      35.006  34.105  30.730  1.00  0.00    -0.376 OA
BRANCH   2   3
ATOM      3  C   UNL A   1      34.210  34.370  31.876  1.00  0.00     0.202 C 
BRANCH   3   4
ATOM      4  C   UNL A   1      34.764  33.888  33.226  1.00  0.00     0.261 C 
BRANCH   4   5
ATOM      5  O   UNL A   1      35.292  32.551  33.282  1.00  0.00    -0.460 OA
BRANCH   5   6
ATOM      6  C   UNL A   1      36.525  32.093  33.615  1.00  0.00     0.338 C 
ATOM      7  O   UNL A   1      36.993  32.428  34.702  1.00  0.00    -0.246 OA
BRANCH   6   8
ATOM      8  C   UNL A   1      37.403  31.300  32.697  1.00  0.00     0.060 A 
ATOM      9  C   UNL A   1      38.594  30.683  33.073  1.00  0.00     0.016 A 
ATOM     10  C   UNL A   1      37.012  31.201  31.344  1.00  0.00     0.016 A 
ATOM     11  C   UNL A   1      39.357  29.964  32.161  1.00  0.00     0.010 A 
ATOM     12  C   UNL A   1      37.809  30.538  30.399  1.00  0.00     0.010 A 
ATOM     13  C   UNL A   1      39.003  29.944  30.812  1.00  0.00    -0.014 A 
BRANCH  13  14
ATOM     14  C   UNL A   1      40.083  29.569  29.878  1.00  0.00     0.031 A 
ATOM     15  C   UNL A   1      41.195  30.564  29.698  1.00  0.00     0.074 A 
ATOM     16  C   UNL A   1      40.203  28.309  29.430  1.00  0.00     0.049 A 
ATOM     17  N   UNL A   1      42.362  30.408  29.134  1.00  0.00    -0.248 NA
ATOM     18  C   UNL A   1      40.986  31.896  30.297  1.00  0.00     0.031 C 
ATOM     19  C   UNL A   1      39.253  27.230  29.688  1.00  0.00     0.029 A 
ATOM     20  N   UNL A   1      41.205  27.711  28.711  1.00  0.00    -0.354 N 
ATOM     21  C   UNL A   1      43.038  31.602  29.347  1.00  0.00     0.074 A 
ATOM     22  C   UNL A   1      42.148  32.483  30.066  1.00  0.00     0.031 C 
ATOM     23  C   UNL A   1      39.728  26.094  29.149  1.00  0.00     0.029 A 
ATOM     24  C   UNL A   1      40.983  26.378  28.464  1.00  0.00     0.049 A 
ATOM     25  H   UNL A   1      42.006  28.190  28.401  1.00  0.00     0.167 HD
ATOM     26  C   UNL A   1      44.295  31.934  28.977  1.00  0.00     0.031 A 
ATOM     27  C   UNL A   1      41.706  25.500  27.745  1.00  0.00     0.031 A 
ATOM     28  C   UNL A   1      45.138  31.082  28.188  1.00  0.00     0.049 A 
ATOM     29  C   UNL A   1      43.016  25.964  27.165  1.00  0.00     0.074 A 
ATOM     30  C   UNL A   1      46.379  31.356  27.646  1.00  0.00     0.029 A 
ATOM     31  N   UNL A   1      44.804  29.790  27.810  1.00  0.00    -0.354 N 
ATOM     32  N   UNL A   1      43.629  27.112  27.330  1.00  0.00    -0.248 NA
ATOM     33  C   UNL A   1      43.736  25.010  26.313  1.00  0.00     0.031 C 
ATOM     34  C   UNL A   1      46.770  30.247  26.888  1.00  0.00     0.029 A 
ATOM     35  C   UNL A   1      45.806  29.259  27.019  1.00  0.00     0.049 A 
ATOM     36  H   UNL A   1      43.978  29.321  28.067  1.00  0.00     0.167 HD
ATOM     37  C   UNL A   1      44.820  27.010  26.624  1.00  0.00     0.074 A 
ATOM     38  C   UNL A   1      44.851  25.678  26.052  1.00  0.00     0.031 C 
ATOM     39  C   UNL A   1      45.802  27.930  26.461  1.00  0.00     0.031 A 
BRANCH  26  40
ATOM     40  C   UNL A   1      44.773  33.304  29.357  1.00  0.00    -0.014 A 
ATOM     41  C   UNL A   1      45.212  33.589  30.661  1.00  0.00     0.009 A 
ATOM     42  C   UNL A   1      44.751  34.336  28.408  1.00  0.00     0.009 A 
ATOM     43  C   UNL A   1      45.591  34.888  31.012  1.00  0.00     0.001 A 
ATOM     44  C   UNL A   1      45.153  35.626  28.754  1.00  0.00     0.001 A 
ATOM     45  C   UNL A   1      45.563  35.904  30.057  1.00  0.00     0.000 A 
ENDBRANCH  26  40
BRANCH  27  46
ATOM     46  C   UNL A   1      41.184  24.134  27.460  1.00  0.00    -0.014 A 
ATOM     47  C   UNL A   1      40.114  23.921  26.580  1.00  0.00     0.009 A 
ATOM     48  C   UNL A   1      41.726  23.030  28.141  1.00  0.00     0.009 A 
ATOM     49  C   UNL A   1      39.576  22.639  26.416  1.00  0.00     0.001 A 
ATOM     50  C   UNL A   1      41.213  21.746  27.948  1.00  0.00     0.001 A 
ATOM     51  C   UNL A   1      40.128  21.554  27.096  1.00  0.00     0.000 A 
ENDBRANCH  27  46
BRANCH  39  52
ATOM     52  C   UNL A   1      47.002  27.510  25.662  1.00  0.00    -0.014 A 
ATOM     53  C   UNL A   1      47.069  27.720  24.275  1.00  0.00     0.009 A 
ATOM     54  C   UNL A   1      48.097  26.926  26.317  1.00  0.00     0.009 A 
ATOM     55  C   UNL A   1      48.194  27.314  23.557  1.00  0.00     0.001 A 
ATOM     56  C   UNL A   1      49.235  26.556  25.601  1.00  0.00     0.001 A 
ATOM     57  C   UNL A   1      49.278  26.739  24.221  1.00  0.00     0.000 A 
ENDBRANCH  39  52
ENDBRANCH  13  14
ENDBRANCH   6   8
ENDBRANCH   5   6
ENDBRANCH   4   5
ENDBRANCH   3   4
ENDBRANCH   2   3
ENDBRANCH   1   2
BRANCH   1  58
ATOM     58  C   UNL A   1      34.922  33.128  28.453  1.00  0.00     0.188 C 
BRANCH  58  59
ATOM     59  O   UNL A   1      34.570  32.032  27.624  1.00  0.00    -0.376 OA
BRANCH  59  60
ATOM     60  C   UNL A   1      35.012  30.717  27.928  1.00  0.00     0.202 C 
BRANCH  60  61
ATOM     61  C   UNL A   1      34.264  29.354  27.296  1.00  0.00     0.261 C 
BRANCH  61  62
ATOM     62  O   UNL A   1      34.153  28.657  25.384  1.00  0.00    -0.458 OA
BRANCH  62  63
ATOM     63  C   UNL A   1      33.722  28.233  24.094  1.00  0.00     0.359 C 
ATOM     64  O   UNL A   1      34.366  28.585  23.101  1.00  0.00    -0.244 OA
BRANCH  63  65
ATOM     65  C   UNL A   1      32.468  27.412  23.821  1.00  0.00     0.179 A 
ATOM     66  N   UNL A   1      31.425  28.006  24.511  1.00  0.00    -0.245 NA
ATOM     67  C   UNL A   1      32.233  26.266  23.033  1.00  0.00     0.161 A 
ATOM     68  C   UNL A   1      30.195  27.470  24.403  1.00  0.00     0.132 A 
ATOM     69  N   UNL A   1      30.965  25.712  23.030  1.00  0.00    -0.247 NA
ATOM     70  C   UNL A   1      29.972  26.322  23.696  1.00  0.00     0.132 A 
BRANCH  67  71
ATOM     71  C   UNL A   1      33.078  25.422  22.065  1.00  0.00     0.278 C 
ATOM     72  O   UNL A   1      33.193  25.788  20.888  1.00  0.00    -0.267 OA
ATOM     73  N   UNL A   1      33.845  24.353  22.429  1.00  0.00    -0.303 N 
ATOM     74  H   UNL A   1      34.762  24.313  22.071  1.00  0.00     0.172 HD
BRANCH  73  75
ATOM     75  C   UNL A   1      33.453  23.342  23.239  1.00  0.00     0.164 A 
ATOM     76  N   UNL A   1      32.223  22.824  23.133  1.00  0.00    -0.155 NA
ATOM     77  C   UNL A   1      34.317  22.689  24.130  1.00  0.00     0.063 A 
ATOM     78  N   UNL A   1      32.241  21.560  23.660  1.00  0.00    -0.259 N 
ATOM     79  C   UNL A   1      33.424  21.184  24.221  1.00  0.00     0.157 A 
ATOM     80  C   UNL A   1      36.089  22.681  24.541  1.00  0.00     0.017 A 
ATOM     81  H   UNL A   1      31.455  20.967  23.635  1.00  0.00     0.192 HD
ATOM     82  N   UNL A   1      34.124  19.677  24.634  1.00  0.00    -0.237 NA
ATOM     83  C   UNL A   1      36.880  21.110  24.898  1.00  0.00     0.021 A 
ATOM     84  C   UNL A   1      35.868  19.678  24.908  1.00  0.00     0.113 A 
ENDBRANCH  73  75
ENDBRANCH  67  71
ENDBRANCH  63  65
ENDBRANCH  62  63
ENDBRANCH  61  62
ENDBRANCH  60  61
ENDBRANCH  59  60
ENDBRANCH  58  59
ENDBRANCH   1  58
TORSDOF 19
ENDMDL
