MODEL 1
REMARK VINA RESULT:      -9.1      0.000      0.000
REMARK SMILES CCOc1cncc(N(CC(=O)OCCOCCOCCOC(=O)c2ccc(-c3c4nc(c(-c5ccccc5)c5ccc([nH]5)c(-c5ccccc5)c5nc(c(-c6ccccc6)c6ccc3[nH]6)C=C5)C=C4)cc2)C(C)(C)C)n1
REMARK SMILES IDX 17 1 16 2 15 3 14 4 13 5 11 6 12 7 10 8 9 9 8 10 4 11 5 12
REMARK SMILES IDX 77 13 6 14 7 15 3 16 2 17 1 18 73 19 74 20 75 21 76 22 18 23
REMARK SMILES IDX 19 24 20 25 21 26 22 27 23 28 24 29 25 30 26 31 72 32 27 33
REMARK SMILES IDX 71 34 28 35 29 36 30 37 65 38 31 39 70 40 64 41 66 42 32 43
REMARK SMILES IDX 69 44 63 45 62 46 33 48 55 49 40 50 54 51 41 52 44 53 53 54
REMARK SMILES IDX 67 55 42 56 43 57 52 59 68 60 45 61 34 62 35 63 39 64 36 65
REMARK SMILES IDX 38 66 37 67 56 68 57 69 61 70 58 71 60 72 59 73 46 74 47 75
REMARK SMILES IDX 51 76 48 77 50 78 49 79
REMARK H PARENT 66 47 44 58
REMARK Flexibility Score: inf
ROOT
ATOM      1  C   UNL A   1      31.719  27.946  25.196  1.00  0.00     0.188 C 
ENDROOT
BRANCH   1   2
ATOM      2  O   UNL A   1      30.742  27.758  24.175  1.00  0.00    -0.376 OA
BRANCH   2   3
ATOM      3  C   UNL A   1      31.196  27.737  22.823  1.00  0.00     0.202 C 
BRANCH   3   4
ATOM      4  C   UNL A   1      31.203  26.353  22.169  1.00  0.00     0.261 C 
BRANCH   4   5
ATOM      5  O   UNL A   1      32.007  25.407  22.906  1.00  0.00    -0.462 OA
BRANCH   5   6
ATOM      6  C   UNL A   1      33.230  25.151  22.374  1.00  0.00     0.325 C 
ATOM      7  O   UNL A   1      33.654  25.675  21.346  1.00  0.00    -0.250 OA
BRANCH   6   8
ATOM      8  C   UNL A   1      34.103  24.209  23.211  1.00  0.00     0.241 C 
BRANCH   8   9
ATOM      9  N   UNL A   1      33.416  23.372  24.229  1.00  0.00    -0.339 N 
BRANCH   9  10
ATOM     10  C   UNL A   1      33.008  22.080  23.857  1.00  0.00     0.152 A 
ATOM     11  C   UNL A   1      33.105  19.780  24.161  1.00  0.00     0.234 A 
ATOM     12  C   UNL A   1      32.269  19.556  23.088  1.00  0.00     0.179 A 
ATOM     13  N   UNL A   1      33.466  21.018  24.560  1.00  0.00    -0.193 NA
ATOM     14  N   UNL A   1      31.780  20.570  22.350  1.00  0.00    -0.255 NA
ATOM     15  C   UNL A   1      32.160  21.810  22.766  1.00  0.00     0.158 A 
BRANCH  11  16
ATOM     16  O   UNL A   1      33.525  18.718  24.920  1.00  0.00    -0.477 OA
BRANCH  16  17
ATOM     17  C   UNL A   1      34.093  17.695  24.098  1.00  0.00     0.228 C 
ATOM     18  C   UNL A   1      34.538  16.540  24.983  1.00  0.00     0.049 C 
ENDBRANCH  16  17
ENDBRANCH  11  16
ENDBRANCH   9  10
BRANCH   9  19
ATOM     19  C   UNL A   1      33.496  23.709  25.694  1.00  0.00     0.034 C 
ATOM     20  C   UNL A   1      32.107  23.587  26.373  1.00  0.00     0.034 C 
ATOM     21  C   UNL A   1      34.525  22.819  26.425  1.00  0.00     0.034 C 
ATOM     22  C   UNL A   1      33.983  25.155  25.926  1.00  0.00     0.034 C 
ENDBRANCH   9  19
ENDBRANCH   8   9
ENDBRANCH   6   8
ENDBRANCH   5   6
ENDBRANCH   4   5
ENDBRANCH   3   4
ENDBRANCH   2   3
ENDBRANCH   1   2
BRANCH   1  23
ATOM     23  C   UNL A   1      31.288  27.650  26.640  1.00  0.00     0.188 C 
BRANCH  23  24
ATOM     24  O   UNL A   1      31.702  28.579  27.636  1.00  0.00    -0.376 OA
BRANCH  24  25
ATOM     25  C   UNL A   1      32.296  29.786  27.169  1.00  0.00     0.202 C 
BRANCH  25  26
ATOM     26  C   UNL A   1      33.810  29.825  27.356  1.00  0.00     0.261 C 
BRANCH  26  27
ATOM     27  O   UNL A   1      34.236  31.183  27.581  1.00  0.00    -0.460 OA
BRANCH  27  28
ATOM     28  C   UNL A   1      34.980  31.347  28.694  1.00  0.00     0.338 C 
ATOM     29  O   UNL A   1      34.755  32.102  29.630  1.00  0.00    -0.246 OA
BRANCH  28  30
ATOM     30  C   UNL A   1      36.138  30.439  28.655  1.00  0.00     0.060 A 
ATOM     31  C   UNL A   1      36.500  29.729  29.800  1.00  0.00     0.016 A 
ATOM     32  C   UNL A   1      36.957  30.416  27.529  1.00  0.00     0.016 A 
ATOM     33  C   UNL A   1      37.724  29.059  29.856  1.00  0.00     0.010 A 
ATOM     34  C   UNL A   1      38.157  29.696  27.566  1.00  0.00     0.010 A 
ATOM     35  C   UNL A   1      38.579  29.055  28.746  1.00  0.00    -0.014 A 
BRANCH  35  36
ATOM     36  C   UNL A   1      39.963  28.512  28.847  1.00  0.00     0.031 A 
ATOM     37  C   UNL A   1      41.075  29.407  29.335  1.00  0.00     0.074 A 
ATOM     38  C   UNL A   1      40.244  27.230  28.541  1.00  0.00     0.049 A 
ATOM     39  N   UNL A   1      42.370  29.208  29.322  1.00  0.00    -0.248 NA
ATOM     40  C   UNL A   1      40.674  30.703  29.906  1.00  0.00     0.031 C 
ATOM     41  C   UNL A   1      39.272  26.217  28.133  1.00  0.00     0.029 A 
ATOM     42  N   UNL A   1      41.446  26.562  28.536  1.00  0.00    -0.354 N 
ATOM     43  C   UNL A   1      42.937  30.375  29.820  1.00  0.00     0.074 A 
ATOM     44  C   UNL A   1      41.848  31.274  30.134  1.00  0.00     0.031 C 
ATOM     45  C   UNL A   1      39.910  25.050  27.947  1.00  0.00     0.029 A 
ATOM     46  C   UNL A   1      41.344  25.249  28.147  1.00  0.00     0.049 A 
ATOM     47  H   UNL A   1      42.298  26.984  28.788  1.00  0.00     0.167 HD
ATOM     48  C   UNL A   1      44.246  30.677  29.995  1.00  0.00     0.031 A 
ATOM     49  C   UNL A   1      42.296  24.319  27.935  1.00  0.00     0.031 A 
ATOM     50  C   UNL A   1      45.335  29.775  29.731  1.00  0.00     0.049 A 
ATOM     51  C   UNL A   1      43.744  24.687  28.096  1.00  0.00     0.074 A 
ATOM     52  C   UNL A   1      46.694  29.997  29.867  1.00  0.00     0.029 A 
ATOM     53  N   UNL A   1      45.184  28.469  29.294  1.00  0.00    -0.354 N 
ATOM     54  N   UNL A   1      44.271  25.823  28.484  1.00  0.00    -0.248 NA
ATOM     55  C   UNL A   1      44.730  23.647  27.766  1.00  0.00     0.031 C 
ATOM     56  C   UNL A   1      47.370  28.832  29.484  1.00  0.00     0.029 A 
ATOM     57  C   UNL A   1      46.427  27.875  29.148  1.00  0.00     0.049 A 
ATOM     58  H   UNL A   1      44.322  28.029  29.116  1.00  0.00     0.167 HD
ATOM     59  C   UNL A   1      45.647  25.633  28.444  1.00  0.00     0.074 A 
ATOM     60  C   UNL A   1      45.874  24.266  28.024  1.00  0.00     0.031 C 
ATOM     61  C   UNL A   1      46.636  26.517  28.721  1.00  0.00     0.031 A 
BRANCH  48  62
ATOM     62  C   UNL A   1      44.575  32.070  30.450  1.00  0.00    -0.014 A 
ATOM     63  C   UNL A   1      44.754  32.378  31.807  1.00  0.00     0.009 A 
ATOM     64  C   UNL A   1      44.725  33.088  29.495  1.00  0.00     0.009 A 
ATOM     65  C   UNL A   1      45.044  33.687  32.199  1.00  0.00     0.001 A 
ATOM     66  C   UNL A   1      45.039  34.389  29.887  1.00  0.00     0.001 A 
ATOM     67  C   UNL A   1      45.190  34.690  31.241  1.00  0.00     0.000 A 
ENDBRANCH  48  62
BRANCH  49  68
ATOM     68  C   UNL A   1      41.913  22.954  27.490  1.00  0.00    -0.014 A 
ATOM     69  C   UNL A   1      41.890  22.629  26.126  1.00  0.00     0.009 A 
ATOM     70  C   UNL A   1      41.558  21.973  28.429  1.00  0.00     0.009 A 
ATOM     71  C   UNL A   1      41.507  21.352  25.710  1.00  0.00     0.001 A 
ATOM     72  C   UNL A   1      41.203  20.689  28.012  1.00  0.00     0.001 A 
ATOM     73  C   UNL A   1      41.171  20.381  26.653  1.00  0.00     0.000 A 
ENDBRANCH  49  68
BRANCH  61  74
ATOM     74  C   UNL A   1      48.048  26.026  28.592  1.00  0.00    -0.014 A 
ATOM     75  C   UNL A   1      48.618  25.791  27.330  1.00  0.00     0.009 A 
ATOM     76  C   UNL A   1      48.824  25.815  29.741  1.00  0.00     0.009 A 
ATOM     77  C   UNL A   1      49.929  25.324  27.225  1.00  0.00     0.001 A 
ATOM     78  C   UNL A   1      50.142  25.370  29.631  1.00  0.00     0.001 A 
ATOM     79  C   UNL A   1      50.691  25.117  28.374  1.00  0.00     0.000 A 
ENDBRANCH  61  74
ENDBRANCH  35  36
ENDBRANCH  28  30
ENDBRANCH  27  28
ENDBRANCH  26  27
ENDBRANCH  25  26
ENDBRANCH  24  25
ENDBRANCH  23  24
ENDBRANCH   1  23
TORSDOF 22
ENDMDL
MODEL 2
REMARK VINA RESULT:      -8.6      2.613      7.237
REMARK SMILES CCOc1cncc(N(CC(=O)OCCOCCOCCOC(=O)c2ccc(-c3c4nc(c(-c5ccccc5)c5ccc([nH]5)c(-c5ccccc5)c5nc(c(-c6ccccc6)c6ccc3[nH]6)C=C5)C=C4)cc2)C(C)(C)C)n1
REMARK SMILES IDX 17 1 16 2 15 3 14 4 13 5 11 6 12 7 10 8 9 9 8 10 4 11 5 12
REMARK SMILES IDX 77 13 6 14 7 15 3 16 2 17 1 18 73 19 74 20 75 21 76 22 18 23
REMARK SMILES IDX 19 24 20 25 21 26 22 27 23 28 24 29 25 30 26 31 72 32 27 33
REMARK SMILES IDX 71 34 28 35 29 36 30 37 65 38 31 39 70 40 64 41 66 42 32 43
REMARK SMILES IDX 69 44 63 45 62 46 33 48 55 49 40 50 54 51 41 52 44 53 53 54
REMARK SMILES IDX 67 55 42 56 43 57 52 59 68 60 45 61 34 62 35 63 39 64 36 65
REMARK SMILES IDX 38 66 37 67 56 68 57 69 61 70 58 71 60 72 59 73 46 74 47 75
REMARK SMILES IDX 51 76 48 77 50 78 49 79
REMARK H PARENT 66 47 44 58
REMARK Flexibility Score: inf
ROOT
ATOM      1  C   UNL A   1      34.181  33.290  29.924  1.00  0.00     0.188 C 
ENDROOT
BRANCH   1   2
ATOM      2  O   UNL A   1      34.720  32.186  29.200  1.00  0.00    -0.376 OA
BRANCH   2   3
ATOM      3  C   UNL A   1      34.286  32.006  27.853  1.00  0.00     0.202 C 
BRANCH   3   4
ATOM      4  C   UNL A   1      34.595  30.631  27.257  1.00  0.00     0.261 C 
BRANCH   4   5
ATOM      5  O   UNL A   1      33.472  30.085  26.534  1.00  0.00    -0.462 OA
BRANCH   5   6
ATOM      6  C   UNL A   1      33.639  28.816  26.079  1.00  0.00     0.325 C 
ATOM      7  O   UNL A   1      33.705  27.829  26.809  1.00  0.00    -0.250 OA
BRANCH   6   8
ATOM      8  C   UNL A   1      33.652  28.685  24.552  1.00  0.00     0.241 C 
BRANCH   8   9
ATOM      9  N   UNL A   1      32.564  27.887  23.929  1.00  0.00    -0.339 N 
BRANCH   9  10
ATOM     10  C   UNL A   1      32.872  26.599  23.461  1.00  0.00     0.152 A 
ATOM     11  C   UNL A   1      33.135  24.328  23.866  1.00  0.00     0.234 A 
ATOM     12  C   UNL A   1      33.541  24.097  22.569  1.00  0.00     0.179 A 
ATOM     13  N   UNL A   1      32.789  25.553  24.316  1.00  0.00    -0.193 NA
ATOM     14  N   UNL A   1      33.643  25.095  21.672  1.00  0.00    -0.255 NA
ATOM     15  C   UNL A   1      33.294  26.323  22.147  1.00  0.00     0.158 A 
BRANCH  11  16
ATOM     16  O   UNL A   1      32.986  23.268  24.724  1.00  0.00    -0.477 OA
BRANCH  16  17
ATOM     17  C   UNL A   1      33.384  23.626  26.050  1.00  0.00     0.228 C 
ATOM     18  C   UNL A   1      34.902  23.683  26.111  1.00  0.00     0.049 C 
ENDBRANCH  16  17
ENDBRANCH  11  16
ENDBRANCH   9  10
BRANCH   9  19
ATOM     19  C   UNL A   1      31.118  28.254  24.135  1.00  0.00     0.034 C 
ATOM     20  C   UNL A   1      30.976  29.721  24.615  1.00  0.00     0.034 C 
ATOM     21  C   UNL A   1      30.289  28.031  22.851  1.00  0.00     0.034 C 
ATOM     22  C   UNL A   1      30.446  27.365  25.203  1.00  0.00     0.034 C 
ENDBRANCH   9  19
ENDBRANCH   8   9
ENDBRANCH   6   8
ENDBRANCH   5   6
ENDBRANCH   4   5
ENDBRANCH   3   4
ENDBRANCH   2   3
ENDBRANCH   1   2
BRANCH   1  23
ATOM     23  C   UNL A   1      35.169  34.149  30.729  1.00  0.00     0.188 C 
BRANCH  23  24
ATOM     24  O   UNL A   1      34.628  34.919  31.796  1.00  0.00    -0.376 OA
BRANCH  24  25
ATOM     25  C   UNL A   1      35.234  34.746  33.073  1.00  0.00     0.202 C 
BRANCH  25  26
ATOM     26  C   UNL A   1      35.069  33.335  33.633  1.00  0.00     0.261 C 
BRANCH  26  27
ATOM     27  O   UNL A   1      35.842  32.409  32.845  1.00  0.00    -0.460 OA
BRANCH  27  28
ATOM     28  C   UNL A   1      36.857  31.830  33.518  1.00  0.00     0.338 C 
ATOM     29  O   UNL A   1      37.045  31.840  34.727  1.00  0.00    -0.246 OA
BRANCH  28  30
ATOM     30  C   UNL A   1      37.739  31.124  32.575  1.00  0.00     0.060 A 
ATOM     31  C   UNL A   1      38.837  30.410  33.055  1.00  0.00     0.016 A 
ATOM     32  C   UNL A   1      37.567  31.303  31.204  1.00  0.00     0.016 A 
ATOM     33  C   UNL A   1      39.814  29.942  32.174  1.00  0.00     0.010 A 
ATOM     34  C   UNL A   1      38.516  30.785  30.318  1.00  0.00     0.010 A 
ATOM     35  C   UNL A   1      39.677  30.146  30.794  1.00  0.00    -0.014 A 
BRANCH  35  36
ATOM     36  C   UNL A   1      40.792  29.826  29.858  1.00  0.00     0.031 A 
ATOM     37  C   UNL A   1      40.834  28.472  29.194  1.00  0.00     0.074 A 
ATOM     38  C   UNL A   1      41.751  30.726  29.566  1.00  0.00     0.049 A 
ATOM     39  N   UNL A   1      41.797  27.914  28.502  1.00  0.00    -0.248 NA
ATOM     40  C   UNL A   1      39.633  27.632  29.334  1.00  0.00     0.031 C 
ATOM     41  C   UNL A   1      41.810  32.101  30.059  1.00  0.00     0.029 A 
ATOM     42  N   UNL A   1      42.864  30.609  28.768  1.00  0.00    -0.354 N 
ATOM     43  C   UNL A   1      41.344  26.640  28.183  1.00  0.00     0.074 A 
ATOM     44  C   UNL A   1      40.018  26.508  28.748  1.00  0.00     0.031 C 
ATOM     45  C   UNL A   1      42.884  32.709  29.530  1.00  0.00     0.029 A 
ATOM     46  C   UNL A   1      43.631  31.748  28.722  1.00  0.00     0.049 A 
ATOM     47  H   UNL A   1      43.090  29.788  28.274  1.00  0.00     0.167 HD
ATOM     48  C   UNL A   1      41.975  25.662  27.490  1.00  0.00     0.031 A 
ATOM     49  C   UNL A   1      44.819  31.983  28.133  1.00  0.00     0.031 A 
ATOM     50  C   UNL A   1      43.272  25.797  26.884  1.00  0.00     0.049 A 
ATOM     51  C   UNL A   1      45.521  30.873  27.402  1.00  0.00     0.074 A 
ATOM     52  C   UNL A   1      43.996  24.856  26.172  1.00  0.00     0.029 A 
ATOM     53  N   UNL A   1      44.031  26.955  26.904  1.00  0.00    -0.354 N 
ATOM     54  N   UNL A   1      45.120  29.644  27.184  1.00  0.00    -0.248 NA
ATOM     55  C   UNL A   1      46.852  31.178  26.857  1.00  0.00     0.031 C 
ATOM     56  C   UNL A   1      45.209  25.438  25.784  1.00  0.00     0.029 A 
ATOM     57  C   UNL A   1      45.220  26.752  26.222  1.00  0.00     0.049 A 
ATOM     58  H   UNL A   1      43.764  27.798  27.336  1.00  0.00     0.167 HD
ATOM     59  C   UNL A   1      46.148  29.032  26.477  1.00  0.00     0.074 A 
ATOM     60  C   UNL A   1      47.177  30.031  26.278  1.00  0.00     0.031 C 
ATOM     61  C   UNL A   1      46.237  27.752  26.040  1.00  0.00     0.031 A 
BRANCH  48  62
ATOM     62  C   UNL A   1      41.283  24.331  27.395  1.00  0.00    -0.014 A 
ATOM     63  C   UNL A   1      40.207  24.122  26.519  1.00  0.00     0.009 A 
ATOM     64  C   UNL A   1      41.734  23.264  28.187  1.00  0.00     0.009 A 
ATOM     65  C   UNL A   1      39.576  22.877  26.466  1.00  0.00     0.001 A 
ATOM     66  C   UNL A   1      41.118  22.015  28.114  1.00  0.00     0.001 A 
ATOM     67  C   UNL A   1      40.032  21.825  27.258  1.00  0.00     0.000 A 
ENDBRANCH  48  62
BRANCH  49  68
ATOM     68  C   UNL A   1      45.456  33.320  28.255  1.00  0.00    -0.014 A 
ATOM     69  C   UNL A   1      46.322  33.603  29.321  1.00  0.00     0.009 A 
ATOM     70  C   UNL A   1      45.189  34.324  27.311  1.00  0.00     0.009 A 
ATOM     71  C   UNL A   1      46.900  34.868  29.446  1.00  0.00     0.001 A 
ATOM     72  C   UNL A   1      45.790  35.579  27.422  1.00  0.00     0.001 A 
ATOM     73  C   UNL A   1      46.640  35.853  28.493  1.00  0.00     0.000 A 
ENDBRANCH  49  68
BRANCH  61  74
ATOM     74  C   UNL A   1      47.481  27.369  25.294  1.00  0.00    -0.014 A 
ATOM     75  C   UNL A   1      48.605  26.871  25.972  1.00  0.00     0.009 A 
ATOM     76  C   UNL A   1      47.524  27.487  23.897  1.00  0.00     0.009 A 
ATOM     77  C   UNL A   1      49.759  26.528  25.267  1.00  0.00     0.001 A 
ATOM     78  C   UNL A   1      48.672  27.122  23.192  1.00  0.00     0.001 A 
ATOM     79  C   UNL A   1      49.791  26.650  23.878  1.00  0.00     0.000 A 
ENDBRANCH  61  74
ENDBRANCH  35  36
ENDBRANCH  28  30
ENDBRANCH  27  28
ENDBRANCH  26  27
ENDBRANCH  25  26
ENDBRANCH  24  25
ENDBRANCH  23  24
ENDBRANCH   1  23
TORSDOF 22
ENDMDL
MODEL 3
REMARK VINA RESULT:      -8.2      2.178      3.915
REMARK SMILES CCOc1cncc(N(CC(=O)OCCOCCOCCOC(=O)c2ccc(-c3c4nc(c(-c5ccccc5)c5ccc([nH]5)c(-c5ccccc5)c5nc(c(-c6ccccc6)c6ccc3[nH]6)C=C5)C=C4)cc2)C(C)(C)C)n1
REMARK SMILES IDX 17 1 16 2 15 3 14 4 13 5 11 6 12 7 10 8 9 9 8 10 4 11 5 12
REMARK SMILES IDX 77 13 6 14 7 15 3 16 2 17 1 18 73 19 74 20 75 21 76 22 18 23
REMARK SMILES IDX 19 24 20 25 21 26 22 27 23 28 24 29 25 30 26 31 72 32 27 33
REMARK SMILES IDX 71 34 28 35 29 36 30 37 65 38 31 39 70 40 64 41 66 42 32 43
REMARK SMILES IDX 69 44 63 45 62 46 33 48 55 49 40 50 54 51 41 52 44 53 53 54
REMARK SMILES IDX 67 55 42 56 43 57 52 59 68 60 45 61 34 62 35 63 39 64 36 65
REMARK SMILES IDX 38 66 37 67 56 68 57 69 61 70 58 71 60 72 59 73 46 74 47 75
REMARK SMILES IDX 51 76 48 77 50 78 49 79
REMARK H PARENT 66 47 44 58
REMARK Flexibility Score: inf
ROOT
ATOM      1  C   UNL A   1      33.932  33.260  27.991  1.00  0.00     0.188 C 
ENDROOT
BRANCH   1   2
ATOM      2  O   UNL A   1      33.670  31.882  27.734  1.00  0.00    -0.376 OA
BRANCH   2   3
ATOM      3  C   UNL A   1      34.721  30.952  27.991  1.00  0.00     0.202 C 
BRANCH   3   4
ATOM      4  C   UNL A   1      34.418  29.510  27.574  1.00  0.00     0.261 C 
BRANCH   4   5
ATOM      5  O   UNL A   1      34.043  29.413  26.183  1.00  0.00    -0.462 OA
BRANCH   5   6
ATOM      6  C   UNL A   1      33.791  28.153  25.740  1.00  0.00     0.325 C 
ATOM      7  O   UNL A   1      33.575  27.196  26.481  1.00  0.00    -0.250 OA
BRANCH   6   8
ATOM      8  C   UNL A   1      33.705  28.021  24.215  1.00  0.00     0.241 C 
BRANCH   8   9
ATOM      9  N   UNL A   1      32.613  27.174  23.668  1.00  0.00    -0.339 N 
BRANCH   9  10
ATOM     10  C   UNL A   1      32.918  25.849  23.314  1.00  0.00     0.152 A 
ATOM     11  C   UNL A   1      33.572  23.707  23.930  1.00  0.00     0.234 A 
ATOM     12  C   UNL A   1      33.581  23.284  22.618  1.00  0.00     0.179 A 
ATOM     13  N   UNL A   1      33.233  24.965  24.289  1.00  0.00    -0.193 NA
ATOM     14  N   UNL A   1      33.278  24.115  21.605  1.00  0.00    -0.255 NA
ATOM     15  C   UNL A   1      32.944  25.379  21.987  1.00  0.00     0.158 A 
BRANCH  11  16
ATOM     16  O   UNL A   1      33.827  22.806  24.931  1.00  0.00    -0.477 OA
BRANCH  16  17
ATOM     17  C   UNL A   1      34.683  21.759  24.470  1.00  0.00     0.228 C 
ATOM     18  C   UNL A   1      36.052  21.920  25.114  1.00  0.00     0.049 C 
ENDBRANCH  16  17
ENDBRANCH  11  16
ENDBRANCH   9  10
BRANCH   9  19
ATOM     19  C   UNL A   1      31.169  27.559  23.844  1.00  0.00     0.034 C 
ATOM     20  C   UNL A   1      30.460  26.622  24.855  1.00  0.00     0.034 C 
ATOM     21  C   UNL A   1      31.026  29.030  24.293  1.00  0.00     0.034 C 
ATOM     22  C   UNL A   1      30.382  27.468  22.519  1.00  0.00     0.034 C 
ENDBRANCH   9  19
ENDBRANCH   8   9
ENDBRANCH   6   8
ENDBRANCH   5   6
ENDBRANCH   4   5
ENDBRANCH   3   4
ENDBRANCH   2   3
ENDBRANCH   1   2
BRANCH   1  23
ATOM     23  C   UNL A   1      34.431  33.626  29.398  1.00  0.00     0.188 C 
BRANCH  23  24
ATOM     24  O   UNL A   1      35.822  33.890  29.536  1.00  0.00    -0.376 OA
BRANCH  24  25
ATOM     25  C   UNL A   1      36.392  33.634  30.816  1.00  0.00     0.202 C 
BRANCH  25  26
ATOM     26  C   UNL A   1      35.747  32.454  31.538  1.00  0.00     0.261 C 
BRANCH  26  27
ATOM     27  O   UNL A   1      36.770  31.631  32.131  1.00  0.00    -0.460 OA
BRANCH  27  28
ATOM     28  C   UNL A   1      36.959  30.452  31.504  1.00  0.00     0.338 C 
ATOM     29  O   UNL A   1      36.100  29.654  31.153  1.00  0.00    -0.246 OA
BRANCH  28  30
ATOM     30  C   UNL A   1      38.395  30.248  31.253  1.00  0.00     0.060 A 
ATOM     31  C   UNL A   1      38.978  30.774  30.100  1.00  0.00     0.016 A 
ATOM     32  C   UNL A   1      39.126  29.401  32.082  1.00  0.00     0.016 A 
ATOM     33  C   UNL A   1      40.267  30.390  29.723  1.00  0.00     0.010 A 
ATOM     34  C   UNL A   1      40.437  29.061  31.735  1.00  0.00     0.010 A 
ATOM     35  C   UNL A   1      41.004  29.508  30.526  1.00  0.00    -0.014 A 
BRANCH  35  36
ATOM     36  C   UNL A   1      42.297  28.939  30.051  1.00  0.00     0.031 A 
ATOM     37  C   UNL A   1      43.571  29.718  30.268  1.00  0.00     0.074 A 
ATOM     38  C   UNL A   1      42.364  27.732  29.457  1.00  0.00     0.049 A 
ATOM     39  N   UNL A   1      44.768  29.509  29.776  1.00  0.00    -0.248 NA
ATOM     40  C   UNL A   1      43.483  30.892  31.151  1.00  0.00     0.031 C 
ATOM     41  C   UNL A   1      41.239  26.822  29.245  1.00  0.00     0.029 A 
ATOM     42  N   UNL A   1      43.440  27.063  28.925  1.00  0.00    -0.354 N 
ATOM     43  C   UNL A   1      45.554  30.559  30.236  1.00  0.00     0.074 A 
ATOM     44  C   UNL A   1      44.704  31.398  31.053  1.00  0.00     0.031 C 
ATOM     45  C   UNL A   1      41.689  25.701  28.657  1.00  0.00     0.029 A 
ATOM     46  C   UNL A   1      43.116  25.844  28.381  1.00  0.00     0.049 A 
ATOM     47  H   UNL A   1      44.357  27.422  28.935  1.00  0.00     0.167 HD
ATOM     48  C   UNL A   1      46.863  30.809  29.997  1.00  0.00     0.031 A 
ATOM     49  C   UNL A   1      43.870  24.958  27.701  1.00  0.00     0.031 A 
ATOM     50  C   UNL A   1      47.729  29.958  29.226  1.00  0.00     0.049 A 
ATOM     51  C   UNL A   1      45.311  25.273  27.411  1.00  0.00     0.074 A 
ATOM     52  C   UNL A   1      49.068  30.136  28.920  1.00  0.00     0.029 A 
ATOM     53  N   UNL A   1      47.345  28.756  28.656  1.00  0.00    -0.354 N 
ATOM     54  N   UNL A   1      46.019  26.313  27.779  1.00  0.00    -0.248 NA
ATOM     55  C   UNL A   1      46.048  24.300  26.592  1.00  0.00     0.031 C 
ATOM     56  C   UNL A   1      49.487  29.053  28.138  1.00  0.00     0.029 A 
ATOM     57  C   UNL A   1      48.418  28.184  27.993  1.00  0.00     0.049 A 
ATOM     58  H   UNL A   1      46.443  28.365  28.714  1.00  0.00     0.167 HD
ATOM     59  C   UNL A   1      47.284  26.118  27.235  1.00  0.00     0.074 A 
ATOM     60  C   UNL A   1      47.254  24.849  26.540  1.00  0.00     0.031 C 
ATOM     61  C   UNL A   1      48.371  26.925  27.298  1.00  0.00     0.031 A 
BRANCH  48  62
ATOM     62  C   UNL A   1      47.428  32.092  30.538  1.00  0.00    -0.014 A 
ATOM     63  C   UNL A   1      47.374  33.286  29.804  1.00  0.00     0.009 A 
ATOM     64  C   UNL A   1      48.008  32.102  31.815  1.00  0.00     0.009 A 
ATOM     65  C   UNL A   1      47.922  34.460  30.329  1.00  0.00     0.001 A 
ATOM     66  C   UNL A   1      48.533  33.280  32.348  1.00  0.00     0.001 A 
ATOM     67  C   UNL A   1      48.497  34.457  31.600  1.00  0.00     0.000 A 
ENDBRANCH  48  62
BRANCH  49  68
ATOM     68  C   UNL A   1      43.261  23.702  27.193  1.00  0.00    -0.014 A 
ATOM     69  C   UNL A   1      42.886  23.584  25.847  1.00  0.00     0.009 A 
ATOM     70  C   UNL A   1      43.039  22.618  28.057  1.00  0.00     0.009 A 
ATOM     71  C   UNL A   1      42.291  22.410  25.378  1.00  0.00     0.001 A 
ATOM     72  C   UNL A   1      42.471  21.435  27.580  1.00  0.00     0.001 A 
ATOM     73  C   UNL A   1      42.091  21.335  26.243  1.00  0.00     0.000 A 
ENDBRANCH  49  68
BRANCH  61  74
ATOM     74  C   UNL A   1      49.616  26.449  26.609  1.00  0.00    -0.014 A 
ATOM     75  C   UNL A   1      50.542  25.630  27.275  1.00  0.00     0.009 A 
ATOM     76  C   UNL A   1      49.856  26.804  25.274  1.00  0.00     0.009 A 
ATOM     77  C   UNL A   1      51.700  25.203  26.625  1.00  0.00     0.001 A 
ATOM     78  C   UNL A   1      51.005  26.358  24.619  1.00  0.00     0.001 A 
ATOM     79  C   UNL A   1      51.930  25.564  25.297  1.00  0.00     0.000 A 
ENDBRANCH  61  74
ENDBRANCH  35  36
ENDBRANCH  28  30
ENDBRANCH  27  28
ENDBRANCH  26  27
ENDBRANCH  25  26
ENDBRANCH  24  25
ENDBRANCH  23  24
ENDBRANCH   1  23
TORSDOF 22
ENDMDL
