MODEL 1
REMARK VINA RESULT:     -10.0      0.000      0.000
REMARK SMILES CCc1noc(C)c1C(=O)Nc1cc(Cl)ccc1C(=O)OCCOCCOCCOC(=O)c1ccc(-c2c3nc(c(-c4ccccc4)c4ccc([nH]4)c(-c4ccccc4)c4nc(c(-c5ccccc5)c5ccc2[nH]5)C=C4)C=C3)cc1
REMARK SMILES IDX 25 1 24 2 23 3 22 4 21 5 19 6 20 7 18 8 12 9 13 10 14 11
REMARK SMILES IDX 17 12 15 13 16 14 11 15 9 16 10 17 8 19 3 20 4 21 5 22 6 23
REMARK SMILES IDX 7 24 2 25 1 26 26 27 27 28 28 29 29 30 30 31 31 32 32 33
REMARK SMILES IDX 33 34 34 35 80 36 35 37 79 38 36 39 37 40 38 41 73 42 39 43
REMARK SMILES IDX 78 44 72 45 74 46 40 47 77 48 71 49 70 50 41 52 63 53 48 54
REMARK SMILES IDX 62 55 49 56 52 57 61 58 75 59 50 60 51 61 60 63 76 64 53 65
REMARK SMILES IDX 42 66 43 67 47 68 44 69 46 70 45 71 64 72 65 73 69 74 66 75
REMARK SMILES IDX 68 76 67 77 54 78 55 79 59 80 56 81 58 82 57 83
REMARK H PARENT 11 18 74 51 52 62
REMARK Flexibility Score: inf
ROOT
ATOM      1  C   UNL A   1      31.684  28.624  22.874  1.00  0.00     0.188 C 
ENDROOT
BRANCH   1   2
ATOM      2  O   UNL A   1      31.240  27.484  22.150  1.00  0.00    -0.376 OA
BRANCH   2   3
ATOM      3  C   UNL A   1      32.030  26.301  22.119  1.00  0.00     0.202 C 
BRANCH   3   4
ATOM      4  C   UNL A   1      33.468  26.341  22.661  1.00  0.00     0.261 C 
BRANCH   4   5
ATOM      5  O   UNL A   1      33.978  25.086  23.157  1.00  0.00    -0.460 OA
BRANCH   5   6
ATOM      6  C   UNL A   1      34.435  25.116  24.432  1.00  0.00     0.340 C 
ATOM      7  O   UNL A   1      34.089  25.915  25.289  1.00  0.00    -0.246 OA
BRANCH   6   8
ATOM      8  C   UNL A   1      35.362  23.989  24.758  1.00  0.00     0.083 A 
ATOM      9  C   UNL A   1      35.219  22.634  24.375  1.00  0.00     0.057 A 
ATOM     10  C   UNL A   1      36.315  21.778  24.547  1.00  0.00     0.047 A 
ATOM     11  C   UNL A   1      37.430  22.190  25.284  1.00  0.00     0.043 A 
ATOM     12  C   UNL A   1      36.469  24.367  25.544  1.00  0.00     0.019 A 
ATOM     13  Cl  UNL A   1      38.725  21.094  25.564  1.00  0.00    -0.084 Cl
ATOM     14  C   UNL A   1      37.481  23.460  25.839  1.00  0.00     0.021 A 
BRANCH   9  15
ATOM     15  N   UNL A   1      33.995  22.162  23.864  1.00  0.00    -0.321 N 
ATOM     16  C   UNL A   1      32.730  21.957  24.383  1.00  0.00     0.261 C 
ATOM     17  O   UNL A   1      31.963  21.323  23.652  1.00  0.00    -0.269 OA
ATOM     18  H   UNL A   1      34.054  21.920  22.911  1.00  0.00     0.170 HD
BRANCH  16  19
ATOM     19  C   UNL A   1      32.249  22.470  25.665  1.00  0.00     0.105 A 
ATOM     20  C   UNL A   1      31.249  23.494  25.838  1.00  0.00     0.096 A 
ATOM     21  N   UNL A   1      30.979  23.710  27.130  1.00  0.00    -0.084 NA
ATOM     22  O   UNL A   1      31.896  22.976  27.827  1.00  0.00    -0.361 OA
ATOM     23  C   UNL A   1      32.712  22.311  26.965  1.00  0.00     0.146 A 
ATOM     24  C   UNL A   1      33.853  21.685  27.659  1.00  0.00     0.092 C 
BRANCH  20  25
ATOM     25  C   UNL A   1      30.560  24.363  24.834  1.00  0.00     0.057 C 
ATOM     26  C   UNL A   1      30.093  25.674  25.467  1.00  0.00     0.011 C 
ENDBRANCH  20  25
ENDBRANCH  16  19
ENDBRANCH   9  15
ENDBRANCH   6   8
ENDBRANCH   5   6
ENDBRANCH   4   5
ENDBRANCH   3   4
ENDBRANCH   2   3
ENDBRANCH   1   2
BRANCH   1  27
ATOM     27  C   UNL A   1      31.208  28.869  24.319  1.00  0.00     0.188 C 
BRANCH  27  28
ATOM     28  O   UNL A   1      32.039  29.728  25.063  1.00  0.00    -0.376 OA
BRANCH  28  29
ATOM     29  C   UNL A   1      32.880  29.144  26.044  1.00  0.00     0.202 C 
BRANCH  29  30
ATOM     30  C   UNL A   1      33.207  29.918  27.337  1.00  0.00     0.261 C 
BRANCH  30  31
ATOM     31  O   UNL A   1      34.173  30.978  27.244  1.00  0.00    -0.460 OA
BRANCH  31  32
ATOM     32  C   UNL A   1      34.803  31.346  28.376  1.00  0.00     0.338 C 
ATOM     33  O   UNL A   1      34.376  32.106  29.245  1.00  0.00    -0.246 OA
BRANCH  32  34
ATOM     34  C   UNL A   1      36.029  30.540  28.516  1.00  0.00     0.060 A 
ATOM     35  C   UNL A   1      36.311  29.937  29.749  1.00  0.00     0.016 A 
ATOM     36  C   UNL A   1      36.912  30.392  27.442  1.00  0.00     0.016 A 
ATOM     37  C   UNL A   1      37.496  29.218  29.923  1.00  0.00     0.010 A 
ATOM     38  C   UNL A   1      38.108  29.689  27.624  1.00  0.00     0.010 A 
ATOM     39  C   UNL A   1      38.423  29.129  28.876  1.00  0.00    -0.014 A 
BRANCH  39  40
ATOM     40  C   UNL A   1      39.796  28.634  29.144  1.00  0.00     0.031 A 
ATOM     41  C   UNL A   1      40.756  29.546  29.865  1.00  0.00     0.074 A 
ATOM     42  C   UNL A   1      40.187  27.399  28.785  1.00  0.00     0.049 A 
ATOM     43  N   UNL A   1      42.013  29.353  30.174  1.00  0.00    -0.248 NA
ATOM     44  C   UNL A   1      40.222  30.850  30.294  1.00  0.00     0.031 C 
ATOM     45  C   UNL A   1      39.349  26.400  28.124  1.00  0.00     0.029 A 
ATOM     46  N   UNL A   1      41.405  26.778  28.922  1.00  0.00    -0.354 N 
ATOM     47  C   UNL A   1      42.420  30.510  30.827  1.00  0.00     0.074 A 
ATOM     48  C   UNL A   1      41.289  31.410  30.844  1.00  0.00     0.031 C 
ATOM     49  C   UNL A   1      40.082  25.293  27.905  1.00  0.00     0.029 A 
ATOM     50  C   UNL A   1      41.447  25.517  28.377  1.00  0.00     0.049 A 
ATOM     51  H   UNL A   1      42.175  27.197  29.370  1.00  0.00     0.167 HD
ATOM     52  C   UNL A   1      43.626  30.799  31.372  1.00  0.00     0.031 A 
ATOM     53  C   UNL A   1      42.476  24.656  28.254  1.00  0.00     0.031 A 
ATOM     54  C   UNL A   1      44.761  29.917  31.342  1.00  0.00     0.049 A 
ATOM     55  C   UNL A   1      43.832  25.036  28.791  1.00  0.00     0.074 A 
ATOM     56  C   UNL A   1      46.025  30.122  31.865  1.00  0.00     0.029 A 
ATOM     57  N   UNL A   1      44.769  28.664  30.751  1.00  0.00    -0.354 N 
ATOM     58  N   UNL A   1      44.198  26.124  29.424  1.00  0.00    -0.248 NA
ATOM     59  C   UNL A   1      44.918  24.060  28.603  1.00  0.00     0.031 C 
ATOM     60  C   UNL A   1      46.814  29.014  31.545  1.00  0.00     0.029 A 
ATOM     61  C   UNL A   1      46.023  28.092  30.878  1.00  0.00     0.049 A 
ATOM     62  H   UNL A   1      43.998  28.243  30.306  1.00  0.00     0.167 HD
ATOM     63  C   UNL A   1      45.541  25.947  29.740  1.00  0.00     0.074 A 
ATOM     64  C   UNL A   1      45.922  24.643  29.241  1.00  0.00     0.031 C 
ATOM     65  C   UNL A   1      46.385  26.789  30.388  1.00  0.00     0.031 A 
BRANCH  52  66
ATOM     66  C   UNL A   1      43.787  32.143  32.023  1.00  0.00    -0.014 A 
ATOM     67  C   UNL A   1      43.567  32.316  33.399  1.00  0.00     0.009 A 
ATOM     68  C   UNL A   1      44.200  33.243  31.257  1.00  0.00     0.009 A 
ATOM     69  C   UNL A   1      43.733  33.571  33.988  1.00  0.00     0.001 A 
ATOM     70  C   UNL A   1      44.392  34.491  31.854  1.00  0.00     0.001 A 
ATOM     71  C   UNL A   1      44.151  34.655  33.217  1.00  0.00     0.000 A 
ENDBRANCH  52  66
BRANCH  53  72
ATOM     72  C   UNL A   1      42.286  23.350  27.565  1.00  0.00    -0.014 A 
ATOM     73  C   UNL A   1      41.898  22.208  28.283  1.00  0.00     0.009 A 
ATOM     74  C   UNL A   1      42.544  23.228  26.191  1.00  0.00     0.009 A 
ATOM     75  C   UNL A   1      41.807  20.967  27.647  1.00  0.00     0.001 A 
ATOM     76  C   UNL A   1      42.423  21.993  25.551  1.00  0.00     0.001 A 
ATOM     77  C   UNL A   1      42.067  20.861  26.281  1.00  0.00     0.000 A 
ENDBRANCH  53  72
BRANCH  65  78
ATOM     78  C   UNL A   1      47.786  26.306  30.645  1.00  0.00    -0.014 A 
ATOM     79  C   UNL A   1      48.800  26.450  29.686  1.00  0.00     0.009 A 
ATOM     80  C   UNL A   1      48.103  25.740  31.891  1.00  0.00     0.009 A 
ATOM     81  C   UNL A   1      50.095  26.002  29.958  1.00  0.00     0.001 A 
ATOM     82  C   UNL A   1      49.405  25.323  32.170  1.00  0.00     0.001 A 
ATOM     83  C   UNL A   1      50.398  25.445  31.200  1.00  0.00     0.000 A 
ENDBRANCH  65  78
ENDBRANCH  39  40
ENDBRANCH  32  34
ENDBRANCH  31  32
ENDBRANCH  30  31
ENDBRANCH  29  30
ENDBRANCH  28  29
ENDBRANCH  27  28
ENDBRANCH   1  27
TORSDOF 20
ENDMDL
MODEL 2
REMARK VINA RESULT:      -9.8      2.944      7.006
REMARK SMILES CCc1noc(C)c1C(=O)Nc1cc(Cl)ccc1C(=O)OCCOCCOCCOC(=O)c1ccc(-c2c3nc(c(-c4ccccc4)c4ccc([nH]4)c(-c4ccccc4)c4nc(c(-c5ccccc5)c5ccc2[nH]5)C=C4)C=C3)cc1
REMARK SMILES IDX 25 1 24 2 23 3 22 4 21 5 19 6 20 7 18 8 12 9 13 10 14 11
REMARK SMILES IDX 17 12 15 13 16 14 11 15 9 16 10 17 8 19 3 20 4 21 5 22 6 23
REMARK SMILES IDX 7 24 2 25 1 26 26 27 27 28 28 29 29 30 30 31 31 32 32 33
REMARK SMILES IDX 33 34 34 35 80 36 35 37 79 38 36 39 37 40 38 41 73 42 39 43
REMARK SMILES IDX 78 44 72 45 74 46 40 47 77 48 71 49 70 50 41 52 63 53 48 54
REMARK SMILES IDX 62 55 49 56 52 57 61 58 75 59 50 60 51 61 60 63 76 64 53 65
REMARK SMILES IDX 42 66 43 67 47 68 44 69 46 70 45 71 64 72 65 73 69 74 66 75
REMARK SMILES IDX 68 76 67 77 54 78 55 79 59 80 56 81 58 82 57 83
REMARK H PARENT 11 18 74 51 52 62
REMARK Flexibility Score: inf
ROOT
ATOM      1  C   UNL A   1      34.163  32.324  27.770  1.00  0.00     0.188 C 
ENDROOT
BRANCH   1   2
ATOM      2  O   UNL A   1      34.432  30.934  27.906  1.00  0.00    -0.376 OA
BRANCH   2   3
ATOM      3  C   UNL A   1      33.642  29.979  27.209  1.00  0.00     0.202 C 
BRANCH   3   4
ATOM      4  C   UNL A   1      34.334  28.815  26.480  1.00  0.00     0.261 C 
BRANCH   4   5
ATOM      5  O   UNL A   1      33.451  27.830  25.904  1.00  0.00    -0.460 OA
BRANCH   5   6
ATOM      6  C   UNL A   1      33.754  27.458  24.638  1.00  0.00     0.340 C 
ATOM      7  O   UNL A   1      33.879  28.216  23.688  1.00  0.00    -0.246 OA
BRANCH   6   8
ATOM      8  C   UNL A   1      34.037  25.997  24.499  1.00  0.00     0.083 A 
ATOM      9  C   UNL A   1      33.934  25.219  23.321  1.00  0.00     0.057 A 
ATOM     10  C   UNL A   1      34.490  23.933  23.325  1.00  0.00     0.047 A 
ATOM     11  C   UNL A   1      34.926  23.351  24.520  1.00  0.00     0.043 A 
ATOM     12  C   UNL A   1      34.429  25.373  25.701  1.00  0.00     0.019 A 
ATOM     13  Cl  UNL A   1      35.519  21.737  24.519  1.00  0.00    -0.084 Cl
ATOM     14  C   UNL A   1      34.835  24.043  25.719  1.00  0.00     0.021 A 
BRANCH   9  15
ATOM     15  N   UNL A   1      33.262  25.722  22.191  1.00  0.00    -0.321 N 
ATOM     16  C   UNL A   1      31.958  26.083  21.905  1.00  0.00     0.261 C 
ATOM     17  O   UNL A   1      31.724  26.289  20.711  1.00  0.00    -0.269 OA
ATOM     18  H   UNL A   1      33.864  25.846  21.421  1.00  0.00     0.170 HD
BRANCH  16  19
ATOM     19  C   UNL A   1      30.900  26.279  22.895  1.00  0.00     0.105 A 
ATOM     20  C   UNL A   1      30.362  25.260  23.763  1.00  0.00     0.096 A 
ATOM     21  N   UNL A   1      29.444  25.755  24.599  1.00  0.00    -0.084 NA
ATOM     22  O   UNL A   1      29.234  27.044  24.197  1.00  0.00    -0.361 OA
ATOM     23  C   UNL A   1      30.026  27.333  23.129  1.00  0.00     0.146 A 
ATOM     24  C   UNL A   1      29.678  28.630  22.520  1.00  0.00     0.092 C 
BRANCH  20  25
ATOM     25  C   UNL A   1      30.612  23.786  23.806  1.00  0.00     0.057 C 
ATOM     26  C   UNL A   1      31.060  23.343  25.199  1.00  0.00     0.011 C 
ENDBRANCH  20  25
ENDBRANCH  16  19
ENDBRANCH   9  15
ENDBRANCH   6   8
ENDBRANCH   5   6
ENDBRANCH   4   5
ENDBRANCH   3   4
ENDBRANCH   2   3
ENDBRANCH   1   2
BRANCH   1  27
ATOM     27  C   UNL A   1      34.659  33.324  28.831  1.00  0.00     0.188 C 
BRANCH  27  28
ATOM     28  O   UNL A   1      34.071  33.159  30.100  1.00  0.00    -0.376 OA
BRANCH  28  29
ATOM     29  C   UNL A   1      34.505  34.016  31.143  1.00  0.00     0.202 C 
BRANCH  29  30
ATOM     30  C   UNL A   1      34.605  33.482  32.586  1.00  0.00     0.261 C 
BRANCH  30  31
ATOM     31  O   UNL A   1      35.207  32.189  32.770  1.00  0.00    -0.460 OA
BRANCH  31  32
ATOM     32  C   UNL A   1      36.414  32.144  33.364  1.00  0.00     0.338 C 
ATOM     33  O   UNL A   1      36.677  32.452  34.526  1.00  0.00    -0.246 OA
BRANCH  32  34
ATOM     34  C   UNL A   1      37.362  31.475  32.453  1.00  0.00     0.060 A 
ATOM     35  C   UNL A   1      38.420  30.733  32.996  1.00  0.00     0.016 A 
ATOM     36  C   UNL A   1      37.222  31.593  31.068  1.00  0.00     0.016 A 
ATOM     37  C   UNL A   1      39.365  30.142  32.154  1.00  0.00     0.010 A 
ATOM     38  C   UNL A   1      38.181  31.017  30.227  1.00  0.00     0.010 A 
ATOM     39  C   UNL A   1      39.276  30.319  30.767  1.00  0.00    -0.014 A 
BRANCH  39  40
ATOM     40  C   UNL A   1      40.426  29.954  29.901  1.00  0.00     0.031 A 
ATOM     41  C   UNL A   1      40.399  28.619  29.204  1.00  0.00     0.074 A 
ATOM     42  C   UNL A   1      41.462  30.789  29.709  1.00  0.00     0.049 A 
ATOM     43  N   UNL A   1      41.300  28.064  28.434  1.00  0.00    -0.248 NA
ATOM     44  C   UNL A   1      39.191  27.800  29.404  1.00  0.00     0.031 C 
ATOM     45  C   UNL A   1      41.594  32.127  30.284  1.00  0.00     0.029 A 
ATOM     46  N   UNL A   1      42.611  30.624  28.975  1.00  0.00    -0.354 N 
ATOM     47  C   UNL A   1      40.771  26.833  28.064  1.00  0.00     0.074 A 
ATOM     48  C   UNL A   1      39.486  26.708  28.715  1.00  0.00     0.031 C 
ATOM     49  C   UNL A   1      42.765  32.657  29.888  1.00  0.00     0.029 A 
ATOM     50  C   UNL A   1      43.480  31.685  29.062  1.00  0.00     0.049 A 
ATOM     51  H   UNL A   1      42.795  29.821  28.437  1.00  0.00     0.167 HD
ATOM     52  C   UNL A   1      41.301  25.892  27.248  1.00  0.00     0.031 A 
ATOM     53  C   UNL A   1      44.717  31.842  28.552  1.00  0.00     0.031 A 
ATOM     54  C   UNL A   1      42.586  26.000  26.612  1.00  0.00     0.049 A 
ATOM     55  C   UNL A   1      45.323  30.742  27.719  1.00  0.00     0.074 A 
ATOM     56  C   UNL A   1      43.210  25.097  25.769  1.00  0.00     0.029 A 
ATOM     57  N   UNL A   1      43.446  27.077  26.753  1.00  0.00    -0.354 N 
ATOM     58  N   UNL A   1      44.803  29.592  27.359  1.00  0.00    -0.248 NA
ATOM     59  C   UNL A   1      46.686  30.966  27.212  1.00  0.00     0.031 C 
ATOM     60  C   UNL A   1      44.470  25.603  25.443  1.00  0.00     0.029 A 
ATOM     61  C   UNL A   1      44.605  26.851  26.030  1.00  0.00     0.049 A 
ATOM     62  H   UNL A   1      43.262  27.882  27.289  1.00  0.00     0.167 HD
ATOM     63  C   UNL A   1      45.759  28.977  26.558  1.00  0.00     0.074 A 
ATOM     64  C   UNL A   1      46.884  29.884  26.473  1.00  0.00     0.031 C 
ATOM     65  C   UNL A   1      45.710  27.768  25.944  1.00  0.00     0.031 A 
BRANCH  52  66
ATOM     66  C   UNL A   1      40.499  24.641  27.022  1.00  0.00    -0.014 A 
ATOM     67  C   UNL A   1      39.271  24.678  26.342  1.00  0.00     0.009 A 
ATOM     68  C   UNL A   1      40.997  23.405  27.461  1.00  0.00     0.009 A 
ATOM     69  C   UNL A   1      38.546  23.504  26.131  1.00  0.00     0.001 A 
ATOM     70  C   UNL A   1      40.283  22.229  27.224  1.00  0.00     0.001 A 
ATOM     71  C   UNL A   1      39.054  22.281  26.567  1.00  0.00     0.000 A 
ENDBRANCH  52  66
BRANCH  53  72
ATOM     72  C   UNL A   1      45.496  33.078  28.834  1.00  0.00    -0.014 A 
ATOM     73  C   UNL A   1      46.358  33.149  29.940  1.00  0.00     0.009 A 
ATOM     74  C   UNL A   1      45.341  34.215  28.025  1.00  0.00     0.009 A 
ATOM     75  C   UNL A   1      47.018  34.342  30.250  1.00  0.00     0.001 A 
ATOM     76  C   UNL A   1      46.026  35.396  28.319  1.00  0.00     0.001 A 
ATOM     77  C   UNL A   1      46.854  35.463  29.437  1.00  0.00     0.000 A 
ENDBRANCH  53  72
BRANCH  65  78
ATOM     78  C   UNL A   1      46.880  27.379  25.083  1.00  0.00    -0.014 A 
ATOM     79  C   UNL A   1      46.990  27.812  23.753  1.00  0.00     0.009 A 
ATOM     80  C   UNL A   1      47.913  26.602  25.633  1.00  0.00     0.009 A 
ATOM     81  C   UNL A   1      48.094  27.444  22.980  1.00  0.00     0.001 A 
ATOM     82  C   UNL A   1      49.030  26.263  24.868  1.00  0.00     0.001 A 
ATOM     83  C   UNL A   1      49.115  26.675  23.539  1.00  0.00     0.000 A 
ENDBRANCH  65  78
ENDBRANCH  39  40
ENDBRANCH  32  34
ENDBRANCH  31  32
ENDBRANCH  30  31
ENDBRANCH  29  30
ENDBRANCH  28  29
ENDBRANCH  27  28
ENDBRANCH   1  27
TORSDOF 20
ENDMDL
MODEL 3
REMARK VINA RESULT:      -9.6      3.890      8.618
REMARK SMILES CCc1noc(C)c1C(=O)Nc1cc(Cl)ccc1C(=O)OCCOCCOCCOC(=O)c1ccc(-c2c3nc(c(-c4ccccc4)c4ccc([nH]4)c(-c4ccccc4)c4nc(c(-c5ccccc5)c5ccc2[nH]5)C=C4)C=C3)cc1
REMARK SMILES IDX 25 1 24 2 23 3 22 4 21 5 19 6 20 7 18 8 12 9 13 10 14 11
REMARK SMILES IDX 17 12 15 13 16 14 11 15 9 16 10 17 8 19 3 20 4 21 5 22 6 23
REMARK SMILES IDX 7 24 2 25 1 26 26 27 27 28 28 29 29 30 30 31 31 32 32 33
REMARK SMILES IDX 33 34 34 35 80 36 35 37 79 38 36 39 37 40 38 41 73 42 39 43
REMARK SMILES IDX 78 44 72 45 74 46 40 47 77 48 71 49 70 50 41 52 63 53 48 54
REMARK SMILES IDX 62 55 49 56 52 57 61 58 75 59 50 60 51 61 60 63 76 64 53 65
REMARK SMILES IDX 42 66 43 67 47 68 44 69 46 70 45 71 64 72 65 73 69 74 66 75
REMARK SMILES IDX 68 76 67 77 54 78 55 79 59 80 56 81 58 82 57 83
REMARK H PARENT 11 18 74 51 52 62
REMARK Flexibility Score: inf
ROOT
ATOM      1  C   UNL A   1      39.349  20.615  26.014  1.00  0.00     0.188 C 
ENDROOT
BRANCH   1   2
ATOM      2  O   UNL A   1      39.110  22.002  26.219  1.00  0.00    -0.376 OA
BRANCH   2   3
ATOM      3  C   UNL A   1      38.211  22.708  25.373  1.00  0.00     0.202 C 
BRANCH   3   4
ATOM      4  C   UNL A   1      36.811  23.070  25.895  1.00  0.00     0.261 C 
BRANCH   4   5
ATOM      5  O   UNL A   1      35.968  21.950  26.237  1.00  0.00    -0.460 OA
BRANCH   5   6
ATOM      6  C   UNL A   1      35.498  21.243  25.181  1.00  0.00     0.340 C 
ATOM      7  O   UNL A   1      36.021  20.243  24.710  1.00  0.00    -0.246 OA
BRANCH   6   8
ATOM      8  C   UNL A   1      34.182  21.737  24.672  1.00  0.00     0.083 A 
ATOM      9  C   UNL A   1      32.898  21.289  25.064  1.00  0.00     0.057 A 
ATOM     10  C   UNL A   1      31.785  22.048  24.676  1.00  0.00     0.047 A 
ATOM     11  C   UNL A   1      31.920  23.080  23.741  1.00  0.00     0.043 A 
ATOM     12  C   UNL A   1      34.289  22.741  23.690  1.00  0.00     0.019 A 
ATOM     13  Cl  UNL A   1      30.528  23.937  23.206  1.00  0.00    -0.084 Cl
ATOM     14  C   UNL A   1      33.158  23.385  23.197  1.00  0.00     0.021 A 
BRANCH   9  15
ATOM     15  N   UNL A   1      32.750  20.098  25.798  1.00  0.00    -0.321 N 
ATOM     16  C   UNL A   1      32.704  18.752  25.484  1.00  0.00     0.261 C 
ATOM     17  O   UNL A   1      32.350  18.013  26.407  1.00  0.00    -0.269 OA
ATOM     18  H   UNL A   1      32.659  20.261  26.765  1.00  0.00     0.170 HD
BRANCH  16  19
ATOM     19  C   UNL A   1      33.084  18.172  24.197  1.00  0.00     0.105 A 
ATOM     20  C   UNL A   1      34.169  17.246  23.981  1.00  0.00     0.096 A 
ATOM     21  N   UNL A   1      34.235  16.848  22.706  1.00  0.00    -0.084 NA
ATOM     22  O   UNL A   1      33.326  17.616  22.032  1.00  0.00    -0.361 OA
ATOM     23  C   UNL A   1      32.706  18.467  22.893  1.00  0.00     0.146 A 
ATOM     24  C   UNL A   1      31.883  19.464  22.185  1.00  0.00     0.092 C 
BRANCH  20  25
ATOM     25  C   UNL A   1      35.229  16.753  24.913  1.00  0.00     0.057 C 
ATOM     26  C   UNL A   1      35.128  15.240  25.112  1.00  0.00     0.011 C 
ENDBRANCH  20  25
ENDBRANCH  16  19
ENDBRANCH   9  15
ENDBRANCH   6   8
ENDBRANCH   5   6
ENDBRANCH   4   5
ENDBRANCH   3   4
ENDBRANCH   2   3
ENDBRANCH   1   2
BRANCH   1  27
ATOM     27  C   UNL A   1      40.751  20.020  26.248  1.00  0.00     0.188 C 
BRANCH  27  28
ATOM     28  O   UNL A   1      41.620  20.857  26.974  1.00  0.00    -0.376 OA
BRANCH  28  29
ATOM     29  C   UNL A   1      42.995  20.837  26.629  1.00  0.00     0.202 C 
BRANCH  29  30
ATOM     30  C   UNL A   1      43.470  21.503  25.322  1.00  0.00     0.261 C 
BRANCH  30  31
ATOM     31  O   UNL A   1      42.864  22.754  24.961  1.00  0.00    -0.460 OA
BRANCH  31  32
ATOM     32  C   UNL A   1      43.636  23.856  25.009  1.00  0.00     0.338 C 
ATOM     33  O   UNL A   1      44.634  24.089  24.328  1.00  0.00    -0.246 OA
BRANCH  32  34
ATOM     34  C   UNL A   1      42.985  24.849  25.884  1.00  0.00     0.060 A 
ATOM     35  C   UNL A   1      43.556  26.122  26.012  1.00  0.00     0.016 A 
ATOM     36  C   UNL A   1      41.826  24.523  26.594  1.00  0.00     0.016 A 
ATOM     37  C   UNL A   1      42.993  27.059  26.882  1.00  0.00     0.010 A 
ATOM     38  C   UNL A   1      41.275  25.455  27.480  1.00  0.00     0.010 A 
ATOM     39  C   UNL A   1      41.876  26.715  27.655  1.00  0.00    -0.014 A 
BRANCH  39  40
ATOM     40  C   UNL A   1      41.462  27.586  28.784  1.00  0.00     0.031 A 
ATOM     41  C   UNL A   1      42.228  27.489  30.078  1.00  0.00     0.074 A 
ATOM     42  C   UNL A   1      40.449  28.463  28.668  1.00  0.00     0.049 A 
ATOM     43  N   UNL A   1      42.029  28.113  31.211  1.00  0.00    -0.248 NA
ATOM     44  C   UNL A   1      43.372  26.562  30.094  1.00  0.00     0.031 C 
ATOM     45  C   UNL A   1      39.656  28.692  27.462  1.00  0.00     0.029 A 
ATOM     46  N   UNL A   1      39.911  29.324  29.594  1.00  0.00    -0.354 N 
ATOM     47  C   UNL A   1      43.017  27.651  32.072  1.00  0.00     0.074 A 
ATOM     48  C   UNL A   1      43.795  26.675  31.344  1.00  0.00     0.031 C 
ATOM     49  C   UNL A   1      38.725  29.626  27.725  1.00  0.00     0.029 A 
ATOM     50  C   UNL A   1      38.833  30.035  29.125  1.00  0.00     0.049 A 
ATOM     51  H   UNL A   1      40.265  29.422  30.507  1.00  0.00     0.167 HD
ATOM     52  C   UNL A   1      43.262  28.012  33.354  1.00  0.00     0.031 A 
ATOM     53  C   UNL A   1      38.015  30.898  29.760  1.00  0.00     0.031 A 
ATOM     54  C   UNL A   1      42.482  28.968  34.092  1.00  0.00     0.049 A 
ATOM     55  C   UNL A   1      38.256  31.217  31.213  1.00  0.00     0.074 A 
ATOM     56  C   UNL A   1      42.652  29.396  35.396  1.00  0.00     0.029 A 
ATOM     57  N   UNL A   1      41.379  29.639  33.588  1.00  0.00    -0.354 N 
ATOM     58  N   UNL A   1      39.206  30.789  32.010  1.00  0.00    -0.248 NA
ATOM     59  C   UNL A   1      37.314  32.147  31.854  1.00  0.00     0.031 C 
ATOM     60  C   UNL A   1      41.620  30.288  35.700  1.00  0.00     0.029 A 
ATOM     61  C   UNL A   1      40.846  30.464  34.564  1.00  0.00     0.049 A 
ATOM     62  H   UNL A   1      41.027  29.543  32.674  1.00  0.00     0.167 HD
ATOM     63  C   UNL A   1      38.996  31.425  33.228  1.00  0.00     0.074 A 
ATOM     64  C   UNL A   1      37.838  32.277  33.064  1.00  0.00     0.031 C 
ATOM     65  C   UNL A   1      39.701  31.316  34.383  1.00  0.00     0.031 A 
BRANCH  52  66
ATOM     66  C   UNL A   1      44.411  27.341  34.053  1.00  0.00    -0.014 A 
ATOM     67  C   UNL A   1      44.224  26.162  34.793  1.00  0.00     0.009 A 
ATOM     68  C   UNL A   1      45.703  27.874  33.939  1.00  0.00     0.009 A 
ATOM     69  C   UNL A   1      45.305  25.546  35.426  1.00  0.00     0.001 A 
ATOM     70  C   UNL A   1      46.788  27.241  34.550  1.00  0.00     0.001 A 
ATOM     71  C   UNL A   1      46.586  26.083  35.299  1.00  0.00     0.000 A 
ENDBRANCH  52  66
BRANCH  53  72
ATOM     72  C   UNL A   1      36.863  31.510  29.044  1.00  0.00    -0.014 A 
ATOM     73  C   UNL A   1      36.915  32.842  28.604  1.00  0.00     0.009 A 
ATOM     74  C   UNL A   1      35.683  30.778  28.842  1.00  0.00     0.009 A 
ATOM     75  C   UNL A   1      35.798  33.438  28.012  1.00  0.00     0.001 A 
ATOM     76  C   UNL A   1      34.579  31.365  28.222  1.00  0.00     0.001 A 
ATOM     77  C   UNL A   1      34.632  32.698  27.818  1.00  0.00     0.000 A 
ENDBRANCH  53  72
BRANCH  65  78
ATOM     78  C   UNL A   1      39.275  32.176  35.540  1.00  0.00    -0.014 A 
ATOM     79  C   UNL A   1      39.771  33.477  35.710  1.00  0.00     0.009 A 
ATOM     80  C   UNL A   1      38.322  31.688  36.449  1.00  0.00     0.009 A 
ATOM     81  C   UNL A   1      39.349  34.258  36.789  1.00  0.00     0.001 A 
ATOM     82  C   UNL A   1      37.879  32.481  37.508  1.00  0.00     0.001 A 
ATOM     83  C   UNL A   1      38.400  33.762  37.683  1.00  0.00     0.000 A 
ENDBRANCH  65  78
ENDBRANCH  39  40
ENDBRANCH  32  34
ENDBRANCH  31  32
ENDBRANCH  30  31
ENDBRANCH  29  30
ENDBRANCH  28  29
ENDBRANCH  27  28
ENDBRANCH   1  27
TORSDOF 20
ENDMDL
