MODEL 1
REMARK VINA RESULT:      -8.7      0.000      0.000
REMARK SMILES O=C(OCCOCCOCCOC(=O)[C@H]1CCCCN1c1cc(-c2ccccc2)nc(-c2cccc(Cl)c2)n1)c1ccc(-c2c3nc(c(-c4ccccc4)c4ccc([nH]4)c(-c4ccccc4)c4nc(c(-c5ccccc5)c5ccc2[nH]5)C=C4)C=C3)cc1
REMARK SMILES IDX 7 1 6 2 5 3 4 4 3 5 2 6 1 7 40 8 41 9 87 10 42 11 86 12
REMARK SMILES IDX 43 13 44 14 45 15 80 16 46 17 85 18 79 19 81 20 47 21 84 22
REMARK SMILES IDX 78 23 77 24 48 26 70 27 55 28 69 29 56 30 59 31 68 32 82 33
REMARK SMILES IDX 57 34 58 35 67 37 83 38 60 39 49 40 50 41 54 42 51 43 53 44
REMARK SMILES IDX 52 45 71 46 72 47 76 48 73 49 75 50 74 51 61 52 62 53 66 54
REMARK SMILES IDX 63 55 65 56 64 57 8 58 9 59 10 60 11 61 12 62 13 63 14 64
REMARK SMILES IDX 15 65 16 66 20 67 17 68 19 69 18 70 21 71 22 72 39 73 23 74
REMARK SMILES IDX 31 75 30 76 24 77 25 78 29 79 26 80 28 81 27 82 32 83 33 84
REMARK SMILES IDX 38 85 34 86 36 87 35 88 37 89
REMARK H PARENT 81 25 59 36
REMARK Flexibility Score: inf
ROOT
ATOM      1  C   UNL A   1      33.906  36.899  33.337  1.00  0.00     0.188 C 
ENDROOT
BRANCH   1   2
ATOM      2  O   UNL A   1      32.858  37.283  32.432  1.00  0.00    -0.376 OA
BRANCH   2   3
ATOM      3  C   UNL A   1      33.160  37.005  31.061  1.00  0.00     0.202 C 
BRANCH   3   4
ATOM      4  C   UNL A   1      32.344  35.885  30.391  1.00  0.00     0.261 C 
BRANCH   4   5
ATOM      5  O   UNL A   1      32.850  35.457  29.118  1.00  0.00    -0.460 OA
BRANCH   5   6
ATOM      6  C   UNL A   1      33.487  34.313  28.769  1.00  0.00     0.338 C 
ATOM      7  O   UNL A   1      32.912  33.558  27.985  1.00  0.00    -0.246 OA
BRANCH   6   8
ATOM      8  C   UNL A   1      34.825  33.878  29.290  1.00  0.00     0.060 A 
ATOM      9  C   UNL A   1      36.064  34.271  28.789  1.00  0.00     0.016 A 
ATOM     10  C   UNL A   1      34.822  33.014  30.407  1.00  0.00     0.016 A 
ATOM     11  C   UNL A   1      37.251  33.796  29.341  1.00  0.00     0.010 A 
ATOM     12  C   UNL A   1      36.010  32.542  30.979  1.00  0.00     0.010 A 
ATOM     13  C   UNL A   1      37.232  32.924  30.429  1.00  0.00    -0.014 A 
BRANCH  13  14
ATOM     14  C   UNL A   1      38.520  32.328  30.830  1.00  0.00     0.031 A 
ATOM     15  C   UNL A   1      39.004  31.154  30.047  1.00  0.00     0.074 A 
ATOM     16  C   UNL A   1      39.297  32.937  31.742  1.00  0.00     0.049 A 
ATOM     17  N   UNL A   1      40.148  30.533  30.122  1.00  0.00    -0.248 NA
ATOM     18  C   UNL A   1      38.067  30.593  29.058  1.00  0.00     0.031 C 
ATOM     19  C   UNL A   1      38.886  34.086  32.533  1.00  0.00     0.029 A 
ATOM     20  N   UNL A   1      40.603  32.739  32.105  1.00  0.00    -0.354 N 
ATOM     21  C   UNL A   1      40.040  29.463  29.248  1.00  0.00     0.074 A 
ATOM     22  C   UNL A   1      38.750  29.554  28.605  1.00  0.00     0.031 C 
ATOM     23  C   UNL A   1      39.952  34.595  33.168  1.00  0.00     0.029 A 
ATOM     24  C   UNL A   1      41.101  33.735  32.919  1.00  0.00     0.049 A 
ATOM     25  H   UNL A   1      41.132  31.962  31.814  1.00  0.00     0.167 HD
ATOM     26  C   UNL A   1      40.923  28.457  29.065  1.00  0.00     0.031 A 
ATOM     27  C   UNL A   1      42.346  33.903  33.410  1.00  0.00     0.031 A 
ATOM     28  C   UNL A   1      42.172  28.377  29.770  1.00  0.00     0.049 A 
ATOM     29  C   UNL A   1      43.327  32.786  33.157  1.00  0.00     0.074 A 
ATOM     30  C   UNL A   1      43.114  27.367  29.753  1.00  0.00     0.029 A 
ATOM     31  N   UNL A   1      42.644  29.357  30.636  1.00  0.00    -0.354 N 
ATOM     32  N   UNL A   1      43.201  31.737  32.377  1.00  0.00    -0.248 NA
ATOM     33  C   UNL A   1      44.590  32.831  33.907  1.00  0.00     0.031 C 
ATOM     34  C   UNL A   1      44.130  27.712  30.651  1.00  0.00     0.029 A 
ATOM     35  C   UNL A   1      43.856  28.968  31.173  1.00  0.00     0.049 A 
ATOM     36  H   UNL A   1      42.182  30.202  30.836  1.00  0.00     0.167 HD
ATOM     37  C   UNL A   1      44.341  30.974  32.578  1.00  0.00     0.074 A 
ATOM     38  C   UNL A   1      45.183  31.720  33.494  1.00  0.00     0.031 C 
ATOM     39  C   UNL A   1      44.651  29.747  32.090  1.00  0.00     0.031 A 
BRANCH  26  40
ATOM     40  C   UNL A   1      40.475  27.319  28.197  1.00  0.00    -0.014 A 
ATOM     41  C   UNL A   1      39.634  26.302  28.674  1.00  0.00     0.009 A 
ATOM     42  C   UNL A   1      40.970  27.232  26.886  1.00  0.00     0.009 A 
ATOM     43  C   UNL A   1      39.333  25.201  27.867  1.00  0.00     0.001 A 
ATOM     44  C   UNL A   1      40.645  26.147  26.073  1.00  0.00     0.001 A 
ATOM     45  C   UNL A   1      39.837  25.126  26.568  1.00  0.00     0.000 A 
ENDBRANCH  26  40
BRANCH  27  46
ATOM     46  C   UNL A   1      42.717  35.086  34.243  1.00  0.00    -0.014 A 
ATOM     47  C   UNL A   1      42.691  35.015  35.647  1.00  0.00     0.009 A 
ATOM     48  C   UNL A   1      43.064  36.312  33.651  1.00  0.00     0.009 A 
ATOM     49  C   UNL A   1      42.983  36.140  36.428  1.00  0.00     0.001 A 
ATOM     50  C   UNL A   1      43.402  37.422  34.431  1.00  0.00     0.001 A 
ATOM     51  C   UNL A   1      43.349  37.339  35.820  1.00  0.00     0.000 A 
ENDBRANCH  27  46
BRANCH  39  52
ATOM     52  C   UNL A   1      45.949  29.148  32.546  1.00  0.00    -0.014 A 
ATOM     53  C   UNL A   1      46.036  28.458  33.765  1.00  0.00     0.009 A 
ATOM     54  C   UNL A   1      47.076  29.220  31.715  1.00  0.00     0.009 A 
ATOM     55  C   UNL A   1      47.241  27.872  34.155  1.00  0.00     0.001 A 
ATOM     56  C   UNL A   1      48.269  28.606  32.093  1.00  0.00     0.001 A 
ATOM     57  C   UNL A   1      48.353  27.940  33.316  1.00  0.00     0.000 A 
ENDBRANCH  39  52
ENDBRANCH  13  14
ENDBRANCH   6   8
ENDBRANCH   5   6
ENDBRANCH   4   5
ENDBRANCH   3   4
ENDBRANCH   2   3
ENDBRANCH   1   2
BRANCH   1  58
ATOM     58  C   UNL A   1      34.825  35.812  32.775  1.00  0.00     0.188 C 
BRANCH  58  59
ATOM     59  O   UNL A   1      35.799  35.269  33.667  1.00  0.00    -0.376 OA
BRANCH  59  60
ATOM     60  C   UNL A   1      35.445  34.113  34.415  1.00  0.00     0.202 C 
BRANCH  60  61
ATOM     61  C   UNL A   1      36.569  33.422  35.188  1.00  0.00     0.261 C 
BRANCH  61  62
ATOM     62  O   UNL A   1      36.435  33.556  36.606  1.00  0.00    -0.462 OA
BRANCH  62  63
ATOM     63  C   UNL A   1      37.568  33.378  37.348  1.00  0.00     0.328 C 
ATOM     64  O   UNL A   1      37.586  32.952  38.491  1.00  0.00    -0.250 OA
BRANCH  63  65
ATOM     65  C   UNL A   1      38.831  33.836  36.582  1.00  0.00     0.193 C 
ATOM     66  C   UNL A   1      39.082  35.341  36.574  1.00  0.00     0.037 C 
ATOM     67  N   UNL A   1      40.036  33.224  37.155  1.00  0.00    -0.343 N 
ATOM     68  C   UNL A   1      39.534  35.892  37.933  1.00  0.00     0.005 C 
ATOM     69  C   UNL A   1      40.307  33.512  38.550  1.00  0.00     0.119 C 
ATOM     70  C   UNL A   1      40.538  35.016  38.691  1.00  0.00     0.022 C 
BRANCH  67  71
ATOM     71  C   UNL A   1      40.476  32.072  36.551  1.00  0.00     0.134 A 
ATOM     72  C   UNL A   1      39.730  31.452  35.579  1.00  0.00     0.076 A 
ATOM     73  N   UNL A   1      41.683  31.610  36.911  1.00  0.00    -0.211 NA
ATOM     74  C   UNL A   1      40.278  30.340  34.975  1.00  0.00     0.076 A 
ATOM     75  C   UNL A   1      42.133  30.506  36.289  1.00  0.00     0.162 A 
ATOM     76  N   UNL A   1      41.479  29.841  35.323  1.00  0.00    -0.228 NA
BRANCH  74  77
ATOM     77  C   UNL A   1      39.550  29.648  33.911  1.00  0.00     0.000 A 
ATOM     78  C   UNL A   1      40.141  28.586  33.212  1.00  0.00     0.010 A 
ATOM     79  C   UNL A   1      38.215  29.981  33.623  1.00  0.00     0.010 A 
ATOM     80  C   UNL A   1      39.407  27.855  32.276  1.00  0.00     0.001 A 
ATOM     81  C   UNL A   1      37.485  29.258  32.681  1.00  0.00     0.001 A 
ATOM     82  C   UNL A   1      38.078  28.189  32.014  1.00  0.00     0.000 A 
ENDBRANCH  74  77
BRANCH  75  83
ATOM     83  C   UNL A   1      43.446  29.993  36.699  1.00  0.00     0.021 A 
ATOM     84  C   UNL A   1      44.496  30.868  37.033  1.00  0.00     0.012 A 
ATOM     85  C   UNL A   1      43.694  28.611  36.763  1.00  0.00     0.032 A 
ATOM     86  C   UNL A   1      45.745  30.384  37.435  1.00  0.00     0.002 A 
ATOM     87  C   UNL A   1      44.948  28.130  37.142  1.00  0.00     0.041 A 
ATOM     88  C   UNL A   1      45.972  29.010  37.486  1.00  0.00     0.020 A 
ATOM     89  Cl  UNL A   1      45.237  26.434  37.178  1.00  0.00    -0.084 Cl
ENDBRANCH  75  83
ENDBRANCH  67  71
ENDBRANCH  63  65
ENDBRANCH  62  63
ENDBRANCH  61  62
ENDBRANCH  60  61
ENDBRANCH  59  60
ENDBRANCH  58  59
ENDBRANCH   1  58
TORSDOF 20
ENDMDL
MODEL 2
REMARK VINA RESULT:      -6.5      4.322      8.805
REMARK SMILES O=C(OCCOCCOCCOC(=O)[C@H]1CCCCN1c1cc(-c2ccccc2)nc(-c2cccc(Cl)c2)n1)c1ccc(-c2c3nc(c(-c4ccccc4)c4ccc([nH]4)c(-c4ccccc4)c4nc(c(-c5ccccc5)c5ccc2[nH]5)C=C4)C=C3)cc1
REMARK SMILES IDX 7 1 6 2 5 3 4 4 3 5 2 6 1 7 40 8 41 9 87 10 42 11 86 12
REMARK SMILES IDX 43 13 44 14 45 15 80 16 46 17 85 18 79 19 81 20 47 21 84 22
REMARK SMILES IDX 78 23 77 24 48 26 70 27 55 28 69 29 56 30 59 31 68 32 82 33
REMARK SMILES IDX 57 34 58 35 67 37 83 38 60 39 49 40 50 41 54 42 51 43 53 44
REMARK SMILES IDX 52 45 71 46 72 47 76 48 73 49 75 50 74 51 61 52 62 53 66 54
REMARK SMILES IDX 63 55 65 56 64 57 8 58 9 59 10 60 11 61 12 62 13 63 14 64
REMARK SMILES IDX 15 65 16 66 20 67 17 68 19 69 18 70 21 71 22 72 39 73 23 74
REMARK SMILES IDX 31 75 30 76 24 77 25 78 29 79 26 80 28 81 27 82 32 83 33 84
REMARK SMILES IDX 38 85 34 86 36 87 35 88 37 89
REMARK H PARENT 81 25 59 36
REMARK Flexibility Score: inf
ROOT
ATOM      1  C   UNL A   1      35.227  32.967  32.082  1.00  0.00     0.188 C 
ENDROOT
BRANCH   1   2
ATOM      2  O   UNL A   1      36.511  32.537  32.563  1.00  0.00    -0.376 OA
BRANCH   2   3
ATOM      3  C   UNL A   1      36.656  32.654  33.982  1.00  0.00     0.202 C 
BRANCH   3   4
ATOM      4  C   UNL A   1      37.615  33.745  34.488  1.00  0.00     0.261 C 
BRANCH   4   5
ATOM      5  O   UNL A   1      38.708  34.036  33.604  1.00  0.00    -0.460 OA
BRANCH   5   6
ATOM      6  C   UNL A   1      40.030  34.176  33.863  1.00  0.00     0.338 C 
ATOM      7  O   UNL A   1      40.353  34.907  34.800  1.00  0.00    -0.246 OA
BRANCH   6   8
ATOM      8  C   UNL A   1      41.136  33.536  33.076  1.00  0.00     0.060 A 
ATOM      9  C   UNL A   1      41.143  33.328  31.698  1.00  0.00     0.016 A 
ATOM     10  C   UNL A   1      42.282  33.136  33.797  1.00  0.00     0.016 A 
ATOM     11  C   UNL A   1      42.219  32.711  31.066  1.00  0.00     0.010 A 
ATOM     12  C   UNL A   1      43.376  32.528  33.168  1.00  0.00     0.010 A 
ATOM     13  C   UNL A   1      43.334  32.300  31.795  1.00  0.00    -0.014 A 
BRANCH  13  14
ATOM     14  C   UNL A   1      44.340  31.493  31.079  1.00  0.00     0.031 A 
ATOM     15  C   UNL A   1      45.448  32.225  30.399  1.00  0.00     0.074 A 
ATOM     16  C   UNL A   1      44.346  30.154  31.196  1.00  0.00     0.049 A 
ATOM     17  N   UNL A   1      46.508  31.746  29.812  1.00  0.00    -0.248 NA
ATOM     18  C   UNL A   1      45.337  33.694  30.360  1.00  0.00     0.031 C 
ATOM     19  C   UNL A   1      43.301  29.383  31.850  1.00  0.00     0.029 A 
ATOM     20  N   UNL A   1      45.280  29.213  30.849  1.00  0.00    -0.354 N 
ATOM     21  C   UNL A   1      47.151  32.847  29.266  1.00  0.00     0.074 A 
ATOM     22  C   UNL A   1      46.402  34.021  29.647  1.00  0.00     0.031 C 
ATOM     23  C   UNL A   1      43.711  28.116  32.005  1.00  0.00     0.029 A 
ATOM     24  C   UNL A   1      45.006  27.959  31.355  1.00  0.00     0.049 A 
ATOM     25  H   UNL A   1      46.067  29.413  30.294  1.00  0.00     0.167 HD
ATOM     26  C   UNL A   1      48.233  32.851  28.457  1.00  0.00     0.031 A 
ATOM     27  C   UNL A   1      45.727  26.823  31.275  1.00  0.00     0.031 A 
ATOM     28  C   UNL A   1      48.914  31.650  28.058  1.00  0.00     0.049 A 
ATOM     29  C   UNL A   1      46.955  26.863  30.400  1.00  0.00     0.074 A 
ATOM     30  C   UNL A   1      49.960  31.502  27.168  1.00  0.00     0.029 A 
ATOM     31  N   UNL A   1      48.597  30.381  28.526  1.00  0.00    -0.354 N 
ATOM     32  N   UNL A   1      47.529  27.898  29.830  1.00  0.00    -0.248 NA
ATOM     33  C   UNL A   1      47.590  25.575  30.091  1.00  0.00     0.031 C 
ATOM     34  C   UNL A   1      50.239  30.136  27.058  1.00  0.00     0.029 A 
ATOM     35  C   UNL A   1      49.415  29.440  27.930  1.00  0.00     0.049 A 
ATOM     36  H   UNL A   1      47.892  30.182  29.184  1.00  0.00     0.167 HD
ATOM     37  C   UNL A   1      48.560  27.384  29.059  1.00  0.00     0.074 A 
ATOM     38  C   UNL A   1      48.581  25.952  29.295  1.00  0.00     0.031 C 
ATOM     39  C   UNL A   1      49.388  28.023  28.195  1.00  0.00     0.031 A 
BRANCH  26  40
ATOM     40  C   UNL A   1      48.613  34.169  27.850  1.00  0.00    -0.014 A 
ATOM     41  C   UNL A   1      49.487  35.061  28.488  1.00  0.00     0.009 A 
ATOM     42  C   UNL A   1      48.018  34.551  26.637  1.00  0.00     0.009 A 
ATOM     43  C   UNL A   1      49.724  36.326  27.943  1.00  0.00     0.001 A 
ATOM     44  C   UNL A   1      48.279  35.802  26.079  1.00  0.00     0.001 A 
ATOM     45  C   UNL A   1      49.122  36.694  26.739  1.00  0.00     0.000 A 
ENDBRANCH  26  40
BRANCH  27  46
ATOM     46  C   UNL A   1      45.290  25.558  31.939  1.00  0.00    -0.014 A 
ATOM     47  C   UNL A   1      44.531  24.603  31.239  1.00  0.00     0.009 A 
ATOM     48  C   UNL A   1      45.590  25.303  33.287  1.00  0.00     0.009 A 
ATOM     49  C   UNL A   1      44.073  23.443  31.877  1.00  0.00     0.001 A 
ATOM     50  C   UNL A   1      45.172  24.123  33.910  1.00  0.00     0.001 A 
ATOM     51  C   UNL A   1      44.402  23.199  33.208  1.00  0.00     0.000 A 
ENDBRANCH  27  46
BRANCH  39  52
ATOM     52  C   UNL A   1      50.374  27.171  27.451  1.00  0.00    -0.014 A 
ATOM     53  C   UNL A   1      51.595  26.801  28.037  1.00  0.00     0.009 A 
ATOM     54  C   UNL A   1      50.046  26.681  26.179  1.00  0.00     0.009 A 
ATOM     55  C   UNL A   1      52.482  25.974  27.347  1.00  0.00     0.001 A 
ATOM     56  C   UNL A   1      50.921  25.830  25.506  1.00  0.00     0.001 A 
ATOM     57  C   UNL A   1      52.141  25.484  26.086  1.00  0.00     0.000 A 
ENDBRANCH  39  52
ENDBRANCH  13  14
ENDBRANCH   6   8
ENDBRANCH   5   6
ENDBRANCH   4   5
ENDBRANCH   3   4
ENDBRANCH   2   3
ENDBRANCH   1   2
BRANCH   1  58
ATOM     58  C   UNL A   1      35.307  33.812  30.808  1.00  0.00     0.188 C 
BRANCH  58  59
ATOM     59  O   UNL A   1      34.706  33.265  29.634  1.00  0.00    -0.376 OA
BRANCH  59  60
ATOM     60  C   UNL A   1      35.081  31.950  29.245  1.00  0.00     0.202 C 
BRANCH  60  61
ATOM     61  C   UNL A   1      36.532  31.748  28.807  1.00  0.00     0.261 C 
BRANCH  61  62
ATOM     62  O   UNL A   1      37.167  30.651  29.467  1.00  0.00    -0.462 OA
BRANCH  62  63
ATOM     63  C   UNL A   1      38.330  30.194  28.917  1.00  0.00     0.328 C 
ATOM     64  O   UNL A   1      38.464  29.878  27.746  1.00  0.00    -0.250 OA
BRANCH  63  65
ATOM     65  C   UNL A   1      39.453  30.072  29.974  1.00  0.00     0.193 C 
ATOM     66  C   UNL A   1      39.036  30.376  31.409  1.00  0.00     0.037 C 
ATOM     67  N   UNL A   1      40.006  28.713  29.989  1.00  0.00    -0.343 N 
ATOM     68  C   UNL A   1      38.141  29.294  32.029  1.00  0.00     0.005 C 
ATOM     69  C   UNL A   1      39.078  27.640  30.288  1.00  0.00     0.119 C 
ATOM     70  C   UNL A   1      38.545  27.851  31.705  1.00  0.00     0.022 C 
BRANCH  67  71
ATOM     71  C   UNL A   1      41.134  28.509  29.232  1.00  0.00     0.134 A 
ATOM     72  C   UNL A   1      41.849  29.567  28.727  1.00  0.00     0.076 A 
ATOM     73  N   UNL A   1      41.534  27.241  29.053  1.00  0.00    -0.211 NA
ATOM     74  C   UNL A   1      43.007  29.275  28.038  1.00  0.00     0.076 A 
ATOM     75  C   UNL A   1      42.663  27.043  28.348  1.00  0.00     0.162 A 
ATOM     76  N   UNL A   1      43.430  28.015  27.826  1.00  0.00    -0.228 NA
BRANCH  74  77
ATOM     77  C   UNL A   1      43.832  30.356  27.498  1.00  0.00     0.000 A 
ATOM     78  C   UNL A   1      45.058  30.079  26.876  1.00  0.00     0.010 A 
ATOM     79  C   UNL A   1      43.376  31.685  27.520  1.00  0.00     0.010 A 
ATOM     80  C   UNL A   1      45.790  31.097  26.263  1.00  0.00     0.001 A 
ATOM     81  C   UNL A   1      44.112  32.704  26.916  1.00  0.00     0.001 A 
ATOM     82  C   UNL A   1      45.315  32.408  26.280  1.00  0.00     0.000 A 
ENDBRANCH  74  77
BRANCH  75  83
ATOM     83  C   UNL A   1      43.088  25.654  28.139  1.00  0.00     0.021 A 
ATOM     84  C   UNL A   1      42.209  24.581  28.375  1.00  0.00     0.012 A 
ATOM     85  C   UNL A   1      44.390  25.355  27.702  1.00  0.00     0.032 A 
ATOM     86  C   UNL A   1      42.606  23.257  28.166  1.00  0.00     0.002 A 
ATOM     87  C   UNL A   1      44.792  24.033  27.516  1.00  0.00     0.041 A 
ATOM     88  C   UNL A   1      43.904  22.982  27.738  1.00  0.00     0.020 A 
ATOM     89  Cl  UNL A   1      46.403  23.691  27.015  1.00  0.00    -0.084 Cl
ENDBRANCH  75  83
ENDBRANCH  67  71
ENDBRANCH  63  65
ENDBRANCH  62  63
ENDBRANCH  61  62
ENDBRANCH  60  61
ENDBRANCH  59  60
ENDBRANCH  58  59
ENDBRANCH   1  58
TORSDOF 20
ENDMDL
MODEL 3
REMARK VINA RESULT:      -6.4      7.554     12.708
REMARK SMILES O=C(OCCOCCOCCOC(=O)[C@H]1CCCCN1c1cc(-c2ccccc2)nc(-c2cccc(Cl)c2)n1)c1ccc(-c2c3nc(c(-c4ccccc4)c4ccc([nH]4)c(-c4ccccc4)c4nc(c(-c5ccccc5)c5ccc2[nH]5)C=C4)C=C3)cc1
REMARK SMILES IDX 7 1 6 2 5 3 4 4 3 5 2 6 1 7 40 8 41 9 87 10 42 11 86 12
REMARK SMILES IDX 43 13 44 14 45 15 80 16 46 17 85 18 79 19 81 20 47 21 84 22
REMARK SMILES IDX 78 23 77 24 48 26 70 27 55 28 69 29 56 30 59 31 68 32 82 33
REMARK SMILES IDX 57 34 58 35 67 37 83 38 60 39 49 40 50 41 54 42 51 43 53 44
REMARK SMILES IDX 52 45 71 46 72 47 76 48 73 49 75 50 74 51 61 52 62 53 66 54
REMARK SMILES IDX 63 55 65 56 64 57 8 58 9 59 10 60 11 61 12 62 13 63 14 64
REMARK SMILES IDX 15 65 16 66 20 67 17 68 19 69 18 70 21 71 22 72 39 73 23 74
REMARK SMILES IDX 31 75 30 76 24 77 25 78 29 79 26 80 28 81 27 82 32 83 33 84
REMARK SMILES IDX 38 85 34 86 36 87 35 88 37 89
REMARK H PARENT 81 25 59 36
REMARK Flexibility Score: inf
ROOT
ATOM      1  C   UNL A   1      51.857  23.169  33.118  1.00  0.00     0.188 C 
ENDROOT
BRANCH   1   2
ATOM      2  O   UNL A   1      50.527  23.342  32.605  1.00  0.00    -0.376 OA
BRANCH   2   3
ATOM      3  C   UNL A   1      50.031  24.678  32.745  1.00  0.00     0.202 C 
BRANCH   3   4
ATOM      4  C   UNL A   1      49.448  25.054  34.119  1.00  0.00     0.261 C 
BRANCH   4   5
ATOM      5  O   UNL A   1      48.100  25.545  34.081  1.00  0.00    -0.460 OA
BRANCH   5   6
ATOM      6  C   UNL A   1      47.498  26.508  34.819  1.00  0.00     0.338 C 
ATOM      7  O   UNL A   1      47.941  26.721  35.948  1.00  0.00    -0.246 OA
BRANCH   6   8
ATOM      8  C   UNL A   1      46.309  27.313  34.382  1.00  0.00     0.060 A 
ATOM      9  C   UNL A   1      44.990  27.108  34.783  1.00  0.00     0.016 A 
ATOM     10  C   UNL A   1      46.559  28.393  33.507  1.00  0.00     0.016 A 
ATOM     11  C   UNL A   1      43.956  27.907  34.305  1.00  0.00     0.010 A 
ATOM     12  C   UNL A   1      45.528  29.213  33.032  1.00  0.00     0.010 A 
ATOM     13  C   UNL A   1      44.216  28.956  33.423  1.00  0.00    -0.014 A 
BRANCH  13  14
ATOM     14  C   UNL A   1      43.048  29.631  32.826  1.00  0.00     0.031 A 
ATOM     15  C   UNL A   1      42.324  28.912  31.738  1.00  0.00     0.074 A 
ATOM     16  C   UNL A   1      42.562  30.759  33.371  1.00  0.00     0.049 A 
ATOM     17  N   UNL A   1      41.211  29.234  31.142  1.00  0.00    -0.248 NA
ATOM     18  C   UNL A   1      42.946  27.671  31.243  1.00  0.00     0.031 C 
ATOM     19  C   UNL A   1      43.217  31.503  34.435  1.00  0.00     0.029 A 
ATOM     20  N   UNL A   1      41.387  31.434  33.174  1.00  0.00    -0.354 N 
ATOM     21  C   UNL A   1      41.039  28.280  30.150  1.00  0.00     0.074 A 
ATOM     22  C   UNL A   1      42.122  27.332  30.266  1.00  0.00     0.031 C 
ATOM     23  C   UNL A   1      42.376  32.433  34.912  1.00  0.00     0.029 A 
ATOM     24  C   UNL A   1      41.163  32.426  34.106  1.00  0.00     0.049 A 
ATOM     25  H   UNL A   1      40.765  31.231  32.439  1.00  0.00     0.167 HD
ATOM     26  C   UNL A   1      40.092  28.255  29.186  1.00  0.00     0.031 A 
ATOM     27  C   UNL A   1      40.096  33.236  34.261  1.00  0.00     0.031 A 
ATOM     28  C   UNL A   1      39.065  29.254  29.075  1.00  0.00     0.049 A 
ATOM     29  C   UNL A   1      39.031  33.161  33.196  1.00  0.00     0.074 A 
ATOM     30  C   UNL A   1      38.104  29.404  28.094  1.00  0.00     0.029 A 
ATOM     31  N   UNL A   1      38.879  30.287  29.986  1.00  0.00    -0.354 N 
ATOM     32  N   UNL A   1      38.903  32.295  32.216  1.00  0.00    -0.248 NA
ATOM     33  C   UNL A   1      38.009  34.216  33.206  1.00  0.00     0.031 C 
ATOM     34  C   UNL A   1      37.372  30.560  28.384  1.00  0.00     0.029 A 
ATOM     35  C   UNL A   1      37.830  31.089  29.582  1.00  0.00     0.049 A 
ATOM     36  H   UNL A   1      39.416  30.426  30.799  1.00  0.00     0.167 HD
ATOM     37  C   UNL A   1      37.819  32.726  31.467  1.00  0.00     0.074 A 
ATOM     38  C   UNL A   1      37.277  33.886  32.150  1.00  0.00     0.031 C 
ATOM     39  C   UNL A   1      37.336  32.241  30.296  1.00  0.00     0.031 A 
BRANCH  26  40
ATOM     40  C   UNL A   1      40.248  27.214  28.119  1.00  0.00    -0.014 A 
ATOM     41  C   UNL A   1      41.019  27.433  26.967  1.00  0.00     0.009 A 
ATOM     42  C   UNL A   1      39.540  26.007  28.243  1.00  0.00     0.009 A 
ATOM     43  C   UNL A   1      41.045  26.481  25.945  1.00  0.00     0.001 A 
ATOM     44  C   UNL A   1      39.591  25.045  27.234  1.00  0.00     0.001 A 
ATOM     45  C   UNL A   1      40.332  25.288  26.080  1.00  0.00     0.000 A 
ENDBRANCH  26  40
BRANCH  27  46
ATOM     46  C   UNL A   1      40.009  34.227  35.375  1.00  0.00    -0.014 A 
ATOM     47  C   UNL A   1      40.669  35.466  35.290  1.00  0.00     0.009 A 
ATOM     48  C   UNL A   1      39.299  33.938  36.552  1.00  0.00     0.009 A 
ATOM     49  C   UNL A   1      40.634  36.373  36.357  1.00  0.00     0.001 A 
ATOM     50  C   UNL A   1      39.226  34.863  37.598  1.00  0.00     0.001 A 
ATOM     51  C   UNL A   1      39.904  36.075  37.505  1.00  0.00     0.000 A 
ENDBRANCH  27  46
BRANCH  39  52
ATOM     52  C   UNL A   1      36.173  32.972  29.692  1.00  0.00    -0.014 A 
ATOM     53  C   UNL A   1      34.949  33.069  30.374  1.00  0.00     0.009 A 
ATOM     54  C   UNL A   1      36.327  33.623  28.461  1.00  0.00     0.009 A 
ATOM     55  C   UNL A   1      33.891  33.787  29.816  1.00  0.00     0.001 A 
ATOM     56  C   UNL A   1      35.278  34.366  27.921  1.00  0.00     0.001 A 
ATOM     57  C   UNL A   1      34.059  34.440  28.595  1.00  0.00     0.000 A 
ENDBRANCH  39  52
ENDBRANCH  13  14
ENDBRANCH   6   8
ENDBRANCH   5   6
ENDBRANCH   4   5
ENDBRANCH   3   4
ENDBRANCH   2   3
ENDBRANCH   1   2
BRANCH   1  58
ATOM     58  C   UNL A   1      52.570  21.938  32.554  1.00  0.00     0.188 C 
BRANCH  58  59
ATOM     59  O   UNL A   1      52.696  20.813  33.424  1.00  0.00    -0.376 OA
BRANCH  59  60
ATOM     60  C   UNL A   1      51.860  20.762  34.573  1.00  0.00     0.202 C 
BRANCH  60  61
ATOM     61  C   UNL A   1      50.823  19.640  34.623  1.00  0.00     0.261 C 
BRANCH  61  62
ATOM     62  O   UNL A   1      49.753  19.909  35.532  1.00  0.00    -0.462 OA
BRANCH  62  63
ATOM     63  C   UNL A   1      48.634  20.489  35.008  1.00  0.00     0.328 C 
ATOM     64  O   UNL A   1      48.351  20.499  33.821  1.00  0.00    -0.250 OA
BRANCH  63  65
ATOM     65  C   UNL A   1      47.787  21.186  36.099  1.00  0.00     0.193 C 
ATOM     66  C   UNL A   1      47.169  22.521  35.694  1.00  0.00     0.037 C 
ATOM     67  N   UNL A   1      46.671  20.329  36.516  1.00  0.00    -0.343 N 
ATOM     68  C   UNL A   1      46.018  22.381  34.689  1.00  0.00     0.005 C 
ATOM     69  C   UNL A   1      45.728  19.946  35.482  1.00  0.00     0.119 C 
ATOM     70  C   UNL A   1      45.059  21.214  34.953  1.00  0.00     0.022 C 
BRANCH  67  71
ATOM     71  C   UNL A   1      46.886  19.553  37.628  1.00  0.00     0.134 A 
ATOM     72  C   UNL A   1      48.064  19.630  38.329  1.00  0.00     0.076 A 
ATOM     73  N   UNL A   1      45.880  18.761  38.029  1.00  0.00    -0.211 NA
ATOM     74  C   UNL A   1      48.169  18.869  39.474  1.00  0.00     0.076 A 
ATOM     75  C   UNL A   1      46.074  18.033  39.143  1.00  0.00     0.162 A 
ATOM     76  N   UNL A   1      47.187  18.051  39.896  1.00  0.00    -0.228 NA
BRANCH  74  77
ATOM     77  C   UNL A   1      49.386  18.925  40.284  1.00  0.00     0.000 A 
ATOM     78  C   UNL A   1      49.442  19.719  41.438  1.00  0.00     0.010 A 
ATOM     79  C   UNL A   1      50.495  18.121  39.967  1.00  0.00     0.010 A 
ATOM     80  C   UNL A   1      50.563  19.685  42.271  1.00  0.00     0.001 A 
ATOM     81  C   UNL A   1      51.618  18.095  40.793  1.00  0.00     0.001 A 
ATOM     82  C   UNL A   1      51.648  18.870  41.950  1.00  0.00     0.000 A 
ENDBRANCH  74  77
BRANCH  75  83
ATOM     83  C   UNL A   1      44.979  17.153  39.569  1.00  0.00     0.021 A 
ATOM     84  C   UNL A   1      44.188  16.469  38.628  1.00  0.00     0.012 A 
ATOM     85  C   UNL A   1      44.685  16.973  40.932  1.00  0.00     0.032 A 
ATOM     86  C   UNL A   1      43.151  15.621  39.029  1.00  0.00     0.002 A 
ATOM     87  C   UNL A   1      43.636  16.144  41.330  1.00  0.00     0.041 A 
ATOM     88  C   UNL A   1      42.873  15.461  40.385  1.00  0.00     0.020 A 
ATOM     89  Cl  UNL A   1      43.273  15.968  43.003  1.00  0.00    -0.084 Cl
ENDBRANCH  75  83
ENDBRANCH  67  71
ENDBRANCH  63  65
ENDBRANCH  62  63
ENDBRANCH  61  62
ENDBRANCH  60  61
ENDBRANCH  59  60
ENDBRANCH  58  59
ENDBRANCH   1  58
TORSDOF 20
ENDMDL
