MODEL 1
REMARK VINA RESULT:      -9.9      0.000      0.000
REMARK SMILES CO[C@@H]1C[C@@H](C(=O)OCCOCCOCCOC(=O)c2ccc(-c3c4nc(c(-c5ccccc5)c5ccc([nH]5)c(-c5ccccc5)c5nc(c(-c6ccccc6)c6ccc3[nH]6)C=C5)C=C4)cc2)N(S(=O)(=O)/C=C/c2ccccc2)C1
REMARK SMILES IDX 12 1 11 2 10 3 9 4 8 5 6 6 7 7 5 8 3 9 4 10 80 11 68 12 2 13
REMARK SMILES IDX 1 14 69 15 70 16 71 17 72 18 73 19 74 20 75 21 79 22 76 23
REMARK SMILES IDX 78 24 77 25 13 26 14 27 15 28 16 29 17 30 18 31 19 32 20 33
REMARK SMILES IDX 21 34 67 35 22 36 66 37 23 38 24 39 25 40 60 41 26 42 65 43
REMARK SMILES IDX 59 44 61 45 27 46 64 47 58 48 57 49 28 51 50 52 35 53 49 54
REMARK SMILES IDX 36 55 39 56 48 57 62 58 37 59 38 60 47 62 63 63 40 64 29 65
REMARK SMILES IDX 30 66 34 67 31 68 33 69 32 70 51 71 52 72 56 73 53 74 55 75
REMARK SMILES IDX 54 76 41 77 42 78 46 79 43 80 45 81 44 82
REMARK H PARENT 61 50 39 61
REMARK Flexibility Score: inf
ROOT
ATOM      1  C   UNL A   1      33.022  28.725  24.226  1.00  0.00     0.188 C 
ENDROOT
BRANCH   1   2
ATOM      2  O   UNL A   1      33.669  27.519  23.843  1.00  0.00    -0.376 OA
BRANCH   2   3
ATOM      3  C   UNL A   1      33.201  26.941  22.632  1.00  0.00     0.202 C 
BRANCH   3   4
ATOM      4  C   UNL A   1      33.680  25.507  22.413  1.00  0.00     0.261 C 
BRANCH   4   5
ATOM      5  O   UNL A   1      32.592  24.578  22.229  1.00  0.00    -0.462 OA
BRANCH   5   6
ATOM      6  C   UNL A   1      32.692  23.361  22.815  1.00  0.00     0.324 C 
ATOM      7  O   UNL A   1      32.210  22.337  22.342  1.00  0.00    -0.250 OA
BRANCH   6   8
ATOM      8  C   UNL A   1      33.408  23.401  24.149  1.00  0.00     0.185 C 
ATOM      9  C   UNL A   1      34.049  22.269  26.208  1.00  0.00     0.135 C 
ATOM     10  C   UNL A   1      33.764  22.034  24.734  1.00  0.00     0.065 C 
ATOM     11  C   UNL A   1      33.794  23.764  26.442  1.00  0.00     0.135 C 
ATOM     12  N   UNL A   1      32.935  24.242  25.295  1.00  0.00    -0.181 NA
BRANCH   9  13
ATOM     13  O   UNL A   1      35.409  21.925  26.464  1.00  0.00    -0.380 OA
ATOM     14  C   UNL A   1      36.042  21.342  25.331  1.00  0.00     0.195 C 
ENDBRANCH   9  13
BRANCH  12  15
ATOM     15  S   UNL A   1      31.297  24.310  25.748  1.00  0.00     0.237 S 
ATOM     16  O   UNL A   1      30.684  23.162  25.107  1.00  0.00    -0.207 OA
ATOM     17  O   UNL A   1      31.290  24.377  27.197  1.00  0.00    -0.207 OA
BRANCH  15  18
ATOM     18  C   UNL A   1      30.471  25.709  25.185  1.00  0.00     0.123 C 
ATOM     19  C   UNL A   1      29.884  25.827  23.987  1.00  0.00     0.021 C 
BRANCH  19  20
ATOM     20  C   UNL A   1      29.075  27.026  23.701  1.00  0.00    -0.025 A 
ATOM     21  C   UNL A   1      29.696  28.157  23.152  1.00  0.00     0.008 A 
ATOM     22  C   UNL A   1      27.683  27.047  23.873  1.00  0.00     0.008 A 
ATOM     23  C   UNL A   1      28.941  29.244  22.703  1.00  0.00     0.001 A 
ATOM     24  C   UNL A   1      26.930  28.144  23.444  1.00  0.00     0.001 A 
ATOM     25  C   UNL A   1      27.556  29.234  22.842  1.00  0.00     0.000 A 
ENDBRANCH  19  20
ENDBRANCH  15  18
ENDBRANCH  12  15
ENDBRANCH   6   8
ENDBRANCH   5   6
ENDBRANCH   4   5
ENDBRANCH   3   4
ENDBRANCH   2   3
ENDBRANCH   1   2
BRANCH   1  26
ATOM     26  C   UNL A   1      32.467  28.721  25.659  1.00  0.00     0.188 C 
BRANCH  26  27
ATOM     27  O   UNL A   1      31.656  29.806  26.083  1.00  0.00    -0.376 OA
BRANCH  27  28
ATOM     28  C   UNL A   1      32.280  30.837  26.838  1.00  0.00     0.202 C 
BRANCH  28  29
ATOM     29  C   UNL A   1      33.555  30.460  27.599  1.00  0.00     0.261 C 
BRANCH  29  30
ATOM     30  O   UNL A   1      34.391  31.591  27.920  1.00  0.00    -0.460 OA
BRANCH  30  31
ATOM     31  C   UNL A   1      35.063  31.505  29.091  1.00  0.00     0.338 C 
ATOM     32  O   UNL A   1      34.764  32.025  30.158  1.00  0.00    -0.246 OA
BRANCH  31  33
ATOM     33  C   UNL A   1      36.202  30.575  28.974  1.00  0.00     0.060 A 
ATOM     34  C   UNL A   1      36.664  29.931  30.130  1.00  0.00     0.016 A 
ATOM     35  C   UNL A   1      36.910  30.462  27.777  1.00  0.00     0.016 A 
ATOM     36  C   UNL A   1      37.853  29.199  30.103  1.00  0.00     0.010 A 
ATOM     37  C   UNL A   1      38.117  29.749  27.757  1.00  0.00     0.010 A 
ATOM     38  C   UNL A   1      38.612  29.145  28.929  1.00  0.00    -0.014 A 
BRANCH  38  39
ATOM     39  C   UNL A   1      40.005  28.631  28.970  1.00  0.00     0.031 A 
ATOM     40  C   UNL A   1      41.115  29.572  29.353  1.00  0.00     0.074 A 
ATOM     41  C   UNL A   1      40.291  27.345  28.694  1.00  0.00     0.049 A 
ATOM     42  N   UNL A   1      42.410  29.370  29.367  1.00  0.00    -0.248 NA
ATOM     43  C   UNL A   1      40.710  30.919  29.785  1.00  0.00     0.031 C 
ATOM     44  C   UNL A   1      39.312  26.301  28.404  1.00  0.00     0.029 A 
ATOM     45  N   UNL A   1      41.504  26.706  28.614  1.00  0.00    -0.354 N 
ATOM     46  C   UNL A   1      42.972  30.563  29.802  1.00  0.00     0.074 A 
ATOM     47  C   UNL A   1      41.881  31.488  30.028  1.00  0.00     0.031 C 
ATOM     48  C   UNL A   1      39.965  25.150  28.163  1.00  0.00     0.029 A 
ATOM     49  C   UNL A   1      41.406  25.389  28.241  1.00  0.00     0.049 A 
ATOM     50  H   UNL A   1      42.362  27.150  28.807  1.00  0.00     0.167 HD
ATOM     51  C   UNL A   1      44.278  30.869  29.993  1.00  0.00     0.031 A 
ATOM     52  C   UNL A   1      42.370  24.488  27.963  1.00  0.00     0.031 A 
ATOM     53  C   UNL A   1      45.371  29.968  29.749  1.00  0.00     0.049 A 
ATOM     54  C   UNL A   1      43.819  24.890  28.059  1.00  0.00     0.074 A 
ATOM     55  C   UNL A   1      46.728  30.198  29.894  1.00  0.00     0.029 A 
ATOM     56  N   UNL A   1      45.232  28.666  29.297  1.00  0.00    -0.354 N 
ATOM     57  N   UNL A   1      44.342  26.026  28.451  1.00  0.00    -0.248 NA
ATOM     58  C   UNL A   1      44.813  23.880  27.661  1.00  0.00     0.031 C 
ATOM     59  C   UNL A   1      47.413  29.051  29.479  1.00  0.00     0.029 A 
ATOM     60  C   UNL A   1      46.480  28.090  29.127  1.00  0.00     0.049 A 
ATOM     61  H   UNL A   1      44.373  28.216  29.123  1.00  0.00     0.167 HD
ATOM     62  C   UNL A   1      45.720  25.859  28.371  1.00  0.00     0.074 A 
ATOM     63  C   UNL A   1      45.955  24.509  27.905  1.00  0.00     0.031 C 
ATOM     64  C   UNL A   1      46.703  26.747  28.660  1.00  0.00     0.031 A 
BRANCH  51  65
ATOM     65  C   UNL A   1      44.593  32.266  30.443  1.00  0.00    -0.014 A 
ATOM     66  C   UNL A   1      44.802  33.301  29.518  1.00  0.00     0.009 A 
ATOM     67  C   UNL A   1      44.670  32.553  31.814  1.00  0.00     0.009 A 
ATOM     68  C   UNL A   1      45.116  34.588  29.959  1.00  0.00     0.001 A 
ATOM     69  C   UNL A   1      44.960  33.844  32.253  1.00  0.00     0.001 A 
ATOM     70  C   UNL A   1      45.193  34.858  31.325  1.00  0.00     0.000 A 
ENDBRANCH  51  65
BRANCH  52  71
ATOM     71  C   UNL A   1      42.006  23.120  27.511  1.00  0.00    -0.014 A 
ATOM     72  C   UNL A   1      41.913  22.818  26.145  1.00  0.00     0.009 A 
ATOM     73  C   UNL A   1      41.703  22.122  28.450  1.00  0.00     0.009 A 
ATOM     74  C   UNL A   1      41.498  21.550  25.728  1.00  0.00     0.001 A 
ATOM     75  C   UNL A   1      41.315  20.848  28.031  1.00  0.00     0.001 A 
ATOM     76  C   UNL A   1      41.203  20.566  26.672  1.00  0.00     0.000 A 
ENDBRANCH  52  71
BRANCH  64  77
ATOM     77  C   UNL A   1      48.124  26.282  28.507  1.00  0.00    -0.014 A 
ATOM     78  C   UNL A   1      48.817  25.696  29.577  1.00  0.00     0.009 A 
ATOM     79  C   UNL A   1      48.761  26.386  27.260  1.00  0.00     0.009 A 
ATOM     80  C   UNL A   1      50.131  25.249  29.409  1.00  0.00     0.001 A 
ATOM     81  C   UNL A   1      50.063  25.916  27.087  1.00  0.00     0.001 A 
ATOM     82  C   UNL A   1      50.750  25.355  28.163  1.00  0.00     0.000 A 
ENDBRANCH  64  77
ENDBRANCH  38  39
ENDBRANCH  31  33
ENDBRANCH  30  31
ENDBRANCH  29  30
ENDBRANCH  28  29
ENDBRANCH  27  28
ENDBRANCH  26  27
ENDBRANCH   1  26
TORSDOF 21
ENDMDL
MODEL 2
REMARK VINA RESULT:      -9.8      3.031      8.601
REMARK SMILES CO[C@@H]1C[C@@H](C(=O)OCCOCCOCCOC(=O)c2ccc(-c3c4nc(c(-c5ccccc5)c5ccc([nH]5)c(-c5ccccc5)c5nc(c(-c6ccccc6)c6ccc3[nH]6)C=C5)C=C4)cc2)N(S(=O)(=O)/C=C/c2ccccc2)C1
REMARK SMILES IDX 12 1 11 2 10 3 9 4 8 5 6 6 7 7 5 8 3 9 4 10 80 11 68 12 2 13
REMARK SMILES IDX 1 14 69 15 70 16 71 17 72 18 73 19 74 20 75 21 79 22 76 23
REMARK SMILES IDX 78 24 77 25 13 26 14 27 15 28 16 29 17 30 18 31 19 32 20 33
REMARK SMILES IDX 21 34 67 35 22 36 66 37 23 38 24 39 25 40 60 41 26 42 65 43
REMARK SMILES IDX 59 44 61 45 27 46 64 47 58 48 57 49 28 51 50 52 35 53 49 54
REMARK SMILES IDX 36 55 39 56 48 57 62 58 37 59 38 60 47 62 63 63 40 64 29 65
REMARK SMILES IDX 30 66 34 67 31 68 33 69 32 70 51 71 52 72 56 73 53 74 55 75
REMARK SMILES IDX 54 76 41 77 42 78 46 79 43 80 45 81 44 82
REMARK H PARENT 61 50 39 61
REMARK Flexibility Score: inf
ROOT
ATOM      1  C   UNL A   1      39.214  21.933  26.122  1.00  0.00     0.188 C 
ENDROOT
BRANCH   1   2
ATOM      2  O   UNL A   1      38.518  23.170  26.073  1.00  0.00    -0.376 OA
BRANCH   2   3
ATOM      3  C   UNL A   1      37.106  23.065  25.938  1.00  0.00     0.202 C 
BRANCH   3   4
ATOM      4  C   UNL A   1      36.602  23.379  24.531  1.00  0.00     0.261 C 
BRANCH   4   5
ATOM      5  O   UNL A   1      35.389  24.159  24.535  1.00  0.00    -0.462 OA
BRANCH   5   6
ATOM      6  C   UNL A   1      34.420  23.830  23.647  1.00  0.00     0.324 C 
ATOM      7  O   UNL A   1      34.599  23.085  22.690  1.00  0.00    -0.250 OA
BRANCH   6   8
ATOM      8  C   UNL A   1      33.104  24.526  23.921  1.00  0.00     0.185 C 
ATOM      9  C   UNL A   1      31.804  26.072  25.284  1.00  0.00     0.135 C 
ATOM     10  C   UNL A   1      33.207  25.795  24.767  1.00  0.00     0.065 C 
ATOM     11  C   UNL A   1      30.940  24.916  24.763  1.00  0.00     0.135 C 
ATOM     12  N   UNL A   1      31.887  23.796  24.401  1.00  0.00    -0.181 NA
BRANCH   9  13
ATOM     13  O   UNL A   1      31.370  27.326  24.762  1.00  0.00    -0.380 OA
ATOM     14  C   UNL A   1      30.327  27.181  23.805  1.00  0.00     0.195 C 
ENDBRANCH   9  13
BRANCH  12  15
ATOM     15  S   UNL A   1      31.962  22.637  25.644  1.00  0.00     0.237 S 
ATOM     16  O   UNL A   1      33.137  22.995  26.417  1.00  0.00    -0.207 OA
ATOM     17  O   UNL A   1      30.668  22.674  26.298  1.00  0.00    -0.207 OA
BRANCH  15  18
ATOM     18  C   UNL A   1      32.190  21.026  25.088  1.00  0.00     0.123 C 
ATOM     19  C   UNL A   1      33.201  20.224  25.444  1.00  0.00     0.021 C 
BRANCH  19  20
ATOM     20  C   UNL A   1      33.182  18.813  25.014  1.00  0.00    -0.025 A 
ATOM     21  C   UNL A   1      33.868  18.442  23.850  1.00  0.00     0.008 A 
ATOM     22  C   UNL A   1      32.576  17.807  25.781  1.00  0.00     0.008 A 
ATOM     23  C   UNL A   1      34.023  17.097  23.506  1.00  0.00     0.001 A 
ATOM     24  C   UNL A   1      32.713  16.462  25.424  1.00  0.00     0.001 A 
ATOM     25  C   UNL A   1      33.452  16.105  24.298  1.00  0.00     0.000 A 
ENDBRANCH  19  20
ENDBRANCH  15  18
ENDBRANCH  12  15
ENDBRANCH   6   8
ENDBRANCH   5   6
ENDBRANCH   4   5
ENDBRANCH   3   4
ENDBRANCH   2   3
ENDBRANCH   1   2
BRANCH   1  26
ATOM     26  C   UNL A   1      40.346  21.881  27.161  1.00  0.00     0.188 C 
BRANCH  26  27
ATOM     27  O   UNL A   1      40.987  20.640  27.415  1.00  0.00    -0.376 OA
BRANCH  27  28
ATOM     28  C   UNL A   1      41.093  19.722  26.335  1.00  0.00     0.202 C 
BRANCH  28  29
ATOM     29  C   UNL A   1      42.490  19.175  26.028  1.00  0.00     0.261 C 
BRANCH  29  30
ATOM     30  O   UNL A   1      42.990  19.563  24.732  1.00  0.00    -0.460 OA
BRANCH  30  31
ATOM     31  C   UNL A   1      44.337  19.602  24.614  1.00  0.00     0.338 C 
ATOM     32  O   UNL A   1      45.080  18.687  24.282  1.00  0.00    -0.246 OA
BRANCH  31  33
ATOM     33  C   UNL A   1      44.843  20.971  24.830  1.00  0.00     0.060 A 
ATOM     34  C   UNL A   1      45.408  21.290  26.073  1.00  0.00     0.016 A 
ATOM     35  C   UNL A   1      44.616  21.971  23.884  1.00  0.00     0.016 A 
ATOM     36  C   UNL A   1      45.719  22.614  26.388  1.00  0.00     0.010 A 
ATOM     37  C   UNL A   1      44.904  23.304  24.212  1.00  0.00     0.010 A 
ATOM     38  C   UNL A   1      45.422  23.636  25.478  1.00  0.00    -0.014 A 
BRANCH  38  39
ATOM     39  C   UNL A   1      45.469  25.054  25.916  1.00  0.00     0.031 A 
ATOM     40  C   UNL A   1      46.787  25.780  25.886  1.00  0.00     0.074 A 
ATOM     41  C   UNL A   1      44.362  25.706  26.314  1.00  0.00     0.049 A 
ATOM     42  N   UNL A   1      47.082  26.986  26.306  1.00  0.00    -0.248 NA
ATOM     43  C   UNL A   1      47.922  25.051  25.298  1.00  0.00     0.031 C 
ATOM     44  C   UNL A   1      43.006  25.163  26.303  1.00  0.00     0.029 A 
ATOM     45  N   UNL A   1      44.214  26.977  26.812  1.00  0.00    -0.354 N 
ATOM     46  C   UNL A   1      48.435  27.156  26.039  1.00  0.00     0.074 A 
ATOM     47  C   UNL A   1      48.906  25.928  25.434  1.00  0.00     0.031 C 
ATOM     48  C   UNL A   1      42.163  26.093  26.785  1.00  0.00     0.029 A 
ATOM     49  C   UNL A   1      42.926  27.277  27.178  1.00  0.00     0.049 A 
ATOM     50  H   UNL A   1      44.961  27.614  26.896  1.00  0.00     0.167 HD
ATOM     51  C   UNL A   1      49.220  28.234  26.277  1.00  0.00     0.031 A 
ATOM     52  C   UNL A   1      42.425  28.370  27.789  1.00  0.00     0.031 A 
ATOM     53  C   UNL A   1      48.771  29.449  26.900  1.00  0.00     0.049 A 
ATOM     54  C   UNL A   1      43.344  29.505  28.161  1.00  0.00     0.074 A 
ATOM     55  C   UNL A   1      49.501  30.585  27.201  1.00  0.00     0.029 A 
ATOM     56  N   UNL A   1      47.474  29.682  27.325  1.00  0.00    -0.354 N 
ATOM     57  N   UNL A   1      44.624  29.649  27.923  1.00  0.00    -0.248 NA
ATOM     58  C   UNL A   1      42.742  30.628  28.899  1.00  0.00     0.031 C 
ATOM     59  C   UNL A   1      48.657  31.486  27.858  1.00  0.00     0.029 A 
ATOM     60  C   UNL A   1      47.389  30.932  27.917  1.00  0.00     0.049 A 
ATOM     61  H   UNL A   1      46.723  29.053  27.222  1.00  0.00     0.167 HD
ATOM     62  C   UNL A   1      44.975  30.884  28.458  1.00  0.00     0.074 A 
ATOM     63  C   UNL A   1      43.770  31.456  29.023  1.00  0.00     0.031 C 
ATOM     64  C   UNL A   1      46.187  31.490  28.479  1.00  0.00     0.031 A 
BRANCH  51  65
ATOM     65  C   UNL A   1      50.671  28.116  25.909  1.00  0.00    -0.014 A 
ATOM     66  C   UNL A   1      51.133  28.490  24.637  1.00  0.00     0.009 A 
ATOM     67  C   UNL A   1      51.589  27.635  26.853  1.00  0.00     0.009 A 
ATOM     68  C   UNL A   1      52.483  28.351  24.309  1.00  0.00     0.001 A 
ATOM     69  C   UNL A   1      52.941  27.520  26.532  1.00  0.00     0.001 A 
ATOM     70  C   UNL A   1      53.386  27.868  25.257  1.00  0.00     0.000 A 
ENDBRANCH  51  65
BRANCH  52  71
ATOM     71  C   UNL A   1      40.984  28.433  28.143  1.00  0.00    -0.014 A 
ATOM     72  C   UNL A   1      40.062  29.059  27.290  1.00  0.00     0.009 A 
ATOM     73  C   UNL A   1      40.531  27.908  29.363  1.00  0.00     0.009 A 
ATOM     74  C   UNL A   1      38.722  29.179  27.664  1.00  0.00     0.001 A 
ATOM     75  C   UNL A   1      39.185  28.006  29.723  1.00  0.00     0.001 A 
ATOM     76  C   UNL A   1      38.284  28.651  28.879  1.00  0.00     0.000 A 
ENDBRANCH  52  71
BRANCH  64  77
ATOM     77  C   UNL A   1      46.270  32.853  29.107  1.00  0.00    -0.014 A 
ATOM     78  C   UNL A   1      46.633  33.013  30.453  1.00  0.00     0.009 A 
ATOM     79  C   UNL A   1      46.032  33.996  28.327  1.00  0.00     0.009 A 
ATOM     80  C   UNL A   1      46.727  34.290  31.013  1.00  0.00     0.001 A 
ATOM     81  C   UNL A   1      46.151  35.270  28.881  1.00  0.00     0.001 A 
ATOM     82  C   UNL A   1      46.491  35.417  30.225  1.00  0.00     0.000 A 
ENDBRANCH  64  77
ENDBRANCH  38  39
ENDBRANCH  31  33
ENDBRANCH  30  31
ENDBRANCH  29  30
ENDBRANCH  28  29
ENDBRANCH  27  28
ENDBRANCH  26  27
ENDBRANCH   1  26
TORSDOF 21
ENDMDL
MODEL 3
REMARK VINA RESULT:      -9.8      2.765      8.031
REMARK SMILES CO[C@@H]1C[C@@H](C(=O)OCCOCCOCCOC(=O)c2ccc(-c3c4nc(c(-c5ccccc5)c5ccc([nH]5)c(-c5ccccc5)c5nc(c(-c6ccccc6)c6ccc3[nH]6)C=C5)C=C4)cc2)N(S(=O)(=O)/C=C/c2ccccc2)C1
REMARK SMILES IDX 12 1 11 2 10 3 9 4 8 5 6 6 7 7 5 8 3 9 4 10 80 11 68 12 2 13
REMARK SMILES IDX 1 14 69 15 70 16 71 17 72 18 73 19 74 20 75 21 79 22 76 23
REMARK SMILES IDX 78 24 77 25 13 26 14 27 15 28 16 29 17 30 18 31 19 32 20 33
REMARK SMILES IDX 21 34 67 35 22 36 66 37 23 38 24 39 25 40 60 41 26 42 65 43
REMARK SMILES IDX 59 44 61 45 27 46 64 47 58 48 57 49 28 51 50 52 35 53 49 54
REMARK SMILES IDX 36 55 39 56 48 57 62 58 37 59 38 60 47 62 63 63 40 64 29 65
REMARK SMILES IDX 30 66 34 67 31 68 33 69 32 70 51 71 52 72 56 73 53 74 55 75
REMARK SMILES IDX 54 76 41 77 42 78 46 79 43 80 45 81 44 82
REMARK H PARENT 61 50 39 61
REMARK Flexibility Score: inf
ROOT
ATOM      1  C   UNL A   1      40.452  20.351  26.321  1.00  0.00     0.188 C 
ENDROOT
BRANCH   1   2
ATOM      2  O   UNL A   1      39.688  21.546  26.407  1.00  0.00    -0.376 OA
BRANCH   2   3
ATOM      3  C   UNL A   1      38.542  21.594  25.568  1.00  0.00     0.202 C 
BRANCH   3   4
ATOM      4  C   UNL A   1      37.605  22.759  25.877  1.00  0.00     0.261 C 
BRANCH   4   5
ATOM      5  O   UNL A   1      36.285  22.575  25.323  1.00  0.00    -0.462 OA
BRANCH   5   6
ATOM      6  C   UNL A   1      35.229  22.627  26.169  1.00  0.00     0.324 C 
ATOM      7  O   UNL A   1      35.179  23.358  27.151  1.00  0.00    -0.250 OA
BRANCH   6   8
ATOM      8  C   UNL A   1      34.137  21.640  25.814  1.00  0.00     0.185 C 
ATOM      9  C   UNL A   1      33.168  20.089  24.203  1.00  0.00     0.135 C 
ATOM     10  C   UNL A   1      34.489  20.661  24.693  1.00  0.00     0.065 C 
ATOM     11  C   UNL A   1      32.083  20.801  25.023  1.00  0.00     0.135 C 
ATOM     12  N   UNL A   1      32.716  22.055  25.582  1.00  0.00    -0.181 NA
BRANCH   9  13
ATOM     13  O   UNL A   1      33.168  18.684  24.445  1.00  0.00    -0.380 OA
ATOM     14  C   UNL A   1      32.741  17.940  23.310  1.00  0.00     0.195 C 
ENDBRANCH   9  13
BRANCH  12  15
ATOM     15  S   UNL A   1      32.315  23.411  24.637  1.00  0.00     0.237 S 
ATOM     16  O   UNL A   1      33.382  23.513  23.659  1.00  0.00    -0.207 OA
ATOM     17  O   UNL A   1      30.964  23.178  24.164  1.00  0.00    -0.207 OA
BRANCH  15  18
ATOM     18  C   UNL A   1      32.283  24.891  25.512  1.00  0.00     0.123 C 
ATOM     19  C   UNL A   1      33.219  25.846  25.444  1.00  0.00     0.021 C 
BRANCH  19  20
ATOM     20  C   UNL A   1      32.981  27.131  26.128  1.00  0.00    -0.025 A 
ATOM     21  C   UNL A   1      33.826  28.217  25.858  1.00  0.00     0.008 A 
ATOM     22  C   UNL A   1      31.880  27.335  26.972  1.00  0.00     0.008 A 
ATOM     23  C   UNL A   1      33.532  29.494  26.345  1.00  0.00     0.001 A 
ATOM     24  C   UNL A   1      31.599  28.609  27.478  1.00  0.00     0.001 A 
ATOM     25  C   UNL A   1      32.412  29.691  27.148  1.00  0.00     0.000 A 
ENDBRANCH  19  20
ENDBRANCH  15  18
ENDBRANCH  12  15
ENDBRANCH   6   8
ENDBRANCH   5   6
ENDBRANCH   4   5
ENDBRANCH   3   4
ENDBRANCH   2   3
ENDBRANCH   1   2
BRANCH   1  26
ATOM     26  C   UNL A   1      41.256  20.019  27.589  1.00  0.00     0.188 C 
BRANCH  26  27
ATOM     27  O   UNL A   1      42.353  19.124  27.488  1.00  0.00    -0.376 OA
BRANCH  27  28
ATOM     28  C   UNL A   1      42.536  18.444  26.253  1.00  0.00     0.202 C 
BRANCH  28  29
ATOM     29  C   UNL A   1      43.730  18.879  25.397  1.00  0.00     0.261 C 
BRANCH  29  30
ATOM     30  O   UNL A   1      43.544  20.157  24.755  1.00  0.00    -0.460 OA
BRANCH  30  31
ATOM     31  C   UNL A   1      44.561  21.037  24.906  1.00  0.00     0.338 C 
ATOM     32  O   UNL A   1      45.728  20.887  24.570  1.00  0.00    -0.246 OA
BRANCH  31  33
ATOM     33  C   UNL A   1      44.069  22.319  25.446  1.00  0.00     0.060 A 
ATOM     34  C   UNL A   1      44.029  23.434  24.598  1.00  0.00     0.016 A 
ATOM     35  C   UNL A   1      43.807  22.463  26.809  1.00  0.00     0.016 A 
ATOM     36  C   UNL A   1      43.758  24.703  25.113  1.00  0.00     0.010 A 
ATOM     37  C   UNL A   1      43.562  23.742  27.330  1.00  0.00     0.010 A 
ATOM     38  C   UNL A   1      43.573  24.872  26.490  1.00  0.00    -0.014 A 
BRANCH  38  39
ATOM     39  C   UNL A   1      43.585  26.236  27.078  1.00  0.00     0.031 A 
ATOM     40  C   UNL A   1      44.909  26.904  27.336  1.00  0.00     0.074 A 
ATOM     41  C   UNL A   1      42.445  26.892  27.363  1.00  0.00     0.049 A 
ATOM     42  N   UNL A   1      45.164  28.047  27.923  1.00  0.00    -0.248 NA
ATOM     43  C   UNL A   1      46.105  26.189  26.862  1.00  0.00     0.031 C 
ATOM     44  C   UNL A   1      41.095  26.412  27.078  1.00  0.00     0.029 A 
ATOM     45  N   UNL A   1      42.253  28.112  27.962  1.00  0.00    -0.354 N 
ATOM     46  C   UNL A   1      46.546  28.185  27.894  1.00  0.00     0.074 A 
ATOM     47  C   UNL A   1      47.076  27.004  27.245  1.00  0.00     0.031 C 
ATOM     48  C   UNL A   1      40.210  27.324  27.516  1.00  0.00     0.029 A 
ATOM     49  C   UNL A   1      40.930  28.429  28.149  1.00  0.00     0.049 A 
ATOM     50  H   UNL A   1      42.992  28.704  28.232  1.00  0.00     0.167 HD
ATOM     51  C   UNL A   1      47.310  29.197  28.368  1.00  0.00     0.031 A 
ATOM     52  C   UNL A   1      40.366  29.475  28.785  1.00  0.00     0.031 A 
ATOM     53  C   UNL A   1      46.798  30.362  29.036  1.00  0.00     0.049 A 
ATOM     54  C   UNL A   1      41.241  30.526  29.417  1.00  0.00     0.074 A 
ATOM     55  C   UNL A   1      47.499  31.430  29.569  1.00  0.00     0.029 A 
ATOM     56  N   UNL A   1      45.456  30.607  29.272  1.00  0.00    -0.354 N 
ATOM     57  N   UNL A   1      42.547  30.638  29.402  1.00  0.00    -0.248 NA
ATOM     58  C   UNL A   1      40.558  31.594  30.165  1.00  0.00     0.031 C 
ATOM     59  C   UNL A   1      46.584  32.296  30.175  1.00  0.00     0.029 A 
ATOM     60  C   UNL A   1      45.309  31.794  29.973  1.00  0.00     0.049 A 
ATOM     61  H   UNL A   1      44.715  30.025  28.985  1.00  0.00     0.167 HD
ATOM     62  C   UNL A   1      42.838  31.797  30.114  1.00  0.00     0.074 A 
ATOM     63  C   UNL A   1      41.574  32.360  30.538  1.00  0.00     0.031 C 
ATOM     64  C   UNL A   1      44.047  32.344  30.392  1.00  0.00     0.031 A 
BRANCH  51  65
ATOM     65  C   UNL A   1      48.798  29.055  28.224  1.00  0.00    -0.014 A 
ATOM     66  C   UNL A   1      49.569  28.420  29.209  1.00  0.00     0.009 A 
ATOM     67  C   UNL A   1      49.434  29.555  27.078  1.00  0.00     0.009 A 
ATOM     68  C   UNL A   1      50.954  28.319  29.064  1.00  0.00     0.001 A 
ATOM     69  C   UNL A   1      50.815  29.432  26.924  1.00  0.00     0.001 A 
ATOM     70  C   UNL A   1      51.575  28.823  27.921  1.00  0.00     0.000 A 
ENDBRANCH  51  65
BRANCH  52  71
ATOM     71  C   UNL A   1      38.888  29.565  28.910  1.00  0.00    -0.014 A 
ATOM     72  C   UNL A   1      38.246  29.200  30.103  1.00  0.00     0.009 A 
ATOM     73  C   UNL A   1      38.108  29.972  27.816  1.00  0.00     0.009 A 
ATOM     74  C   UNL A   1      36.852  29.217  30.188  1.00  0.00     0.001 A 
ATOM     75  C   UNL A   1      36.716  30.013  27.913  1.00  0.00     0.001 A 
ATOM     76  C   UNL A   1      36.088  29.626  29.095  1.00  0.00     0.000 A 
ENDBRANCH  52  71
BRANCH  64  77
ATOM     77  C   UNL A   1      44.063  33.632  31.166  1.00  0.00    -0.014 A 
ATOM     78  C   UNL A   1      44.188  33.639  32.564  1.00  0.00     0.009 A 
ATOM     79  C   UNL A   1      44.003  34.857  30.484  1.00  0.00     0.009 A 
ATOM     80  C   UNL A   1      44.224  34.848  33.265  1.00  0.00     0.001 A 
ATOM     81  C   UNL A   1      44.065  36.063  31.182  1.00  0.00     0.001 A 
ATOM     82  C   UNL A   1      44.168  36.059  32.573  1.00  0.00     0.000 A 
ENDBRANCH  64  77
ENDBRANCH  38  39
ENDBRANCH  31  33
ENDBRANCH  30  31
ENDBRANCH  29  30
ENDBRANCH  28  29
ENDBRANCH  27  28
ENDBRANCH  26  27
ENDBRANCH   1  26
TORSDOF 21
ENDMDL
