MODEL 1
REMARK VINA RESULT:     -10.0      0.000      0.000
REMARK SMILES CC[N@@H+]1CCO[C@H](C[NH2+][C@@H]2CCC[C@H](C(=O)OCCOCCOCCOC(=O)c3ccc(-c4c5nc(c(-c6ccccc6)c6ccc([nH]6)c(-c6ccccc6)c6nc(c(-c7ccccc7)c7ccc4[nH]7)C=C6)C=C5)cc3)C2)C1
REMARK SMILES IDX 21 1 20 2 19 3 18 4 17 5 15 6 16 7 14 8 10 9 11 10 77 11
REMARK SMILES IDX 12 12 13 13 9 14 8 17 7 18 3 19 4 20 78 21 5 23 6 24 2 25
REMARK SMILES IDX 1 26 22 27 23 28 24 29 25 30 26 31 27 32 28 33 29 34 30 35
REMARK SMILES IDX 76 36 31 37 75 38 32 39 33 40 34 41 69 42 35 43 74 44 68 45
REMARK SMILES IDX 70 46 36 47 73 48 67 49 66 50 37 52 59 53 44 54 58 55 45 56
REMARK SMILES IDX 48 57 57 58 71 59 46 60 47 61 56 63 72 64 49 65 38 66 39 67
REMARK SMILES IDX 43 68 40 69 42 70 41 71 60 72 61 73 65 74 62 75 64 76 63 77
REMARK SMILES IDX 50 78 51 79 55 80 52 81 54 82 53 83
REMARK H PARENT 9 15 9 16 3 22 70 51 48 62
REMARK Flexibility Score: inf
ROOT
ATOM      1  C   UNL A   1      40.972  20.872  27.147  1.00  0.00     0.188 C 
ENDROOT
BRANCH   1   2
ATOM      2  O   UNL A   1      39.928  21.814  26.945  1.00  0.00    -0.376 OA
BRANCH   2   3
ATOM      3  C   UNL A   1      39.063  21.608  25.832  1.00  0.00     0.202 C 
BRANCH   3   4
ATOM      4  C   UNL A   1      37.827  22.510  25.723  1.00  0.00     0.261 C 
BRANCH   4   5
ATOM      5  O   UNL A   1      36.598  21.821  25.446  1.00  0.00    -0.463 OA
BRANCH   5   6
ATOM      6  C   UNL A   1      35.495  22.609  25.410  1.00  0.00     0.309 C 
ATOM      7  O   UNL A   1      35.247  23.518  26.195  1.00  0.00    -0.252 OA
BRANCH   6   8
ATOM      8  C   UNL A   1      34.518  22.206  24.329  1.00  0.00     0.105 C 
ATOM      9  C   UNL A   1      32.984  23.324  22.653  1.00  0.00     0.183 C 
ATOM     10  C   UNL A   1      31.933  22.232  22.925  1.00  0.00     0.065 C 
ATOM     11  C   UNL A   1      33.925  23.514  23.835  1.00  0.00     0.080 C 
ATOM     12  C   UNL A   1      32.542  20.938  23.471  1.00  0.00     0.007 C 
ATOM     13  C   UNL A   1      33.426  21.203  24.692  1.00  0.00     0.016 C 
BRANCH   9  14
ATOM     14  N   UNL A   1      32.279  24.555  22.290  1.00  0.00    -0.341 N 
ATOM     15  H   UNL A   1      32.177  24.558  21.275  1.00  0.00     0.346 HD
ATOM     16  H   UNL A   1      31.411  24.516  22.824  1.00  0.00     0.346 HD
BRANCH  14  17
ATOM     17  C   UNL A   1      32.879  25.833  22.669  1.00  0.00     0.299 C 
BRANCH  17  18
ATOM     18  C   UNL A   1      32.391  27.180  22.069  1.00  0.00     0.227 C 
ATOM     19  N   UNL A   1      32.151  29.136  23.778  1.00  0.00    -0.331 N 
ATOM     20  C   UNL A   1      30.706  29.007  23.494  1.00  0.00     0.291 C 
ATOM     21  C   UNL A   1      32.903  28.520  22.656  1.00  0.00     0.300 C 
ATOM     22  H   UNL A   1      32.390  30.126  23.847  1.00  0.00     0.348 HD
ATOM     23  C   UNL A   1      30.281  27.583  23.109  1.00  0.00     0.222 C 
ATOM     24  O   UNL A   1      30.954  27.167  21.920  1.00  0.00    -0.361 OA
BRANCH  19  25
ATOM     25  C   UNL A   1      32.529  28.578  25.075  1.00  0.00     0.258 C 
ATOM     26  C   UNL A   1      31.823  29.200  26.272  1.00  0.00     0.071 C 
ENDBRANCH  19  25
ENDBRANCH  17  18
ENDBRANCH  14  17
ENDBRANCH   9  14
ENDBRANCH   6   8
ENDBRANCH   5   6
ENDBRANCH   4   5
ENDBRANCH   3   4
ENDBRANCH   2   3
ENDBRANCH   1   2
BRANCH   1  27
ATOM     27  C   UNL A   1      41.114  19.751  26.122  1.00  0.00     0.188 C 
BRANCH  27  28
ATOM     28  O   UNL A   1      42.343  19.694  25.410  1.00  0.00    -0.376 OA
BRANCH  28  29
ATOM     29  C   UNL A   1      43.399  20.511  25.935  1.00  0.00     0.202 C 
BRANCH  29  30
ATOM     30  C   UNL A   1      44.118  21.432  24.925  1.00  0.00     0.261 C 
BRANCH  30  31
ATOM     31  O   UNL A   1      43.477  22.711  24.708  1.00  0.00    -0.460 OA
BRANCH  31  32
ATOM     32  C   UNL A   1      44.228  23.827  24.890  1.00  0.00     0.338 C 
ATOM     33  O   UNL A   1      45.194  24.159  24.237  1.00  0.00    -0.246 OA
BRANCH  32  34
ATOM     34  C   UNL A   1      43.514  24.727  25.845  1.00  0.00     0.060 A 
ATOM     35  C   UNL A   1      43.938  26.062  25.930  1.00  0.00     0.016 A 
ATOM     36  C   UNL A   1      42.395  24.311  26.575  1.00  0.00     0.016 A 
ATOM     37  C   UNL A   1      43.289  26.960  26.784  1.00  0.00     0.010 A 
ATOM     38  C   UNL A   1      41.750  25.208  27.437  1.00  0.00     0.010 A 
ATOM     39  C   UNL A   1      42.219  26.527  27.577  1.00  0.00    -0.014 A 
BRANCH  39  40
ATOM     40  C   UNL A   1      41.747  27.369  28.708  1.00  0.00     0.031 A 
ATOM     41  C   UNL A   1      42.498  27.288  30.012  1.00  0.00     0.074 A 
ATOM     42  C   UNL A   1      40.698  28.205  28.604  1.00  0.00     0.049 A 
ATOM     43  N   UNL A   1      42.273  27.905  31.144  1.00  0.00    -0.248 NA
ATOM     44  C   UNL A   1      43.656  26.382  30.037  1.00  0.00     0.031 C 
ATOM     45  C   UNL A   1      39.897  28.422  27.403  1.00  0.00     0.029 A 
ATOM     46  N   UNL A   1      40.126  29.026  29.548  1.00  0.00    -0.354 N 
ATOM     47  C   UNL A   1      43.254  27.455  32.017  1.00  0.00     0.074 A 
ATOM     48  C   UNL A   1      44.055  26.491  31.294  1.00  0.00     0.031 C 
ATOM     49  C   UNL A   1      38.926  29.309  27.686  1.00  0.00     0.029 A 
ATOM     50  C   UNL A   1      39.019  29.700  29.094  1.00  0.00     0.049 A 
ATOM     51  H   UNL A   1      40.476  29.121  30.463  1.00  0.00     0.167 HD
ATOM     52  C   UNL A   1      43.478  27.806  33.305  1.00  0.00     0.031 A 
ATOM     53  C   UNL A   1      38.166  30.519  29.741  1.00  0.00     0.031 A 
ATOM     54  C   UNL A   1      42.680  28.744  34.046  1.00  0.00     0.049 A 
ATOM     55  C   UNL A   1      38.383  30.843  31.198  1.00  0.00     0.074 A 
ATOM     56  C   UNL A   1      42.852  29.182  35.348  1.00  0.00     0.029 A 
ATOM     57  N   UNL A   1      41.546  29.375  33.559  1.00  0.00    -0.354 N 
ATOM     58  N   UNL A   1      39.341  30.444  31.999  1.00  0.00    -0.248 NA
ATOM     59  C   UNL A   1      37.403  31.737  31.834  1.00  0.00     0.031 C 
ATOM     60  C   UNL A   1      41.784  30.026  35.670  1.00  0.00     0.029 A 
ATOM     61  C   UNL A   1      40.985  30.167  34.547  1.00  0.00     0.049 A 
ATOM     62  H   UNL A   1      41.193  29.273  32.646  1.00  0.00     0.167 HD
ATOM     63  C   UNL A   1      39.091  31.055  33.225  1.00  0.00     0.074 A 
ATOM     64  C   UNL A   1      37.901  31.861  33.057  1.00  0.00     0.031 C 
ATOM     65  C   UNL A   1      39.793  30.959  34.382  1.00  0.00     0.031 A 
BRANCH  52  66
ATOM     66  C   UNL A   1      44.614  27.116  34.009  1.00  0.00    -0.014 A 
ATOM     67  C   UNL A   1      44.412  25.947  34.758  1.00  0.00     0.009 A 
ATOM     68  C   UNL A   1      45.906  27.657  33.925  1.00  0.00     0.009 A 
ATOM     69  C   UNL A   1      45.473  25.362  35.453  1.00  0.00     0.001 A 
ATOM     70  C   UNL A   1      46.971  27.052  34.594  1.00  0.00     0.001 A 
ATOM     71  C   UNL A   1      46.751  25.913  35.368  1.00  0.00     0.000 A 
ENDBRANCH  52  66
BRANCH  53  72
ATOM     72  C   UNL A   1      36.992  31.079  29.017  1.00  0.00    -0.014 A 
ATOM     73  C   UNL A   1      36.940  32.437  28.670  1.00  0.00     0.009 A 
ATOM     74  C   UNL A   1      35.914  30.248  28.674  1.00  0.00     0.009 A 
ATOM     75  C   UNL A   1      35.824  32.954  28.005  1.00  0.00     0.001 A 
ATOM     76  C   UNL A   1      34.813  30.762  27.985  1.00  0.00     0.001 A 
ATOM     77  C   UNL A   1      34.767  32.115  27.657  1.00  0.00     0.000 A 
ENDBRANCH  53  72
BRANCH  65  78
ATOM     78  C   UNL A   1      39.314  31.763  35.561  1.00  0.00    -0.014 A 
ATOM     79  C   UNL A   1      39.764  33.074  35.785  1.00  0.00     0.009 A 
ATOM     80  C   UNL A   1      38.353  31.220  36.429  1.00  0.00     0.009 A 
ATOM     81  C   UNL A   1      39.282  33.811  36.871  1.00  0.00     0.001 A 
ATOM     82  C   UNL A   1      37.852  31.968  37.496  1.00  0.00     0.001 A 
ATOM     83  C   UNL A   1      38.324  33.260  37.721  1.00  0.00     0.000 A 
ENDBRANCH  65  78
ENDBRANCH  39  40
ENDBRANCH  32  34
ENDBRANCH  31  32
ENDBRANCH  30  31
ENDBRANCH  29  30
ENDBRANCH  28  29
ENDBRANCH  27  28
ENDBRANCH   1  27
TORSDOF 21
ENDMDL
MODEL 2
REMARK VINA RESULT:      -9.3      4.836     11.376
REMARK SMILES CC[N@@H+]1CCO[C@H](C[NH2+][C@@H]2CCC[C@H](C(=O)OCCOCCOCCOC(=O)c3ccc(-c4c5nc(c(-c6ccccc6)c6ccc([nH]6)c(-c6ccccc6)c6nc(c(-c7ccccc7)c7ccc4[nH]7)C=C6)C=C5)cc3)C2)C1
REMARK SMILES IDX 21 1 20 2 19 3 18 4 17 5 15 6 16 7 14 8 10 9 11 10 77 11
REMARK SMILES IDX 12 12 13 13 9 14 8 17 7 18 3 19 4 20 78 21 5 23 6 24 2 25
REMARK SMILES IDX 1 26 22 27 23 28 24 29 25 30 26 31 27 32 28 33 29 34 30 35
REMARK SMILES IDX 76 36 31 37 75 38 32 39 33 40 34 41 69 42 35 43 74 44 68 45
REMARK SMILES IDX 70 46 36 47 73 48 67 49 66 50 37 52 59 53 44 54 58 55 45 56
REMARK SMILES IDX 48 57 57 58 71 59 46 60 47 61 56 63 72 64 49 65 38 66 39 67
REMARK SMILES IDX 43 68 40 69 42 70 41 71 60 72 61 73 65 74 62 75 64 76 63 77
REMARK SMILES IDX 50 78 51 79 55 80 52 81 54 82 53 83
REMARK H PARENT 9 15 9 16 3 22 70 51 48 62
REMARK Flexibility Score: inf
ROOT
ATOM      1  C   UNL A   1      33.656  35.987  28.831  1.00  0.00     0.188 C 
ENDROOT
BRANCH   1   2
ATOM      2  O   UNL A   1      34.530  34.900  28.563  1.00  0.00    -0.376 OA
BRANCH   2   3
ATOM      3  C   UNL A   1      34.406  33.741  29.381  1.00  0.00     0.202 C 
BRANCH   3   4
ATOM      4  C   UNL A   1      35.507  32.678  29.269  1.00  0.00     0.261 C 
BRANCH   4   5
ATOM      5  O   UNL A   1      35.628  32.066  27.976  1.00  0.00    -0.463 OA
BRANCH   5   6
ATOM      6  C   UNL A   1      36.109  30.798  27.985  1.00  0.00     0.309 C 
ATOM      7  O   UNL A   1      35.833  29.928  27.165  1.00  0.00    -0.252 OA
BRANCH   6   8
ATOM      8  C   UNL A   1      36.985  30.508  29.183  1.00  0.00     0.105 C 
ATOM      9  C   UNL A   1      39.440  30.154  29.690  1.00  0.00     0.183 C 
ATOM     10  C   UNL A   1      39.048  29.049  30.689  1.00  0.00     0.065 C 
ATOM     11  C   UNL A   1      38.382  30.346  28.611  1.00  0.00     0.080 C 
ATOM     12  C   UNL A   1      37.619  29.199  31.216  1.00  0.00     0.007 C 
ATOM     13  C   UNL A   1      36.608  29.327  30.074  1.00  0.00     0.016 C 
BRANCH   9  14
ATOM     14  N   UNL A   1      40.755  29.823  29.137  1.00  0.00    -0.341 N 
ATOM     15  H   UNL A   1      41.213  30.702  28.898  1.00  0.00     0.346 HD
ATOM     16  H   UNL A   1      41.206  29.271  29.867  1.00  0.00     0.346 HD
BRANCH  14  17
ATOM     17  C   UNL A   1      40.812  28.968  27.952  1.00  0.00     0.299 C 
BRANCH  17  18
ATOM     18  C   UNL A   1      42.017  29.001  26.973  1.00  0.00     0.227 C 
ATOM     19  N   UNL A   1      42.275  26.893  25.458  1.00  0.00    -0.331 N 
ATOM     20  C   UNL A   1      43.504  26.662  26.246  1.00  0.00     0.291 C 
ATOM     21  C   UNL A   1      41.904  28.324  25.582  1.00  0.00     0.300 C 
ATOM     22  H   UNL A   1      42.461  26.671  24.480  1.00  0.00     0.348 HD
ATOM     23  C   UNL A   1      43.426  27.208  27.679  1.00  0.00     0.222 C 
ATOM     24  O   UNL A   1      43.229  28.623  27.661  1.00  0.00    -0.361 OA
BRANCH  19  25
ATOM     25  C   UNL A   1      41.181  25.998  25.834  1.00  0.00     0.258 C 
ATOM     26  C   UNL A   1      41.616  24.677  26.455  1.00  0.00     0.071 C 
ENDBRANCH  19  25
ENDBRANCH  17  18
ENDBRANCH  14  17
ENDBRANCH   9  14
ENDBRANCH   6   8
ENDBRANCH   5   6
ENDBRANCH   4   5
ENDBRANCH   3   4
ENDBRANCH   2   3
ENDBRANCH   1   2
BRANCH   1  27
ATOM     27  C   UNL A   1      32.902  35.973  30.157  1.00  0.00     0.188 C 
BRANCH  27  28
ATOM     28  O   UNL A   1      32.848  37.202  30.869  1.00  0.00    -0.376 OA
BRANCH  28  29
ATOM     29  C   UNL A   1      33.637  37.256  32.066  1.00  0.00     0.202 C 
BRANCH  29  30
ATOM     30  C   UNL A   1      34.082  35.900  32.655  1.00  0.00     0.261 C 
BRANCH  30  31
ATOM     31  O   UNL A   1      35.500  35.790  32.920  1.00  0.00    -0.460 OA
BRANCH  31  32
ATOM     32  C   UNL A   1      35.890  34.933  33.897  1.00  0.00     0.338 C 
ATOM     33  O   UNL A   1      35.229  34.576  34.849  1.00  0.00    -0.246 OA
BRANCH  32  34
ATOM     34  C   UNL A   1      37.165  34.281  33.473  1.00  0.00     0.060 A 
ATOM     35  C   UNL A   1      37.118  33.392  32.387  1.00  0.00     0.016 A 
ATOM     36  C   UNL A   1      38.399  34.594  34.054  1.00  0.00     0.016 A 
ATOM     37  C   UNL A   1      38.284  32.774  31.925  1.00  0.00     0.010 A 
ATOM     38  C   UNL A   1      39.566  33.968  33.596  1.00  0.00     0.010 A 
ATOM     39  C   UNL A   1      39.509  33.023  32.556  1.00  0.00    -0.014 A 
BRANCH  39  40
ATOM     40  C   UNL A   1      40.672  32.135  32.291  1.00  0.00     0.031 A 
ATOM     41  C   UNL A   1      41.566  32.470  31.125  1.00  0.00     0.074 A 
ATOM     42  C   UNL A   1      40.961  31.067  33.056  1.00  0.00     0.049 A 
ATOM     43  N   UNL A   1      42.627  31.844  30.680  1.00  0.00    -0.248 NA
ATOM     44  C   UNL A   1      41.210  33.674  30.360  1.00  0.00     0.031 C 
ATOM     45  C   UNL A   1      40.216  30.637  34.235  1.00  0.00     0.029 A 
ATOM     46  N   UNL A   1      41.972  30.142  32.936  1.00  0.00    -0.354 N 
ATOM     47  C   UNL A   1      43.055  32.572  29.578  1.00  0.00     0.074 A 
ATOM     48  C   UNL A   1      42.124  33.666  29.404  1.00  0.00     0.031 C 
ATOM     49  C   UNL A   1      40.788  29.521  34.724  1.00  0.00     0.029 A 
ATOM     50  C   UNL A   1      41.920  29.144  33.877  1.00  0.00     0.049 A 
ATOM     51  H   UNL A   1      42.668  30.191  32.241  1.00  0.00     0.167 HD
ATOM     52  C   UNL A   1      44.126  32.358  28.777  1.00  0.00     0.031 A 
ATOM     53  C   UNL A   1      42.682  28.041  34.027  1.00  0.00     0.031 A 
ATOM     54  C   UNL A   1      45.047  31.265  28.921  1.00  0.00     0.049 A 
ATOM     55  C   UNL A   1      43.825  27.774  33.081  1.00  0.00     0.074 A 
ATOM     56  C   UNL A   1      46.178  30.987  28.172  1.00  0.00     0.029 A 
ATOM     57  N   UNL A   1      44.935  30.256  29.864  1.00  0.00    -0.354 N 
ATOM     58  N   UNL A   1      44.247  28.494  32.069  1.00  0.00    -0.248 NA
ATOM     59  C   UNL A   1      44.602  26.545  33.306  1.00  0.00     0.031 C 
ATOM     60  C   UNL A   1      46.711  29.774  28.619  1.00  0.00     0.029 A 
ATOM     61  C   UNL A   1      45.953  29.332  29.691  1.00  0.00     0.049 A 
ATOM     62  H   UNL A   1      44.235  30.204  30.555  1.00  0.00     0.167 HD
ATOM     63  C   UNL A   1      45.348  27.818  31.552  1.00  0.00     0.074 A 
ATOM     64  C   UNL A   1      45.537  26.639  32.370  1.00  0.00     0.031 C 
ATOM     65  C   UNL A   1      46.133  28.152  30.497  1.00  0.00     0.031 A 
BRANCH  52  66
ATOM     66  C   UNL A   1      44.316  33.313  27.631  1.00  0.00    -0.014 A 
ATOM     67  C   UNL A   1      43.814  33.032  26.350  1.00  0.00     0.009 A 
ATOM     68  C   UNL A   1      45.021  34.508  27.840  1.00  0.00     0.009 A 
ATOM     69  C   UNL A   1      44.060  33.906  25.289  1.00  0.00     0.001 A 
ATOM     70  C   UNL A   1      45.237  35.395  26.785  1.00  0.00     0.001 A 
ATOM     71  C   UNL A   1      44.769  35.088  25.508  1.00  0.00     0.000 A 
ENDBRANCH  52  66
BRANCH  53  72
ATOM     72  C   UNL A   1      42.368  27.073  35.114  1.00  0.00    -0.014 A 
ATOM     73  C   UNL A   1      42.924  27.222  36.393  1.00  0.00     0.009 A 
ATOM     74  C   UNL A   1      41.511  25.989  34.867  1.00  0.00     0.009 A 
ATOM     75  C   UNL A   1      42.635  26.297  37.401  1.00  0.00     0.001 A 
ATOM     76  C   UNL A   1      41.203  25.083  35.883  1.00  0.00     0.001 A 
ATOM     77  C   UNL A   1      41.769  25.233  37.147  1.00  0.00     0.000 A 
ENDBRANCH  53  72
BRANCH  65  78
ATOM     78  C   UNL A   1      47.291  27.248  30.173  1.00  0.00    -0.014 A 
ATOM     79  C   UNL A   1      47.177  26.224  29.218  1.00  0.00     0.009 A 
ATOM     80  C   UNL A   1      48.534  27.460  30.791  1.00  0.00     0.009 A 
ATOM     81  C   UNL A   1      48.275  25.415  28.913  1.00  0.00     0.001 A 
ATOM     82  C   UNL A   1      49.637  26.669  30.464  1.00  0.00     0.001 A 
ATOM     83  C   UNL A   1      49.505  25.642  29.531  1.00  0.00     0.000 A 
ENDBRANCH  65  78
ENDBRANCH  39  40
ENDBRANCH  32  34
ENDBRANCH  31  32
ENDBRANCH  30  31
ENDBRANCH  29  30
ENDBRANCH  28  29
ENDBRANCH  27  28
ENDBRANCH   1  27
TORSDOF 21
ENDMDL
MODEL 3
REMARK VINA RESULT:      -9.2      3.417      7.537
REMARK SMILES CC[N@@H+]1CCO[C@H](C[NH2+][C@@H]2CCC[C@H](C(=O)OCCOCCOCCOC(=O)c3ccc(-c4c5nc(c(-c6ccccc6)c6ccc([nH]6)c(-c6ccccc6)c6nc(c(-c7ccccc7)c7ccc4[nH]7)C=C6)C=C5)cc3)C2)C1
REMARK SMILES IDX 21 1 20 2 19 3 18 4 17 5 15 6 16 7 14 8 10 9 11 10 77 11
REMARK SMILES IDX 12 12 13 13 9 14 8 17 7 18 3 19 4 20 78 21 5 23 6 24 2 25
REMARK SMILES IDX 1 26 22 27 23 28 24 29 25 30 26 31 27 32 28 33 29 34 30 35
REMARK SMILES IDX 76 36 31 37 75 38 32 39 33 40 34 41 69 42 35 43 74 44 68 45
REMARK SMILES IDX 70 46 36 47 73 48 67 49 66 50 37 52 59 53 44 54 58 55 45 56
REMARK SMILES IDX 48 57 57 58 71 59 46 60 47 61 56 63 72 64 49 65 38 66 39 67
REMARK SMILES IDX 43 68 40 69 42 70 41 71 60 72 61 73 65 74 62 75 64 76 63 77
REMARK SMILES IDX 50 78 51 79 55 80 52 81 54 82 53 83
REMARK H PARENT 9 15 9 16 3 22 70 51 48 62
REMARK Flexibility Score: inf
ROOT
ATOM      1  C   UNL A   1      34.350  21.133  24.299  1.00  0.00     0.188 C 
ENDROOT
BRANCH   1   2
ATOM      2  O   UNL A   1      33.099  21.459  24.886  1.00  0.00    -0.376 OA
BRANCH   2   3
ATOM      3  C   UNL A   1      32.143  22.125  24.067  1.00  0.00     0.202 C 
BRANCH   3   4
ATOM      4  C   UNL A   1      31.315  23.242  24.715  1.00  0.00     0.261 C 
BRANCH   4   5
ATOM      5  O   UNL A   1      31.995  24.500  24.847  1.00  0.00    -0.463 OA
BRANCH   5   6
ATOM      6  C   UNL A   1      31.632  25.237  25.926  1.00  0.00     0.309 C 
ATOM      7  O   UNL A   1      30.898  24.855  26.832  1.00  0.00    -0.252 OA
BRANCH   6   8
ATOM      8  C   UNL A   1      32.160  26.652  25.878  1.00  0.00     0.105 C 
ATOM      9  C   UNL A   1      32.220  28.596  24.256  1.00  0.00     0.183 C 
ATOM     10  C   UNL A   1      33.657  28.903  24.717  1.00  0.00     0.065 C 
ATOM     11  C   UNL A   1      31.856  27.133  24.470  1.00  0.00     0.080 C 
ATOM     12  C   UNL A   1      33.963  28.368  26.118  1.00  0.00     0.007 C 
ATOM     13  C   UNL A   1      33.626  26.879  26.238  1.00  0.00     0.016 C 
BRANCH   9  14
ATOM     14  N   UNL A   1      32.092  29.010  22.857  1.00  0.00    -0.341 N 
ATOM     15  H   UNL A   1      32.948  29.506  22.608  1.00  0.00     0.346 HD
ATOM     16  H   UNL A   1      31.918  28.141  22.351  1.00  0.00     0.346 HD
BRANCH  14  17
ATOM     17  C   UNL A   1      30.970  29.872  22.490  1.00  0.00     0.299 C 
BRANCH  17  18
ATOM     18  C   UNL A   1      29.730  29.327  21.729  1.00  0.00     0.227 C 
ATOM     19  N   UNL A   1      27.434  30.286  22.513  1.00  0.00    -0.331 N 
ATOM     20  C   UNL A   1      27.188  28.906  22.981  1.00  0.00     0.291 C 
ATOM     21  C   UNL A   1      28.505  30.246  21.486  1.00  0.00     0.300 C 
ATOM     22  H   UNL A   1      26.578  30.656  22.099  1.00  0.00     0.348 HD
ATOM     23  C   UNL A   1      28.466  28.155  23.380  1.00  0.00     0.222 C 
ATOM     24  O   UNL A   1      29.345  28.041  22.260  1.00  0.00    -0.361 OA
BRANCH  19  25
ATOM     25  C   UNL A   1      27.743  31.211  23.604  1.00  0.00     0.258 C 
ATOM     26  C   UNL A   1      28.441  32.495  23.178  1.00  0.00     0.071 C 
ENDBRANCH  19  25
ENDBRANCH  17  18
ENDBRANCH  14  17
ENDBRANCH   9  14
ENDBRANCH   6   8
ENDBRANCH   5   6
ENDBRANCH   4   5
ENDBRANCH   3   4
ENDBRANCH   2   3
ENDBRANCH   1   2
BRANCH   1  27
ATOM     27  C   UNL A   1      35.601  21.342  25.147  1.00  0.00     0.188 C 
BRANCH  27  28
ATOM     28  O   UNL A   1      36.494  20.240  25.243  1.00  0.00    -0.376 OA
BRANCH  28  29
ATOM     29  C   UNL A   1      37.830  20.487  24.783  1.00  0.00     0.202 C 
BRANCH  29  30
ATOM     30  C   UNL A   1      38.964  20.218  25.797  1.00  0.00     0.261 C 
BRANCH  30  31
ATOM     31  O   UNL A   1      40.061  19.428  25.283  1.00  0.00    -0.460 OA
BRANCH  31  32
ATOM     32  C   UNL A   1      41.208  19.400  26.008  1.00  0.00     0.338 C 
ATOM     33  O   UNL A   1      42.036  18.514  26.014  1.00  0.00    -0.246 OA
BRANCH  32  34
ATOM     34  C   UNL A   1      41.431  20.757  26.592  1.00  0.00     0.060 A 
ATOM     35  C   UNL A   1      41.804  21.793  25.721  1.00  0.00     0.016 A 
ATOM     36  C   UNL A   1      41.192  21.043  27.940  1.00  0.00     0.016 A 
ATOM     37  C   UNL A   1      41.998  23.091  26.203  1.00  0.00     0.010 A 
ATOM     38  C   UNL A   1      41.394  22.342  28.426  1.00  0.00     0.010 A 
ATOM     39  C   UNL A   1      41.839  23.365  27.568  1.00  0.00    -0.014 A 
BRANCH  39  40
ATOM     40  C   UNL A   1      42.355  24.640  28.132  1.00  0.00     0.031 A 
ATOM     41  C   UNL A   1      41.377  25.766  28.346  1.00  0.00     0.074 A 
ATOM     42  C   UNL A   1      43.645  24.815  28.472  1.00  0.00     0.049 A 
ATOM     43  N   UNL A   1      41.584  26.974  28.805  1.00  0.00    -0.248 NA
ATOM     44  C   UNL A   1      39.978  25.486  27.988  1.00  0.00     0.031 C 
ATOM     45  C   UNL A   1      44.699  23.812  28.361  1.00  0.00     0.029 A 
ATOM     46  N   UNL A   1      44.282  25.924  28.978  1.00  0.00    -0.354 N 
ATOM     47  C   UNL A   1      40.345  27.601  28.780  1.00  0.00     0.074 A 
ATOM     48  C   UNL A   1      39.401  26.651  28.233  1.00  0.00     0.031 C 
ATOM     49  C   UNL A   1      45.858  24.356  28.774  1.00  0.00     0.029 A 
ATOM     50  C   UNL A   1      45.633  25.752  29.151  1.00  0.00     0.049 A 
ATOM     51  H   UNL A   1      43.814  26.762  29.196  1.00  0.00     0.167 HD
ATOM     52  C   UNL A   1      40.013  28.852  29.176  1.00  0.00     0.031 A 
ATOM     53  C   UNL A   1      46.584  26.623  29.546  1.00  0.00     0.031 A 
ATOM     54  C   UNL A   1      40.941  29.816  29.700  1.00  0.00     0.049 A 
ATOM     55  C   UNL A   1      46.211  28.038  29.911  1.00  0.00     0.074 A 
ATOM     56  C   UNL A   1      40.686  31.099  30.154  1.00  0.00     0.029 A 
ATOM     57  N   UNL A   1      42.306  29.613  29.823  1.00  0.00    -0.354 N 
ATOM     58  N   UNL A   1      45.028  28.604  29.926  1.00  0.00    -0.248 NA
ATOM     59  C   UNL A   1      47.307  28.930  30.323  1.00  0.00     0.031 C 
ATOM     60  C   UNL A   1      41.906  31.695  30.488  1.00  0.00     0.029 A 
ATOM     61  C   UNL A   1      42.913  30.760  30.307  1.00  0.00     0.049 A 
ATOM     62  H   UNL A   1      42.774  28.777  29.598  1.00  0.00     0.167 HD
ATOM     63  C   UNL A   1      45.235  29.908  30.367  1.00  0.00     0.074 A 
ATOM     64  C   UNL A   1      46.653  30.044  30.623  1.00  0.00     0.031 C 
ATOM     65  C   UNL A   1      44.326  30.899  30.549  1.00  0.00     0.031 A 
BRANCH  52  66
ATOM     66  C   UNL A   1      38.576  29.261  28.998  1.00  0.00    -0.014 A 
ATOM     67  C   UNL A   1      38.111  29.798  27.787  1.00  0.00     0.009 A 
ATOM     68  C   UNL A   1      37.680  29.113  30.067  1.00  0.00     0.009 A 
ATOM     69  C   UNL A   1      36.787  30.228  27.669  1.00  0.00     0.001 A 
ATOM     70  C   UNL A   1      36.350  29.513  29.935  1.00  0.00     0.001 A 
ATOM     71  C   UNL A   1      35.908  30.082  28.742  1.00  0.00     0.000 A 
ENDBRANCH  52  66
BRANCH  53  72
ATOM     72  C   UNL A   1      48.007  26.189  29.591  1.00  0.00    -0.014 A 
ATOM     73  C   UNL A   1      48.775  26.115  28.420  1.00  0.00     0.009 A 
ATOM     74  C   UNL A   1      48.599  25.841  30.815  1.00  0.00     0.009 A 
ATOM     75  C   UNL A   1      50.105  25.689  28.473  1.00  0.00     0.001 A 
ATOM     76  C   UNL A   1      49.936  25.443  30.869  1.00  0.00     0.001 A 
ATOM     77  C   UNL A   1      50.686  25.361  29.698  1.00  0.00     0.000 A 
ENDBRANCH  53  72
BRANCH  65  78
ATOM     78  C   UNL A   1      44.824  32.218  31.075  1.00  0.00    -0.014 A 
ATOM     79  C   UNL A   1      45.169  33.268  30.209  1.00  0.00     0.009 A 
ATOM     80  C   UNL A   1      44.895  32.433  32.460  1.00  0.00     0.009 A 
ATOM     81  C   UNL A   1      45.603  34.495  30.721  1.00  0.00     0.001 A 
ATOM     82  C   UNL A   1      45.301  33.668  32.970  1.00  0.00     0.001 A 
ATOM     83  C   UNL A   1      45.662  34.695  32.101  1.00  0.00     0.000 A 
ENDBRANCH  65  78
ENDBRANCH  39  40
ENDBRANCH  32  34
ENDBRANCH  31  32
ENDBRANCH  30  31
ENDBRANCH  29  30
ENDBRANCH  28  29
ENDBRANCH  27  28
ENDBRANCH   1  27
TORSDOF 21
ENDMDL
