MODEL 1
REMARK VINA RESULT:     -10.4      0.000      0.000
REMARK SMILES O=C(OCCOCCOCCOC(=O)c1cc(NC(=S)NC(=O)c2ccccc2F)ccc1Cl)c1ccc(-c2c3nc(c(-c4ccccc4)c4ccc([nH]4)c(-c4ccccc4)c4nc(c(-c5ccccc5)c5ccc2[nH]5)C=C4)C=C3)cc1
REMARK SMILES IDX 8 1 7 2 6 3 5 4 4 5 3 6 2 7 1 8 35 9 36 10 82 11 37 12 81 13
REMARK SMILES IDX 38 14 39 15 40 16 75 17 41 18 80 19 74 20 76 21 42 22 79 23
REMARK SMILES IDX 73 24 72 25 43 27 65 28 50 29 64 30 51 31 54 32 63 33 77 34
REMARK SMILES IDX 52 35 53 36 62 38 78 39 55 40 44 41 45 42 49 43 46 44 48 45
REMARK SMILES IDX 47 46 66 47 67 48 71 49 68 50 70 51 69 52 56 53 57 54 61 55
REMARK SMILES IDX 58 56 60 57 59 58 9 59 10 60 11 61 12 62 13 63 14 64 15 65
REMARK SMILES IDX 16 66 33 67 17 68 32 69 34 70 31 71 18 72 19 74 20 75 21 76
REMARK SMILES IDX 22 77 23 79 24 80 25 81 29 82 26 83 28 84 30 85 27 86
REMARK H PARENT 76 26 54 37 18 73 21 78
REMARK Flexibility Score: inf
ROOT
ATOM      1  C   UNL A   1      35.457  33.630  29.137  1.00  0.00     0.188 C 
ENDROOT
BRANCH   1   2
ATOM      2  C   UNL A   1      34.056  34.119  28.779  1.00  0.00     0.188 C 
BRANCH   2   3
ATOM      3  O   UNL A   1      33.997  35.521  28.521  1.00  0.00    -0.376 OA
BRANCH   3   4
ATOM      4  C   UNL A   1      32.896  36.208  29.123  1.00  0.00     0.202 C 
BRANCH   4   5
ATOM      5  C   UNL A   1      33.221  37.208  30.256  1.00  0.00     0.261 C 
BRANCH   5   6
ATOM      6  O   UNL A   1      32.712  36.873  31.567  1.00  0.00    -0.460 OA
BRANCH   6   7
ATOM      7  C   UNL A   1      32.691  35.686  32.225  1.00  0.00     0.338 C 
ATOM      8  O   UNL A   1      31.613  35.198  32.557  1.00  0.00    -0.246 OA
BRANCH   7   9
ATOM      9  C   UNL A   1      33.932  34.950  32.589  1.00  0.00     0.060 A 
ATOM     10  C   UNL A   1      35.185  35.540  32.587  1.00  0.00     0.016 A 
ATOM     11  C   UNL A   1      33.843  33.631  33.055  1.00  0.00     0.016 A 
ATOM     12  C   UNL A   1      36.340  34.846  32.862  1.00  0.00     0.010 A 
ATOM     13  C   UNL A   1      34.997  32.943  33.462  1.00  0.00     0.010 A 
ATOM     14  C   UNL A   1      36.259  33.548  33.330  1.00  0.00    -0.014 A 
BRANCH  14  15
ATOM     15  C   UNL A   1      37.535  32.836  33.520  1.00  0.00     0.031 A 
ATOM     16  C   UNL A   1      38.281  33.091  34.787  1.00  0.00     0.074 A 
ATOM     17  C   UNL A   1      37.902  31.834  32.695  1.00  0.00     0.049 A 
ATOM     18  N   UNL A   1      39.401  32.565  35.195  1.00  0.00    -0.248 NA
ATOM     19  C   UNL A   1      37.659  34.022  35.748  1.00  0.00     0.031 C 
ATOM     20  C   UNL A   1      37.118  31.335  31.564  1.00  0.00     0.029 A 
ATOM     21  N   UNL A   1      39.005  31.019  32.702  1.00  0.00    -0.354 N 
ATOM     22  C   UNL A   1      39.611  33.091  36.459  1.00  0.00     0.074 A 
ATOM     23  C   UNL A   1      38.539  34.018  36.733  1.00  0.00     0.031 C 
ATOM     24  C   UNL A   1      37.779  30.331  30.973  1.00  0.00     0.029 A 
ATOM     25  C   UNL A   1      39.048  30.147  31.639  1.00  0.00     0.049 A 
ATOM     26  H   UNL A   1      39.699  31.055  33.398  1.00  0.00     0.167 HD
ATOM     27  C   UNL A   1      40.603  32.797  37.323  1.00  0.00     0.031 A 
ATOM     28  C   UNL A   1      40.010  29.308  31.224  1.00  0.00     0.031 A 
ATOM     29  C   UNL A   1      41.667  31.882  37.021  1.00  0.00     0.049 A 
ATOM     30  C   UNL A   1      41.213  29.174  32.093  1.00  0.00     0.074 A 
ATOM     31  C   UNL A   1      42.773  31.567  37.785  1.00  0.00     0.029 A 
ATOM     32  N   UNL A   1      41.755  31.139  35.851  1.00  0.00    -0.354 N 
ATOM     33  N   UNL A   1      41.446  29.740  33.250  1.00  0.00    -0.248 NA
ATOM     34  C   UNL A   1      42.262  28.264  31.624  1.00  0.00     0.031 C 
ATOM     35  C   UNL A   1      43.568  30.686  37.045  1.00  0.00     0.029 A 
ATOM     36  C   UNL A   1      42.919  30.393  35.856  1.00  0.00     0.049 A 
ATOM     37  H   UNL A   1      41.088  31.143  35.127  1.00  0.00     0.167 HD
ATOM     38  C   UNL A   1      42.655  29.224  33.675  1.00  0.00     0.074 A 
ATOM     39  C   UNL A   1      43.091  28.286  32.656  1.00  0.00     0.031 C 
ATOM     40  C   UNL A   1      43.337  29.493  34.812  1.00  0.00     0.031 A 
BRANCH  27  41
ATOM     41  C   UNL A   1      40.601  33.533  38.628  1.00  0.00    -0.014 A 
ATOM     42  C   UNL A   1      41.385  34.681  38.828  1.00  0.00     0.009 A 
ATOM     43  C   UNL A   1      39.820  33.046  39.686  1.00  0.00     0.009 A 
ATOM     44  C   UNL A   1      41.403  35.313  40.072  1.00  0.00     0.001 A 
ATOM     45  C   UNL A   1      39.818  33.698  40.919  1.00  0.00     0.001 A 
ATOM     46  C   UNL A   1      40.614  34.825  41.114  1.00  0.00     0.000 A 
ENDBRANCH  27  41
BRANCH  28  47
ATOM     47  C   UNL A   1      39.927  28.604  29.916  1.00  0.00    -0.014 A 
ATOM     48  C   UNL A   1      39.454  27.289  29.810  1.00  0.00     0.009 A 
ATOM     49  C   UNL A   1      40.408  29.241  28.760  1.00  0.00     0.009 A 
ATOM     50  C   UNL A   1      39.487  26.621  28.580  1.00  0.00     0.001 A 
ATOM     51  C   UNL A   1      40.409  28.584  27.527  1.00  0.00     0.001 A 
ATOM     52  C   UNL A   1      39.958  27.271  27.439  1.00  0.00     0.000 A 
ENDBRANCH  28  47
BRANCH  40  53
ATOM     53  C   UNL A   1      44.612  28.732  35.004  1.00  0.00    -0.014 A 
ATOM     54  C   UNL A   1      45.838  29.236  34.544  1.00  0.00     0.009 A 
ATOM     55  C   UNL A   1      44.574  27.484  35.642  1.00  0.00     0.009 A 
ATOM     56  C   UNL A   1      46.997  28.474  34.670  1.00  0.00     0.001 A 
ATOM     57  C   UNL A   1      45.742  26.746  35.809  1.00  0.00     0.001 A 
ATOM     58  C   UNL A   1      46.949  27.234  35.308  1.00  0.00     0.000 A 
ENDBRANCH  40  53
ENDBRANCH  14  15
ENDBRANCH   7   9
ENDBRANCH   6   7
ENDBRANCH   5   6
ENDBRANCH   4   5
ENDBRANCH   3   4
ENDBRANCH   2   3
ENDBRANCH   1   2
BRANCH   1  59
ATOM     59  O   UNL A   1      35.988  32.561  28.370  1.00  0.00    -0.376 OA
BRANCH  59  60
ATOM     60  C   UNL A   1      35.319  31.313  28.496  1.00  0.00     0.202 C 
BRANCH  60  61
ATOM     61  C   UNL A   1      35.578  30.183  27.467  1.00  0.00     0.261 C 
BRANCH  61  62
ATOM     62  O   UNL A   1      34.509  29.252  27.151  1.00  0.00    -0.460 OA
BRANCH  62  63
ATOM     63  C   UNL A   1      33.505  29.778  26.389  1.00  0.00     0.339 C 
ATOM     64  O   UNL A   1      32.994  30.876  26.566  1.00  0.00    -0.246 OA
BRANCH  63  65
ATOM     65  C   UNL A   1      32.921  28.767  25.374  1.00  0.00     0.080 A 
ATOM     66  C   UNL A   1      32.908  28.476  23.374  1.00  0.00     0.043 A 
ATOM     67  C   UNL A   1      31.621  27.882  26.279  1.00  0.00     0.055 A 
ATOM     68  C   UNL A   1      31.886  27.350  22.599  1.00  0.00     0.041 A 
ATOM     69  C   UNL A   1      30.513  26.832  25.348  1.00  0.00     0.023 A 
ATOM     70  Cl  UNL A   1      31.339  28.117  27.961  1.00  0.00    -0.083 Cl
ATOM     71  C   UNL A   1      30.655  26.571  23.574  1.00  0.00     0.028 A 
BRANCH  68  72
ATOM     72  N   UNL A   1      32.541  26.813  21.474  1.00  0.00    -0.332 N 
ATOM     73  H   UNL A   1      33.061  27.467  20.953  1.00  0.00     0.169 HD
BRANCH  72  74
ATOM     74  C   UNL A   1      32.579  25.523  20.980  1.00  0.00     0.177 C 
ATOM     75  S   UNL A   1      32.500  25.385  19.303  1.00  0.00    -0.040 S 
BRANCH  74  76
ATOM     76  N   UNL A   1      32.660  24.280  21.691  1.00  0.00    -0.299 N 
ATOM     77  C   UNL A   1      33.118  23.387  22.800  1.00  0.00     0.260 C 
ATOM     78  H   UNL A   1      32.107  23.678  21.142  1.00  0.00     0.172 HD
ATOM     79  O   UNL A   1      32.982  22.170  22.713  1.00  0.00    -0.269 OA
BRANCH  77  80
ATOM     80  C   UNL A   1      33.852  23.931  24.009  1.00  0.00     0.075 A 
ATOM     81  C   UNL A   1      32.795  23.910  25.474  1.00  0.00     0.017 A 
ATOM     82  C   UNL A   1      35.392  23.155  23.924  1.00  0.00     0.135 A 
ATOM     83  C   UNL A   1      33.117  22.845  26.880  1.00  0.00     0.001 A 
ATOM     84  C   UNL A   1      35.841  22.068  25.228  1.00  0.00     0.040 A 
ATOM     85  F   UNL A   1      35.956  22.920  22.735  1.00  0.00    -0.206 F 
ATOM     86  C   UNL A   1      34.614  21.824  26.817  1.00  0.00     0.003 A 
ENDBRANCH  77  80
ENDBRANCH  74  76
ENDBRANCH  72  74
ENDBRANCH  68  72
ENDBRANCH  63  65
ENDBRANCH  62  63
ENDBRANCH  61  62
ENDBRANCH  60  61
ENDBRANCH  59  60
ENDBRANCH   1  59
TORSDOF 21
ENDMDL
MODEL 2
REMARK VINA RESULT:      -9.8      1.689      2.233
REMARK SMILES O=C(OCCOCCOCCOC(=O)c1cc(NC(=S)NC(=O)c2ccccc2F)ccc1Cl)c1ccc(-c2c3nc(c(-c4ccccc4)c4ccc([nH]4)c(-c4ccccc4)c4nc(c(-c5ccccc5)c5ccc2[nH]5)C=C4)C=C3)cc1
REMARK SMILES IDX 8 1 7 2 6 3 5 4 4 5 3 6 2 7 1 8 35 9 36 10 82 11 37 12 81 13
REMARK SMILES IDX 38 14 39 15 40 16 75 17 41 18 80 19 74 20 76 21 42 22 79 23
REMARK SMILES IDX 73 24 72 25 43 27 65 28 50 29 64 30 51 31 54 32 63 33 77 34
REMARK SMILES IDX 52 35 53 36 62 38 78 39 55 40 44 41 45 42 49 43 46 44 48 45
REMARK SMILES IDX 47 46 66 47 67 48 71 49 68 50 70 51 69 52 56 53 57 54 61 55
REMARK SMILES IDX 58 56 60 57 59 58 9 59 10 60 11 61 12 62 13 63 14 64 15 65
REMARK SMILES IDX 16 66 33 67 17 68 32 69 34 70 31 71 18 72 19 74 20 75 21 76
REMARK SMILES IDX 22 77 23 79 24 80 25 81 29 82 26 83 28 84 30 85 27 86
REMARK H PARENT 76 26 54 37 18 73 21 78
REMARK Flexibility Score: inf
ROOT
ATOM      1  C   UNL A   1      35.082  32.379  27.643  1.00  0.00     0.188 C 
ENDROOT
BRANCH   1   2
ATOM      2  C   UNL A   1      35.284  33.213  28.906  1.00  0.00     0.188 C 
BRANCH   2   3
ATOM      3  O   UNL A   1      34.712  34.516  28.818  1.00  0.00    -0.376 OA
BRANCH   3   4
ATOM      4  C   UNL A   1      33.284  34.553  28.724  1.00  0.00     0.202 C 
BRANCH   4   5
ATOM      5  C   UNL A   1      32.576  35.837  29.212  1.00  0.00     0.261 C 
BRANCH   5   6
ATOM      6  O   UNL A   1      32.853  36.238  30.573  1.00  0.00    -0.460 OA
BRANCH   6   7
ATOM      7  C   UNL A   1      32.908  35.503  31.712  1.00  0.00     0.338 C 
ATOM      8  O   UNL A   1      31.922  35.447  32.445  1.00  0.00    -0.246 OA
BRANCH   7   9
ATOM      9  C   UNL A   1      34.132  34.768  32.133  1.00  0.00     0.060 A 
ATOM     10  C   UNL A   1      35.410  35.280  31.972  1.00  0.00     0.016 A 
ATOM     11  C   UNL A   1      34.008  33.551  32.817  1.00  0.00     0.016 A 
ATOM     12  C   UNL A   1      36.545  34.577  32.302  1.00  0.00     0.010 A 
ATOM     13  C   UNL A   1      35.152  32.876  33.275  1.00  0.00     0.010 A 
ATOM     14  C   UNL A   1      36.430  33.380  32.983  1.00  0.00    -0.014 A 
BRANCH  14  15
ATOM     15  C   UNL A   1      37.680  32.640  33.226  1.00  0.00     0.031 A 
ATOM     16  C   UNL A   1      38.419  32.936  34.490  1.00  0.00     0.074 A 
ATOM     17  C   UNL A   1      38.026  31.585  32.459  1.00  0.00     0.049 A 
ATOM     18  N   UNL A   1      39.516  32.396  34.939  1.00  0.00    -0.248 NA
ATOM     19  C   UNL A   1      37.815  33.933  35.393  1.00  0.00     0.031 C 
ATOM     20  C   UNL A   1      37.240  31.054  31.344  1.00  0.00     0.029 A 
ATOM     21  N   UNL A   1      39.102  30.738  32.522  1.00  0.00    -0.354 N 
ATOM     22  C   UNL A   1      39.727  32.979  36.178  1.00  0.00     0.074 A 
ATOM     23  C   UNL A   1      38.682  33.952  36.390  1.00  0.00     0.031 C 
ATOM     24  C   UNL A   1      37.876  30.001  30.814  1.00  0.00     0.029 A 
ATOM     25  C   UNL A   1      39.131  29.813  31.506  1.00  0.00     0.049 A 
ATOM     26  H   UNL A   1      39.788  30.789  33.225  1.00  0.00     0.167 HD
ATOM     27  C   UNL A   1      40.698  32.699  37.070  1.00  0.00     0.031 A 
ATOM     28  C   UNL A   1      40.071  28.924  31.146  1.00  0.00     0.031 A 
ATOM     29  C   UNL A   1      41.737  31.737  36.829  1.00  0.00     0.049 A 
ATOM     30  C   UNL A   1      41.258  28.797  32.038  1.00  0.00     0.074 A 
ATOM     31  C   UNL A   1      42.822  31.427  37.623  1.00  0.00     0.029 A 
ATOM     32  N   UNL A   1      41.815  30.933  35.699  1.00  0.00    -0.354 N 
ATOM     33  N   UNL A   1      41.494  29.413  33.168  1.00  0.00    -0.248 NA
ATOM     34  C   UNL A   1      42.283  27.832  31.631  1.00  0.00     0.031 C 
ATOM     35  C   UNL A   1      43.598  30.486  36.940  1.00  0.00     0.029 A 
ATOM     36  C   UNL A   1      42.954  30.152  35.758  1.00  0.00     0.049 A 
ATOM     37  H   UNL A   1      41.158  30.921  34.967  1.00  0.00     0.167 HD
ATOM     38  C   UNL A   1      42.680  28.882  33.636  1.00  0.00     0.074 A 
ATOM     39  C   UNL A   1      43.099  27.881  32.672  1.00  0.00     0.031 C 
ATOM     40  C   UNL A   1      43.357  29.188  34.767  1.00  0.00     0.031 A 
BRANCH  27  41
ATOM     41  C   UNL A   1      40.703  33.500  38.336  1.00  0.00    -0.014 A 
ATOM     42  C   UNL A   1      41.439  34.691  38.451  1.00  0.00     0.009 A 
ATOM     43  C   UNL A   1      39.980  33.034  39.442  1.00  0.00     0.009 A 
ATOM     44  C   UNL A   1      41.468  35.386  39.661  1.00  0.00     0.001 A 
ATOM     45  C   UNL A   1      39.987  33.747  40.641  1.00  0.00     0.001 A 
ATOM     46  C   UNL A   1      40.736  34.917  40.752  1.00  0.00     0.000 A 
ENDBRANCH  27  41
BRANCH  28  47
ATOM     47  C   UNL A   1      39.981  28.157  29.875  1.00  0.00    -0.014 A 
ATOM     48  C   UNL A   1      39.451  26.860  29.826  1.00  0.00     0.009 A 
ATOM     49  C   UNL A   1      40.513  28.711  28.699  1.00  0.00     0.009 A 
ATOM     50  C   UNL A   1      39.479  26.128  28.633  1.00  0.00     0.001 A 
ATOM     51  C   UNL A   1      40.508  27.992  27.501  1.00  0.00     0.001 A 
ATOM     52  C   UNL A   1      40.000  26.697  27.470  1.00  0.00     0.000 A 
ENDBRANCH  28  47
BRANCH  40  53
ATOM     53  C   UNL A   1      44.604  28.398  35.015  1.00  0.00    -0.014 A 
ATOM     54  C   UNL A   1      44.569  27.177  35.706  1.00  0.00     0.009 A 
ATOM     55  C   UNL A   1      45.833  28.898  34.560  1.00  0.00     0.009 A 
ATOM     56  C   UNL A   1      45.753  26.499  35.986  1.00  0.00     0.001 A 
ATOM     57  C   UNL A   1      47.009  28.194  34.800  1.00  0.00     0.001 A 
ATOM     58  C   UNL A   1      46.970  27.004  35.527  1.00  0.00     0.000 A 
ENDBRANCH  40  53
ENDBRANCH  14  15
ENDBRANCH   7   9
ENDBRANCH   6   7
ENDBRANCH   5   6
ENDBRANCH   4   5
ENDBRANCH   3   4
ENDBRANCH   2   3
ENDBRANCH   1   2
BRANCH   1  59
ATOM     59  O   UNL A   1      35.315  30.983  27.741  1.00  0.00    -0.376 OA
BRANCH  59  60
ATOM     60  C   UNL A   1      34.166  30.152  27.629  1.00  0.00     0.202 C 
BRANCH  60  61
ATOM     61  C   UNL A   1      33.571  29.830  26.235  1.00  0.00     0.261 C 
BRANCH  61  62
ATOM     62  O   UNL A   1      34.074  28.685  25.495  1.00  0.00    -0.460 OA
BRANCH  62  63
ATOM     63  C   UNL A   1      33.547  28.542  24.243  1.00  0.00     0.339 C 
ATOM     64  O   UNL A   1      33.700  29.336  23.324  1.00  0.00    -0.246 OA
BRANCH  63  65
ATOM     65  C   UNL A   1      32.557  27.358  24.134  1.00  0.00     0.080 A 
ATOM     66  C   UNL A   1      32.588  25.412  23.594  1.00  0.00     0.043 A 
ATOM     67  C   UNL A   1      30.908  28.115  24.150  1.00  0.00     0.055 A 
ATOM     68  C   UNL A   1      31.176  24.485  23.348  1.00  0.00     0.041 A 
ATOM     69  C   UNL A   1      29.504  27.085  23.741  1.00  0.00     0.023 A 
ATOM     70  Cl  UNL A   1      30.664  29.799  24.413  1.00  0.00    -0.083 Cl
ATOM     71  C   UNL A   1      29.641  25.331  23.368  1.00  0.00     0.028 A 
BRANCH  68  72
ATOM     72  N   UNL A   1      31.413  23.151  23.732  1.00  0.00    -0.332 N 
ATOM     73  H   UNL A   1      31.634  22.545  22.988  1.00  0.00     0.169 HD
BRANCH  72  74
ATOM     74  C   UNL A   1      31.389  22.551  24.976  1.00  0.00     0.177 C 
ATOM     75  S   UNL A   1      30.720  23.474  26.216  1.00  0.00    -0.040 S 
BRANCH  74  76
ATOM     76  N   UNL A   1      31.867  21.257  25.370  1.00  0.00    -0.299 N 
ATOM     77  C   UNL A   1      32.915  20.274  25.786  1.00  0.00     0.260 C 
ATOM     78  H   UNL A   1      31.049  20.709  25.357  1.00  0.00     0.172 HD
ATOM     79  O   UNL A   1      32.675  19.070  25.776  1.00  0.00    -0.269 OA
BRANCH  77  80
ATOM     80  C   UNL A   1      34.324  20.711  26.128  1.00  0.00     0.075 A 
ATOM     81  C   UNL A   1      35.327  20.893  24.635  1.00  0.00     0.017 A 
ATOM     82  C   UNL A   1      34.085  21.969  27.285  1.00  0.00     0.135 A 
ATOM     83  C   UNL A   1      35.934  22.483  24.071  1.00  0.00     0.001 A 
ATOM     84  C   UNL A   1      34.619  23.588  26.864  1.00  0.00     0.040 A 
ATOM     85  F   UNL A   1      33.082  21.886  28.164  1.00  0.00    -0.206 F 
ATOM     86  C   UNL A   1      35.569  23.923  25.110  1.00  0.00     0.003 A 
ENDBRANCH  77  80
ENDBRANCH  74  76
ENDBRANCH  72  74
ENDBRANCH  68  72
ENDBRANCH  63  65
ENDBRANCH  62  63
ENDBRANCH  61  62
ENDBRANCH  60  61
ENDBRANCH  59  60
ENDBRANCH   1  59
TORSDOF 21
ENDMDL
MODEL 3
REMARK VINA RESULT:      -9.8      0.539      5.737
REMARK SMILES O=C(OCCOCCOCCOC(=O)c1cc(NC(=S)NC(=O)c2ccccc2F)ccc1Cl)c1ccc(-c2c3nc(c(-c4ccccc4)c4ccc([nH]4)c(-c4ccccc4)c4nc(c(-c5ccccc5)c5ccc2[nH]5)C=C4)C=C3)cc1
REMARK SMILES IDX 8 1 7 2 6 3 5 4 4 5 3 6 2 7 1 8 35 9 36 10 82 11 37 12 81 13
REMARK SMILES IDX 38 14 39 15 40 16 75 17 41 18 80 19 74 20 76 21 42 22 79 23
REMARK SMILES IDX 73 24 72 25 43 27 65 28 50 29 64 30 51 31 54 32 63 33 77 34
REMARK SMILES IDX 52 35 53 36 62 38 78 39 55 40 44 41 45 42 49 43 46 44 48 45
REMARK SMILES IDX 47 46 66 47 67 48 71 49 68 50 70 51 69 52 56 53 57 54 61 55
REMARK SMILES IDX 58 56 60 57 59 58 9 59 10 60 11 61 12 62 13 63 14 64 15 65
REMARK SMILES IDX 16 66 33 67 17 68 32 69 34 70 31 71 18 72 19 74 20 75 21 76
REMARK SMILES IDX 22 77 23 79 24 80 25 81 29 82 26 83 28 84 30 85 27 86
REMARK H PARENT 76 26 54 37 18 73 21 78
REMARK Flexibility Score: inf
ROOT
ATOM      1  C   UNL A   1      35.700  33.428  28.264  1.00  0.00     0.188 C 
ENDROOT
BRANCH   1   2
ATOM      2  C   UNL A   1      34.261  33.406  28.775  1.00  0.00     0.188 C 
BRANCH   2   3
ATOM      3  O   UNL A   1      33.373  34.201  27.993  1.00  0.00    -0.376 OA
BRANCH   3   4
ATOM      4  C   UNL A   1      32.556  35.114  28.732  1.00  0.00     0.202 C 
BRANCH   4   5
ATOM      5  C   UNL A   1      33.279  36.120  29.656  1.00  0.00     0.261 C 
BRANCH   5   6
ATOM      6  O   UNL A   1      32.765  36.231  31.003  1.00  0.00    -0.460 OA
BRANCH   6   7
ATOM      7  C   UNL A   1      32.874  35.383  32.057  1.00  0.00     0.338 C 
ATOM      8  O   UNL A   1      31.911  35.221  32.804  1.00  0.00    -0.246 OA
BRANCH   7   9
ATOM      9  C   UNL A   1      34.130  34.649  32.369  1.00  0.00     0.060 A 
ATOM     10  C   UNL A   1      34.143  33.410  32.991  1.00  0.00     0.016 A 
ATOM     11  C   UNL A   1      35.359  35.163  31.934  1.00  0.00     0.016 A 
ATOM     12  C   UNL A   1      35.304  32.759  33.337  1.00  0.00     0.010 A 
ATOM     13  C   UNL A   1      36.547  34.450  32.166  1.00  0.00     0.010 A 
ATOM     14  C   UNL A   1      36.518  33.256  32.905  1.00  0.00    -0.014 A 
BRANCH  14  15
ATOM     15  C   UNL A   1      37.723  32.557  33.384  1.00  0.00     0.031 A 
ATOM     16  C   UNL A   1      38.326  31.530  32.484  1.00  0.00     0.074 A 
ATOM     17  C   UNL A   1      38.383  32.981  34.482  1.00  0.00     0.049 A 
ATOM     18  N   UNL A   1      39.396  30.811  32.668  1.00  0.00    -0.248 NA
ATOM     19  C   UNL A   1      37.668  31.322  31.181  1.00  0.00     0.031 C 
ATOM     20  C   UNL A   1      38.015  34.140  35.299  1.00  0.00     0.029 A 
ATOM     21  N   UNL A   1      39.526  32.519  35.082  1.00  0.00    -0.354 N 
ATOM     22  C   UNL A   1      39.545  30.075  31.505  1.00  0.00     0.074 A 
ATOM     23  C   UNL A   1      38.431  30.388  30.641  1.00  0.00     0.031 C 
ATOM     24  C   UNL A   1      38.892  34.272  36.302  1.00  0.00     0.029 A 
ATOM     25  C   UNL A   1      39.847  33.190  36.239  1.00  0.00     0.049 A 
ATOM     26  H   UNL A   1      40.064  31.780  34.720  1.00  0.00     0.167 HD
ATOM     27  C   UNL A   1      40.546  29.232  31.179  1.00  0.00     0.031 A 
ATOM     28  C   UNL A   1      40.787  32.950  37.167  1.00  0.00     0.031 A 
ATOM     29  C   UNL A   1      41.635  28.925  32.062  1.00  0.00     0.049 A 
ATOM     30  C   UNL A   1      41.751  31.850  36.885  1.00  0.00     0.074 A 
ATOM     31  C   UNL A   1      42.665  28.024  31.876  1.00  0.00     0.029 A 
ATOM     32  N   UNL A   1      41.829  29.514  33.305  1.00  0.00    -0.354 N 
ATOM     33  N   UNL A   1      41.836  31.098  35.817  1.00  0.00    -0.248 NA
ATOM     34  C   UNL A   1      42.766  31.590  37.909  1.00  0.00     0.031 C 
ATOM     35  C   UNL A   1      43.442  28.015  33.038  1.00  0.00     0.029 A 
ATOM     36  C   UNL A   1      42.943  28.967  33.915  1.00  0.00     0.049 A 
ATOM     37  H   UNL A   1      41.259  30.216  33.693  1.00  0.00     0.167 HD
ATOM     38  C   UNL A   1      42.943  30.297  36.018  1.00  0.00     0.074 A 
ATOM     39  C   UNL A   1      43.503  30.673  37.303  1.00  0.00     0.031 C 
ATOM     40  C   UNL A   1      43.456  29.342  35.206  1.00  0.00     0.031 A 
BRANCH  27  41
ATOM     41  C   UNL A   1      40.447  28.547  29.851  1.00  0.00    -0.014 A 
ATOM     42  C   UNL A   1      41.018  29.100  28.693  1.00  0.00     0.009 A 
ATOM     43  C   UNL A   1      39.740  27.341  29.755  1.00  0.00     0.009 A 
ATOM     44  C   UNL A   1      40.861  28.465  27.459  1.00  0.00     0.001 A 
ATOM     45  C   UNL A   1      39.611  26.693  28.527  1.00  0.00     0.001 A 
ATOM     46  C   UNL A   1      40.164  27.259  27.380  1.00  0.00     0.000 A 
ENDBRANCH  27  41
BRANCH  28  47
ATOM     47  C   UNL A   1      40.822  33.688  38.458  1.00  0.00    -0.014 A 
ATOM     48  C   UNL A   1      41.597  34.843  38.633  1.00  0.00     0.009 A 
ATOM     49  C   UNL A   1      40.122  33.175  39.563  1.00  0.00     0.009 A 
ATOM     50  C   UNL A   1      41.689  35.452  39.890  1.00  0.00     0.001 A 
ATOM     51  C   UNL A   1      40.187  33.804  40.809  1.00  0.00     0.001 A 
ATOM     52  C   UNL A   1      40.978  34.937  40.974  1.00  0.00     0.000 A 
ENDBRANCH  28  47
BRANCH  40  53
ATOM     53  C   UNL A   1      44.701  28.672  35.695  1.00  0.00    -0.014 A 
ATOM     54  C   UNL A   1      44.644  27.507  36.476  1.00  0.00     0.009 A 
ATOM     55  C   UNL A   1      45.948  29.229  35.378  1.00  0.00     0.009 A 
ATOM     56  C   UNL A   1      45.815  26.945  36.979  1.00  0.00     0.001 A 
ATOM     57  C   UNL A   1      47.120  28.637  35.842  1.00  0.00     0.001 A 
ATOM     58  C   UNL A   1      47.051  27.506  36.655  1.00  0.00     0.000 A 
ENDBRANCH  40  53
ENDBRANCH  14  15
ENDBRANCH   7   9
ENDBRANCH   6   7
ENDBRANCH   5   6
ENDBRANCH   4   5
ENDBRANCH   3   4
ENDBRANCH   2   3
ENDBRANCH   1   2
BRANCH   1  59
ATOM     59  O   UNL A   1      36.327  32.176  28.033  1.00  0.00    -0.376 OA
BRANCH  59  60
ATOM     60  C   UNL A   1      35.541  31.025  28.313  1.00  0.00     0.202 C 
BRANCH  60  61
ATOM     61  C   UNL A   1      35.514  29.839  27.316  1.00  0.00     0.261 C 
BRANCH  61  62
ATOM     62  O   UNL A   1      34.296  29.061  27.170  1.00  0.00    -0.460 OA
BRANCH  62  63
ATOM     63  C   UNL A   1      33.349  29.635  26.370  1.00  0.00     0.339 C 
ATOM     64  O   UNL A   1      32.894  30.762  26.520  1.00  0.00    -0.246 OA
BRANCH  63  65
ATOM     65  C   UNL A   1      32.745  28.648  25.343  1.00  0.00     0.080 A 
ATOM     66  C   UNL A   1      32.672  28.416  23.338  1.00  0.00     0.043 A 
ATOM     67  C   UNL A   1      31.483  27.722  26.261  1.00  0.00     0.055 A 
ATOM     68  C   UNL A   1      31.638  27.302  22.561  1.00  0.00     0.041 A 
ATOM     69  C   UNL A   1      30.357  26.687  25.334  1.00  0.00     0.023 A 
ATOM     70  Cl  UNL A   1      31.252  27.903  27.958  1.00  0.00    -0.083 Cl
ATOM     71  C   UNL A   1      30.447  26.480  23.550  1.00  0.00     0.028 A 
BRANCH  68  72
ATOM     72  N   UNL A   1      32.263  26.806  21.401  1.00  0.00    -0.332 N 
ATOM     73  H   UNL A   1      32.635  27.500  20.808  1.00  0.00     0.169 HD
BRANCH  72  74
ATOM     74  C   UNL A   1      32.445  25.511  20.954  1.00  0.00     0.177 C 
ATOM     75  S   UNL A   1      32.570  25.329  19.284  1.00  0.00    -0.040 S 
BRANCH  74  76
ATOM     76  N   UNL A   1      32.526  24.293  21.708  1.00  0.00    -0.299 N 
ATOM     77  C   UNL A   1      33.002  23.433  22.835  1.00  0.00     0.260 C 
ATOM     78  H   UNL A   1      31.944  23.683  21.200  1.00  0.00     0.172 HD
ATOM     79  O   UNL A   1      32.841  22.216  22.798  1.00  0.00    -0.269 OA
BRANCH  77  80
ATOM     80  C   UNL A   1      33.787  24.005  23.997  1.00  0.00     0.075 A 
ATOM     81  C   UNL A   1      32.792  24.021  25.506  1.00  0.00     0.017 A 
ATOM     82  C   UNL A   1      35.322  23.227  23.867  1.00  0.00     0.135 A 
ATOM     83  C   UNL A   1      33.172  22.991  26.922  1.00  0.00     0.001 A 
ATOM     84  C   UNL A   1      35.825  22.173  25.178  1.00  0.00     0.040 A 
ATOM     85  F   UNL A   1      35.836  22.963  22.662  1.00  0.00    -0.206 F 
ATOM     86  C   UNL A   1      34.666  21.968  26.823  1.00  0.00     0.003 A 
ENDBRANCH  77  80
ENDBRANCH  74  76
ENDBRANCH  72  74
ENDBRANCH  68  72
ENDBRANCH  63  65
ENDBRANCH  62  63
ENDBRANCH  61  62
ENDBRANCH  60  61
ENDBRANCH  59  60
ENDBRANCH   1  59
TORSDOF 21
ENDMDL
