MODEL 1
REMARK VINA RESULT:      -9.9      0.000      0.000
REMARK SMILES O=C(OCCOCCOCCOC(=O)[C@H](Cc1ccc(O)cc1)NC(=O)c1ccc(Cl)s1)c1ccc(-c2c3nc(c(-c4ccccc4)c4ccc([nH]4)c(-c4ccccc4)c4nc(c(-c5ccccc5)c5ccc2[nH]5)C=C4)C=C3)cc1
REMARK SMILES IDX 8 1 7 2 6 3 5 4 4 5 3 6 2 7 1 8 33 9 34 10 80 11 35 12 79 13
REMARK SMILES IDX 36 14 37 15 38 16 73 17 39 18 78 19 72 20 74 21 40 22 77 23
REMARK SMILES IDX 71 24 70 25 41 27 63 28 48 29 62 30 49 31 52 32 61 33 75 34
REMARK SMILES IDX 50 35 51 36 60 38 76 39 53 40 42 41 43 42 47 43 44 44 46 45
REMARK SMILES IDX 45 46 64 47 65 48 69 49 66 50 68 51 67 52 54 53 55 54 59 55
REMARK SMILES IDX 56 56 58 57 57 58 9 59 10 60 11 61 12 62 13 63 14 64 15 65
REMARK SMILES IDX 24 66 25 67 26 69 27 70 28 71 32 72 29 73 30 74 31 75 16 76
REMARK SMILES IDX 17 77 18 78 23 79 19 80 22 81 20 82 21 83
REMARK H PARENT 74 26 52 37 24 68 21 84
REMARK Flexibility Score: inf
ROOT
ATOM      1  C   UNL A   1      35.317  21.197  25.750  1.00  0.00     0.188 C 
ENDROOT
BRANCH   1   2
ATOM      2  C   UNL A   1      36.214  21.707  24.623  1.00  0.00     0.188 C 
BRANCH   2   3
ATOM      3  O   UNL A   1      37.394  20.964  24.336  1.00  0.00    -0.376 OA
BRANCH   3   4
ATOM      4  C   UNL A   1      38.355  20.804  25.386  1.00  0.00     0.202 C 
BRANCH   4   5
ATOM      5  C   UNL A   1      38.929  19.407  25.710  1.00  0.00     0.261 C 
BRANCH   5   6
ATOM      6  O   UNL A   1      40.359  19.215  25.650  1.00  0.00    -0.460 OA
BRANCH   6   7
ATOM      7  C   UNL A   1      41.389  19.693  26.377  1.00  0.00     0.338 C 
ATOM      8  O   UNL A   1      42.263  18.915  26.753  1.00  0.00    -0.246 OA
BRANCH   7   9
ATOM      9  C   UNL A   1      41.501  21.114  26.780  1.00  0.00     0.060 A 
ATOM     10  C   UNL A   1      41.658  21.532  28.091  1.00  0.00     0.016 A 
ATOM     11  C   UNL A   1      41.606  22.077  25.772  1.00  0.00     0.016 A 
ATOM     12  C   UNL A   1      41.865  22.850  28.425  1.00  0.00     0.010 A 
ATOM     13  C   UNL A   1      41.965  23.389  26.092  1.00  0.00     0.010 A 
ATOM     14  C   UNL A   1      42.149  23.760  27.429  1.00  0.00    -0.014 A 
BRANCH  14  15
ATOM     15  C   UNL A   1      42.514  25.123  27.819  1.00  0.00     0.031 A 
ATOM     16  C   UNL A   1      43.767  25.676  27.225  1.00  0.00     0.074 A 
ATOM     17  C   UNL A   1      41.576  25.984  28.279  1.00  0.00     0.049 A 
ATOM     18  N   UNL A   1      44.243  26.886  27.289  1.00  0.00    -0.248 NA
ATOM     19  C   UNL A   1      44.489  24.784  26.295  1.00  0.00     0.031 C 
ATOM     20  C   UNL A   1      39.709  25.813  27.833  1.00  0.00     0.029 A 
ATOM     21  N   UNL A   1      41.740  27.566  28.961  1.00  0.00    -0.354 N 
ATOM     22  C   UNL A   1      45.284  26.917  26.381  1.00  0.00     0.074 A 
ATOM     23  C   UNL A   1      45.400  25.601  25.795  1.00  0.00     0.031 C 
ATOM     24  C   UNL A   1      38.923  27.513  28.239  1.00  0.00     0.029 A 
ATOM     25  C   UNL A   1      40.306  28.577  28.979  1.00  0.00     0.049 A 
ATOM     26  H   UNL A   1      42.599  27.885  29.322  1.00  0.00     0.167 HD
ATOM     27  C   UNL A   1      46.070  27.965  26.065  1.00  0.00     0.031 A 
ATOM     28  C   UNL A   1      40.122  29.636  29.783  1.00  0.00     0.031 A 
ATOM     29  C   UNL A   1      45.922  29.282  26.622  1.00  0.00     0.049 A 
ATOM     30  C   UNL A   1      41.301  30.515  29.806  1.00  0.00     0.074 A 
ATOM     31  C   UNL A   1      46.790  30.346  26.478  1.00  0.00     0.029 A 
ATOM     32  N   UNL A   1      44.866  29.725  27.419  1.00  0.00    -0.354 N 
ATOM     33  N   UNL A   1      42.423  30.329  29.159  1.00  0.00    -0.248 NA
ATOM     34  C   UNL A   1      41.163  31.802  30.477  1.00  0.00     0.031 C 
ATOM     35  C   UNL A   1      46.334  31.386  27.283  1.00  0.00     0.029 A 
ATOM     36  C   UNL A   1      45.122  31.021  27.852  1.00  0.00     0.049 A 
ATOM     37  H   UNL A   1      44.063  29.200  27.640  1.00  0.00     0.167 HD
ATOM     38  C   UNL A   1      43.106  31.510  29.262  1.00  0.00     0.074 A 
ATOM     39  C   UNL A   1      42.267  32.403  30.053  1.00  0.00     0.031 C 
ATOM     40  C   UNL A   1      44.296  31.836  28.712  1.00  0.00     0.031 A 
BRANCH  27  41
ATOM     41  C   UNL A   1      47.301  27.639  25.270  1.00  0.00    -0.014 A 
ATOM     42  C   UNL A   1      48.541  27.312  25.836  1.00  0.00     0.009 A 
ATOM     43  C   UNL A   1      47.185  27.708  23.871  1.00  0.00     0.009 A 
ATOM     44  C   UNL A   1      49.642  27.069  25.008  1.00  0.00     0.001 A 
ATOM     45  C   UNL A   1      48.274  27.434  23.050  1.00  0.00     0.001 A 
ATOM     46  C   UNL A   1      49.505  27.120  23.619  1.00  0.00     0.000 A 
ENDBRANCH  27  41
BRANCH  28  47
ATOM     47  C   UNL A   1      38.865  29.863  30.534  1.00  0.00    -0.014 A 
ATOM     48  C   UNL A   1      37.875  30.755  30.117  1.00  0.00     0.009 A 
ATOM     49  C   UNL A   1      38.680  29.201  31.767  1.00  0.00     0.009 A 
ATOM     50  C   UNL A   1      36.746  30.990  30.918  1.00  0.00     0.001 A 
ATOM     51  C   UNL A   1      37.541  29.411  32.550  1.00  0.00     0.001 A 
ATOM     52  C   UNL A   1      36.578  30.317  32.130  1.00  0.00     0.000 A 
ENDBRANCH  28  47
BRANCH  40  53
ATOM     53  C   UNL A   1      44.772  33.211  29.041  1.00  0.00    -0.014 A 
ATOM     54  C   UNL A   1      44.502  34.274  28.167  1.00  0.00     0.009 A 
ATOM     55  C   UNL A   1      45.488  33.443  30.223  1.00  0.00     0.009 A 
ATOM     56  C   UNL A   1      44.982  35.547  28.451  1.00  0.00     0.001 A 
ATOM     57  C   UNL A   1      45.924  34.729  30.527  1.00  0.00     0.001 A 
ATOM     58  C   UNL A   1      45.682  35.774  29.635  1.00  0.00     0.000 A 
ENDBRANCH  40  53
ENDBRANCH  14  15
ENDBRANCH   7   9
ENDBRANCH   6   7
ENDBRANCH   5   6
ENDBRANCH   4   5
ENDBRANCH   3   4
ENDBRANCH   2   3
ENDBRANCH   1   2
BRANCH   1  59
ATOM     59  O   UNL A   1      34.229  22.001  26.166  1.00  0.00    -0.376 OA
BRANCH  59  60
ATOM     60  C   UNL A   1      33.047  21.951  25.380  1.00  0.00     0.202 C 
BRANCH  60  61
ATOM     61  C   UNL A   1      31.744  22.547  25.950  1.00  0.00     0.261 C 
BRANCH  61  62
ATOM     62  O   UNL A   1      30.943  23.315  25.029  1.00  0.00    -0.462 OA
BRANCH  62  63
ATOM     63  C   UNL A   1      30.663  24.612  25.361  1.00  0.00     0.329 C 
ATOM     64  O   UNL A   1      30.314  24.991  26.471  1.00  0.00    -0.250 OA
BRANCH  63  65
ATOM     65  C   UNL A   1      30.796  25.535  24.132  1.00  0.00     0.197 C 
BRANCH  65  66
ATOM     66  N   UNL A   1      31.512  24.705  23.169  1.00  0.00    -0.338 N 
ATOM     67  C   UNL A   1      32.800  24.867  22.788  1.00  0.00     0.262 C 
ATOM     68  H   UNL A   1      31.014  23.960  22.761  1.00  0.00     0.164 HD
ATOM     69  O   UNL A   1      33.337  24.050  22.050  1.00  0.00    -0.268 OA
BRANCH  67  70
ATOM     70  C   UNL A   1      33.478  25.968  23.401  1.00  0.00     0.093 A 
ATOM     71  C   UNL A   1      33.502  27.579  22.940  1.00  0.00     0.027 A 
ATOM     72  S   UNL A   1      34.085  25.575  25.583  1.00  0.00    -0.118 S 
ATOM     73  C   UNL A   1      33.894  28.849  24.224  1.00  0.00     0.033 A 
ATOM     74  C   UNL A   1      34.220  28.153  25.811  1.00  0.00     0.094 A 
ATOM     75  Cl  UNL A   1      34.311  29.379  27.198  1.00  0.00    -0.072 Cl
ENDBRANCH  67  70
ENDBRANCH  65  66
BRANCH  65  76
ATOM     76  C   UNL A   1      29.502  26.043  23.479  1.00  0.00     0.072 C 
BRANCH  76  77
ATOM     77  C   UNL A   1      29.373  27.563  23.427  1.00  0.00    -0.045 A 
ATOM     78  C   UNL A   1      28.172  28.201  23.072  1.00  0.00     0.007 A 
ATOM     79  C   UNL A   1      30.454  28.370  23.809  1.00  0.00     0.007 A 
ATOM     80  C   UNL A   1      28.064  29.601  23.064  1.00  0.00     0.046 A 
ATOM     81  C   UNL A   1      30.337  29.764  23.839  1.00  0.00     0.046 A 
ATOM     82  C   UNL A   1      29.149  30.372  23.458  1.00  0.00     0.115 A 
BRANCH  82  83
ATOM     83  O   UNL A   1      29.097  31.735  23.465  1.00  0.00    -0.508 OA
ATOM     84  H   UNL A   1      29.886  32.236  23.398  1.00  0.00     0.293 HD
ENDBRANCH  82  83
ENDBRANCH  76  77
ENDBRANCH  65  76
ENDBRANCH  63  65
ENDBRANCH  62  63
ENDBRANCH  61  62
ENDBRANCH  60  61
ENDBRANCH  59  60
ENDBRANCH   1  59
TORSDOF 22
ENDMDL
MODEL 2
REMARK VINA RESULT:      -9.9      1.438      2.371
REMARK SMILES O=C(OCCOCCOCCOC(=O)[C@H](Cc1ccc(O)cc1)NC(=O)c1ccc(Cl)s1)c1ccc(-c2c3nc(c(-c4ccccc4)c4ccc([nH]4)c(-c4ccccc4)c4nc(c(-c5ccccc5)c5ccc2[nH]5)C=C4)C=C3)cc1
REMARK SMILES IDX 8 1 7 2 6 3 5 4 4 5 3 6 2 7 1 8 33 9 34 10 80 11 35 12 79 13
REMARK SMILES IDX 36 14 37 15 38 16 73 17 39 18 78 19 72 20 74 21 40 22 77 23
REMARK SMILES IDX 71 24 70 25 41 27 63 28 48 29 62 30 49 31 52 32 61 33 75 34
REMARK SMILES IDX 50 35 51 36 60 38 76 39 53 40 42 41 43 42 47 43 44 44 46 45
REMARK SMILES IDX 45 46 64 47 65 48 69 49 66 50 68 51 67 52 54 53 55 54 59 55
REMARK SMILES IDX 56 56 58 57 57 58 9 59 10 60 11 61 12 62 13 63 14 64 15 65
REMARK SMILES IDX 24 66 25 67 26 69 27 70 28 71 32 72 29 73 30 74 31 75 16 76
REMARK SMILES IDX 17 77 18 78 23 79 19 80 22 81 20 82 21 83
REMARK H PARENT 74 26 52 37 24 68 21 84
REMARK Flexibility Score: inf
ROOT
ATOM      1  C   UNL A   1      35.331  20.525  25.459  1.00  0.00     0.188 C 
ENDROOT
BRANCH   1   2
ATOM      2  C   UNL A   1      36.397  21.384  24.780  1.00  0.00     0.188 C 
BRANCH   2   3
ATOM      3  O   UNL A   1      37.617  20.747  24.416  1.00  0.00    -0.376 OA
BRANCH   3   4
ATOM      4  C   UNL A   1      38.637  20.636  25.414  1.00  0.00     0.202 C 
BRANCH   4   5
ATOM      5  C   UNL A   1      39.256  19.260  25.747  1.00  0.00     0.261 C 
BRANCH   5   6
ATOM      6  O   UNL A   1      40.690  19.111  25.681  1.00  0.00    -0.460 OA
BRANCH   6   7
ATOM      7  C   UNL A   1      41.707  19.611  26.413  1.00  0.00     0.338 C 
ATOM      8  O   UNL A   1      42.588  18.848  26.804  1.00  0.00    -0.246 OA
BRANCH   7   9
ATOM      9  C   UNL A   1      41.796  21.036  26.804  1.00  0.00     0.060 A 
ATOM     10  C   UNL A   1      42.046  21.465  28.096  1.00  0.00     0.016 A 
ATOM     11  C   UNL A   1      41.776  21.998  25.790  1.00  0.00     0.016 A 
ATOM     12  C   UNL A   1      42.228  22.792  28.411  1.00  0.00     0.010 A 
ATOM     13  C   UNL A   1      42.108  23.325  26.077  1.00  0.00     0.010 A 
ATOM     14  C   UNL A   1      42.389  23.709  27.394  1.00  0.00    -0.014 A 
BRANCH  14  15
ATOM     15  C   UNL A   1      42.732  25.086  27.751  1.00  0.00     0.031 A 
ATOM     16  C   UNL A   1      43.931  25.673  27.082  1.00  0.00     0.074 A 
ATOM     17  C   UNL A   1      41.793  25.922  28.255  1.00  0.00     0.049 A 
ATOM     18  N   UNL A   1      44.370  26.898  27.108  1.00  0.00    -0.248 NA
ATOM     19  C   UNL A   1      44.628  24.795  26.121  1.00  0.00     0.031 C 
ATOM     20  C   UNL A   1      39.910  25.687  27.915  1.00  0.00     0.029 A 
ATOM     21  N   UNL A   1      41.943  27.516  28.912  1.00  0.00    -0.354 N 
ATOM     22  C   UNL A   1      45.357  26.952  26.143  1.00  0.00     0.074 A 
ATOM     23  C   UNL A   1      45.483  25.635  25.564  1.00  0.00     0.031 C 
ATOM     24  C   UNL A   1      39.094  27.365  28.349  1.00  0.00     0.029 A 
ATOM     25  C   UNL A   1      40.480  28.481  29.002  1.00  0.00     0.049 A 
ATOM     26  H   UNL A   1      42.810  27.866  29.221  1.00  0.00     0.167 HD
ATOM     27  C   UNL A   1      46.090  28.021  25.774  1.00  0.00     0.031 A 
ATOM     28  C   UNL A   1      40.307  29.542  29.805  1.00  0.00     0.031 A 
ATOM     29  C   UNL A   1      45.931  29.340  26.327  1.00  0.00     0.049 A 
ATOM     30  C   UNL A   1      41.456  30.458  29.754  1.00  0.00     0.074 A 
ATOM     31  C   UNL A   1      46.755  30.429  26.125  1.00  0.00     0.029 A 
ATOM     32  N   UNL A   1      44.907  29.757  27.178  1.00  0.00    -0.354 N 
ATOM     33  N   UNL A   1      42.547  30.301  29.047  1.00  0.00    -0.248 NA
ATOM     34  C   UNL A   1      41.315  31.748  30.419  1.00  0.00     0.031 C 
ATOM     35  C   UNL A   1      46.310  31.462  26.945  1.00  0.00     0.029 A 
ATOM     36  C   UNL A   1      45.144  31.065  27.584  1.00  0.00     0.049 A 
ATOM     37  H   UNL A   1      44.135  29.209  27.448  1.00  0.00     0.167 HD
ATOM     38  C   UNL A   1      43.195  31.505  29.100  1.00  0.00     0.074 A 
ATOM     39  C   UNL A   1      42.373  32.379  29.929  1.00  0.00     0.031 C 
ATOM     40  C   UNL A   1      44.341  31.862  28.482  1.00  0.00     0.031 A 
BRANCH  27  41
ATOM     41  C   UNL A   1      47.284  27.727  24.914  1.00  0.00    -0.014 A 
ATOM     42  C   UNL A   1      47.289  27.817  23.515  1.00  0.00     0.009 A 
ATOM     43  C   UNL A   1      48.449  27.301  25.575  1.00  0.00     0.009 A 
ATOM     44  C   UNL A   1      48.441  27.476  22.799  1.00  0.00     0.001 A 
ATOM     45  C   UNL A   1      49.603  26.993  24.862  1.00  0.00     0.001 A 
ATOM     46  C   UNL A   1      49.597  27.076  23.472  1.00  0.00     0.000 A 
ENDBRANCH  27  41
BRANCH  28  47
ATOM     47  C   UNL A   1      39.087  29.737  30.623  1.00  0.00    -0.014 A 
ATOM     48  C   UNL A   1      38.899  29.143  31.872  1.00  0.00     0.009 A 
ATOM     49  C   UNL A   1      38.028  30.506  30.091  1.00  0.00     0.009 A 
ATOM     50  C   UNL A   1      37.684  29.297  32.557  1.00  0.00     0.001 A 
ATOM     51  C   UNL A   1      36.829  30.686  30.788  1.00  0.00     0.001 A 
ATOM     52  C   UNL A   1      36.653  30.069  32.019  1.00  0.00     0.000 A 
ENDBRANCH  28  47
BRANCH  40  53
ATOM     53  C   UNL A   1      44.790  33.255  28.771  1.00  0.00    -0.014 A 
ATOM     54  C   UNL A   1      44.287  34.325  28.017  1.00  0.00     0.009 A 
ATOM     55  C   UNL A   1      45.714  33.497  29.797  1.00  0.00     0.009 A 
ATOM     56  C   UNL A   1      44.736  35.618  28.257  1.00  0.00     0.001 A 
ATOM     57  C   UNL A   1      46.123  34.799  30.066  1.00  0.00     0.001 A 
ATOM     58  C   UNL A   1      45.645  35.854  29.287  1.00  0.00     0.000 A 
ENDBRANCH  40  53
ENDBRANCH  14  15
ENDBRANCH   7   9
ENDBRANCH   6   7
ENDBRANCH   5   6
ENDBRANCH   4   5
ENDBRANCH   3   4
ENDBRANCH   2   3
ENDBRANCH   1   2
BRANCH   1  59
ATOM     59  O   UNL A   1      33.970  20.880  25.297  1.00  0.00    -0.376 OA
BRANCH  59  60
ATOM     60  C   UNL A   1      33.644  21.716  24.195  1.00  0.00     0.202 C 
BRANCH  60  61
ATOM     61  C   UNL A   1      32.162  22.032  23.910  1.00  0.00     0.261 C 
BRANCH  61  62
ATOM     62  O   UNL A   1      31.759  23.404  24.102  1.00  0.00    -0.462 OA
BRANCH  62  63
ATOM     63  C   UNL A   1      31.014  23.698  25.211  1.00  0.00     0.329 C 
ATOM     64  O   UNL A   1      30.530  22.867  25.969  1.00  0.00    -0.250 OA
BRANCH  63  65
ATOM     65  C   UNL A   1      30.817  25.220  25.355  1.00  0.00     0.197 C 
BRANCH  65  66
ATOM     66  N   UNL A   1      29.418  25.411  24.987  1.00  0.00    -0.338 N 
ATOM     67  C   UNL A   1      28.942  26.354  24.143  1.00  0.00     0.262 C 
ATOM     68  H   UNL A   1      28.761  24.798  25.391  1.00  0.00     0.164 HD
ATOM     69  O   UNL A   1      27.761  26.361  23.822  1.00  0.00    -0.268 OA
BRANCH  67  70
ATOM     70  C   UNL A   1      29.934  27.227  23.591  1.00  0.00     0.093 A 
ATOM     71  C   UNL A   1      30.426  28.735  24.130  1.00  0.00     0.027 A 
ATOM     72  S   UNL A   1      31.414  26.167  22.188  1.00  0.00    -0.118 S 
ATOM     73  C   UNL A   1      32.108  29.328  23.647  1.00  0.00     0.033 A 
ATOM     74  C   UNL A   1      32.982  28.183  22.629  1.00  0.00     0.094 A 
ATOM     75  Cl  UNL A   1      34.774  28.577  22.372  1.00  0.00    -0.072 Cl
ENDBRANCH  67  70
ENDBRANCH  65  66
BRANCH  65  76
ATOM     76  C   UNL A   1      31.053  25.842  26.739  1.00  0.00     0.072 C 
BRANCH  76  77
ATOM     77  C   UNL A   1      32.045  27.002  26.753  1.00  0.00    -0.045 A 
ATOM     78  C   UNL A   1      31.791  28.197  27.447  1.00  0.00     0.007 A 
ATOM     79  C   UNL A   1      33.287  26.866  26.115  1.00  0.00     0.007 A 
ATOM     80  C   UNL A   1      32.733  29.238  27.475  1.00  0.00     0.046 A 
ATOM     81  C   UNL A   1      34.242  27.887  26.175  1.00  0.00     0.046 A 
ATOM     82  C   UNL A   1      33.958  29.069  26.845  1.00  0.00     0.115 A 
BRANCH  82  83
ATOM     83  O   UNL A   1      34.905  30.051  26.840  1.00  0.00    -0.508 OA
ATOM     84  H   UNL A   1      35.254  30.370  27.649  1.00  0.00     0.293 HD
ENDBRANCH  82  83
ENDBRANCH  76  77
ENDBRANCH  65  76
ENDBRANCH  63  65
ENDBRANCH  62  63
ENDBRANCH  61  62
ENDBRANCH  60  61
ENDBRANCH  59  60
ENDBRANCH   1  59
TORSDOF 22
ENDMDL
MODEL 3
REMARK VINA RESULT:      -8.9      1.907      3.032
REMARK SMILES O=C(OCCOCCOCCOC(=O)[C@H](Cc1ccc(O)cc1)NC(=O)c1ccc(Cl)s1)c1ccc(-c2c3nc(c(-c4ccccc4)c4ccc([nH]4)c(-c4ccccc4)c4nc(c(-c5ccccc5)c5ccc2[nH]5)C=C4)C=C3)cc1
REMARK SMILES IDX 8 1 7 2 6 3 5 4 4 5 3 6 2 7 1 8 33 9 34 10 80 11 35 12 79 13
REMARK SMILES IDX 36 14 37 15 38 16 73 17 39 18 78 19 72 20 74 21 40 22 77 23
REMARK SMILES IDX 71 24 70 25 41 27 63 28 48 29 62 30 49 31 52 32 61 33 75 34
REMARK SMILES IDX 50 35 51 36 60 38 76 39 53 40 42 41 43 42 47 43 44 44 46 45
REMARK SMILES IDX 45 46 64 47 65 48 69 49 66 50 68 51 67 52 54 53 55 54 59 55
REMARK SMILES IDX 56 56 58 57 57 58 9 59 10 60 11 61 12 62 13 63 14 64 15 65
REMARK SMILES IDX 24 66 25 67 26 69 27 70 28 71 32 72 29 73 30 74 31 75 16 76
REMARK SMILES IDX 17 77 18 78 23 79 19 80 22 81 20 82 21 83
REMARK H PARENT 74 26 52 37 24 68 21 84
REMARK Flexibility Score: inf
ROOT
ATOM      1  C   UNL A   1      35.766  21.815  24.317  1.00  0.00     0.188 C 
ENDROOT
BRANCH   1   2
ATOM      2  C   UNL A   1      36.663  22.569  25.298  1.00  0.00     0.188 C 
BRANCH   2   3
ATOM      3  O   UNL A   1      37.617  21.809  26.031  1.00  0.00    -0.376 OA
BRANCH   3   4
ATOM      4  C   UNL A   1      38.576  21.046  25.290  1.00  0.00     0.202 C 
BRANCH   4   5
ATOM      5  C   UNL A   1      38.992  19.639  25.773  1.00  0.00     0.261 C 
BRANCH   5   6
ATOM      6  O   UNL A   1      40.274  19.117  25.362  1.00  0.00    -0.460 OA
BRANCH   6   7
ATOM      7  C   UNL A   1      41.516  19.199  25.880  1.00  0.00     0.338 C 
ATOM      8  O   UNL A   1      42.201  18.180  25.945  1.00  0.00    -0.246 OA
BRANCH   7   9
ATOM      9  C   UNL A   1      42.087  20.456  26.414  1.00  0.00     0.060 A 
ATOM     10  C   UNL A   1      42.529  21.499  25.617  1.00  0.00     0.016 A 
ATOM     11  C   UNL A   1      42.042  20.666  27.795  1.00  0.00     0.016 A 
ATOM     12  C   UNL A   1      42.958  22.697  26.140  1.00  0.00     0.010 A 
ATOM     13  C   UNL A   1      42.332  21.927  28.322  1.00  0.00     0.010 A 
ATOM     14  C   UNL A   1      42.740  22.965  27.475  1.00  0.00    -0.014 A 
BRANCH  14  15
ATOM     15  C   UNL A   1      43.066  24.301  27.976  1.00  0.00     0.031 A 
ATOM     16  C   UNL A   1      44.489  24.733  27.851  1.00  0.00     0.074 A 
ATOM     17  C   UNL A   1      42.105  25.248  28.091  1.00  0.00     0.049 A 
ATOM     18  N   UNL A   1      45.017  25.900  28.083  1.00  0.00    -0.248 NA
ATOM     19  C   UNL A   1      45.407  23.763  27.220  1.00  0.00     0.031 C 
ATOM     20  C   UNL A   1      40.497  25.223  27.029  1.00  0.00     0.029 A 
ATOM     21  N   UNL A   1      42.161  26.827  28.798  1.00  0.00    -0.354 N 
ATOM     22  C   UNL A   1      46.305  25.823  27.588  1.00  0.00     0.074 A 
ATOM     23  C   UNL A   1      46.500  24.489  27.069  1.00  0.00     0.031 C 
ATOM     24  C   UNL A   1      39.770  26.991  27.151  1.00  0.00     0.029 A 
ATOM     25  C   UNL A   1      40.901  27.953  28.328  1.00  0.00     0.049 A 
ATOM     26  H   UNL A   1      42.869  27.081  29.434  1.00  0.00     0.167 HD
ATOM     27  C   UNL A   1      47.239  26.794  27.568  1.00  0.00     0.031 A 
ATOM     28  C   UNL A   1      40.544  29.043  29.027  1.00  0.00     0.031 A 
ATOM     29  C   UNL A   1      47.024  28.132  28.049  1.00  0.00     0.049 A 
ATOM     30  C   UNL A   1      41.716  29.821  29.459  1.00  0.00     0.074 A 
ATOM     31  C   UNL A   1      47.977  29.117  28.218  1.00  0.00     0.029 A 
ATOM     32  N   UNL A   1      45.801  28.680  28.437  1.00  0.00    -0.354 N 
ATOM     33  N   UNL A   1      42.972  29.527  29.236  1.00  0.00    -0.248 NA
ATOM     34  C   UNL A   1      41.469  31.131  30.049  1.00  0.00     0.031 C 
ATOM     35  C   UNL A   1      47.364  30.209  28.824  1.00  0.00     0.029 A 
ATOM     36  C   UNL A   1      46.004  29.960  28.940  1.00  0.00     0.049 A 
ATOM     37  H   UNL A   1      44.929  28.230  28.366  1.00  0.00     0.167 HD
ATOM     38  C   UNL A   1      43.677  30.649  29.574  1.00  0.00     0.074 A 
ATOM     39  C   UNL A   1      42.698  31.627  30.034  1.00  0.00     0.031 C 
ATOM     40  C   UNL A   1      45.007  30.861  29.469  1.00  0.00     0.031 A 
BRANCH  27  41
ATOM     41  C   UNL A   1      48.635  26.348  27.242  1.00  0.00    -0.014 A 
ATOM     42  C   UNL A   1      49.225  26.471  25.976  1.00  0.00     0.009 A 
ATOM     43  C   UNL A   1      49.362  25.740  28.279  1.00  0.00     0.009 A 
ATOM     44  C   UNL A   1      50.518  25.982  25.761  1.00  0.00     0.001 A 
ATOM     45  C   UNL A   1      50.659  25.284  28.070  1.00  0.00     0.001 A 
ATOM     46  C   UNL A   1      51.236  25.400  26.808  1.00  0.00     0.000 A 
ENDBRANCH  27  41
BRANCH  28  47
ATOM     47  C   UNL A   1      39.131  29.392  29.301  1.00  0.00    -0.014 A 
ATOM     48  C   UNL A   1      38.452  28.988  30.452  1.00  0.00     0.009 A 
ATOM     49  C   UNL A   1      38.407  30.111  28.325  1.00  0.00     0.009 A 
ATOM     50  C   UNL A   1      37.088  29.278  30.611  1.00  0.00     0.001 A 
ATOM     51  C   UNL A   1      37.056  30.428  28.498  1.00  0.00     0.001 A 
ATOM     52  C   UNL A   1      36.393  29.999  29.639  1.00  0.00     0.000 A 
ENDBRANCH  28  47
BRANCH  40  53
ATOM     53  C   UNL A   1      45.458  32.199  29.950  1.00  0.00    -0.014 A 
ATOM     54  C   UNL A   1      45.556  33.271  29.051  1.00  0.00     0.009 A 
ATOM     55  C   UNL A   1      45.784  32.388  31.300  1.00  0.00     0.009 A 
ATOM     56  C   UNL A   1      46.018  34.507  29.489  1.00  0.00     0.001 A 
ATOM     57  C   UNL A   1      46.198  33.640  31.743  1.00  0.00     0.001 A 
ATOM     58  C   UNL A   1      46.327  34.692  30.836  1.00  0.00     0.000 A 
ENDBRANCH  40  53
ENDBRANCH  14  15
ENDBRANCH   7   9
ENDBRANCH   6   7
ENDBRANCH   5   6
ENDBRANCH   4   5
ENDBRANCH   3   4
ENDBRANCH   2   3
ENDBRANCH   1   2
BRANCH   1  59
ATOM     59  O   UNL A   1      34.531  21.303  24.783  1.00  0.00    -0.376 OA
BRANCH  59  60
ATOM     60  C   UNL A   1      33.456  21.257  23.856  1.00  0.00     0.202 C 
BRANCH  60  61
ATOM     61  C   UNL A   1      32.046  21.667  24.327  1.00  0.00     0.261 C 
BRANCH  61  62
ATOM     62  O   UNL A   1      31.427  22.750  23.604  1.00  0.00    -0.462 OA
BRANCH  62  63
ATOM     63  C   UNL A   1      32.239  23.747  23.136  1.00  0.00     0.329 C 
ATOM     64  O   UNL A   1      32.797  23.742  22.047  1.00  0.00    -0.250 OA
BRANCH  63  65
ATOM     65  C   UNL A   1      32.402  24.863  24.189  1.00  0.00     0.197 C 
BRANCH  65  66
ATOM     66  N   UNL A   1      31.727  24.314  25.361  1.00  0.00    -0.338 N 
ATOM     67  C   UNL A   1      30.697  24.890  26.023  1.00  0.00     0.262 C 
ATOM     68  H   UNL A   1      32.051  23.448  25.700  1.00  0.00     0.164 HD
ATOM     69  O   UNL A   1      30.134  24.295  26.933  1.00  0.00    -0.268 OA
BRANCH  67  70
ATOM     70  C   UNL A   1      30.271  26.152  25.498  1.00  0.00     0.093 A 
ATOM     71  C   UNL A   1      30.835  27.687  25.860  1.00  0.00     0.027 A 
ATOM     72  S   UNL A   1      29.124  25.982  23.513  1.00  0.00    -0.118 S 
ATOM     73  C   UNL A   1      30.583  29.026  24.611  1.00  0.00     0.033 A 
ATOM     74  C   UNL A   1      29.731  28.477  23.168  1.00  0.00     0.094 A 
ATOM     75  Cl  UNL A   1      29.724  29.683  21.760  1.00  0.00    -0.072 Cl
ENDBRANCH  67  70
ENDBRANCH  65  66
BRANCH  65  76
ATOM     76  C   UNL A   1      33.830  25.266  24.586  1.00  0.00     0.072 C 
BRANCH  76  77
ATOM     77  C   UNL A   1      33.970  26.705  25.074  1.00  0.00    -0.045 A 
ATOM     78  C   UNL A   1      33.959  27.799  24.193  1.00  0.00     0.007 A 
ATOM     79  C   UNL A   1      34.044  26.972  26.449  1.00  0.00     0.007 A 
ATOM     80  C   UNL A   1      34.054  29.118  24.666  1.00  0.00     0.046 A 
ATOM     81  C   UNL A   1      34.099  28.287  26.924  1.00  0.00     0.046 A 
ATOM     82  C   UNL A   1      34.114  29.351  26.033  1.00  0.00     0.115 A 
BRANCH  82  83
ATOM     83  O   UNL A   1      34.211  30.612  26.543  1.00  0.00    -0.508 OA
ATOM     84  H   UNL A   1      33.436  31.115  26.702  1.00  0.00     0.293 HD
ENDBRANCH  82  83
ENDBRANCH  76  77
ENDBRANCH  65  76
ENDBRANCH  63  65
ENDBRANCH  62  63
ENDBRANCH  61  62
ENDBRANCH  60  61
ENDBRANCH  59  60
ENDBRANCH   1  59
TORSDOF 22
ENDMDL
