MODEL 1
REMARK VINA RESULT:     -11.4      0.000      0.000
REMARK SMILES COC(=O)c1sc(SCC(=O)OCCOCCOCCOC(=O)c2ccc(-c3c4nc(c(-c5ccccc5)c5ccc([nH]5)c(-c5ccccc5)c5nc(c(-c6ccccc6)c6ccc3[nH]6)C=C5)C=C4)cc2)c(NC(=O)c2ccccc2)c1O
REMARK SMILES IDX 16 1 15 2 14 3 13 4 12 5 10 6 11 7 9 8 8 9 7 10 5 11 6 12
REMARK SMILES IDX 82 13 72 14 3 15 4 16 2 17 1 18 83 19 73 21 74 22 75 24
REMARK SMILES IDX 76 25 77 26 81 27 78 28 80 29 79 30 17 31 18 32 19 33 20 34
REMARK SMILES IDX 21 35 22 36 23 37 24 38 25 39 71 40 26 41 70 42 27 43 28 44
REMARK SMILES IDX 29 45 64 46 30 47 69 48 63 49 65 50 31 51 68 52 62 53 61 54
REMARK SMILES IDX 32 56 54 57 39 58 53 59 40 60 43 61 52 62 66 63 41 64 42 65
REMARK SMILES IDX 51 67 67 68 44 69 33 70 34 71 38 72 35 73 37 74 36 75 55 76
REMARK SMILES IDX 56 77 60 78 57 79 59 80 58 81 45 82 46 83 50 84 47 85 49 86
REMARK SMILES IDX 48 87
REMARK H PARENT 83 20 73 23 65 55 43 66
REMARK Flexibility Score: inf
ROOT
ATOM      1  C   UNL A   1      35.704  33.192  29.831  1.00  0.00     0.188 C 
ENDROOT
BRANCH   1   2
ATOM      2  O   UNL A   1      35.625  32.012  29.046  1.00  0.00    -0.376 OA
BRANCH   2   3
ATOM      3  C   UNL A   1      34.722  32.018  27.938  1.00  0.00     0.202 C 
BRANCH   3   4
ATOM      4  C   UNL A   1      33.979  30.709  27.658  1.00  0.00     0.261 C 
BRANCH   4   5
ATOM      5  O   UNL A   1      32.820  30.926  26.822  1.00  0.00    -0.463 OA
BRANCH   5   6
ATOM      6  C   UNL A   1      32.028  29.820  26.614  1.00  0.00     0.316 C 
ATOM      7  O   UNL A   1      32.013  28.847  27.361  1.00  0.00    -0.251 OA
BRANCH   6   8
ATOM      8  C   UNL A   1      31.328  29.860  25.064  1.00  0.00     0.198 C 
BRANCH   8   9
ATOM      9  S   UNL A   1      30.062  28.044  23.730  1.00  0.00    -0.101 SA
BRANCH   9  10
ATOM     10  C   UNL A   1      30.438  26.277  24.018  1.00  0.00     0.089 A 
ATOM     11  C   UNL A   1      30.608  24.016  25.072  1.00  0.00     0.157 A 
ATOM     12  S   UNL A   1      30.105  25.583  25.565  1.00  0.00    -0.116 S 
ATOM     13  C   UNL A   1      30.862  24.006  23.716  1.00  0.00     0.166 A 
ATOM     14  C   UNL A   1      30.894  25.306  23.135  1.00  0.00     0.109 A 
BRANCH  11  15
ATOM     15  C   UNL A   1      30.738  22.951  26.050  1.00  0.00     0.352 C 
ATOM     16  O   UNL A   1      30.254  21.829  25.979  1.00  0.00    -0.245 OA
BRANCH  15  17
ATOM     17  O   UNL A   1      31.452  23.420  27.121  1.00  0.00    -0.465 OA
ATOM     18  C   UNL A   1      32.493  22.582  27.641  1.00  0.00     0.282 C 
ENDBRANCH  15  17
ENDBRANCH  11  15
BRANCH  13  19
ATOM     19  O   UNL A   1      31.187  22.895  23.016  1.00  0.00    -0.504 OA
ATOM     20  H   UNL A   1      30.559  22.208  22.912  1.00  0.00     0.293 HD
ENDBRANCH  13  19
BRANCH  14  21
ATOM     21  N   UNL A   1      31.396  25.478  21.850  1.00  0.00    -0.317 N 
ATOM     22  C   UNL A   1      32.715  25.493  21.496  1.00  0.00     0.255 C 
ATOM     23  H   UNL A   1      30.739  25.600  21.127  1.00  0.00     0.170 HD
ATOM     24  O   UNL A   1      33.099  25.630  20.344  1.00  0.00    -0.269 OA
BRANCH  22  25
ATOM     25  C   UNL A   1      33.672  25.307  22.588  1.00  0.00     0.040 A 
ATOM     26  C   UNL A   1      33.742  26.621  23.824  1.00  0.00     0.014 A 
ATOM     27  C   UNL A   1      34.382  23.664  22.970  1.00  0.00     0.014 A 
ATOM     28  C   UNL A   1      34.405  26.278  25.456  1.00  0.00     0.001 A 
ATOM     29  C   UNL A   1      35.016  23.323  24.620  1.00  0.00     0.001 A 
ATOM     30  C   UNL A   1      35.056  24.646  25.835  1.00  0.00     0.000 A 
ENDBRANCH  22  25
ENDBRANCH  14  21
ENDBRANCH   9  10
ENDBRANCH   8   9
ENDBRANCH   6   8
ENDBRANCH   5   6
ENDBRANCH   4   5
ENDBRANCH   3   4
ENDBRANCH   2   3
ENDBRANCH   1   2
BRANCH   1  31
ATOM     31  C   UNL A   1      34.467  33.581  30.636  1.00  0.00     0.188 C 
BRANCH  31  32
ATOM     32  O   UNL A   1      34.750  34.132  31.912  1.00  0.00    -0.376 OA
BRANCH  32  33
ATOM     33  C   UNL A   1      34.609  33.247  33.017  1.00  0.00     0.202 C 
BRANCH  33  34
ATOM     34  C   UNL A   1      35.943  32.578  33.379  1.00  0.00     0.261 C 
BRANCH  34  35
ATOM     35  O   UNL A   1      36.143  31.338  32.680  1.00  0.00    -0.460 OA
BRANCH  35  36
ATOM     36  C   UNL A   1      37.417  30.912  32.760  1.00  0.00     0.338 C 
ATOM     37  O   UNL A   1      38.107  30.813  33.763  1.00  0.00    -0.246 OA
BRANCH  36  38
ATOM     38  C   UNL A   1      37.909  30.459  31.462  1.00  0.00     0.060 A 
ATOM     39  C   UNL A   1      37.623  29.128  31.136  1.00  0.00     0.016 A 
ATOM     40  C   UNL A   1      38.967  31.147  30.887  1.00  0.00     0.016 A 
ATOM     41  C   UNL A   1      38.570  28.380  30.466  1.00  0.00     0.010 A 
ATOM     42  C   UNL A   1      39.899  30.404  30.188  1.00  0.00     0.010 A 
ATOM     43  C   UNL A   1      39.767  29.000  30.132  1.00  0.00    -0.014 A 
BRANCH  43  44
ATOM     44  C   UNL A   1      40.967  28.173  29.946  1.00  0.00     0.031 A 
ATOM     45  C   UNL A   1      41.888  27.959  31.093  1.00  0.00     0.074 A 
ATOM     46  C   UNL A   1      41.051  27.441  28.810  1.00  0.00     0.049 A 
ATOM     47  N   UNL A   1      43.138  27.603  31.061  1.00  0.00    -0.248 NA
ATOM     48  C   UNL A   1      41.345  28.140  32.449  1.00  0.00     0.031 C 
ATOM     49  C   UNL A   1      40.085  27.461  27.699  1.00  0.00     0.029 A 
ATOM     50  N   UNL A   1      41.857  26.373  28.502  1.00  0.00    -0.354 N 
ATOM     51  C   UNL A   1      43.477  27.330  32.381  1.00  0.00     0.074 A 
ATOM     52  C   UNL A   1      42.367  27.741  33.202  1.00  0.00     0.031 C 
ATOM     53  C   UNL A   1      40.156  26.291  27.041  1.00  0.00     0.029 A 
ATOM     54  C   UNL A   1      41.222  25.495  27.627  1.00  0.00     0.049 A 
ATOM     55  H   UNL A   1      42.767  26.245  28.855  1.00  0.00     0.167 HD
ATOM     56  C   UNL A   1      44.550  26.586  32.750  1.00  0.00     0.031 A 
ATOM     57  C   UNL A   1      41.429  24.167  27.472  1.00  0.00     0.031 A 
ATOM     58  C   UNL A   1      45.615  26.540  31.801  1.00  0.00     0.049 A 
ATOM     59  C   UNL A   1      42.721  23.795  28.075  1.00  0.00     0.074 A 
ATOM     60  C   UNL A   1      46.456  27.475  31.235  1.00  0.00     0.029 A 
ATOM     61  N   UNL A   1      45.832  25.371  31.120  1.00  0.00    -0.354 N 
ATOM     62  N   UNL A   1      43.884  24.065  27.561  1.00  0.00    -0.248 NA
ATOM     63  C   UNL A   1      42.744  23.278  29.436  1.00  0.00     0.031 C 
ATOM     64  C   UNL A   1      46.880  26.922  29.994  1.00  0.00     0.029 A 
ATOM     65  C   UNL A   1      46.227  25.698  29.846  1.00  0.00     0.049 A 
ATOM     66  H   UNL A   1      45.725  24.460  31.479  1.00  0.00     0.167 HD
ATOM     67  C   UNL A   1      44.737  24.137  28.648  1.00  0.00     0.074 A 
ATOM     68  C   UNL A   1      44.030  23.473  29.729  1.00  0.00     0.031 C 
ATOM     69  C   UNL A   1      45.791  25.003  28.655  1.00  0.00     0.031 A 
BRANCH  56  70
ATOM     70  C   UNL A   1      44.444  25.650  33.914  1.00  0.00    -0.014 A 
ATOM     71  C   UNL A   1      43.867  24.385  33.776  1.00  0.00     0.009 A 
ATOM     72  C   UNL A   1      44.739  26.091  35.222  1.00  0.00     0.009 A 
ATOM     73  C   UNL A   1      43.638  23.581  34.900  1.00  0.00     0.001 A 
ATOM     74  C   UNL A   1      44.543  25.280  36.337  1.00  0.00     0.001 A 
ATOM     75  C   UNL A   1      43.987  24.022  36.175  1.00  0.00     0.000 A 
ENDBRANCH  56  70
BRANCH  57  76
ATOM     76  C   UNL A   1      40.468  23.142  27.003  1.00  0.00    -0.014 A 
ATOM     77  C   UNL A   1      39.161  23.499  26.641  1.00  0.00     0.009 A 
ATOM     78  C   UNL A   1      40.884  21.827  26.720  1.00  0.00     0.009 A 
ATOM     79  C   UNL A   1      38.307  22.576  26.023  1.00  0.00     0.001 A 
ATOM     80  C   UNL A   1      40.027  20.899  26.121  1.00  0.00     0.001 A 
ATOM     81  C   UNL A   1      38.739  21.277  25.766  1.00  0.00     0.000 A 
ENDBRANCH  57  76
BRANCH  69  82
ATOM     82  C   UNL A   1      46.250  25.554  27.330  1.00  0.00    -0.014 A 
ATOM     83  C   UNL A   1      47.226  24.913  26.548  1.00  0.00     0.009 A 
ATOM     84  C   UNL A   1      45.603  26.679  26.798  1.00  0.00     0.009 A 
ATOM     85  C   UNL A   1      47.576  25.408  25.289  1.00  0.00     0.001 A 
ATOM     86  C   UNL A   1      45.937  27.161  25.530  1.00  0.00     0.001 A 
ATOM     87  C   UNL A   1      46.929  26.530  24.779  1.00  0.00     0.000 A 
ENDBRANCH  69  82
ENDBRANCH  43  44
ENDBRANCH  36  38
ENDBRANCH  35  36
ENDBRANCH  34  35
ENDBRANCH  33  34
ENDBRANCH  32  33
ENDBRANCH  31  32
ENDBRANCH   1  31
TORSDOF 24
ENDMDL
MODEL 2
REMARK VINA RESULT:     -10.2      3.286      6.768
REMARK SMILES COC(=O)c1sc(SCC(=O)OCCOCCOCCOC(=O)c2ccc(-c3c4nc(c(-c5ccccc5)c5ccc([nH]5)c(-c5ccccc5)c5nc(c(-c6ccccc6)c6ccc3[nH]6)C=C5)C=C4)cc2)c(NC(=O)c2ccccc2)c1O
REMARK SMILES IDX 16 1 15 2 14 3 13 4 12 5 10 6 11 7 9 8 8 9 7 10 5 11 6 12
REMARK SMILES IDX 82 13 72 14 3 15 4 16 2 17 1 18 83 19 73 21 74 22 75 24
REMARK SMILES IDX 76 25 77 26 81 27 78 28 80 29 79 30 17 31 18 32 19 33 20 34
REMARK SMILES IDX 21 35 22 36 23 37 24 38 25 39 71 40 26 41 70 42 27 43 28 44
REMARK SMILES IDX 29 45 64 46 30 47 69 48 63 49 65 50 31 51 68 52 62 53 61 54
REMARK SMILES IDX 32 56 54 57 39 58 53 59 40 60 43 61 52 62 66 63 41 64 42 65
REMARK SMILES IDX 51 67 67 68 44 69 33 70 34 71 38 72 35 73 37 74 36 75 55 76
REMARK SMILES IDX 56 77 60 78 57 79 59 80 58 81 45 82 46 83 50 84 47 85 49 86
REMARK SMILES IDX 48 87
REMARK H PARENT 83 20 73 23 65 55 43 66
REMARK Flexibility Score: inf
ROOT
ATOM      1  C   UNL A   1      32.949  35.280  29.120  1.00  0.00     0.188 C 
ENDROOT
BRANCH   1   2
ATOM      2  O   UNL A   1      33.757  34.874  28.026  1.00  0.00    -0.376 OA
BRANCH   2   3
ATOM      3  C   UNL A   1      34.725  33.850  28.267  1.00  0.00     0.202 C 
BRANCH   3   4
ATOM      4  C   UNL A   1      34.177  32.463  28.616  1.00  0.00     0.261 C 
BRANCH   4   5
ATOM      5  O   UNL A   1      34.343  31.537  27.519  1.00  0.00    -0.463 OA
BRANCH   5   6
ATOM      6  C   UNL A   1      33.186  30.938  27.073  1.00  0.00     0.316 C 
ATOM      7  O   UNL A   1      32.139  31.547  26.880  1.00  0.00    -0.251 OA
BRANCH   6   8
ATOM      8  C   UNL A   1      33.325  29.243  27.121  1.00  0.00     0.198 C 
BRANCH   8   9
ATOM      9  S   UNL A   1      31.518  27.396  27.145  1.00  0.00    -0.101 SA
BRANCH   9  10
ATOM     10  C   UNL A   1      31.674  25.957  26.025  1.00  0.00     0.089 A 
ATOM     11  C   UNL A   1      32.532  23.904  24.886  1.00  0.00     0.157 A 
ATOM     12  S   UNL A   1      33.125  25.019  26.049  1.00  0.00    -0.116 S 
ATOM     13  C   UNL A   1      31.203  24.159  24.620  1.00  0.00     0.166 A 
ATOM     14  C   UNL A   1      30.743  25.395  25.160  1.00  0.00     0.109 A 
BRANCH  11  15
ATOM     15  C   UNL A   1      33.418  22.904  24.317  1.00  0.00     0.352 C 
ATOM     16  O   UNL A   1      34.002  22.971  23.244  1.00  0.00    -0.245 OA
BRANCH  15  17
ATOM     17  O   UNL A   1      33.456  21.820  25.153  1.00  0.00    -0.465 OA
ATOM     18  C   UNL A   1      33.810  20.555  24.582  1.00  0.00     0.282 C 
ENDBRANCH  15  17
ENDBRANCH  11  15
BRANCH  13  19
ATOM     19  O   UNL A   1      30.432  23.393  23.815  1.00  0.00    -0.504 OA
ATOM     20  H   UNL A   1      29.500  23.489  23.831  1.00  0.00     0.293 HD
ENDBRANCH  13  19
BRANCH  14  21
ATOM     21  N   UNL A   1      29.518  25.914  24.756  1.00  0.00    -0.317 N 
ATOM     22  C   UNL A   1      29.321  26.842  23.774  1.00  0.00     0.255 C 
ATOM     23  H   UNL A   1      28.718  25.582  25.222  1.00  0.00     0.170 HD
ATOM     24  O   UNL A   1      28.216  27.250  23.448  1.00  0.00    -0.269 OA
BRANCH  22  25
ATOM     25  C   UNL A   1      30.527  27.319  23.094  1.00  0.00     0.040 A 
ATOM     26  C   UNL A   1      31.312  28.786  23.792  1.00  0.00     0.014 A 
ATOM     27  C   UNL A   1      31.466  26.248  21.946  1.00  0.00     0.014 A 
ATOM     28  C   UNL A   1      33.040  29.126  23.446  1.00  0.00     0.001 A 
ATOM     29  C   UNL A   1      33.207  26.581  21.630  1.00  0.00     0.001 A 
ATOM     30  C   UNL A   1      33.966  28.040  22.354  1.00  0.00     0.000 A 
ENDBRANCH  22  25
ENDBRANCH  14  21
ENDBRANCH   9  10
ENDBRANCH   8   9
ENDBRANCH   6   8
ENDBRANCH   5   6
ENDBRANCH   4   5
ENDBRANCH   3   4
ENDBRANCH   2   3
ENDBRANCH   1   2
BRANCH   1  31
ATOM     31  C   UNL A   1      33.209  36.666  29.705  1.00  0.00     0.188 C 
BRANCH  31  32
ATOM     32  O   UNL A   1      32.607  36.887  30.970  1.00  0.00    -0.376 OA
BRANCH  32  33
ATOM     33  C   UNL A   1      33.491  37.240  32.027  1.00  0.00     0.202 C 
BRANCH  33  34
ATOM     34  C   UNL A   1      33.850  36.025  32.894  1.00  0.00     0.261 C 
BRANCH  34  35
ATOM     35  O   UNL A   1      34.794  35.151  32.251  1.00  0.00    -0.460 OA
BRANCH  35  36
ATOM     36  C   UNL A   1      35.651  34.599  33.128  1.00  0.00     0.338 C 
ATOM     37  O   UNL A   1      36.008  35.051  34.206  1.00  0.00    -0.246 OA
BRANCH  36  38
ATOM     38  C   UNL A   1      36.078  33.273  32.692  1.00  0.00     0.060 A 
ATOM     39  C   UNL A   1      36.650  32.463  33.680  1.00  0.00     0.016 A 
ATOM     40  C   UNL A   1      36.334  33.079  31.343  1.00  0.00     0.016 A 
ATOM     41  C   UNL A   1      37.718  31.652  33.352  1.00  0.00     0.010 A 
ATOM     42  C   UNL A   1      37.382  32.242  31.012  1.00  0.00     0.010 A 
ATOM     43  C   UNL A   1      38.164  31.670  32.037  1.00  0.00    -0.014 A 
BRANCH  43  44
ATOM     44  C   UNL A   1      39.558  31.301  31.756  1.00  0.00     0.031 A 
ATOM     45  C   UNL A   1      39.854  29.964  31.179  1.00  0.00     0.074 A 
ATOM     46  C   UNL A   1      40.486  32.287  31.802  1.00  0.00     0.049 A 
ATOM     47  N   UNL A   1      40.978  29.312  31.205  1.00  0.00    -0.248 NA
ATOM     48  C   UNL A   1      38.771  29.273  30.459  1.00  0.00     0.031 C 
ATOM     49  C   UNL A   1      40.239  33.684  32.192  1.00  0.00     0.029 A 
ATOM     50  N   UNL A   1      41.763  32.324  31.299  1.00  0.00    -0.354 N 
ATOM     51  C   UNL A   1      40.798  28.232  30.349  1.00  0.00     0.074 A 
ATOM     52  C   UNL A   1      39.407  28.213  29.971  1.00  0.00     0.031 C 
ATOM     53  C   UNL A   1      41.174  34.465  31.624  1.00  0.00     0.029 A 
ATOM     54  C   UNL A   1      42.118  33.616  30.916  1.00  0.00     0.049 A 
ATOM     55  H   UNL A   1      42.352  31.539  31.220  1.00  0.00     0.167 HD
ATOM     56  C   UNL A   1      41.814  27.518  29.802  1.00  0.00     0.031 A 
ATOM     57  C   UNL A   1      43.016  33.997  29.979  1.00  0.00     0.031 A 
ATOM     58  C   UNL A   1      43.041  27.548  30.533  1.00  0.00     0.049 A 
ATOM     59  C   UNL A   1      43.905  32.866  29.657  1.00  0.00     0.074 A 
ATOM     60  C   UNL A   1      43.434  27.148  31.792  1.00  0.00     0.029 A 
ATOM     61  N   UNL A   1      44.093  28.253  30.011  1.00  0.00    -0.354 N 
ATOM     62  N   UNL A   1      44.854  32.427  30.429  1.00  0.00    -0.248 NA
ATOM     63  C   UNL A   1      43.595  32.028  28.507  1.00  0.00     0.031 C 
ATOM     64  C   UNL A   1      44.568  27.942  32.120  1.00  0.00     0.029 A 
ATOM     65  C   UNL A   1      44.772  28.824  31.060  1.00  0.00     0.049 A 
ATOM     66  H   UNL A   1      44.323  28.336  29.057  1.00  0.00     0.167 HD
ATOM     67  C   UNL A   1      44.980  31.089  30.099  1.00  0.00     0.074 A 
ATOM     68  C   UNL A   1      44.325  30.953  28.809  1.00  0.00     0.031 C 
ATOM     69  C   UNL A   1      45.319  30.164  31.042  1.00  0.00     0.031 A 
BRANCH  56  70
ATOM     70  C   UNL A   1      41.708  27.028  28.391  1.00  0.00    -0.014 A 
ATOM     71  C   UNL A   1      41.868  27.898  27.309  1.00  0.00     0.009 A 
ATOM     72  C   UNL A   1      41.249  25.723  28.115  1.00  0.00     0.009 A 
ATOM     73  C   UNL A   1      41.618  27.460  26.002  1.00  0.00     0.001 A 
ATOM     74  C   UNL A   1      41.032  25.276  26.813  1.00  0.00     0.001 A 
ATOM     75  C   UNL A   1      41.215  26.150  25.754  1.00  0.00     0.000 A 
ENDBRANCH  56  70
BRANCH  57  76
ATOM     76  C   UNL A   1      43.028  35.244  29.180  1.00  0.00    -0.014 A 
ATOM     77  C   UNL A   1      42.312  35.332  27.978  1.00  0.00     0.009 A 
ATOM     78  C   UNL A   1      43.589  36.431  29.690  1.00  0.00     0.009 A 
ATOM     79  C   UNL A   1      42.166  36.557  27.313  1.00  0.00     0.001 A 
ATOM     80  C   UNL A   1      43.461  37.650  29.018  1.00  0.00     0.001 A 
ATOM     81  C   UNL A   1      42.741  37.714  27.832  1.00  0.00     0.000 A 
ENDBRANCH  57  76
BRANCH  69  82
ATOM     82  C   UNL A   1      45.953  30.663  32.314  1.00  0.00    -0.014 A 
ATOM     83  C   UNL A   1      47.334  30.898  32.423  1.00  0.00     0.009 A 
ATOM     84  C   UNL A   1      45.130  31.022  33.392  1.00  0.00     0.009 A 
ATOM     85  C   UNL A   1      47.882  31.433  33.591  1.00  0.00     0.001 A 
ATOM     86  C   UNL A   1      45.675  31.579  34.552  1.00  0.00     0.001 A 
ATOM     87  C   UNL A   1      47.051  31.777  34.654  1.00  0.00     0.000 A 
ENDBRANCH  69  82
ENDBRANCH  43  44
ENDBRANCH  36  38
ENDBRANCH  35  36
ENDBRANCH  34  35
ENDBRANCH  33  34
ENDBRANCH  32  33
ENDBRANCH  31  32
ENDBRANCH   1  31
TORSDOF 24
ENDMDL
MODEL 3
REMARK VINA RESULT:     -10.1      3.714      5.375
REMARK SMILES COC(=O)c1sc(SCC(=O)OCCOCCOCCOC(=O)c2ccc(-c3c4nc(c(-c5ccccc5)c5ccc([nH]5)c(-c5ccccc5)c5nc(c(-c6ccccc6)c6ccc3[nH]6)C=C5)C=C4)cc2)c(NC(=O)c2ccccc2)c1O
REMARK SMILES IDX 16 1 15 2 14 3 13 4 12 5 10 6 11 7 9 8 8 9 7 10 5 11 6 12
REMARK SMILES IDX 82 13 72 14 3 15 4 16 2 17 1 18 83 19 73 21 74 22 75 24
REMARK SMILES IDX 76 25 77 26 81 27 78 28 80 29 79 30 17 31 18 32 19 33 20 34
REMARK SMILES IDX 21 35 22 36 23 37 24 38 25 39 71 40 26 41 70 42 27 43 28 44
REMARK SMILES IDX 29 45 64 46 30 47 69 48 63 49 65 50 31 51 68 52 62 53 61 54
REMARK SMILES IDX 32 56 54 57 39 58 53 59 40 60 43 61 52 62 66 63 41 64 42 65
REMARK SMILES IDX 51 67 67 68 44 69 33 70 34 71 38 72 35 73 37 74 36 75 55 76
REMARK SMILES IDX 56 77 60 78 57 79 59 80 58 81 45 82 46 83 50 84 47 85 49 86
REMARK SMILES IDX 48 87
REMARK H PARENT 83 20 73 23 65 55 43 66
REMARK Flexibility Score: inf
ROOT
ATOM      1  C   UNL A   1      33.766  35.772  28.742  1.00  0.00     0.188 C 
ENDROOT
BRANCH   1   2
ATOM      2  O   UNL A   1      33.871  34.460  29.273  1.00  0.00    -0.376 OA
BRANCH   2   3
ATOM      3  C   UNL A   1      35.131  33.797  29.151  1.00  0.00     0.202 C 
BRANCH   3   4
ATOM      4  C   UNL A   1      35.092  32.269  29.070  1.00  0.00     0.261 C 
BRANCH   4   5
ATOM      5  O   UNL A   1      34.036  31.813  28.195  1.00  0.00    -0.463 OA
BRANCH   5   6
ATOM      6  C   UNL A   1      34.237  30.577  27.623  1.00  0.00     0.316 C 
ATOM      7  O   UNL A   1      35.115  29.799  27.982  1.00  0.00    -0.251 OA
BRANCH   6   8
ATOM      8  C   UNL A   1      33.328  30.415  26.195  1.00  0.00     0.198 C 
BRANCH   8   9
ATOM      9  S   UNL A   1      33.245  28.515  24.444  1.00  0.00    -0.101 SA
BRANCH   9  10
ATOM     10  C   UNL A   1      32.102  27.107  24.685  1.00  0.00     0.089 A 
ATOM     11  C   UNL A   1      30.462  25.513  25.694  1.00  0.00     0.157 A 
ATOM     12  S   UNL A   1      31.385  26.855  26.237  1.00  0.00    -0.116 S 
ATOM     13  C   UNL A   1      30.582  25.378  24.326  1.00  0.00     0.166 A 
ATOM     14  C   UNL A   1      31.607  26.192  23.764  1.00  0.00     0.109 A 
BRANCH  11  15
ATOM     15  C   UNL A   1      29.730  24.698  26.647  1.00  0.00     0.352 C 
ATOM     16  O   UNL A   1      28.549  24.808  26.949  1.00  0.00    -0.245 OA
BRANCH  15  17
ATOM     17  O   UNL A   1      30.595  23.803  27.219  1.00  0.00    -0.465 OA
ATOM     18  C   UNL A   1      30.933  22.634  26.462  1.00  0.00     0.282 C 
ENDBRANCH  15  17
ENDBRANCH  11  15
BRANCH  13  19
ATOM     19  O   UNL A   1      29.900  24.469  23.593  1.00  0.00    -0.504 OA
ATOM     20  H   UNL A   1      30.187  24.256  22.727  1.00  0.00     0.293 HD
ENDBRANCH  13  19
BRANCH  14  21
ATOM     21  N   UNL A   1      32.026  25.973  22.457  1.00  0.00    -0.317 N 
ATOM     22  C   UNL A   1      32.849  24.969  22.032  1.00  0.00     0.255 C 
ATOM     23  H   UNL A   1      31.700  26.600  21.772  1.00  0.00     0.170 HD
ATOM     24  O   UNL A   1      33.171  24.814  20.863  1.00  0.00    -0.269 OA
BRANCH  22  25
ATOM     25  C   UNL A   1      33.320  24.048  23.068  1.00  0.00     0.040 A 
ATOM     26  C   UNL A   1      32.559  22.412  23.091  1.00  0.00     0.014 A 
ATOM     27  C   UNL A   1      34.899  24.327  23.951  1.00  0.00     0.014 A 
ATOM     28  C   UNL A   1      33.407  21.043  23.883  1.00  0.00     0.001 A 
ATOM     29  C   UNL A   1      35.755  22.940  24.715  1.00  0.00     0.001 A 
ATOM     30  C   UNL A   1      34.981  21.318  24.706  1.00  0.00     0.000 A 
ENDBRANCH  22  25
ENDBRANCH  14  21
ENDBRANCH   9  10
ENDBRANCH   8   9
ENDBRANCH   6   8
ENDBRANCH   5   6
ENDBRANCH   4   5
ENDBRANCH   3   4
ENDBRANCH   2   3
ENDBRANCH   1   2
BRANCH   1  31
ATOM     31  C   UNL A   1      33.255  36.866  29.675  1.00  0.00     0.188 C 
BRANCH  31  32
ATOM     32  O   UNL A   1      32.261  36.434  30.590  1.00  0.00    -0.376 OA
BRANCH  32  33
ATOM     33  C   UNL A   1      32.603  36.523  31.968  1.00  0.00     0.202 C 
BRANCH  33  34
ATOM     34  C   UNL A   1      32.965  35.148  32.550  1.00  0.00     0.261 C 
BRANCH  34  35
ATOM     35  O   UNL A   1      34.380  34.895  32.520  1.00  0.00    -0.460 OA
BRANCH  35  36
ATOM     36  C   UNL A   1      34.668  33.602  32.755  1.00  0.00     0.338 C 
ATOM     37  O   UNL A   1      34.012  32.623  32.433  1.00  0.00    -0.246 OA
BRANCH  36  38
ATOM     38  C   UNL A   1      35.972  33.455  33.394  1.00  0.00     0.060 A 
ATOM     39  C   UNL A   1      36.767  34.606  33.423  1.00  0.00     0.016 A 
ATOM     40  C   UNL A   1      36.516  32.182  33.485  1.00  0.00     0.016 A 
ATOM     41  C   UNL A   1      38.130  34.489  33.235  1.00  0.00     0.010 A 
ATOM     42  C   UNL A   1      37.884  32.067  33.329  1.00  0.00     0.010 A 
ATOM     43  C   UNL A   1      38.649  33.216  33.041  1.00  0.00    -0.014 A 
BRANCH  43  44
ATOM     44  C   UNL A   1      39.915  33.070  32.310  1.00  0.00     0.031 A 
ATOM     45  C   UNL A   1      41.197  33.330  33.016  1.00  0.00     0.074 A 
ATOM     46  C   UNL A   1      39.871  32.466  31.098  1.00  0.00     0.049 A 
ATOM     47  N   UNL A   1      42.353  33.620  32.498  1.00  0.00    -0.248 NA
ATOM     48  C   UNL A   1      41.201  33.229  34.485  1.00  0.00     0.031 C 
ATOM     49  C   UNL A   1      38.654  32.015  30.405  1.00  0.00     0.029 A 
ATOM     50  N   UNL A   1      40.880  31.919  30.345  1.00  0.00    -0.354 N 
ATOM     51  C   UNL A   1      43.258  33.548  33.550  1.00  0.00     0.074 A 
ATOM     52  C   UNL A   1      42.494  33.374  34.760  1.00  0.00     0.031 C 
ATOM     53  C   UNL A   1      38.979  31.023  29.558  1.00  0.00     0.029 A 
ATOM     54  C   UNL A   1      40.421  30.841  29.591  1.00  0.00     0.049 A 
ATOM     55  H   UNL A   1      41.809  32.246  30.338  1.00  0.00     0.167 HD
ATOM     56  C   UNL A   1      44.599  33.415  33.391  1.00  0.00     0.031 A 
ATOM     57  C   UNL A   1      41.121  29.777  29.133  1.00  0.00     0.031 A 
ATOM     58  C   UNL A   1      45.113  33.886  32.146  1.00  0.00     0.049 A 
ATOM     59  C   UNL A   1      42.563  30.076  29.183  1.00  0.00     0.074 A 
ATOM     60  C   UNL A   1      45.158  35.109  31.510  1.00  0.00     0.029 A 
ATOM     61  N   UNL A   1      45.548  32.965  31.229  1.00  0.00    -0.354 N 
ATOM     62  N   UNL A   1      43.184  30.872  28.365  1.00  0.00    -0.248 NA
ATOM     63  C   UNL A   1      43.337  29.637  30.337  1.00  0.00     0.031 C 
ATOM     64  C   UNL A   1      45.268  34.826  30.120  1.00  0.00     0.029 A 
ATOM     65  C   UNL A   1      45.230  33.439  29.979  1.00  0.00     0.049 A 
ATOM     66  H   UNL A   1      46.006  32.116  31.429  1.00  0.00     0.167 HD
ATOM     67  C   UNL A   1      44.260  31.349  29.091  1.00  0.00     0.074 A 
ATOM     68  C   UNL A   1      44.402  30.429  30.207  1.00  0.00     0.031 C 
ATOM     69  C   UNL A   1      44.728  32.616  28.900  1.00  0.00     0.031 A 
BRANCH  56  70
ATOM     70  C   UNL A   1      45.379  32.547  34.329  1.00  0.00    -0.014 A 
ATOM     71  C   UNL A   1      45.517  31.175  34.100  1.00  0.00     0.009 A 
ATOM     72  C   UNL A   1      45.827  33.048  35.569  1.00  0.00     0.009 A 
ATOM     73  C   UNL A   1      46.119  30.351  35.060  1.00  0.00     0.001 A 
ATOM     74  C   UNL A   1      46.457  32.236  36.511  1.00  0.00     0.001 A 
ATOM     75  C   UNL A   1      46.600  30.882  36.255  1.00  0.00     0.000 A 
ENDBRANCH  56  70
BRANCH  57  76
ATOM     76  C   UNL A   1      40.621  28.415  28.837  1.00  0.00    -0.014 A 
ATOM     77  C   UNL A   1      39.878  27.702  29.789  1.00  0.00     0.009 A 
ATOM     78  C   UNL A   1      40.703  27.874  27.540  1.00  0.00     0.009 A 
ATOM     79  C   UNL A   1      39.246  26.497  29.456  1.00  0.00     0.001 A 
ATOM     80  C   UNL A   1      40.089  26.662  27.211  1.00  0.00     0.001 A 
ATOM     81  C   UNL A   1      39.353  25.977  28.169  1.00  0.00     0.000 A 
ENDBRANCH  57  76
BRANCH  69  82
ATOM     82  C   UNL A   1      44.342  33.318  27.624  1.00  0.00    -0.014 A 
ATOM     83  C   UNL A   1      44.711  32.831  26.358  1.00  0.00     0.009 A 
ATOM     84  C   UNL A   1      43.487  34.428  27.687  1.00  0.00     0.009 A 
ATOM     85  C   UNL A   1      44.274  33.461  25.191  1.00  0.00     0.001 A 
ATOM     86  C   UNL A   1      43.032  35.045  26.519  1.00  0.00     0.001 A 
ATOM     87  C   UNL A   1      43.431  34.566  25.272  1.00  0.00     0.000 A 
ENDBRANCH  69  82
ENDBRANCH  43  44
ENDBRANCH  36  38
ENDBRANCH  35  36
ENDBRANCH  34  35
ENDBRANCH  33  34
ENDBRANCH  32  33
ENDBRANCH  31  32
ENDBRANCH   1  31
TORSDOF 24
ENDMDL
