MODEL 1
REMARK VINA RESULT:      -9.7      0.000      0.000
REMARK SMILES CC(=O)c1ccc(N2/C(=[NH+]/C(=O)CCC(=O)OCCOCCOCCOC(=O)c3ccc(-c4c5nc(c(-c6ccccc6)c6ccc([nH]6)c(-c6ccccc6)c6nc(c(-c7ccccc7)c7ccc4[nH]7)C=C6)C=C5)cc3)S[C@H]3CS(=O)(=O)C[C@@H]32)cc1
REMARK SMILES IDX 21 1 20 2 19 3 18 4 17 5 15 6 16 7 14 8 13 9 11 10 8 11 9 12
REMARK SMILES IDX 84 13 10 14 77 15 78 16 83 17 79 19 80 20 12 21 81 22 82 23
REMARK SMILES IDX 7 24 4 25 5 26 86 27 6 28 85 29 2 30 1 31 3 32 22 33 23 34
REMARK SMILES IDX 24 35 25 36 26 37 27 38 28 39 29 40 30 41 76 42 31 43 75 44
REMARK SMILES IDX 32 45 33 46 34 47 69 48 35 49 74 50 68 51 70 52 36 53 73 54
REMARK SMILES IDX 67 55 66 56 37 58 59 59 44 60 58 61 45 62 48 63 57 64 71 65
REMARK SMILES IDX 46 66 47 67 56 69 72 70 49 71 38 72 39 73 43 74 40 75 42 76
REMARK SMILES IDX 41 77 60 78 61 79 65 80 62 81 64 82 63 83 50 84 51 85 55 86
REMARK SMILES IDX 52 87 54 88 53 89
REMARK H PARENT 10 18 70 57 48 68
REMARK Flexibility Score: inf
ROOT
ATOM      1  C   UNL A   1      33.539  24.473  26.098  1.00  0.00     0.188 C 
ENDROOT
BRANCH   1   2
ATOM      2  O   UNL A   1      32.976  25.646  25.511  1.00  0.00    -0.376 OA
BRANCH   2   3
ATOM      3  C   UNL A   1      33.004  25.704  24.080  1.00  0.00     0.202 C 
BRANCH   3   4
ATOM      4  C   UNL A   1      32.338  26.952  23.501  1.00  0.00     0.261 C 
BRANCH   4   5
ATOM      5  O   UNL A   1      31.387  27.513  24.420  1.00  0.00    -0.463 OA
BRANCH   5   6
ATOM      6  C   UNL A   1      31.153  28.842  24.327  1.00  0.00     0.306 C 
ATOM      7  O   UNL A   1      30.163  29.340  23.804  1.00  0.00    -0.252 OA
BRANCH   6   8
ATOM      8  C   UNL A   1      32.190  29.678  25.047  1.00  0.00     0.135 C 
BRANCH   8   9
ATOM      9  C   UNL A   1      31.997  29.882  26.545  1.00  0.00     0.139 C 
BRANCH   9  10
ATOM     10  C   UNL A   1      33.288  29.628  27.288  1.00  0.00     0.308 C 
ATOM     11  N   UNL A   1      35.709  31.815  28.976  1.00  0.00    -0.217 N 
ATOM     12  C   UNL A   1      35.059  30.826  28.221  1.00  0.00     0.319 C 
ATOM     13  C   UNL A   1      37.145  31.579  29.151  1.00  0.00     0.212 C 
ATOM     14  N   UNL A   1      33.808  30.728  27.931  1.00  0.00    -0.204 N 
ATOM     15  S   UNL A   1      36.309  29.631  27.709  1.00  0.00    -0.029 SA
ATOM     16  C   UNL A   1      37.251  30.052  29.174  1.00  0.00     0.120 C 
ATOM     17  C   UNL A   1      37.818  32.009  30.438  1.00  0.00     0.188 C 
ATOM     18  H   UNL A   1      33.204  31.465  28.178  1.00  0.00     0.316 HD
ATOM     19  C   UNL A   1      38.707  29.715  29.295  1.00  0.00     0.156 C 
ATOM     20  S   UNL A   1      39.246  30.920  30.514  1.00  0.00     0.155 S 
ATOM     21  O   UNL A   1      33.690  28.471  27.389  1.00  0.00    -0.247 OA
ATOM     22  O   UNL A   1      39.253  30.285  31.820  1.00  0.00    -0.229 OA
ATOM     23  O   UNL A   1      40.388  31.622  29.986  1.00  0.00    -0.229 OA
BRANCH  11  24
ATOM     24  C   UNL A   1      35.145  32.920  29.624  1.00  0.00     0.128 A 
ATOM     25  C   UNL A   1      33.829  35.091  30.909  1.00  0.00     0.018 A 
ATOM     26  C   UNL A   1      34.166  33.935  31.620  1.00  0.00     0.016 A 
ATOM     27  C   UNL A   1      34.107  35.140  29.541  1.00  0.00     0.016 A 
ATOM     28  C   UNL A   1      34.795  32.858  30.979  1.00  0.00     0.052 A 
ATOM     29  C   UNL A   1      34.773  34.068  28.914  1.00  0.00     0.052 A 
BRANCH  25  30
ATOM     30  C   UNL A   1      33.216  36.232  31.661  1.00  0.00     0.159 C 
ATOM     31  C   UNL A   1      33.859  36.723  32.931  1.00  0.00     0.093 C 
ATOM     32  O   UNL A   1      32.198  36.765  31.221  1.00  0.00    -0.295 OA
ENDBRANCH  25  30
ENDBRANCH  11  24
ENDBRANCH   9  10
ENDBRANCH   8   9
ENDBRANCH   6   8
ENDBRANCH   5   6
ENDBRANCH   4   5
ENDBRANCH   3   4
ENDBRANCH   2   3
ENDBRANCH   1   2
BRANCH   1  33
ATOM     33  C   UNL A   1      34.951  24.155  25.617  1.00  0.00     0.188 C 
BRANCH  33  34
ATOM     34  O   UNL A   1      35.660  23.196  26.374  1.00  0.00    -0.376 OA
BRANCH  34  35
ATOM     35  C   UNL A   1      36.200  22.067  25.693  1.00  0.00     0.202 C 
BRANCH  35  36
ATOM     36  C   UNL A   1      37.670  22.035  25.205  1.00  0.00     0.261 C 
BRANCH  36  37
ATOM     37  O   UNL A   1      38.715  22.293  26.159  1.00  0.00    -0.460 OA
BRANCH  37  38
ATOM     38  C   UNL A   1      39.669  21.348  26.339  1.00  0.00     0.338 C 
ATOM     39  O   UNL A   1      39.728  20.270  25.779  1.00  0.00    -0.246 OA
BRANCH  38  40
ATOM     40  C   UNL A   1      40.796  21.980  27.094  1.00  0.00     0.060 A 
ATOM     41  C   UNL A   1      40.612  23.286  27.577  1.00  0.00     0.016 A 
ATOM     42  C   UNL A   1      41.952  21.275  27.447  1.00  0.00     0.016 A 
ATOM     43  C   UNL A   1      41.579  23.891  28.387  1.00  0.00     0.010 A 
ATOM     44  C   UNL A   1      42.934  21.891  28.233  1.00  0.00     0.010 A 
ATOM     45  C   UNL A   1      42.767  23.213  28.683  1.00  0.00    -0.014 A 
BRANCH  45  46
ATOM     46  C   UNL A   1      43.928  23.955  29.242  1.00  0.00     0.031 A 
ATOM     47  C   UNL A   1      44.816  24.688  28.270  1.00  0.00     0.074 A 
ATOM     48  C   UNL A   1      44.202  23.997  30.559  1.00  0.00     0.049 A 
ATOM     49  N   UNL A   1      45.937  25.328  28.482  1.00  0.00    -0.248 NA
ATOM     50  C   UNL A   1      44.376  24.690  26.864  1.00  0.00     0.031 C 
ATOM     51  C   UNL A   1      43.396  23.393  31.617  1.00  0.00     0.029 A 
ATOM     52  N   UNL A   1      45.256  24.575  31.225  1.00  0.00    -0.354 N 
ATOM     53  C   UNL A   1      46.343  25.790  27.236  1.00  0.00     0.074 A 
ATOM     54  C   UNL A   1      45.364  25.339  26.272  1.00  0.00     0.031 C 
ATOM     55  C   UNL A   1      43.996  23.619  32.801  1.00  0.00     0.029 A 
ATOM     56  C   UNL A   1      45.248  24.344  32.580  1.00  0.00     0.049 A 
ATOM     57  H   UNL A   1      45.953  25.105  30.774  1.00  0.00     0.167 HD
ATOM     58  C   UNL A   1      47.434  26.526  26.918  1.00  0.00     0.031 A 
ATOM     59  C   UNL A   1      46.160  24.653  33.525  1.00  0.00     0.031 A 
ATOM     60  C   UNL A   1      48.420  26.960  27.868  1.00  0.00     0.049 A 
ATOM     61  C   UNL A   1      47.420  25.385  33.132  1.00  0.00     0.074 A 
ATOM     62  C   UNL A   1      49.556  27.717  27.643  1.00  0.00     0.029 A 
ATOM     63  N   UNL A   1      48.394  26.667  29.223  1.00  0.00    -0.354 N 
ATOM     64  N   UNL A   1      47.787  25.833  31.956  1.00  0.00    -0.248 NA
ATOM     65  C   UNL A   1      48.393  25.658  34.204  1.00  0.00     0.031 C 
ATOM     66  C   UNL A   1      50.254  27.822  28.850  1.00  0.00     0.029 A 
ATOM     67  C   UNL A   1      49.512  27.199  29.840  1.00  0.00     0.049 A 
ATOM     68  H   UNL A   1      47.685  26.156  29.677  1.00  0.00     0.167 HD
ATOM     69  C   UNL A   1      49.010  26.468  32.152  1.00  0.00     0.074 A 
ATOM     70  C   UNL A   1      49.318  26.357  33.562  1.00  0.00     0.031 C 
ATOM     71  C   UNL A   1      49.805  27.089  31.246  1.00  0.00     0.031 A 
BRANCH  58  72
ATOM     72  C   UNL A   1      47.641  26.859  25.467  1.00  0.00    -0.014 A 
ATOM     73  C   UNL A   1      48.496  26.098  24.653  1.00  0.00     0.009 A 
ATOM     74  C   UNL A   1      46.948  27.940  24.900  1.00  0.00     0.009 A 
ATOM     75  C   UNL A   1      48.681  26.438  23.311  1.00  0.00     0.001 A 
ATOM     76  C   UNL A   1      47.109  28.256  23.550  1.00  0.00     0.001 A 
ATOM     77  C   UNL A   1      47.982  27.512  22.760  1.00  0.00     0.000 A 
ENDBRANCH  58  72
BRANCH  59  78
ATOM     78  C   UNL A   1      45.946  24.242  34.941  1.00  0.00    -0.014 A 
ATOM     79  C   UNL A   1      45.430  25.146  35.883  1.00  0.00     0.009 A 
ATOM     80  C   UNL A   1      46.295  22.950  35.367  1.00  0.00     0.009 A 
ATOM     81  C   UNL A   1      45.294  24.774  37.224  1.00  0.00     0.001 A 
ATOM     82  C   UNL A   1      46.127  22.571  36.701  1.00  0.00     0.001 A 
ATOM     83  C   UNL A   1      45.637  23.486  37.631  1.00  0.00     0.000 A 
ENDBRANCH  59  78
BRANCH  71  84
ATOM     84  C   UNL A   1      51.061  27.749  31.749  1.00  0.00    -0.014 A 
ATOM     85  C   UNL A   1      51.048  29.049  32.279  1.00  0.00     0.009 A 
ATOM     86  C   UNL A   1      52.267  27.028  31.753  1.00  0.00     0.009 A 
ATOM     87  C   UNL A   1      52.223  29.621  32.774  1.00  0.00     0.001 A 
ATOM     88  C   UNL A   1      53.430  27.589  32.279  1.00  0.00     0.001 A 
ATOM     89  C   UNL A   1      53.410  28.889  32.781  1.00  0.00     0.000 A 
ENDBRANCH  71  84
ENDBRANCH  45  46
ENDBRANCH  38  40
ENDBRANCH  37  38
ENDBRANCH  36  37
ENDBRANCH  35  36
ENDBRANCH  34  35
ENDBRANCH  33  34
ENDBRANCH   1  33
TORSDOF 21
ENDMDL
MODEL 2
REMARK VINA RESULT:      -9.7      4.954     11.562
REMARK SMILES CC(=O)c1ccc(N2/C(=[NH+]/C(=O)CCC(=O)OCCOCCOCCOC(=O)c3ccc(-c4c5nc(c(-c6ccccc6)c6ccc([nH]6)c(-c6ccccc6)c6nc(c(-c7ccccc7)c7ccc4[nH]7)C=C6)C=C5)cc3)S[C@H]3CS(=O)(=O)C[C@@H]32)cc1
REMARK SMILES IDX 21 1 20 2 19 3 18 4 17 5 15 6 16 7 14 8 13 9 11 10 8 11 9 12
REMARK SMILES IDX 84 13 10 14 77 15 78 16 83 17 79 19 80 20 12 21 81 22 82 23
REMARK SMILES IDX 7 24 4 25 5 26 86 27 6 28 85 29 2 30 1 31 3 32 22 33 23 34
REMARK SMILES IDX 24 35 25 36 26 37 27 38 28 39 29 40 30 41 76 42 31 43 75 44
REMARK SMILES IDX 32 45 33 46 34 47 69 48 35 49 74 50 68 51 70 52 36 53 73 54
REMARK SMILES IDX 67 55 66 56 37 58 59 59 44 60 58 61 45 62 48 63 57 64 71 65
REMARK SMILES IDX 46 66 47 67 56 69 72 70 49 71 38 72 39 73 43 74 40 75 42 76
REMARK SMILES IDX 41 77 60 78 61 79 65 80 62 81 64 82 63 83 50 84 51 85 55 86
REMARK SMILES IDX 52 87 54 88 53 89
REMARK H PARENT 10 18 70 57 48 68
REMARK Flexibility Score: inf
ROOT
ATOM      1  C   UNL A   1      45.675  22.336  24.240  1.00  0.00     0.188 C 
ENDROOT
BRANCH   1   2
ATOM      2  O   UNL A   1      44.642  21.393  23.958  1.00  0.00    -0.376 OA
BRANCH   2   3
ATOM      3  C   UNL A   1      44.961  20.020  24.215  1.00  0.00     0.202 C 
BRANCH   3   4
ATOM      4  C   UNL A   1      43.906  19.288  25.044  1.00  0.00     0.261 C 
BRANCH   4   5
ATOM      5  O   UNL A   1      42.823  20.160  25.405  1.00  0.00    -0.463 OA
BRANCH   5   6
ATOM      6  C   UNL A   1      41.741  19.590  25.982  1.00  0.00     0.306 C 
ATOM      7  O   UNL A   1      41.525  18.384  26.016  1.00  0.00    -0.252 OA
BRANCH   6   8
ATOM      8  C   UNL A   1      40.857  20.587  26.701  1.00  0.00     0.135 C 
BRANCH   8   9
ATOM      9  C   UNL A   1      39.901  21.409  25.845  1.00  0.00     0.139 C 
BRANCH   9  10
ATOM     10  C   UNL A   1      38.845  20.523  25.223  1.00  0.00     0.308 C 
ATOM     11  N   UNL A   1      35.182  20.703  25.034  1.00  0.00    -0.217 N 
ATOM     12  C   UNL A   1      36.523  20.310  25.164  1.00  0.00     0.319 C 
ATOM     13  C   UNL A   1      34.243  19.581  24.937  1.00  0.00     0.212 C 
ATOM     14  N   UNL A   1      37.575  21.052  25.229  1.00  0.00    -0.204 N 
ATOM     15  S   UNL A   1      36.557  18.508  25.204  1.00  0.00    -0.029 SA
ATOM     16  C   UNL A   1      35.059  18.501  24.222  1.00  0.00     0.120 C 
ATOM     17  C   UNL A   1      33.000  19.723  24.084  1.00  0.00     0.188 C 
ATOM     18  H   UNL A   1      37.466  22.028  25.284  1.00  0.00     0.316 HD
ATOM     19  C   UNL A   1      34.187  17.284  24.127  1.00  0.00     0.156 C 
ATOM     20  S   UNL A   1      32.609  18.017  23.677  1.00  0.00     0.155 S 
ATOM     21  O   UNL A   1      39.204  19.500  24.645  1.00  0.00    -0.247 OA
ATOM     22  O   UNL A   1      32.452  17.927  22.237  1.00  0.00    -0.229 OA
ATOM     23  O   UNL A   1      31.608  17.542  24.599  1.00  0.00    -0.229 OA
BRANCH  11  24
ATOM     24  C   UNL A   1      34.666  21.999  24.913  1.00  0.00     0.128 A 
ATOM     25  C   UNL A   1      33.790  24.697  24.701  1.00  0.00     0.018 A 
ATOM     26  C   UNL A   1      34.325  24.029  23.595  1.00  0.00     0.016 A 
ATOM     27  C   UNL A   1      33.740  24.029  25.927  1.00  0.00     0.016 A 
ATOM     28  C   UNL A   1      34.776  22.705  23.708  1.00  0.00     0.052 A 
ATOM     29  C   UNL A   1      34.161  22.688  26.021  1.00  0.00     0.052 A 
BRANCH  25  30
ATOM     30  C   UNL A   1      33.268  26.087  24.504  1.00  0.00     0.159 C 
ATOM     31  C   UNL A   1      31.783  26.336  24.508  1.00  0.00     0.093 C 
ATOM     32  O   UNL A   1      34.064  27.013  24.356  1.00  0.00    -0.295 OA
ENDBRANCH  25  30
ENDBRANCH  11  24
ENDBRANCH   9  10
ENDBRANCH   8   9
ENDBRANCH   6   8
ENDBRANCH   5   6
ENDBRANCH   4   5
ENDBRANCH   3   4
ENDBRANCH   2   3
ENDBRANCH   1   2
BRANCH   1  33
ATOM     33  C   UNL A   1      45.163  23.718  24.633  1.00  0.00     0.188 C 
BRANCH  33  34
ATOM     34  O   UNL A   1      43.865  23.760  25.189  1.00  0.00    -0.376 OA
BRANCH  34  35
ATOM     35  C   UNL A   1      43.724  23.525  26.588  1.00  0.00     0.202 C 
BRANCH  35  36
ATOM     36  C   UNL A   1      42.395  23.807  27.332  1.00  0.00     0.261 C 
BRANCH  36  37
ATOM     37  O   UNL A   1      41.270  24.283  26.572  1.00  0.00    -0.460 OA
BRANCH  37  38
ATOM     38  C   UNL A   1      41.292  25.560  26.123  1.00  0.00     0.338 C 
ATOM     39  O   UNL A   1      41.312  25.914  24.959  1.00  0.00    -0.246 OA
BRANCH  38  40
ATOM     40  C   UNL A   1      40.966  26.453  27.280  1.00  0.00     0.060 A 
ATOM     41  C   UNL A   1      41.613  27.697  27.352  1.00  0.00     0.016 A 
ATOM     42  C   UNL A   1      39.954  26.151  28.200  1.00  0.00     0.016 A 
ATOM     43  C   UNL A   1      41.271  28.624  28.341  1.00  0.00     0.010 A 
ATOM     44  C   UNL A   1      39.632  27.068  29.209  1.00  0.00     0.010 A 
ATOM     45  C   UNL A   1      40.308  28.297  29.303  1.00  0.00    -0.014 A 
BRANCH  45  46
ATOM     46  C   UNL A   1      40.182  29.115  30.538  1.00  0.00     0.031 A 
ATOM     47  C   UNL A   1      39.126  30.189  30.556  1.00  0.00     0.074 A 
ATOM     48  C   UNL A   1      40.960  28.926  31.621  1.00  0.00     0.049 A 
ATOM     49  N   UNL A   1      38.871  31.096  31.464  1.00  0.00    -0.248 NA
ATOM     50  C   UNL A   1      38.241  30.247  29.380  1.00  0.00     0.031 C 
ATOM     51  C   UNL A   1      41.974  27.886  31.771  1.00  0.00     0.029 A 
ATOM     52  N   UNL A   1      41.016  29.625  32.803  1.00  0.00    -0.354 N 
ATOM     53  C   UNL A   1      37.813  31.840  30.959  1.00  0.00     0.074 A 
ATOM     54  C   UNL A   1      37.488  31.297  29.659  1.00  0.00     0.031 C 
ATOM     55  C   UNL A   1      42.564  28.026  32.973  1.00  0.00     0.029 A 
ATOM     56  C   UNL A   1      42.001  29.191  33.657  1.00  0.00     0.049 A 
ATOM     57  H   UNL A   1      40.407  30.370  33.018  1.00  0.00     0.167 HD
ATOM     58  C   UNL A   1      37.165  32.886  31.524  1.00  0.00     0.031 A 
ATOM     59  C   UNL A   1      42.420  29.694  34.836  1.00  0.00     0.031 A 
ATOM     60  C   UNL A   1      37.495  33.443  32.807  1.00  0.00     0.049 A 
ATOM     61  C   UNL A   1      41.750  30.923  35.402  1.00  0.00     0.074 A 
ATOM     62  C   UNL A   1      36.891  34.497  33.469  1.00  0.00     0.029 A 
ATOM     63  N   UNL A   1      38.528  32.998  33.618  1.00  0.00    -0.354 N 
ATOM     64  N   UNL A   1      40.740  31.610  34.926  1.00  0.00    -0.248 NA
ATOM     65  C   UNL A   1      42.281  31.444  36.673  1.00  0.00     0.031 C 
ATOM     66  C   UNL A   1      37.602  34.735  34.648  1.00  0.00     0.029 A 
ATOM     67  C   UNL A   1      38.599  33.779  34.758  1.00  0.00     0.049 A 
ATOM     68  H   UNL A   1      39.122  32.240  33.412  1.00  0.00     0.167 HD
ATOM     69  C   UNL A   1      40.493  32.618  35.854  1.00  0.00     0.074 A 
ATOM     70  C   UNL A   1      41.451  32.447  36.924  1.00  0.00     0.031 C 
ATOM     71  C   UNL A   1      39.553  33.596  35.822  1.00  0.00     0.031 A 
BRANCH  58  72
ATOM     72  C   UNL A   1      36.064  33.528  30.727  1.00  0.00    -0.014 A 
ATOM     73  C   UNL A   1      34.756  33.627  31.227  1.00  0.00     0.009 A 
ATOM     74  C   UNL A   1      36.351  34.068  29.462  1.00  0.00     0.009 A 
ATOM     75  C   UNL A   1      33.750  34.218  30.459  1.00  0.00     0.001 A 
ATOM     76  C   UNL A   1      35.351  34.688  28.712  1.00  0.00     0.001 A 
ATOM     77  C   UNL A   1      34.049  34.753  29.207  1.00  0.00     0.000 A 
ENDBRANCH  58  72
BRANCH  59  78
ATOM     78  C   UNL A   1      43.561  29.066  35.560  1.00  0.00    -0.014 A 
ATOM     79  C   UNL A   1      44.887  29.416  35.258  1.00  0.00     0.009 A 
ATOM     80  C   UNL A   1      43.330  28.080  36.533  1.00  0.00     0.009 A 
ATOM     81  C   UNL A   1      45.954  28.775  35.894  1.00  0.00     0.001 A 
ATOM     82  C   UNL A   1      44.398  27.465  37.191  1.00  0.00     0.001 A 
ATOM     83  C   UNL A   1      45.709  27.805  36.863  1.00  0.00     0.000 A 
ENDBRANCH  59  78
BRANCH  71  84
ATOM     84  C   UNL A   1      39.470  34.529  37.000  1.00  0.00    -0.014 A 
ATOM     85  C   UNL A   1      38.836  34.153  38.193  1.00  0.00     0.009 A 
ATOM     86  C   UNL A   1      40.100  35.783  36.932  1.00  0.00     0.009 A 
ATOM     87  C   UNL A   1      38.809  35.027  39.284  1.00  0.00     0.001 A 
ATOM     88  C   UNL A   1      40.100  36.639  38.034  1.00  0.00     0.001 A 
ATOM     89  C   UNL A   1      39.447  36.265  39.206  1.00  0.00     0.000 A 
ENDBRANCH  71  84
ENDBRANCH  45  46
ENDBRANCH  38  40
ENDBRANCH  37  38
ENDBRANCH  36  37
ENDBRANCH  35  36
ENDBRANCH  34  35
ENDBRANCH  33  34
ENDBRANCH   1  33
TORSDOF 21
ENDMDL
MODEL 3
REMARK VINA RESULT:      -9.5      4.508     10.441
REMARK SMILES CC(=O)c1ccc(N2/C(=[NH+]/C(=O)CCC(=O)OCCOCCOCCOC(=O)c3ccc(-c4c5nc(c(-c6ccccc6)c6ccc([nH]6)c(-c6ccccc6)c6nc(c(-c7ccccc7)c7ccc4[nH]7)C=C6)C=C5)cc3)S[C@H]3CS(=O)(=O)C[C@@H]32)cc1
REMARK SMILES IDX 21 1 20 2 19 3 18 4 17 5 15 6 16 7 14 8 13 9 11 10 8 11 9 12
REMARK SMILES IDX 84 13 10 14 77 15 78 16 83 17 79 19 80 20 12 21 81 22 82 23
REMARK SMILES IDX 7 24 4 25 5 26 86 27 6 28 85 29 2 30 1 31 3 32 22 33 23 34
REMARK SMILES IDX 24 35 25 36 26 37 27 38 28 39 29 40 30 41 76 42 31 43 75 44
REMARK SMILES IDX 32 45 33 46 34 47 69 48 35 49 74 50 68 51 70 52 36 53 73 54
REMARK SMILES IDX 67 55 66 56 37 58 59 59 44 60 58 61 45 62 48 63 57 64 71 65
REMARK SMILES IDX 46 66 47 67 56 69 72 70 49 71 38 72 39 73 43 74 40 75 42 76
REMARK SMILES IDX 41 77 60 78 61 79 65 80 62 81 64 82 63 83 50 84 51 85 55 86
REMARK SMILES IDX 52 87 54 88 53 89
REMARK H PARENT 10 18 70 57 48 68
REMARK Flexibility Score: inf
ROOT
ATOM      1  C   UNL A   1      46.415  23.800  26.978  1.00  0.00     0.188 C 
ENDROOT
BRANCH   1   2
ATOM      2  O   UNL A   1      45.145  23.178  26.780  1.00  0.00    -0.376 OA
BRANCH   2   3
ATOM      3  C   UNL A   1      44.306  23.089  27.937  1.00  0.00     0.202 C 
BRANCH   3   4
ATOM      4  C   UNL A   1      42.832  23.378  27.652  1.00  0.00     0.261 C 
BRANCH   4   5
ATOM      5  O   UNL A   1      42.661  24.038  26.388  1.00  0.00    -0.463 OA
BRANCH   5   6
ATOM      6  C   UNL A   1      41.575  24.832  26.251  1.00  0.00     0.306 C 
ATOM      7  O   UNL A   1      41.470  25.732  25.425  1.00  0.00    -0.252 OA
BRANCH   6   8
ATOM      8  C   UNL A   1      40.426  24.426  27.149  1.00  0.00     0.135 C 
BRANCH   8   9
ATOM      9  C   UNL A   1      39.047  24.973  26.801  1.00  0.00     0.139 C 
BRANCH   9  10
ATOM     10  C   UNL A   1      38.206  23.911  26.130  1.00  0.00     0.308 C 
ATOM     11  N   UNL A   1      34.596  23.519  25.574  1.00  0.00    -0.217 N 
ATOM     12  C   UNL A   1      35.960  23.343  25.856  1.00  0.00     0.319 C 
ATOM     13  C   UNL A   1      33.850  22.264  25.449  1.00  0.00     0.212 C 
ATOM     14  N   UNL A   1      36.878  24.238  25.982  1.00  0.00    -0.204 N 
ATOM     15  S   UNL A   1      36.256  21.570  26.002  1.00  0.00    -0.029 SA
ATOM     16  C   UNL A   1      34.887  21.292  24.879  1.00  0.00     0.120 C 
ATOM     17  C   UNL A   1      32.697  22.179  24.471  1.00  0.00     0.188 C 
ATOM     18  H   UNL A   1      36.620  25.188  25.970  1.00  0.00     0.316 HD
ATOM     19  C   UNL A   1      34.220  19.954  24.769  1.00  0.00     0.156 C 
ATOM     20  S   UNL A   1      32.608  20.417  24.126  1.00  0.00     0.155 S 
ATOM     21  O   UNL A   1      38.771  22.932  25.649  1.00  0.00    -0.247 OA
ATOM     22  O   UNL A   1      32.619  20.244  22.685  1.00  0.00    -0.229 OA
ATOM     23  O   UNL A   1      31.596  19.833  24.971  1.00  0.00    -0.229 OA
BRANCH  11  24
ATOM     24  C   UNL A   1      33.911  24.715  25.328  1.00  0.00     0.128 A 
ATOM     25  C   UNL A   1      32.669  27.236  24.887  1.00  0.00     0.018 A 
ATOM     26  C   UNL A   1      33.455  26.641  23.895  1.00  0.00     0.016 A 
ATOM     27  C   UNL A   1      32.546  26.591  26.120  1.00  0.00     0.016 A 
ATOM     28  C   UNL A   1      34.083  25.408  24.124  1.00  0.00     0.052 A 
ATOM     29  C   UNL A   1      33.150  25.335  26.326  1.00  0.00     0.052 A 
BRANCH  25  30
ATOM     30  C   UNL A   1      31.973  28.521  24.563  1.00  0.00     0.159 C 
ATOM     31  C   UNL A   1      31.817  29.578  25.625  1.00  0.00     0.093 C 
ATOM     32  O   UNL A   1      31.547  28.704  23.422  1.00  0.00    -0.295 OA
ENDBRANCH  25  30
ENDBRANCH  11  24
ENDBRANCH   9  10
ENDBRANCH   8   9
ENDBRANCH   6   8
ENDBRANCH   5   6
ENDBRANCH   4   5
ENDBRANCH   3   4
ENDBRANCH   2   3
ENDBRANCH   1   2
BRANCH   1  33
ATOM     33  C   UNL A   1      46.569  24.476  28.337  1.00  0.00     0.188 C 
BRANCH  33  34
ATOM     34  O   UNL A   1      47.518  25.519  28.402  1.00  0.00    -0.376 OA
BRANCH  34  35
ATOM     35  C   UNL A   1      48.418  25.681  27.308  1.00  0.00     0.202 C 
BRANCH  35  36
ATOM     36  C   UNL A   1      48.187  26.752  26.213  1.00  0.00     0.261 C 
BRANCH  36  37
ATOM     37  O   UNL A   1      47.156  26.523  25.237  1.00  0.00    -0.460 OA
BRANCH  37  38
ATOM     38  C   UNL A   1      46.385  27.570  24.859  1.00  0.00     0.338 C 
ATOM     39  O   UNL A   1      46.236  27.981  23.723  1.00  0.00    -0.246 OA
BRANCH  38  40
ATOM     40  C   UNL A   1      45.508  27.929  26.018  1.00  0.00     0.060 A 
ATOM     41  C   UNL A   1      45.410  29.285  26.372  1.00  0.00     0.016 A 
ATOM     42  C   UNL A   1      44.690  26.992  26.660  1.00  0.00     0.016 A 
ATOM     43  C   UNL A   1      44.522  29.701  27.368  1.00  0.00     0.010 A 
ATOM     44  C   UNL A   1      43.822  27.404  27.679  1.00  0.00     0.010 A 
ATOM     45  C   UNL A   1      43.754  28.756  28.059  1.00  0.00    -0.014 A 
BRANCH  45  46
ATOM     46  C   UNL A   1      43.076  29.132  29.327  1.00  0.00     0.031 A 
ATOM     47  C   UNL A   1      41.607  29.461  29.259  1.00  0.00     0.074 A 
ATOM     48  C   UNL A   1      43.716  29.181  30.511  1.00  0.00     0.049 A 
ATOM     49  N   UNL A   1      40.805  29.905  30.192  1.00  0.00    -0.248 NA
ATOM     50  C   UNL A   1      40.959  29.265  27.950  1.00  0.00     0.031 C 
ATOM     51  C   UNL A   1      45.114  28.826  30.739  1.00  0.00     0.029 A 
ATOM     52  N   UNL A   1      43.259  29.565  31.749  1.00  0.00    -0.354 N 
ATOM     53  C   UNL A   1      39.568  30.058  29.579  1.00  0.00     0.074 A 
ATOM     54  C   UNL A   1      39.728  29.684  28.192  1.00  0.00     0.031 C 
ATOM     55  C   UNL A   1      45.406  29.026  32.038  1.00  0.00     0.029 A 
ATOM     56  C   UNL A   1      44.229  29.563  32.722  1.00  0.00     0.049 A 
ATOM     57  H   UNL A   1      42.322  29.819  31.923  1.00  0.00     0.167 HD
ATOM     58  C   UNL A   1      38.399  30.475  30.119  1.00  0.00     0.031 A 
ATOM     59  C   UNL A   1      44.181  29.977  34.005  1.00  0.00     0.031 A 
ATOM     60  C   UNL A   1      38.238  30.866  31.492  1.00  0.00     0.049 A 
ATOM     61  C   UNL A   1      42.892  30.533  34.560  1.00  0.00     0.074 A 
ATOM     62  C   UNL A   1      37.090  31.294  32.135  1.00  0.00     0.029 A 
ATOM     63  N   UNL A   1      39.257  30.889  32.431  1.00  0.00    -0.354 N 
ATOM     64  N   UNL A   1      41.724  30.659  33.979  1.00  0.00    -0.248 NA
ATOM     65  C   UNL A   1      42.917  31.004  35.956  1.00  0.00     0.031 C 
ATOM     66  C   UNL A   1      37.430  31.643  33.445  1.00  0.00     0.029 A 
ATOM     67  C   UNL A   1      38.772  31.356  33.639  1.00  0.00     0.049 A 
ATOM     68  H   UNL A   1      40.188  30.614  32.262  1.00  0.00     0.167 HD
ATOM     69  C   UNL A   1      40.871  31.187  34.943  1.00  0.00     0.074 A 
ATOM     70  C   UNL A   1      41.652  31.348  36.151  1.00  0.00     0.031 C 
ATOM     71  C   UNL A   1      39.557  31.507  34.838  1.00  0.00     0.031 A 
BRANCH  58  72
ATOM     72  C   UNL A   1      37.213  30.577  29.201  1.00  0.00    -0.014 A 
ATOM     73  C   UNL A   1      36.793  31.811  28.678  1.00  0.00     0.009 A 
ATOM     74  C   UNL A   1      36.520  29.412  28.834  1.00  0.00     0.009 A 
ATOM     75  C   UNL A   1      35.680  31.878  27.837  1.00  0.00     0.001 A 
ATOM     76  C   UNL A   1      35.429  29.479  27.967  1.00  0.00     0.001 A 
ATOM     77  C   UNL A   1      35.003  30.713  27.478  1.00  0.00     0.000 A 
ENDBRANCH  58  72
BRANCH  59  78
ATOM     78  C   UNL A   1      45.400  29.922  34.860  1.00  0.00    -0.014 A 
ATOM     79  C   UNL A   1      46.468  30.808  34.650  1.00  0.00     0.009 A 
ATOM     80  C   UNL A   1      45.517  28.952  35.869  1.00  0.00     0.009 A 
ATOM     81  C   UNL A   1      47.636  30.707  35.412  1.00  0.00     0.001 A 
ATOM     82  C   UNL A   1      46.672  28.875  36.652  1.00  0.00     0.001 A 
ATOM     83  C   UNL A   1      47.734  29.746  36.416  1.00  0.00     0.000 A 
ENDBRANCH  59  78
BRANCH  71  84
ATOM     84  C   UNL A   1      38.856  32.012  36.071  1.00  0.00    -0.014 A 
ATOM     85  C   UNL A   1      38.884  33.368  36.430  1.00  0.00     0.009 A 
ATOM     86  C   UNL A   1      38.098  31.120  36.848  1.00  0.00     0.009 A 
ATOM     87  C   UNL A   1      38.191  33.813  37.559  1.00  0.00     0.001 A 
ATOM     88  C   UNL A   1      37.380  31.574  37.955  1.00  0.00     0.001 A 
ATOM     89  C   UNL A   1      37.434  32.919  38.316  1.00  0.00     0.000 A 
ENDBRANCH  71  84
ENDBRANCH  45  46
ENDBRANCH  38  40
ENDBRANCH  37  38
ENDBRANCH  36  37
ENDBRANCH  35  36
ENDBRANCH  34  35
ENDBRANCH  33  34
ENDBRANCH   1  33
TORSDOF 21
ENDMDL
