MODEL 1
REMARK VINA RESULT:      -9.4      0.000      0.000
REMARK SMILES C[C@@H]1SCCC[C@]1(CC(=O)OCCOCCOCCOC(=O)c1ccc(-c2c3nc(c(-c4ccccc4)c4ccc([nH]4)c(-c4ccccc4)c4nc(c(-c5ccccc5)c5ccc2[nH]5)C=C4)C=C3)cc1)C(C)(C)[NH3+]
REMARK SMILES IDX 15 1 14 2 13 3 12 4 11 5 9 6 10 7 8 8 7 9 1 10 2 11 3 12
REMARK SMILES IDX 4 13 6 14 5 15 71 16 72 17 73 18 74 19 16 23 17 24 18 25
REMARK SMILES IDX 19 26 20 27 21 28 22 29 23 30 24 31 70 32 25 33 69 34 26 35
REMARK SMILES IDX 27 36 28 37 63 38 29 39 68 40 62 41 64 42 30 43 67 44 61 45
REMARK SMILES IDX 60 46 31 48 53 49 38 50 52 51 39 52 42 53 51 54 65 55 40 56
REMARK SMILES IDX 41 57 50 59 66 60 43 61 32 62 33 63 37 64 34 65 36 66 35 67
REMARK SMILES IDX 54 68 55 69 59 70 56 71 58 72 57 73 44 74 45 75 49 76 46 77
REMARK SMILES IDX 48 78 47 79
REMARK H PARENT 74 20 74 21 74 22 64 47 42 58
REMARK Flexibility Score: inf
ROOT
ATOM      1  C   UNL A   1      33.853  31.868  28.073  1.00  0.00     0.188 C 
ENDROOT
BRANCH   1   2
ATOM      2  O   UNL A   1      33.382  31.094  26.982  1.00  0.00    -0.376 OA
BRANCH   2   3
ATOM      3  C   UNL A   1      32.386  30.114  27.284  1.00  0.00     0.202 C 
BRANCH   3   4
ATOM      4  C   UNL A   1      32.622  28.688  26.751  1.00  0.00     0.261 C 
BRANCH   4   5
ATOM      5  O   UNL A   1      31.426  27.868  26.600  1.00  0.00    -0.463 OA
BRANCH   5   6
ATOM      6  C   UNL A   1      30.988  27.723  25.313  1.00  0.00     0.306 C 
ATOM      7  O   UNL A   1      30.979  28.641  24.496  1.00  0.00    -0.252 OA
BRANCH   6   8
ATOM      8  C   UNL A   1      30.716  26.277  24.867  1.00  0.00     0.137 C 
BRANCH   8   9
ATOM      9  C   UNL A   1      31.814  25.134  24.609  1.00  0.00     0.046 C 
ATOM     10  C   UNL A   1      32.315  23.217  22.824  1.00  0.00     0.020 C 
ATOM     11  C   UNL A   1      31.579  24.511  23.177  1.00  0.00     0.056 C 
ATOM     12  S   UNL A   1      31.935  25.695  21.810  1.00  0.00    -0.158 SA
ATOM     13  C   UNL A   1      33.640  26.119  22.233  1.00  0.00     0.070 C 
ATOM     14  C   UNL A   1      33.239  25.798  24.706  1.00  0.00     0.016 C 
ATOM     15  C   UNL A   1      33.670  26.756  23.604  1.00  0.00     0.012 C 
BRANCH   9  16
ATOM     16  C   UNL A   1      31.782  24.058  25.837  1.00  0.00     0.096 C 
ATOM     17  C   UNL A   1      30.890  22.795  25.696  1.00  0.00     0.079 C 
ATOM     18  C   UNL A   1      33.188  23.471  26.162  1.00  0.00     0.079 C 
BRANCH  16  19
ATOM     19  N   UNL A   1      31.292  24.743  27.022  1.00  0.00    -0.353 N 
ATOM     20  H   UNL A   1      31.725  25.665  27.085  1.00  0.00     0.344 HD
ATOM     21  H   UNL A   1      31.529  24.199  27.852  1.00  0.00     0.344 HD
ATOM     22  H   UNL A   1      30.279  24.848  26.961  1.00  0.00     0.344 HD
ENDBRANCH  16  19
ENDBRANCH   9  16
ENDBRANCH   8   9
ENDBRANCH   6   8
ENDBRANCH   5   6
ENDBRANCH   4   5
ENDBRANCH   3   4
ENDBRANCH   2   3
ENDBRANCH   1   2
BRANCH   1  23
ATOM     23  C   UNL A   1      33.640  33.388  28.002  1.00  0.00     0.188 C 
BRANCH  23  24
ATOM     24  O   UNL A   1      33.274  33.997  29.232  1.00  0.00    -0.376 OA
BRANCH  24  25
ATOM     25  C   UNL A   1      34.326  34.528  30.029  1.00  0.00     0.202 C 
BRANCH  25  26
ATOM     26  C   UNL A   1      34.280  34.068  31.490  1.00  0.00     0.261 C 
BRANCH  26  27
ATOM     27  O   UNL A   1      34.547  32.665  31.674  1.00  0.00    -0.460 OA
BRANCH  27  28
ATOM     28  C   UNL A   1      35.544  32.355  32.535  1.00  0.00     0.338 C 
ATOM     29  O   UNL A   1      35.539  32.481  33.746  1.00  0.00    -0.246 OA
BRANCH  28  30
ATOM     30  C   UNL A   1      36.575  31.594  31.798  1.00  0.00     0.060 A 
ATOM     31  C   UNL A   1      37.509  30.883  32.553  1.00  0.00     0.016 A 
ATOM     32  C   UNL A   1      36.653  31.571  30.410  1.00  0.00     0.016 A 
ATOM     33  C   UNL A   1      38.579  30.227  31.957  1.00  0.00     0.010 A 
ATOM     34  C   UNL A   1      37.712  30.886  29.798  1.00  0.00     0.010 A 
ATOM     35  C   UNL A   1      38.708  30.246  30.568  1.00  0.00    -0.014 A 
BRANCH  35  36
ATOM     36  C   UNL A   1      39.952  29.743  29.935  1.00  0.00     0.031 A 
ATOM     37  C   UNL A   1      41.126  30.677  29.819  1.00  0.00     0.074 A 
ATOM     38  C   UNL A   1      40.075  28.469  29.517  1.00  0.00     0.049 A 
ATOM     39  N   UNL A   1      42.247  30.530  29.160  1.00  0.00    -0.248 NA
ATOM     40  C   UNL A   1      41.014  31.953  30.543  1.00  0.00     0.031 C 
ATOM     41  C   UNL A   1      39.076  27.415  29.682  1.00  0.00     0.029 A 
ATOM     42  N   UNL A   1      41.111  27.849  28.861  1.00  0.00    -0.354 N 
ATOM     43  C   UNL A   1      42.946  31.718  29.343  1.00  0.00     0.074 A 
ATOM     44  C   UNL A   1      42.119  32.575  30.164  1.00  0.00     0.031 C 
ATOM     45  C   UNL A   1      39.551  26.276  29.150  1.00  0.00     0.029 A 
ATOM     46  C   UNL A   1      40.851  26.539  28.540  1.00  0.00     0.049 A 
ATOM     47  H   UNL A   1      41.958  28.300  28.643  1.00  0.00     0.167 HD
ATOM     48  C   UNL A   1      44.164  32.066  28.865  1.00  0.00     0.031 A 
ATOM     49  C   UNL A   1      41.561  25.666  27.799  1.00  0.00     0.031 A 
ATOM     50  C   UNL A   1      44.990  31.205  28.062  1.00  0.00     0.049 A 
ATOM     51  C   UNL A   1      42.854  26.114  27.172  1.00  0.00     0.074 A 
ATOM     52  C   UNL A   1      46.237  31.463  27.521  1.00  0.00     0.029 A 
ATOM     53  N   UNL A   1      44.650  29.913  27.686  1.00  0.00    -0.354 N 
ATOM     54  N   UNL A   1      43.485  27.257  27.295  1.00  0.00    -0.248 NA
ATOM     55  C   UNL A   1      43.527  25.149  26.289  1.00  0.00     0.031 C 
ATOM     56  C   UNL A   1      46.624  30.351  26.765  1.00  0.00     0.029 A 
ATOM     57  C   UNL A   1      45.650  29.373  26.895  1.00  0.00     0.049 A 
ATOM     58  H   UNL A   1      43.821  29.450  27.944  1.00  0.00     0.167 HD
ATOM     59  C   UNL A   1      44.642  27.137  26.534  1.00  0.00     0.074 A 
ATOM     60  C   UNL A   1      44.631  25.807  25.963  1.00  0.00     0.031 C 
ATOM     61  C   UNL A   1      45.628  28.047  26.332  1.00  0.00     0.031 A 
BRANCH  48  62
ATOM     62  C   UNL A   1      44.630  33.470  29.138  1.00  0.00    -0.014 A 
ATOM     63  C   UNL A   1      44.351  34.531  28.262  1.00  0.00     0.009 A 
ATOM     64  C   UNL A   1      45.384  33.729  30.294  1.00  0.00     0.009 A 
ATOM     65  C   UNL A   1      44.865  35.807  28.509  1.00  0.00     0.001 A 
ATOM     66  C   UNL A   1      45.865  35.011  30.559  1.00  0.00     0.001 A 
ATOM     67  C   UNL A   1      45.618  36.046  29.658  1.00  0.00     0.000 A 
ENDBRANCH  48  62
BRANCH  49  68
ATOM     68  C   UNL A   1      41.049  24.288  27.570  1.00  0.00    -0.014 A 
ATOM     69  C   UNL A   1      41.635  23.194  28.225  1.00  0.00     0.009 A 
ATOM     70  C   UNL A   1      39.987  24.055  26.682  1.00  0.00     0.009 A 
ATOM     71  C   UNL A   1      41.179  21.896  27.983  1.00  0.00     0.001 A 
ATOM     72  C   UNL A   1      39.513  22.758  26.466  1.00  0.00     0.001 A 
ATOM     73  C   UNL A   1      40.115  21.679  27.110  1.00  0.00     0.000 A 
ENDBRANCH  49  68
BRANCH  61  74
ATOM     74  C   UNL A   1      46.803  27.616  25.499  1.00  0.00    -0.014 A 
ATOM     75  C   UNL A   1      46.856  27.859  24.117  1.00  0.00     0.009 A 
ATOM     76  C   UNL A   1      47.897  26.990  26.119  1.00  0.00     0.009 A 
ATOM     77  C   UNL A   1      47.962  27.451  23.369  1.00  0.00     0.001 A 
ATOM     78  C   UNL A   1      49.016  26.613  25.374  1.00  0.00     0.001 A 
ATOM     79  C   UNL A   1      49.043  26.835  23.999  1.00  0.00     0.000 A 
ENDBRANCH  61  74
ENDBRANCH  35  36
ENDBRANCH  28  30
ENDBRANCH  27  28
ENDBRANCH  26  27
ENDBRANCH  25  26
ENDBRANCH  24  25
ENDBRANCH  23  24
ENDBRANCH   1  23
TORSDOF 20
ENDMDL
MODEL 2
REMARK VINA RESULT:      -9.2      3.363      8.322
REMARK SMILES C[C@@H]1SCCC[C@]1(CC(=O)OCCOCCOCCOC(=O)c1ccc(-c2c3nc(c(-c4ccccc4)c4ccc([nH]4)c(-c4ccccc4)c4nc(c(-c5ccccc5)c5ccc2[nH]5)C=C4)C=C3)cc1)C(C)(C)[NH3+]
REMARK SMILES IDX 15 1 14 2 13 3 12 4 11 5 9 6 10 7 8 8 7 9 1 10 2 11 3 12
REMARK SMILES IDX 4 13 6 14 5 15 71 16 72 17 73 18 74 19 16 23 17 24 18 25
REMARK SMILES IDX 19 26 20 27 21 28 22 29 23 30 24 31 70 32 25 33 69 34 26 35
REMARK SMILES IDX 27 36 28 37 63 38 29 39 68 40 62 41 64 42 30 43 67 44 61 45
REMARK SMILES IDX 60 46 31 48 53 49 38 50 52 51 39 52 42 53 51 54 65 55 40 56
REMARK SMILES IDX 41 57 50 59 66 60 43 61 32 62 33 63 37 64 34 65 36 66 35 67
REMARK SMILES IDX 54 68 55 69 59 70 56 71 58 72 57 73 44 74 45 75 49 76 46 77
REMARK SMILES IDX 48 78 47 79
REMARK H PARENT 74 20 74 21 74 22 64 47 42 58
REMARK Flexibility Score: inf
ROOT
ATOM      1  C   UNL A   1      33.097  22.208  24.617  1.00  0.00     0.188 C 
ENDROOT
BRANCH   1   2
ATOM      2  O   UNL A   1      31.691  22.386  24.677  1.00  0.00    -0.376 OA
BRANCH   2   3
ATOM      3  C   UNL A   1      31.118  22.459  25.984  1.00  0.00     0.202 C 
BRANCH   3   4
ATOM      4  C   UNL A   1      30.478  23.799  26.396  1.00  0.00     0.261 C 
BRANCH   4   5
ATOM      5  O   UNL A   1      31.405  24.908  26.578  1.00  0.00    -0.463 OA
BRANCH   5   6
ATOM      6  C   UNL A   1      30.910  26.135  26.232  1.00  0.00     0.306 C 
ATOM      7  O   UNL A   1      30.843  27.080  27.015  1.00  0.00    -0.252 OA
BRANCH   6   8
ATOM      8  C   UNL A   1      30.649  26.343  24.732  1.00  0.00     0.137 C 
BRANCH   8   9
ATOM      9  C   UNL A   1      31.549  27.203  23.716  1.00  0.00     0.046 C 
ATOM     10  C   UNL A   1      33.955  28.351  23.667  1.00  0.00     0.020 C 
ATOM     11  C   UNL A   1      33.006  27.340  24.311  1.00  0.00     0.056 C 
ATOM     12  S   UNL A   1      33.915  25.737  24.359  1.00  0.00    -0.158 SA
ATOM     13  C   UNL A   1      33.797  25.286  22.612  1.00  0.00     0.070 C 
ATOM     14  C   UNL A   1      31.574  26.452  22.332  1.00  0.00     0.016 C 
ATOM     15  C   UNL A   1      32.341  25.140  22.232  1.00  0.00     0.012 C 
BRANCH   9  16
ATOM     16  C   UNL A   1      30.806  28.622  23.396  1.00  0.00     0.096 C 
ATOM     17  C   UNL A   1      29.284  28.614  23.093  1.00  0.00     0.079 C 
ATOM     18  C   UNL A   1      30.935  29.647  24.563  1.00  0.00     0.079 C 
BRANCH  16  19
ATOM     19  N   UNL A   1      31.430  29.199  22.216  1.00  0.00    -0.353 N 
ATOM     20  H   UNL A   1      32.444  29.128  22.298  1.00  0.00     0.344 HD
ATOM     21  H   UNL A   1      31.163  30.181  22.136  1.00  0.00     0.344 HD
ATOM     22  H   UNL A   1      31.120  28.694  21.386  1.00  0.00     0.344 HD
ENDBRANCH  16  19
ENDBRANCH   9  16
ENDBRANCH   8   9
ENDBRANCH   6   8
ENDBRANCH   5   6
ENDBRANCH   4   5
ENDBRANCH   3   4
ENDBRANCH   2   3
ENDBRANCH   1   2
BRANCH   1  23
ATOM     23  C   UNL A   1      33.812  21.798  25.913  1.00  0.00     0.188 C 
BRANCH  23  24
ATOM     24  O   UNL A   1      35.230  21.810  25.841  1.00  0.00    -0.376 OA
BRANCH  24  25
ATOM     25  C   UNL A   1      35.810  22.034  24.561  1.00  0.00     0.202 C 
BRANCH  25  26
ATOM     26  C   UNL A   1      36.898  23.113  24.562  1.00  0.00     0.261 C 
BRANCH  26  27
ATOM     27  O   UNL A   1      37.333  23.509  25.877  1.00  0.00    -0.460 OA
BRANCH  27  28
ATOM     28  C   UNL A   1      38.605  23.188  26.207  1.00  0.00     0.338 C 
ATOM     29  O   UNL A   1      39.217  22.184  25.894  1.00  0.00    -0.246 OA
BRANCH  28  30
ATOM     30  C   UNL A   1      39.241  24.375  26.817  1.00  0.00     0.060 A 
ATOM     31  C   UNL A   1      38.992  24.611  28.170  1.00  0.00     0.016 A 
ATOM     32  C   UNL A   1      40.052  25.251  26.104  1.00  0.00     0.016 A 
ATOM     33  C   UNL A   1      39.456  25.757  28.805  1.00  0.00     0.010 A 
ATOM     34  C   UNL A   1      40.550  26.393  26.746  1.00  0.00     0.010 A 
ATOM     35  C   UNL A   1      40.219  26.678  28.088  1.00  0.00    -0.014 A 
BRANCH  35  36
ATOM     36  C   UNL A   1      40.533  28.000  28.685  1.00  0.00     0.031 A 
ATOM     37  C   UNL A   1      41.938  28.260  29.155  1.00  0.00     0.074 A 
ATOM     38  C   UNL A   1      39.614  28.981  28.766  1.00  0.00     0.049 A 
ATOM     39  N   UNL A   1      42.411  29.257  29.858  1.00  0.00    -0.248 NA
ATOM     40  C   UNL A   1      42.943  27.252  28.782  1.00  0.00     0.031 C 
ATOM     41  C   UNL A   1      38.254  28.926  28.234  1.00  0.00     0.029 A 
ATOM     42  N   UNL A   1      39.701  30.229  29.334  1.00  0.00    -0.354 N 
ATOM     43  C   UNL A   1      43.755  28.965  30.061  1.00  0.00     0.074 A 
ATOM     44  C   UNL A   1      44.016  27.696  29.417  1.00  0.00     0.031 C 
ATOM     45  C   UNL A   1      37.636  30.091  28.493  1.00  0.00     0.029 A 
ATOM     46  C   UNL A   1      38.528  30.943  29.274  1.00  0.00     0.049 A 
ATOM     47  H   UNL A   1      40.525  30.580  29.743  1.00  0.00     0.167 HD
ATOM     48  C   UNL A   1      44.687  29.686  30.729  1.00  0.00     0.031 A 
ATOM     49  C   UNL A   1      38.199  32.126  29.825  1.00  0.00     0.031 A 
ATOM     50  C   UNL A   1      44.427  30.954  31.355  1.00  0.00     0.049 A 
ATOM     51  C   UNL A   1      39.211  32.852  30.670  1.00  0.00     0.074 A 
ATOM     52  C   UNL A   1      45.299  31.763  32.063  1.00  0.00     0.029 A 
ATOM     53  N   UNL A   1      43.200  31.601  31.345  1.00  0.00    -0.354 N 
ATOM     54  N   UNL A   1      40.464  32.546  30.912  1.00  0.00    -0.248 NA
ATOM     55  C   UNL A   1      38.757  34.085  31.331  1.00  0.00     0.031 C 
ATOM     56  C   UNL A   1      44.583  32.868  32.535  1.00  0.00     0.029 A 
ATOM     57  C   UNL A   1      43.283  32.784  32.061  1.00  0.00     0.049 A 
ATOM     58  H   UNL A   1      42.390  31.268  30.895  1.00  0.00     0.167 HD
ATOM     59  C   UNL A   1      40.954  33.562  31.724  1.00  0.00     0.074 A 
ATOM     60  C   UNL A   1      39.868  34.499  31.923  1.00  0.00     0.031 C 
ATOM     61  C   UNL A   1      42.195  33.709  32.252  1.00  0.00     0.031 A 
BRANCH  48  62
ATOM     62  C   UNL A   1      46.050  29.068  30.879  1.00  0.00    -0.014 A 
ATOM     63  C   UNL A   1      46.432  28.380  32.042  1.00  0.00     0.009 A 
ATOM     64  C   UNL A   1      46.980  29.198  29.835  1.00  0.00     0.009 A 
ATOM     65  C   UNL A   1      47.733  27.885  32.177  1.00  0.00     0.001 A 
ATOM     66  C   UNL A   1      48.266  28.671  29.957  1.00  0.00     0.001 A 
ATOM     67  C   UNL A   1      48.647  28.029  31.133  1.00  0.00     0.000 A 
ENDBRANCH  48  62
BRANCH  49  68
ATOM     68  C   UNL A   1      36.834  32.688  29.635  1.00  0.00    -0.014 A 
ATOM     69  C   UNL A   1      35.831  32.454  30.587  1.00  0.00     0.009 A 
ATOM     70  C   UNL A   1      36.521  33.442  28.493  1.00  0.00     0.009 A 
ATOM     71  C   UNL A   1      34.539  32.950  30.392  1.00  0.00     0.001 A 
ATOM     72  C   UNL A   1      35.236  33.964  28.317  1.00  0.00     0.001 A 
ATOM     73  C   UNL A   1      34.245  33.710  29.261  1.00  0.00     0.000 A 
ENDBRANCH  49  68
BRANCH  61  74
ATOM     74  C   UNL A   1      42.461  34.953  33.053  1.00  0.00    -0.014 A 
ATOM     75  C   UNL A   1      42.023  35.083  34.381  1.00  0.00     0.009 A 
ATOM     76  C   UNL A   1      43.201  35.999  32.479  1.00  0.00     0.009 A 
ATOM     77  C   UNL A   1      42.288  36.249  35.102  1.00  0.00     0.001 A 
ATOM     78  C   UNL A   1      43.494  37.150  33.213  1.00  0.00     0.001 A 
ATOM     79  C   UNL A   1      43.029  37.278  34.520  1.00  0.00     0.000 A 
ENDBRANCH  61  74
ENDBRANCH  35  36
ENDBRANCH  28  30
ENDBRANCH  27  28
ENDBRANCH  26  27
ENDBRANCH  25  26
ENDBRANCH  24  25
ENDBRANCH  23  24
ENDBRANCH   1  23
TORSDOF 20
ENDMDL
MODEL 3
REMARK VINA RESULT:      -9.1      4.453      6.886
REMARK SMILES C[C@@H]1SCCC[C@]1(CC(=O)OCCOCCOCCOC(=O)c1ccc(-c2c3nc(c(-c4ccccc4)c4ccc([nH]4)c(-c4ccccc4)c4nc(c(-c5ccccc5)c5ccc2[nH]5)C=C4)C=C3)cc1)C(C)(C)[NH3+]
REMARK SMILES IDX 15 1 14 2 13 3 12 4 11 5 9 6 10 7 8 8 7 9 1 10 2 11 3 12
REMARK SMILES IDX 4 13 6 14 5 15 71 16 72 17 73 18 74 19 16 23 17 24 18 25
REMARK SMILES IDX 19 26 20 27 21 28 22 29 23 30 24 31 70 32 25 33 69 34 26 35
REMARK SMILES IDX 27 36 28 37 63 38 29 39 68 40 62 41 64 42 30 43 67 44 61 45
REMARK SMILES IDX 60 46 31 48 53 49 38 50 52 51 39 52 42 53 51 54 65 55 40 56
REMARK SMILES IDX 41 57 50 59 66 60 43 61 32 62 33 63 37 64 34 65 36 66 35 67
REMARK SMILES IDX 54 68 55 69 59 70 56 71 58 72 57 73 44 74 45 75 49 76 46 77
REMARK SMILES IDX 48 78 47 79
REMARK H PARENT 74 20 74 21 74 22 64 47 42 58
REMARK Flexibility Score: inf
ROOT
ATOM      1  C   UNL A   1      33.512  32.048  27.595  1.00  0.00     0.188 C 
ENDROOT
BRANCH   1   2
ATOM      2  O   UNL A   1      32.901  30.768  27.630  1.00  0.00    -0.376 OA
BRANCH   2   3
ATOM      3  C   UNL A   1      33.711  29.669  27.206  1.00  0.00     0.202 C 
BRANCH   3   4
ATOM      4  C   UNL A   1      33.355  29.016  25.855  1.00  0.00     0.261 C 
BRANCH   4   5
ATOM      5  O   UNL A   1      34.225  27.925  25.437  1.00  0.00    -0.463 OA
BRANCH   5   6
ATOM      6  C   UNL A   1      33.577  26.845  24.904  1.00  0.00     0.306 C 
ATOM      7  O   UNL A   1      33.442  26.671  23.694  1.00  0.00    -0.252 OA
BRANCH   6   8
ATOM      8  C   UNL A   1      33.220  25.730  25.899  1.00  0.00     0.137 C 
BRANCH   8   9
ATOM      9  C   UNL A   1      32.855  24.208  25.538  1.00  0.00     0.046 C 
ATOM     10  C   UNL A   1      33.280  22.472  23.558  1.00  0.00     0.020 C 
ATOM     11  C   UNL A   1      33.673  23.775  24.257  1.00  0.00     0.056 C 
ATOM     12  S   UNL A   1      35.486  23.667  24.566  1.00  0.00    -0.158 SA
ATOM     13  C   UNL A   1      35.475  22.500  25.947  1.00  0.00     0.070 C 
ATOM     14  C   UNL A   1      33.231  23.311  26.776  1.00  0.00     0.016 C 
ATOM     15  C   UNL A   1      34.704  23.102  27.101  1.00  0.00     0.012 C 
BRANCH   9  16
ATOM     16  C   UNL A   1      31.235  24.053  25.398  1.00  0.00     0.096 C 
ATOM     17  C   UNL A   1      30.590  24.217  23.997  1.00  0.00     0.079 C 
ATOM     18  C   UNL A   1      30.719  22.662  25.872  1.00  0.00     0.079 C 
BRANCH  16  19
ATOM     19  N   UNL A   1      30.614  25.072  26.229  1.00  0.00    -0.353 N 
ATOM     20  H   UNL A   1      31.337  25.611  26.705  1.00  0.00     0.344 HD
ATOM     21  H   UNL A   1      30.011  24.626  26.922  1.00  0.00     0.344 HD
ATOM     22  H   UNL A   1      30.057  25.695  25.644  1.00  0.00     0.344 HD
ENDBRANCH  16  19
ENDBRANCH   9  16
ENDBRANCH   8   9
ENDBRANCH   6   8
ENDBRANCH   5   6
ENDBRANCH   4   5
ENDBRANCH   3   4
ENDBRANCH   2   3
ENDBRANCH   1   2
BRANCH   1  23
ATOM     23  C   UNL A   1      34.518  32.379  28.708  1.00  0.00     0.188 C 
BRANCH  23  24
ATOM     24  O   UNL A   1      34.170  33.497  29.512  1.00  0.00    -0.376 OA
BRANCH  24  25
ATOM     25  C   UNL A   1      33.375  34.508  28.904  1.00  0.00     0.202 C 
BRANCH  25  26
ATOM     26  C   UNL A   1      33.095  35.702  29.823  1.00  0.00     0.261 C 
BRANCH  26  27
ATOM     27  O   UNL A   1      32.325  35.374  30.995  1.00  0.00    -0.460 OA
BRANCH  27  28
ATOM     28  C   UNL A   1      32.728  35.946  32.153  1.00  0.00     0.338 C 
ATOM     29  O   UNL A   1      32.176  36.842  32.765  1.00  0.00    -0.246 OA
BRANCH  28  30
ATOM     30  C   UNL A   1      33.836  35.141  32.710  1.00  0.00     0.060 A 
ATOM     31  C   UNL A   1      35.102  35.727  32.740  1.00  0.00     0.016 A 
ATOM     32  C   UNL A   1      33.667  33.844  33.183  1.00  0.00     0.016 A 
ATOM     33  C   UNL A   1      36.224  35.014  33.144  1.00  0.00     0.010 A 
ATOM     34  C   UNL A   1      34.789  33.128  33.621  1.00  0.00     0.010 A 
ATOM     35  C   UNL A   1      36.082  33.691  33.562  1.00  0.00    -0.014 A 
BRANCH  35  36
ATOM     36  C   UNL A   1      37.288  32.854  33.784  1.00  0.00     0.031 A 
ATOM     37  C   UNL A   1      38.029  32.993  35.086  1.00  0.00     0.074 A 
ATOM     38  C   UNL A   1      37.699  31.944  32.881  1.00  0.00     0.049 A 
ATOM     39  N   UNL A   1      39.190  32.507  35.441  1.00  0.00    -0.248 NA
ATOM     40  C   UNL A   1      37.366  33.796  36.126  1.00  0.00     0.031 C 
ATOM     41  C   UNL A   1      37.011  31.602  31.637  1.00  0.00     0.029 A 
ATOM     42  N   UNL A   1      38.809  31.135  32.883  1.00  0.00    -0.354 N 
ATOM     43  C   UNL A   1      39.423  32.993  36.722  1.00  0.00     0.074 A 
ATOM     44  C   UNL A   1      38.289  33.819  37.075  1.00  0.00     0.031 C 
ATOM     45  C   UNL A   1      37.710  30.646  31.000  1.00  0.00     0.029 A 
ATOM     46  C   UNL A   1      38.931  30.366  31.751  1.00  0.00     0.049 A 
ATOM     47  H   UNL A   1      39.455  31.107  33.626  1.00  0.00     0.167 HD
ATOM     48  C   UNL A   1      40.489  32.777  37.529  1.00  0.00     0.031 A 
ATOM     49  C   UNL A   1      39.934  29.564  31.346  1.00  0.00     0.031 A 
ATOM     50  C   UNL A   1      41.607  31.943  37.181  1.00  0.00     0.049 A 
ATOM     51  C   UNL A   1      41.166  29.435  32.201  1.00  0.00     0.074 A 
ATOM     52  C   UNL A   1      42.741  31.663  37.923  1.00  0.00     0.029 A 
ATOM     53  N   UNL A   1      41.731  31.251  35.985  1.00  0.00    -0.354 N 
ATOM     54  N   UNL A   1      41.411  29.944  33.385  1.00  0.00    -0.248 NA
ATOM     55  C   UNL A   1      42.268  28.630  31.654  1.00  0.00     0.031 C 
ATOM     56  C   UNL A   1      43.579  30.853  37.151  1.00  0.00     0.029 A 
ATOM     57  C   UNL A   1      42.936  30.569  35.957  1.00  0.00     0.049 A 
ATOM     58  H   UNL A   1      41.061  31.245  35.264  1.00  0.00     0.167 HD
ATOM     59  C   UNL A   1      42.678  29.494  33.738  1.00  0.00     0.074 A 
ATOM     60  C   UNL A   1      43.145  28.663  32.647  1.00  0.00     0.031 C 
ATOM     61  C   UNL A   1      43.389  29.743  34.866  1.00  0.00     0.031 A 
BRANCH  48  62
ATOM     62  C   UNL A   1      40.519  33.525  38.834  1.00  0.00    -0.014 A 
ATOM     63  C   UNL A   1      39.945  33.004  40.005  1.00  0.00     0.009 A 
ATOM     64  C   UNL A   1      41.121  34.792  38.884  1.00  0.00     0.009 A 
ATOM     65  C   UNL A   1      39.925  33.760  41.180  1.00  0.00     0.001 A 
ATOM     66  C   UNL A   1      41.133  35.530  40.068  1.00  0.00     0.001 A 
ATOM     67  C   UNL A   1      40.521  35.020  41.211  1.00  0.00     0.000 A 
ENDBRANCH  48  62
BRANCH  49  68
ATOM     68  C   UNL A   1      39.840  28.845  30.046  1.00  0.00    -0.014 A 
ATOM     69  C   UNL A   1      40.180  29.494  28.850  1.00  0.00     0.009 A 
ATOM     70  C   UNL A   1      39.393  27.516  29.991  1.00  0.00     0.009 A 
ATOM     71  C   UNL A   1      40.059  28.833  27.625  1.00  0.00     0.001 A 
ATOM     72  C   UNL A   1      39.303  26.847  28.767  1.00  0.00     0.001 A 
ATOM     73  C   UNL A   1      39.627  27.508  27.585  1.00  0.00     0.000 A 
ENDBRANCH  49  68
BRANCH  61  74
ATOM     74  C   UNL A   1      44.725  29.067  35.003  1.00  0.00    -0.014 A 
ATOM     75  C   UNL A   1      45.913  29.693  34.593  1.00  0.00     0.009 A 
ATOM     76  C   UNL A   1      44.798  27.795  35.592  1.00  0.00     0.009 A 
ATOM     77  C   UNL A   1      47.140  29.041  34.736  1.00  0.00     0.001 A 
ATOM     78  C   UNL A   1      46.029  27.160  35.765  1.00  0.00     0.001 A 
ATOM     79  C   UNL A   1      47.198  27.780  35.327  1.00  0.00     0.000 A 
ENDBRANCH  61  74
ENDBRANCH  35  36
ENDBRANCH  28  30
ENDBRANCH  27  28
ENDBRANCH  26  27
ENDBRANCH  25  26
ENDBRANCH  24  25
ENDBRANCH  23  24
ENDBRANCH   1  23
TORSDOF 20
ENDMDL
