MODEL 1
REMARK VINA RESULT:      -8.7      0.000      0.000
REMARK SMILES CC(C)[C@@H](NC(=O)[C@H]1CCCO1)C(=O)OCCOCCOCCOC(=O)c1ccc(-c2c3nc(c(-c4ccccc4)c4ccc([nH]4)c(-c4ccccc4)c4nc(c(-c5ccccc5)c5ccc2[nH]5)C=C4)C=C3)cc1
REMARK SMILES IDX 19 1 18 2 17 3 16 4 15 5 13 6 14 7 4 8 2 9 1 10 3 11 5 12
REMARK SMILES IDX 6 13 7 15 8 16 9 17 12 18 10 19 11 20 20 21 21 22 22 23
REMARK SMILES IDX 23 24 24 25 25 26 26 27 27 28 28 29 74 30 29 31 73 32 30 33
REMARK SMILES IDX 31 34 32 35 67 36 33 37 72 38 66 39 68 40 34 41 71 42 65 43
REMARK SMILES IDX 64 44 35 46 57 47 42 48 56 49 43 50 46 51 55 52 69 53 44 54
REMARK SMILES IDX 45 55 54 57 70 58 47 59 36 60 37 61 41 62 38 63 40 64 39 65
REMARK SMILES IDX 58 66 59 67 63 68 60 69 62 70 61 71 48 72 49 73 53 74 50 75
REMARK SMILES IDX 52 76 51 77
REMARK H PARENT 5 14 68 45 46 56
REMARK Flexibility Score: inf
ROOT
ATOM      1  C   UNL A   1      30.217  28.828  23.577  1.00  0.00     0.188 C 
ENDROOT
BRANCH   1   2
ATOM      2  O   UNL A   1      29.757  27.514  23.815  1.00  0.00    -0.376 OA
BRANCH   2   3
ATOM      3  C   UNL A   1      30.769  26.579  24.146  1.00  0.00     0.202 C 
BRANCH   3   4
ATOM      4  C   UNL A   1      30.624  25.762  25.451  1.00  0.00     0.261 C 
BRANCH   4   5
ATOM      5  O   UNL A   1      31.698  25.108  26.204  1.00  0.00    -0.462 OA
BRANCH   5   6
ATOM      6  C   UNL A   1      31.794  23.827  26.623  1.00  0.00     0.328 C 
ATOM      7  O   UNL A   1      31.201  23.346  27.582  1.00  0.00    -0.250 OA
BRANCH   6   8
ATOM      8  C   UNL A   1      32.756  22.987  25.762  1.00  0.00     0.194 C 
BRANCH   8   9
ATOM      9  C   UNL A   1      32.048  21.988  24.769  1.00  0.00     0.017 C 
ATOM     10  C   UNL A   1      31.485  22.719  23.536  1.00  0.00     0.010 C 
ATOM     11  C   UNL A   1      32.907  20.840  24.235  1.00  0.00     0.010 C 
ENDBRANCH   8   9
BRANCH   8  12
ATOM     12  N   UNL A   1      33.693  23.833  24.991  1.00  0.00    -0.340 N 
ATOM     13  C   UNL A   1      34.982  23.647  24.608  1.00  0.00     0.249 C 
ATOM     14  H   UNL A   1      33.310  24.694  24.703  1.00  0.00     0.164 HD
ATOM     15  O   UNL A   1      35.264  24.087  23.485  1.00  0.00    -0.272 OA
BRANCH  13  16
ATOM     16  C   UNL A   1      36.103  23.042  25.482  1.00  0.00     0.207 C 
ATOM     17  C   UNL A   1      36.448  21.579  25.225  1.00  0.00     0.044 C 
ATOM     18  O   UNL A   1      37.334  23.755  25.570  1.00  0.00    -0.368 OA
ATOM     19  C   UNL A   1      37.957  21.543  25.299  1.00  0.00     0.032 C 
ATOM     20  C   UNL A   1      38.320  22.813  26.017  1.00  0.00     0.161 C 
ENDBRANCH  13  16
ENDBRANCH   8  12
ENDBRANCH   6   8
ENDBRANCH   5   6
ENDBRANCH   4   5
ENDBRANCH   3   4
ENDBRANCH   2   3
ENDBRANCH   1   2
BRANCH   1  21
ATOM     21  C   UNL A   1      31.590  29.077  24.183  1.00  0.00     0.188 C 
BRANCH  21  22
ATOM     22  O   UNL A   1      31.748  29.880  25.340  1.00  0.00    -0.376 OA
BRANCH  22  23
ATOM     23  C   UNL A   1      31.807  29.244  26.605  1.00  0.00     0.202 C 
BRANCH  23  24
ATOM     24  C   UNL A   1      33.134  28.618  27.061  1.00  0.00     0.261 C 
BRANCH  24  25
ATOM     25  O   UNL A   1      34.324  29.361  26.755  1.00  0.00    -0.460 OA
BRANCH  25  26
ATOM     26  C   UNL A   1      34.713  30.269  27.695  1.00  0.00     0.338 C 
ATOM     27  O   UNL A   1      34.022  31.101  28.241  1.00  0.00    -0.246 OA
BRANCH  26  28
ATOM     28  C   UNL A   1      36.086  29.904  28.146  1.00  0.00     0.060 A 
ATOM     29  C   UNL A   1      37.147  30.013  27.226  1.00  0.00     0.016 A 
ATOM     30  C   UNL A   1      36.340  29.546  29.467  1.00  0.00     0.016 A 
ATOM     31  C   UNL A   1      38.462  29.779  27.626  1.00  0.00     0.010 A 
ATOM     32  C   UNL A   1      37.650  29.249  29.853  1.00  0.00     0.010 A 
ATOM     33  C   UNL A   1      38.710  29.343  28.930  1.00  0.00    -0.014 A 
BRANCH  33  34
ATOM     34  C   UNL A   1      40.012  28.721  29.268  1.00  0.00     0.031 A 
ATOM     35  C   UNL A   1      41.020  29.584  29.972  1.00  0.00     0.074 A 
ATOM     36  C   UNL A   1      40.311  27.450  28.949  1.00  0.00     0.049 A 
ATOM     37  N   UNL A   1      42.283  29.357  30.220  1.00  0.00    -0.248 NA
ATOM     38  C   UNL A   1      40.535  30.891  30.450  1.00  0.00     0.031 C 
ATOM     39  C   UNL A   1      39.397  26.481  28.348  1.00  0.00     0.029 A 
ATOM     40  N   UNL A   1      41.496  26.765  29.074  1.00  0.00    -0.354 N 
ATOM     41  C   UNL A   1      42.748  30.501  30.856  1.00  0.00     0.074 A 
ATOM     42  C   UNL A   1      41.639  31.424  30.945  1.00  0.00     0.031 C 
ATOM     43  C   UNL A   1      40.065  25.334  28.128  1.00  0.00     0.029 A 
ATOM     44  C   UNL A   1      41.462  25.507  28.524  1.00  0.00     0.049 A 
ATOM     45  H   UNL A   1      42.292  27.142  29.514  1.00  0.00     0.167 HD
ATOM     46  C   UNL A   1      43.991  30.763  31.317  1.00  0.00     0.031 A 
ATOM     47  C   UNL A   1      42.458  24.620  28.326  1.00  0.00     0.031 A 
ATOM     48  C   UNL A   1      45.094  29.850  31.213  1.00  0.00     0.049 A 
ATOM     49  C   UNL A   1      43.863  24.978  28.747  1.00  0.00     0.074 A 
ATOM     50  C   UNL A   1      46.394  30.016  31.657  1.00  0.00     0.029 A 
ATOM     51  N   UNL A   1      45.028  28.603  30.613  1.00  0.00    -0.354 N 
ATOM     52  N   UNL A   1      44.298  26.059  29.351  1.00  0.00    -0.248 NA
ATOM     53  C   UNL A   1      44.915  23.994  28.453  1.00  0.00     0.031 C 
ATOM     54  C   UNL A   1      47.132  28.896  31.264  1.00  0.00     0.029 A 
ATOM     55  C   UNL A   1      46.275  28.003  30.640  1.00  0.00     0.049 A 
ATOM     56  H   UNL A   1      44.216  28.203  30.227  1.00  0.00     0.167 HD
ATOM     57  C   UNL A   1      45.664  25.872  29.533  1.00  0.00     0.074 A 
ATOM     58  C   UNL A   1      45.984  24.568  28.990  1.00  0.00     0.031 C 
ATOM     59  C   UNL A   1      46.573  26.704  30.096  1.00  0.00     0.031 A 
BRANCH  46  60
ATOM     60  C   UNL A   1      44.232  32.117  31.923  1.00  0.00    -0.014 A 
ATOM     61  C   UNL A   1      44.610  33.218  31.139  1.00  0.00     0.009 A 
ATOM     62  C   UNL A   1      44.056  32.294  33.304  1.00  0.00     0.009 A 
ATOM     63  C   UNL A   1      44.836  34.461  31.731  1.00  0.00     0.001 A 
ATOM     64  C   UNL A   1      44.252  33.545  33.889  1.00  0.00     0.001 A 
ATOM     65  C   UNL A   1      44.650  34.626  33.104  1.00  0.00     0.000 A 
ENDBRANCH  46  60
BRANCH  47  66
ATOM     66  C   UNL A   1      42.187  23.325  27.643  1.00  0.00    -0.014 A 
ATOM     67  C   UNL A   1      42.432  23.173  26.270  1.00  0.00     0.009 A 
ATOM     68  C   UNL A   1      41.647  22.242  28.356  1.00  0.00     0.009 A 
ATOM     69  C   UNL A   1      42.116  21.976  25.621  1.00  0.00     0.001 A 
ATOM     70  C   UNL A   1      41.363  21.036  27.711  1.00  0.00     0.001 A 
ATOM     71  C   UNL A   1      41.587  20.907  26.342  1.00  0.00     0.000 A 
ENDBRANCH  47  66
BRANCH  59  72
ATOM     72  C   UNL A   1      47.996  26.223  30.190  1.00  0.00    -0.014 A 
ATOM     73  C   UNL A   1      48.886  26.363  29.116  1.00  0.00     0.009 A 
ATOM     74  C   UNL A   1      48.469  25.692  31.402  1.00  0.00     0.009 A 
ATOM     75  C   UNL A   1      50.216  25.955  29.245  1.00  0.00     0.001 A 
ATOM     76  C   UNL A   1      49.806  25.315  31.537  1.00  0.00     0.001 A 
ATOM     77  C   UNL A   1      50.676  25.439  30.457  1.00  0.00     0.000 A 
ENDBRANCH  59  72
ENDBRANCH  33  34
ENDBRANCH  26  28
ENDBRANCH  25  26
ENDBRANCH  24  25
ENDBRANCH  23  24
ENDBRANCH  22  23
ENDBRANCH  21  22
ENDBRANCH   1  21
TORSDOF 20
ENDMDL
MODEL 2
REMARK VINA RESULT:      -8.5      4.525      7.407
REMARK SMILES CC(C)[C@@H](NC(=O)[C@H]1CCCO1)C(=O)OCCOCCOCCOC(=O)c1ccc(-c2c3nc(c(-c4ccccc4)c4ccc([nH]4)c(-c4ccccc4)c4nc(c(-c5ccccc5)c5ccc2[nH]5)C=C4)C=C3)cc1
REMARK SMILES IDX 19 1 18 2 17 3 16 4 15 5 13 6 14 7 4 8 2 9 1 10 3 11 5 12
REMARK SMILES IDX 6 13 7 15 8 16 9 17 12 18 10 19 11 20 20 21 21 22 22 23
REMARK SMILES IDX 23 24 24 25 25 26 26 27 27 28 28 29 74 30 29 31 73 32 30 33
REMARK SMILES IDX 31 34 32 35 67 36 33 37 72 38 66 39 68 40 34 41 71 42 65 43
REMARK SMILES IDX 64 44 35 46 57 47 42 48 56 49 43 50 46 51 55 52 69 53 44 54
REMARK SMILES IDX 45 55 54 57 70 58 47 59 36 60 37 61 41 62 38 63 40 64 39 65
REMARK SMILES IDX 58 66 59 67 63 68 60 69 62 70 61 71 48 72 49 73 53 74 50 75
REMARK SMILES IDX 52 76 51 77
REMARK H PARENT 5 14 68 45 46 56
REMARK Flexibility Score: inf
ROOT
ATOM      1  C   UNL A   1      35.529  32.397  28.023  1.00  0.00     0.188 C 
ENDROOT
BRANCH   1   2
ATOM      2  O   UNL A   1      35.641  31.097  28.563  1.00  0.00    -0.376 OA
BRANCH   2   3
ATOM      3  C   UNL A   1      35.765  30.063  27.602  1.00  0.00     0.202 C 
BRANCH   3   4
ATOM      4  C   UNL A   1      34.500  29.264  27.207  1.00  0.00     0.261 C 
BRANCH   4   5
ATOM      5  O   UNL A   1      33.440  29.693  26.291  1.00  0.00    -0.462 OA
BRANCH   5   6
ATOM      6  C   UNL A   1      32.422  28.979  25.761  1.00  0.00     0.328 C 
ATOM      7  O   UNL A   1      31.457  28.549  26.382  1.00  0.00    -0.250 OA
BRANCH   6   8
ATOM      8  C   UNL A   1      32.585  28.737  24.249  1.00  0.00     0.194 C 
BRANCH   8   9
ATOM      9  C   UNL A   1      33.784  27.791  23.859  1.00  0.00     0.017 C 
ATOM     10  C   UNL A   1      33.776  26.494  24.689  1.00  0.00     0.010 C 
ATOM     11  C   UNL A   1      33.862  27.364  22.392  1.00  0.00     0.010 C 
ENDBRANCH   8   9
BRANCH   8  12
ATOM     12  N   UNL A   1      31.347  28.205  23.637  1.00  0.00    -0.340 N 
ATOM     13  C   UNL A   1      30.483  28.731  22.730  1.00  0.00     0.249 C 
ATOM     14  H   UNL A   1      31.104  27.302  23.944  1.00  0.00     0.164 HD
ATOM     15  O   UNL A   1      30.020  27.920  21.917  1.00  0.00    -0.272 OA
BRANCH  13  16
ATOM     16  C   UNL A   1      29.976  30.190  22.710  1.00  0.00     0.207 C 
ATOM     17  C   UNL A   1      29.005  30.555  21.592  1.00  0.00     0.044 C 
ATOM     18  O   UNL A   1      29.444  30.724  23.920  1.00  0.00    -0.368 OA
ATOM     19  C   UNL A   1      27.975  31.425  22.275  1.00  0.00     0.032 C 
ATOM     20  C   UNL A   1      28.646  31.858  23.548  1.00  0.00     0.161 C 
ENDBRANCH  13  16
ENDBRANCH   8  12
ENDBRANCH   6   8
ENDBRANCH   5   6
ENDBRANCH   4   5
ENDBRANCH   3   4
ENDBRANCH   2   3
ENDBRANCH   1   2
BRANCH   1  21
ATOM     21  C   UNL A   1      34.088  32.878  27.967  1.00  0.00     0.188 C 
BRANCH  21  22
ATOM     22  O   UNL A   1      33.763  34.249  28.112  1.00  0.00    -0.376 OA
BRANCH  22  23
ATOM     23  C   UNL A   1      33.919  34.854  29.384  1.00  0.00     0.202 C 
BRANCH  23  24
ATOM     24  C   UNL A   1      32.905  35.918  29.831  1.00  0.00     0.261 C 
BRANCH  24  25
ATOM     25  O   UNL A   1      33.131  36.506  31.122  1.00  0.00    -0.460 OA
BRANCH  25  26
ATOM     26  C   UNL A   1      32.693  35.778  32.188  1.00  0.00     0.338 C 
ATOM     27  O   UNL A   1      31.548  35.625  32.553  1.00  0.00    -0.246 OA
BRANCH  26  28
ATOM     28  C   UNL A   1      33.840  34.971  32.694  1.00  0.00     0.060 A 
ATOM     29  C   UNL A   1      35.102  35.588  32.797  1.00  0.00     0.016 A 
ATOM     30  C   UNL A   1      33.662  33.664  33.141  1.00  0.00     0.016 A 
ATOM     31  C   UNL A   1      36.183  34.907  33.357  1.00  0.00     0.010 A 
ATOM     32  C   UNL A   1      34.759  32.959  33.643  1.00  0.00     0.010 A 
ATOM     33  C   UNL A   1      36.026  33.570  33.732  1.00  0.00    -0.014 A 
BRANCH  33  34
ATOM     34  C   UNL A   1      37.218  32.719  33.955  1.00  0.00     0.031 A 
ATOM     35  C   UNL A   1      37.984  32.935  35.230  1.00  0.00     0.074 A 
ATOM     36  C   UNL A   1      37.630  31.802  33.063  1.00  0.00     0.049 A 
ATOM     37  N   UNL A   1      39.149  32.466  35.591  1.00  0.00    -0.248 NA
ATOM     38  C   UNL A   1      37.350  33.816  36.227  1.00  0.00     0.031 C 
ATOM     39  C   UNL A   1      36.932  31.431  31.834  1.00  0.00     0.029 A 
ATOM     40  N   UNL A   1      38.766  31.029  33.054  1.00  0.00    -0.354 N 
ATOM     41  C   UNL A   1      39.397  33.015  36.843  1.00  0.00     0.074 A 
ATOM     42  C   UNL A   1      38.273  33.862  37.172  1.00  0.00     0.031 C 
ATOM     43  C   UNL A   1      37.672  30.521  31.174  1.00  0.00     0.029 A 
ATOM     44  C   UNL A   1      38.915  30.287  31.908  1.00  0.00     0.049 A 
ATOM     45  H   UNL A   1      39.410  31.010  33.799  1.00  0.00     0.167 HD
ATOM     46  C   UNL A   1      40.472  32.839  37.643  1.00  0.00     0.031 A 
ATOM     47  C   UNL A   1      39.957  29.543  31.485  1.00  0.00     0.031 A 
ATOM     48  C   UNL A   1      41.595  32.009  37.306  1.00  0.00     0.049 A 
ATOM     49  C   UNL A   1      41.195  29.448  32.344  1.00  0.00     0.074 A 
ATOM     50  C   UNL A   1      42.732  31.755  38.051  1.00  0.00     0.029 A 
ATOM     51  N   UNL A   1      41.725  31.308  36.118  1.00  0.00    -0.354 N 
ATOM     52  N   UNL A   1      41.425  29.966  33.528  1.00  0.00    -0.248 NA
ATOM     53  C   UNL A   1      42.320  28.669  31.804  1.00  0.00     0.031 C 
ATOM     54  C   UNL A   1      43.582  30.953  37.285  1.00  0.00     0.029 A 
ATOM     55  C   UNL A   1      42.943  30.651  36.093  1.00  0.00     0.049 A 
ATOM     56  H   UNL A   1      41.053  31.280  35.400  1.00  0.00     0.167 HD
ATOM     57  C   UNL A   1      42.705  29.554  33.883  1.00  0.00     0.074 A 
ATOM     58  C   UNL A   1      43.196  28.731  32.798  1.00  0.00     0.031 C 
ATOM     59  C   UNL A   1      43.413  29.833  35.005  1.00  0.00     0.031 A 
BRANCH  46  60
ATOM     60  C   UNL A   1      40.506  33.605  38.935  1.00  0.00    -0.014 A 
ATOM     61  C   UNL A   1      41.078  34.884  39.017  1.00  0.00     0.009 A 
ATOM     62  C   UNL A   1      39.933  33.040  40.086  1.00  0.00     0.009 A 
ATOM     63  C   UNL A   1      41.104  35.568  40.234  1.00  0.00     0.001 A 
ATOM     64  C   UNL A   1      39.931  33.739  41.292  1.00  0.00     0.001 A 
ATOM     65  C   UNL A   1      40.524  34.998  41.368  1.00  0.00     0.000 A 
ENDBRANCH  46  60
BRANCH  47  66
ATOM     66  C   UNL A   1      39.913  28.871  30.158  1.00  0.00    -0.014 A 
ATOM     67  C   UNL A   1      40.214  29.579  28.985  1.00  0.00     0.009 A 
ATOM     68  C   UNL A   1      39.531  27.523  30.053  1.00  0.00     0.009 A 
ATOM     69  C   UNL A   1      40.109  28.960  27.736  1.00  0.00     0.001 A 
ATOM     70  C   UNL A   1      39.459  26.898  28.806  1.00  0.00     0.001 A 
ATOM     71  C   UNL A   1      39.737  27.620  27.648  1.00  0.00     0.000 A 
ENDBRANCH  47  66
BRANCH  59  72
ATOM     72  C   UNL A   1      44.780  29.218  35.140  1.00  0.00    -0.014 A 
ATOM     73  C   UNL A   1      45.933  29.906  34.735  1.00  0.00     0.009 A 
ATOM     74  C   UNL A   1      44.916  27.961  35.752  1.00  0.00     0.009 A 
ATOM     75  C   UNL A   1      47.195  29.335  34.918  1.00  0.00     0.001 A 
ATOM     76  C   UNL A   1      46.179  27.408  35.961  1.00  0.00     0.001 A 
ATOM     77  C   UNL A   1      47.317  28.091  35.537  1.00  0.00     0.000 A 
ENDBRANCH  59  72
ENDBRANCH  33  34
ENDBRANCH  26  28
ENDBRANCH  25  26
ENDBRANCH  24  25
ENDBRANCH  23  24
ENDBRANCH  22  23
ENDBRANCH  21  22
ENDBRANCH   1  21
TORSDOF 20
ENDMDL
MODEL 3
REMARK VINA RESULT:      -8.4      3.069      8.553
REMARK SMILES CC(C)[C@@H](NC(=O)[C@H]1CCCO1)C(=O)OCCOCCOCCOC(=O)c1ccc(-c2c3nc(c(-c4ccccc4)c4ccc([nH]4)c(-c4ccccc4)c4nc(c(-c5ccccc5)c5ccc2[nH]5)C=C4)C=C3)cc1
REMARK SMILES IDX 19 1 18 2 17 3 16 4 15 5 13 6 14 7 4 8 2 9 1 10 3 11 5 12
REMARK SMILES IDX 6 13 7 15 8 16 9 17 12 18 10 19 11 20 20 21 21 22 22 23
REMARK SMILES IDX 23 24 24 25 25 26 26 27 27 28 28 29 74 30 29 31 73 32 30 33
REMARK SMILES IDX 31 34 32 35 67 36 33 37 72 38 66 39 68 40 34 41 71 42 65 43
REMARK SMILES IDX 64 44 35 46 57 47 42 48 56 49 43 50 46 51 55 52 69 53 44 54
REMARK SMILES IDX 45 55 54 57 70 58 47 59 36 60 37 61 41 62 38 63 40 64 39 65
REMARK SMILES IDX 58 66 59 67 63 68 60 69 62 70 61 71 48 72 49 73 53 74 50 75
REMARK SMILES IDX 52 76 51 77
REMARK H PARENT 5 14 68 45 46 56
REMARK Flexibility Score: inf
ROOT
ATOM      1  C   UNL A   1      37.889  21.217  25.403  1.00  0.00     0.188 C 
ENDROOT
BRANCH   1   2
ATOM      2  O   UNL A   1      37.456  21.993  24.305  1.00  0.00    -0.376 OA
BRANCH   2   3
ATOM      3  C   UNL A   1      36.064  22.258  24.276  1.00  0.00     0.202 C 
BRANCH   3   4
ATOM      4  C   UNL A   1      35.527  23.289  23.255  1.00  0.00     0.261 C 
BRANCH   4   5
ATOM      5  O   UNL A   1      34.269  23.213  22.508  1.00  0.00    -0.462 OA
BRANCH   5   6
ATOM      6  C   UNL A   1      33.234  24.083  22.478  1.00  0.00     0.328 C 
ATOM      7  O   UNL A   1      33.150  25.063  21.747  1.00  0.00    -0.250 OA
BRANCH   6   8
ATOM      8  C   UNL A   1      32.125  23.727  23.485  1.00  0.00     0.194 C 
BRANCH   8   9
ATOM      9  C   UNL A   1      31.791  22.190  23.580  1.00  0.00     0.017 C 
ATOM     10  C   UNL A   1      32.138  21.453  22.272  1.00  0.00     0.010 C 
ATOM     11  C   UNL A   1      32.477  21.414  24.706  1.00  0.00     0.010 C 
ENDBRANCH   8   9
BRANCH   8  12
ATOM     12  N   UNL A   1      32.429  24.228  24.844  1.00  0.00    -0.340 N 
ATOM     13  C   UNL A   1      31.751  25.057  25.680  1.00  0.00     0.249 C 
ATOM     14  H   UNL A   1      33.282  23.899  25.211  1.00  0.00     0.164 HD
ATOM     15  O   UNL A   1      31.819  24.759  26.880  1.00  0.00    -0.272 OA
BRANCH  13  16
ATOM     16  C   UNL A   1      31.020  26.353  25.265  1.00  0.00     0.207 C 
ATOM     17  C   UNL A   1      31.395  27.617  26.033  1.00  0.00     0.044 C 
ATOM     18  O   UNL A   1      31.003  26.691  23.880  1.00  0.00    -0.368 OA
ATOM     19  C   UNL A   1      31.460  28.684  24.964  1.00  0.00     0.032 C 
ATOM     20  C   UNL A   1      30.705  28.094  23.807  1.00  0.00     0.161 C 
ENDBRANCH  13  16
ENDBRANCH   8  12
ENDBRANCH   6   8
ENDBRANCH   5   6
ENDBRANCH   4   5
ENDBRANCH   3   4
ENDBRANCH   2   3
ENDBRANCH   1   2
BRANCH   1  21
ATOM     21  C   UNL A   1      39.075  21.842  26.120  1.00  0.00     0.188 C 
BRANCH  21  22
ATOM     22  O   UNL A   1      39.988  21.050  26.860  1.00  0.00    -0.376 OA
BRANCH  22  23
ATOM     23  C   UNL A   1      40.912  20.240  26.155  1.00  0.00     0.202 C 
BRANCH  23  24
ATOM     24  C   UNL A   1      42.366  20.716  26.019  1.00  0.00     0.261 C 
BRANCH  24  25
ATOM     25  O   UNL A   1      42.702  21.933  26.705  1.00  0.00    -0.460 OA
BRANCH  25  26
ATOM     26  C   UNL A   1      42.810  23.044  25.922  1.00  0.00     0.338 C 
ATOM     27  O   UNL A   1      43.022  23.083  24.729  1.00  0.00    -0.246 OA
BRANCH  26  28
ATOM     28  C   UNL A   1      42.363  24.217  26.724  1.00  0.00     0.060 A 
ATOM     29  C   UNL A   1      42.992  25.459  26.507  1.00  0.00     0.016 A 
ATOM     30  C   UNL A   1      41.291  24.122  27.608  1.00  0.00     0.016 A 
ATOM     31  C   UNL A   1      42.544  26.607  27.160  1.00  0.00     0.010 A 
ATOM     32  C   UNL A   1      40.883  25.258  28.311  1.00  0.00     0.010 A 
ATOM     33  C   UNL A   1      41.521  26.498  28.106  1.00  0.00    -0.014 A 
BRANCH  33  34
ATOM     34  C   UNL A   1      41.293  27.591  29.079  1.00  0.00     0.031 A 
ATOM     35  C   UNL A   1      42.154  27.599  30.312  1.00  0.00     0.074 A 
ATOM     36  C   UNL A   1      40.350  28.532  28.904  1.00  0.00     0.049 A 
ATOM     37  N   UNL A   1      42.048  28.320  31.396  1.00  0.00    -0.248 NA
ATOM     38  C   UNL A   1      43.282  26.650  30.322  1.00  0.00     0.031 C 
ATOM     39  C   UNL A   1      39.511  28.691  27.718  1.00  0.00     0.029 A 
ATOM     40  N   UNL A   1      39.928  29.526  29.753  1.00  0.00    -0.354 N 
ATOM     41  C   UNL A   1      43.076  27.893  32.227  1.00  0.00     0.074 A 
ATOM     42  C   UNL A   1      43.785  26.844  31.529  1.00  0.00     0.031 C 
ATOM     43  C   UNL A   1      38.653  29.706  27.928  1.00  0.00     0.029 A 
ATOM     44  C   UNL A   1      38.848  30.230  29.279  1.00  0.00     0.049 A 
ATOM     45  H   UNL A   1      40.360  29.715  30.618  1.00  0.00     0.167 HD
ATOM     46  C   UNL A   1      43.396  28.329  33.466  1.00  0.00     0.031 A 
ATOM     47  C   UNL A   1      38.082  31.158  29.889  1.00  0.00     0.031 A 
ATOM     48  C   UNL A   1      42.681  29.360  34.162  1.00  0.00     0.049 A 
ATOM     49  C   UNL A   1      38.388  31.550  31.314  1.00  0.00     0.074 A 
ATOM     50  C   UNL A   1      42.929  29.882  35.419  1.00  0.00     0.029 A 
ATOM     51  N   UNL A   1      41.568  30.018  33.664  1.00  0.00    -0.354 N 
ATOM     52  N   UNL A   1      39.362  31.147  32.094  1.00  0.00    -0.248 NA
ATOM     53  C   UNL A   1      37.483  32.524  31.943  1.00  0.00     0.031 C 
ATOM     54  C   UNL A   1      41.924  30.810  35.709  1.00  0.00     0.029 A 
ATOM     55  C   UNL A   1      41.093  30.916  34.605  1.00  0.00     0.049 A 
ATOM     56  H   UNL A   1      41.174  29.871  32.775  1.00  0.00     0.167 HD
ATOM     57  C   UNL A   1      39.203  31.836  33.292  1.00  0.00     0.074 A 
ATOM     58  C   UNL A   1      38.048  32.694  33.131  1.00  0.00     0.031 C 
ATOM     59  C   UNL A   1      39.943  31.764  34.425  1.00  0.00     0.031 A 
BRANCH  46  60
ATOM     60  C   UNL A   1      44.538  27.646  34.166  1.00  0.00    -0.014 A 
ATOM     61  C   UNL A   1      44.342  26.490  34.936  1.00  0.00     0.009 A 
ATOM     62  C   UNL A   1      45.836  28.163  34.030  1.00  0.00     0.009 A 
ATOM     63  C   UNL A   1      45.421  25.884  35.583  1.00  0.00     0.001 A 
ATOM     64  C   UNL A   1      46.916  27.537  34.651  1.00  0.00     0.001 A 
ATOM     65  C   UNL A   1      46.707  26.403  35.434  1.00  0.00     0.000 A 
ENDBRANCH  46  60
BRANCH  47  66
ATOM     66  C   UNL A   1      36.908  31.744  29.185  1.00  0.00    -0.014 A 
ATOM     67  C   UNL A   1      36.976  33.027  28.623  1.00  0.00     0.009 A 
ATOM     68  C   UNL A   1      35.698  31.034  29.105  1.00  0.00     0.009 A 
ATOM     69  C   UNL A   1      35.851  33.598  28.020  1.00  0.00     0.001 A 
ATOM     70  C   UNL A   1      34.585  31.594  28.472  1.00  0.00     0.001 A 
ATOM     71  C   UNL A   1      34.659  32.879  27.941  1.00  0.00     0.000 A 
ENDBRANCH  47  66
BRANCH  59  72
ATOM     72  C   UNL A   1      39.557  32.659  35.571  1.00  0.00    -0.014 A 
ATOM     73  C   UNL A   1      40.051  33.967  35.675  1.00  0.00     0.009 A 
ATOM     74  C   UNL A   1      38.624  32.206  36.520  1.00  0.00     0.009 A 
ATOM     75  C   UNL A   1      39.637  34.796  36.721  1.00  0.00     0.001 A 
ATOM     76  C   UNL A   1      38.189  33.047  37.544  1.00  0.00     0.001 A 
ATOM     77  C   UNL A   1      38.702  34.338  37.649  1.00  0.00     0.000 A 
ENDBRANCH  59  72
ENDBRANCH  33  34
ENDBRANCH  26  28
ENDBRANCH  25  26
ENDBRANCH  24  25
ENDBRANCH  23  24
ENDBRANCH  22  23
ENDBRANCH  21  22
ENDBRANCH   1  21
TORSDOF 20
ENDMDL
