MODEL 1
REMARK VINA RESULT:      -8.1      0.000      0.000
REMARK SMILES COc1ccc([C@H]2CC(c3ccc(S(C)(=O)=O)cc3)=NN2c2ccc(C(=O)OCCOCCOCCOC(=O)c3ccc(-c4c5nc(c(-c6ccccc6)c6ccc([nH]6)c(-c6ccccc6)c6nc(c(-c7ccccc7)c7ccc4[nH]7)C=C6)C=C5)cc3)cc2)cc1
REMARK SMILES IDX 32 1 31 2 30 3 29 4 28 5 26 6 27 7 25 8 22 9 23 10 89 11
REMARK SMILES IDX 24 12 88 13 21 14 7 15 8 16 9 17 20 18 6 19 3 20 4 21 91 22
REMARK SMILES IDX 5 23 90 24 2 25 1 26 10 27 11 28 19 29 12 30 18 31 13 32
REMARK SMILES IDX 14 33 15 34 16 35 17 36 33 37 34 38 35 39 36 40 37 41 38 42
REMARK SMILES IDX 39 43 40 44 41 45 87 46 42 47 86 48 43 49 44 50 45 51 80 52
REMARK SMILES IDX 46 53 85 54 79 55 81 56 47 57 84 58 78 59 77 60 48 62 70 63
REMARK SMILES IDX 55 64 69 65 56 66 59 67 68 68 82 69 57 70 58 71 67 73 83 74
REMARK SMILES IDX 60 75 49 76 50 77 54 78 51 79 53 80 52 81 71 82 72 83 76 84
REMARK SMILES IDX 73 85 75 86 74 87 61 88 62 89 66 90 63 91 65 92 64 93
REMARK H PARENT 81 61 59 72
REMARK Flexibility Score: inf
ROOT
ATOM      1  C   UNL A   1      38.564  29.332  27.883  1.00  0.00     0.188 C 
ENDROOT
BRANCH   1   2
ATOM      2  O   UNL A   1      38.449  30.316  28.890  1.00  0.00    -0.376 OA
BRANCH   2   3
ATOM      3  C   UNL A   1      37.531  31.387  28.753  1.00  0.00     0.202 C 
BRANCH   3   4
ATOM      4  C   UNL A   1      37.768  32.793  29.333  1.00  0.00     0.261 C 
BRANCH   4   5
ATOM      5  O   UNL A   1      36.796  33.792  29.007  1.00  0.00    -0.460 OA
BRANCH   5   6
ATOM      6  C   UNL A   1      35.658  33.749  29.745  1.00  0.00     0.338 C 
ATOM      7  O   UNL A   1      34.514  33.703  29.322  1.00  0.00    -0.246 OA
BRANCH   6   8
ATOM      8  C   UNL A   1      35.985  33.575  31.177  1.00  0.00     0.060 A 
ATOM      9  C   UNL A   1      36.817  33.203  33.836  1.00  0.00     0.060 A 
ATOM     10  C   UNL A   1      37.350  34.242  33.065  1.00  0.00     0.029 A 
ATOM     11  C   UNL A   1      35.793  32.416  33.280  1.00  0.00     0.029 A 
ATOM     12  C   UNL A   1      36.963  34.407  31.734  1.00  0.00     0.018 A 
ATOM     13  C   UNL A   1      35.360  32.609  31.964  1.00  0.00     0.018 A 
BRANCH   9  14
ATOM     14  N   UNL A   1      37.362  32.887  35.077  1.00  0.00    -0.257 N 
ATOM     15  C   UNL A   1      37.860  31.542  35.381  1.00  0.00     0.144 C 
ATOM     16  C   UNL A   1      38.482  31.718  36.767  1.00  0.00     0.091 C 
ATOM     17  C   UNL A   1      38.291  33.198  36.961  1.00  0.00     0.071 C 
ATOM     18  N   UNL A   1      37.692  33.832  36.000  1.00  0.00    -0.176 NA
BRANCH  15  19
ATOM     19  C   UNL A   1      38.857  31.033  34.346  1.00  0.00    -0.023 A 
ATOM     20  C   UNL A   1      40.741  30.135  32.439  1.00  0.00     0.118 A 
ATOM     21  C   UNL A   1      41.074  31.141  33.347  1.00  0.00     0.047 A 
ATOM     22  C   UNL A   1      39.478  29.550  32.505  1.00  0.00     0.047 A 
ATOM     23  C   UNL A   1      40.142  31.591  34.286  1.00  0.00     0.010 A 
ATOM     24  C   UNL A   1      38.548  29.989  33.456  1.00  0.00     0.010 A 
BRANCH  20  25
ATOM     25  O   UNL A   1      41.741  29.781  31.576  1.00  0.00    -0.497 OA
ATOM     26  C   UNL A   1      41.491  28.646  30.758  1.00  0.00     0.278 C 
ENDBRANCH  20  25
ENDBRANCH  15  19
BRANCH  17  27
ATOM     27  C   UNL A   1      38.719  33.823  38.219  1.00  0.00    -0.002 A 
ATOM     28  C   UNL A   1      38.992  35.196  38.232  1.00  0.00     0.011 A 
ATOM     29  C   UNL A   1      38.776  33.072  39.396  1.00  0.00     0.011 A 
ATOM     30  C   UNL A   1      39.308  35.827  39.438  1.00  0.00     0.021 A 
ATOM     31  C   UNL A   1      39.116  33.696  40.599  1.00  0.00     0.021 A 
ATOM     32  C   UNL A   1      39.379  35.070  40.614  1.00  0.00     0.067 A 
BRANCH  32  33
ATOM     33  S   UNL A   1      39.759  35.883  42.151  1.00  0.00     0.175 S 
ATOM     34  C   UNL A   1      38.618  35.184  43.314  1.00  0.00     0.163 C 
ATOM     35  O   UNL A   1      41.100  35.473  42.519  1.00  0.00    -0.224 OA
ATOM     36  O   UNL A   1      39.423  37.287  41.998  1.00  0.00    -0.224 OA
ENDBRANCH  32  33
ENDBRANCH  17  27
ENDBRANCH   9  14
ENDBRANCH   6   8
ENDBRANCH   5   6
ENDBRANCH   4   5
ENDBRANCH   3   4
ENDBRANCH   2   3
ENDBRANCH   1   2
BRANCH   1  37
ATOM     37  C   UNL A   1      39.947  28.963  27.306  1.00  0.00     0.188 C 
BRANCH  37  38
ATOM     38  O   UNL A   1      40.235  27.606  27.071  1.00  0.00    -0.376 OA
BRANCH  38  39
ATOM     39  C   UNL A   1      39.720  26.593  27.917  1.00  0.00     0.202 C 
BRANCH  39  40
ATOM     40  C   UNL A   1      39.719  25.079  27.631  1.00  0.00     0.261 C 
BRANCH  40  41
ATOM     41  O   UNL A   1      40.829  24.303  28.085  1.00  0.00    -0.460 OA
BRANCH  41  42
ATOM     42  C   UNL A   1      41.652  23.838  27.117  1.00  0.00     0.338 C 
ATOM     43  O   UNL A   1      41.471  22.877  26.381  1.00  0.00    -0.246 OA
BRANCH  42  44
ATOM     44  C   UNL A   1      42.777  24.772  26.963  1.00  0.00     0.060 A 
ATOM     45  C   UNL A   1      43.426  25.248  28.111  1.00  0.00     0.016 A 
ATOM     46  C   UNL A   1      43.168  25.197  25.694  1.00  0.00     0.016 A 
ATOM     47  C   UNL A   1      44.464  26.170  27.991  1.00  0.00     0.010 A 
ATOM     48  C   UNL A   1      44.194  26.137  25.577  1.00  0.00     0.010 A 
ATOM     49  C   UNL A   1      44.829  26.647  26.726  1.00  0.00    -0.014 A 
BRANCH  49  50
ATOM     50  C   UNL A   1      45.757  27.796  26.603  1.00  0.00     0.031 A 
ATOM     51  C   UNL A   1      47.224  27.523  26.425  1.00  0.00     0.074 A 
ATOM     52  C   UNL A   1      45.307  29.061  26.648  1.00  0.00     0.049 A 
ATOM     53  N   UNL A   1      48.223  28.364  26.354  1.00  0.00    -0.248 NA
ATOM     54  C   UNL A   1      47.614  26.108  26.314  1.00  0.00     0.031 C 
ATOM     55  C   UNL A   1      43.906  29.461  26.764  1.00  0.00     0.029 A 
ATOM     56  N   UNL A   1      45.997  30.248  26.608  1.00  0.00    -0.354 N 
ATOM     57  C   UNL A   1      49.361  27.581  26.203  1.00  0.00     0.074 A 
ATOM     58  C   UNL A   1      48.931  26.199  26.224  1.00  0.00     0.031 C 
ATOM     59  C   UNL A   1      43.840  30.803  26.793  1.00  0.00     0.029 A 
ATOM     60  C   UNL A   1      45.193  31.353  26.737  1.00  0.00     0.049 A 
ATOM     61  H   UNL A   1      46.974  30.301  26.498  1.00  0.00     0.167 HD
ATOM     62  C   UNL A   1      50.649  27.975  26.056  1.00  0.00     0.031 A 
ATOM     63  C   UNL A   1      45.517  32.658  26.824  1.00  0.00     0.031 A 
ATOM     64  C   UNL A   1      51.080  29.348  26.067  1.00  0.00     0.049 A 
ATOM     65  C   UNL A   1      46.966  33.068  26.765  1.00  0.00     0.074 A 
ATOM     66  C   UNL A   1      52.360  29.851  25.917  1.00  0.00     0.029 A 
ATOM     67  N   UNL A   1      50.242  30.436  26.254  1.00  0.00    -0.354 N 
ATOM     68  N   UNL A   1      48.032  32.324  26.593  1.00  0.00    -0.248 NA
ATOM     69  C   UNL A   1      47.252  34.504  26.904  1.00  0.00     0.031 C 
ATOM     70  C   UNL A   1      52.305  31.239  26.080  1.00  0.00     0.029 A 
ATOM     71  C   UNL A   1      50.981  31.607  26.258  1.00  0.00     0.049 A 
ATOM     72  H   UNL A   1      49.265  30.384  26.368  1.00  0.00     0.167 HD
ATOM     73  C   UNL A   1      49.110  33.202  26.573  1.00  0.00     0.074 A 
ATOM     74  C   UNL A   1      48.567  34.535  26.737  1.00  0.00     0.031 C 
ATOM     75  C   UNL A   1      50.431  32.928  26.426  1.00  0.00     0.031 A 
BRANCH  62  76
ATOM     76  C   UNL A   1      51.685  26.893  25.923  1.00  0.00    -0.014 A 
ATOM     77  C   UNL A   1      52.330  26.353  27.047  1.00  0.00     0.009 A 
ATOM     78  C   UNL A   1      52.022  26.406  24.650  1.00  0.00     0.009 A 
ATOM     79  C   UNL A   1      53.323  25.382  26.895  1.00  0.00     0.001 A 
ATOM     80  C   UNL A   1      52.991  25.412  24.504  1.00  0.00     0.001 A 
ATOM     81  C   UNL A   1      53.650  24.911  25.625  1.00  0.00     0.000 A 
ENDBRANCH  62  76
BRANCH  63  82
ATOM     82  C   UNL A   1      44.449  33.679  26.986  1.00  0.00    -0.014 A 
ATOM     83  C   UNL A   1      43.885  34.306  25.865  1.00  0.00     0.009 A 
ATOM     84  C   UNL A   1      43.995  34.040  28.265  1.00  0.00     0.009 A 
ATOM     85  C   UNL A   1      42.901  35.286  26.022  1.00  0.00     0.001 A 
ATOM     86  C   UNL A   1      42.991  34.998  28.417  1.00  0.00     0.001 A 
ATOM     87  C   UNL A   1      42.451  35.627  27.296  1.00  0.00     0.000 A 
ENDBRANCH  63  82
BRANCH  75  88
ATOM     88  C   UNL A   1      51.381  34.096  26.393  1.00  0.00    -0.014 A 
ATOM     89  C   UNL A   1      51.671  34.774  25.199  1.00  0.00     0.009 A 
ATOM     90  C   UNL A   1      51.957  34.553  27.589  1.00  0.00     0.009 A 
ATOM     91  C   UNL A   1      52.546  35.863  25.199  1.00  0.00     0.001 A 
ATOM     92  C   UNL A   1      52.806  35.661  27.591  1.00  0.00     0.001 A 
ATOM     93  C   UNL A   1      53.108  36.310  26.396  1.00  0.00     0.000 A 
ENDBRANCH  75  88
ENDBRANCH  49  50
ENDBRANCH  42  44
ENDBRANCH  41  42
ENDBRANCH  40  41
ENDBRANCH  39  40
ENDBRANCH  38  39
ENDBRANCH  37  38
ENDBRANCH   1  37
TORSDOF 22
ENDMDL
MODEL 2
REMARK VINA RESULT:      -8.0      9.457     15.305
REMARK SMILES COc1ccc([C@H]2CC(c3ccc(S(C)(=O)=O)cc3)=NN2c2ccc(C(=O)OCCOCCOCCOC(=O)c3ccc(-c4c5nc(c(-c6ccccc6)c6ccc([nH]6)c(-c6ccccc6)c6nc(c(-c7ccccc7)c7ccc4[nH]7)C=C6)C=C5)cc3)cc2)cc1
REMARK SMILES IDX 32 1 31 2 30 3 29 4 28 5 26 6 27 7 25 8 22 9 23 10 89 11
REMARK SMILES IDX 24 12 88 13 21 14 7 15 8 16 9 17 20 18 6 19 3 20 4 21 91 22
REMARK SMILES IDX 5 23 90 24 2 25 1 26 10 27 11 28 19 29 12 30 18 31 13 32
REMARK SMILES IDX 14 33 15 34 16 35 17 36 33 37 34 38 35 39 36 40 37 41 38 42
REMARK SMILES IDX 39 43 40 44 41 45 87 46 42 47 86 48 43 49 44 50 45 51 80 52
REMARK SMILES IDX 46 53 85 54 79 55 81 56 47 57 84 58 78 59 77 60 48 62 70 63
REMARK SMILES IDX 55 64 69 65 56 66 59 67 68 68 82 69 57 70 58 71 67 73 83 74
REMARK SMILES IDX 60 75 49 76 50 77 54 78 51 79 53 80 52 81 71 82 72 83 76 84
REMARK SMILES IDX 73 85 75 86 74 87 61 88 62 89 66 90 63 91 65 92 64 93
REMARK H PARENT 81 61 59 72
REMARK Flexibility Score: inf
ROOT
ATOM      1  C   UNL A   1      48.690  28.149  40.173  1.00  0.00     0.188 C 
ENDROOT
BRANCH   1   2
ATOM      2  O   UNL A   1      49.281  27.674  41.365  1.00  0.00    -0.376 OA
BRANCH   2   3
ATOM      3  C   UNL A   1      50.546  28.153  41.785  1.00  0.00     0.202 C 
BRANCH   3   4
ATOM      4  C   UNL A   1      51.883  27.520  41.360  1.00  0.00     0.261 C 
BRANCH   4   5
ATOM      5  O   UNL A   1      51.854  26.127  41.027  1.00  0.00    -0.460 OA
BRANCH   5   6
ATOM      6  C   UNL A   1      51.707  25.856  39.706  1.00  0.00     0.338 C 
ATOM      7  O   UNL A   1      52.198  26.472  38.774  1.00  0.00    -0.246 OA
BRANCH   6   8
ATOM      8  C   UNL A   1      50.999  24.570  39.525  1.00  0.00     0.060 A 
ATOM      9  C   UNL A   1      49.467  22.229  39.249  1.00  0.00     0.060 A 
ATOM     10  C   UNL A   1      49.181  23.359  38.475  1.00  0.00     0.029 A 
ATOM     11  C   UNL A   1      50.592  22.264  40.092  1.00  0.00     0.029 A 
ATOM     12  C   UNL A   1      49.919  24.533  38.635  1.00  0.00     0.018 A 
ATOM     13  C   UNL A   1      51.371  23.419  40.219  1.00  0.00     0.018 A 
BRANCH   9  14
ATOM     14  N   UNL A   1      48.600  21.140  39.266  1.00  0.00    -0.257 N 
ATOM     15  C   UNL A   1      48.100  20.533  38.029  1.00  0.00     0.144 C 
ATOM     16  C   UNL A   1      47.328  19.316  38.539  1.00  0.00     0.091 C 
ATOM     17  C   UNL A   1      47.616  19.413  40.013  1.00  0.00     0.071 C 
ATOM     18  N   UNL A   1      48.346  20.418  40.392  1.00  0.00    -0.176 NA
BRANCH  15  19
ATOM     19  C   UNL A   1      49.216  20.162  37.059  1.00  0.00    -0.023 A 
ATOM     20  C   UNL A   1      51.317  19.453  35.307  1.00  0.00     0.118 A 
ATOM     21  C   UNL A   1      51.299  18.981  36.619  1.00  0.00     0.047 A 
ATOM     22  C   UNL A   1      50.268  20.250  34.855  1.00  0.00     0.047 A 
ATOM     23  C   UNL A   1      50.264  19.337  37.490  1.00  0.00     0.010 A 
ATOM     24  C   UNL A   1      49.222  20.594  35.721  1.00  0.00     0.010 A 
BRANCH  20  25
ATOM     25  O   UNL A   1      52.379  19.029  34.555  1.00  0.00    -0.497 OA
ATOM     26  C   UNL A   1      53.670  19.361  35.051  1.00  0.00     0.278 C 
ENDBRANCH  20  25
ENDBRANCH  15  19
BRANCH  17  27
ATOM     27  C   UNL A   1      47.020  18.435  40.933  1.00  0.00    -0.002 A 
ATOM     28  C   UNL A   1      46.560  18.874  42.179  1.00  0.00     0.011 A 
ATOM     29  C   UNL A   1      46.849  17.107  40.534  1.00  0.00     0.011 A 
ATOM     30  C   UNL A   1      45.905  17.978  43.029  1.00  0.00     0.021 A 
ATOM     31  C   UNL A   1      46.216  16.204  41.392  1.00  0.00     0.021 A 
ATOM     32  C   UNL A   1      45.747  16.645  42.634  1.00  0.00     0.067 A 
BRANCH  32  33
ATOM     33  S   UNL A   1      44.891  15.514  43.710  1.00  0.00     0.175 S 
ATOM     34  C   UNL A   1      44.744  16.389  45.244  1.00  0.00     0.163 C 
ATOM     35  O   UNL A   1      43.564  15.334  43.154  1.00  0.00    -0.224 OA
ATOM     36  O   UNL A   1      45.766  14.378  43.936  1.00  0.00    -0.224 OA
ENDBRANCH  32  33
ENDBRANCH  17  27
ENDBRANCH   9  14
ENDBRANCH   6   8
ENDBRANCH   5   6
ENDBRANCH   4   5
ENDBRANCH   3   4
ENDBRANCH   2   3
ENDBRANCH   1   2
BRANCH   1  37
ATOM     37  C   UNL A   1      47.194  28.526  40.139  1.00  0.00     0.188 C 
BRANCH  37  38
ATOM     38  O   UNL A   1      46.273  27.673  40.775  1.00  0.00    -0.376 OA
BRANCH  38  39
ATOM     39  C   UNL A   1      46.045  26.359  40.299  1.00  0.00     0.202 C 
BRANCH  39  40
ATOM     40  C   UNL A   1      44.907  25.914  39.361  1.00  0.00     0.261 C 
BRANCH  40  41
ATOM     41  O   UNL A   1      45.253  25.337  38.102  1.00  0.00    -0.460 OA
BRANCH  41  42
ATOM     42  C   UNL A   1      45.960  26.134  37.268  1.00  0.00     0.338 C 
ATOM     43  O   UNL A   1      47.172  26.306  37.247  1.00  0.00    -0.246 OA
BRANCH  42  44
ATOM     44  C   UNL A   1      45.050  26.678  36.249  1.00  0.00     0.060 A 
ATOM     45  C   UNL A   1      45.427  27.834  35.551  1.00  0.00     0.016 A 
ATOM     46  C   UNL A   1      43.820  26.067  36.007  1.00  0.00     0.016 A 
ATOM     47  C   UNL A   1      44.560  28.393  34.614  1.00  0.00     0.010 A 
ATOM     48  C   UNL A   1      42.945  26.642  35.084  1.00  0.00     0.010 A 
ATOM     49  C   UNL A   1      43.299  27.822  34.402  1.00  0.00    -0.014 A 
BRANCH  49  50
ATOM     50  C   UNL A   1      42.284  28.538  33.595  1.00  0.00     0.031 A 
ATOM     51  C   UNL A   1      41.409  29.553  34.273  1.00  0.00     0.074 A 
ATOM     52  C   UNL A   1      42.141  28.294  32.282  1.00  0.00     0.049 A 
ATOM     53  N   UNL A   1      40.419  30.256  33.785  1.00  0.00    -0.248 NA
ATOM     54  C   UNL A   1      41.687  29.805  35.696  1.00  0.00     0.031 C 
ATOM     55  C   UNL A   1      42.959  27.374  31.494  1.00  0.00     0.029 A 
ATOM     56  N   UNL A   1      41.238  28.803  31.380  1.00  0.00    -0.354 N 
ATOM     57  C   UNL A   1      39.948  31.025  34.843  1.00  0.00     0.074 A 
ATOM     58  C   UNL A   1      40.740  30.678  36.004  1.00  0.00     0.031 C 
ATOM     59  C   UNL A   1      42.517  27.379  30.225  1.00  0.00     0.029 A 
ATOM     60  C   UNL A   1      41.362  28.270  30.121  1.00  0.00     0.049 A 
ATOM     61  H   UNL A   1      40.567  29.484  31.614  1.00  0.00     0.167 HD
ATOM     62  C   UNL A   1      38.950  31.940  34.848  1.00  0.00     0.031 A 
ATOM     63  C   UNL A   1      40.614  28.462  29.018  1.00  0.00     0.031 A 
ATOM     64  C   UNL A   1      38.143  32.261  33.702  1.00  0.00     0.049 A 
ATOM     65  C   UNL A   1      39.440  29.406  29.074  1.00  0.00     0.074 A 
ATOM     66  C   UNL A   1      37.113  33.180  33.602  1.00  0.00     0.029 A 
ATOM     67  N   UNL A   1      38.264  31.660  32.458  1.00  0.00    -0.354 N 
ATOM     68  N   UNL A   1      39.021  30.149  30.069  1.00  0.00    -0.248 NA
ATOM     69  C   UNL A   1      38.641  29.541  27.846  1.00  0.00     0.031 C 
ATOM     70  C   UNL A   1      36.568  33.087  32.317  1.00  0.00     0.029 A 
ATOM     71  C   UNL A   1      37.305  32.164  31.594  1.00  0.00     0.049 A 
ATOM     72  H   UNL A   1      38.933  30.977  32.224  1.00  0.00     0.167 HD
ATOM     73  C   UNL A   1      37.931  30.861  29.580  1.00  0.00     0.074 A 
ATOM     74  C   UNL A   1      37.763  30.470  28.196  1.00  0.00     0.031 C 
ATOM     75  C   UNL A   1      37.144  31.763  30.219  1.00  0.00     0.031 A 
BRANCH  62  76
ATOM     76  C   UNL A   1      38.650  32.619  36.157  1.00  0.00    -0.014 A 
ATOM     77  C   UNL A   1      39.215  33.862  36.484  1.00  0.00     0.009 A 
ATOM     78  C   UNL A   1      37.787  32.003  37.077  1.00  0.00     0.009 A 
ATOM     79  C   UNL A   1      38.958  34.451  37.725  1.00  0.00     0.001 A 
ATOM     80  C   UNL A   1      37.505  32.610  38.302  1.00  0.00     0.001 A 
ATOM     81  C   UNL A   1      38.103  33.826  38.631  1.00  0.00     0.000 A 
ENDBRANCH  62  76
BRANCH  63  82
ATOM     82  C   UNL A   1      40.942  27.738  27.762  1.00  0.00    -0.014 A 
ATOM     83  C   UNL A   1      41.788  28.318  26.805  1.00  0.00     0.009 A 
ATOM     84  C   UNL A   1      40.402  26.467  27.508  1.00  0.00     0.009 A 
ATOM     85  C   UNL A   1      42.072  27.648  25.612  1.00  0.00     0.001 A 
ATOM     86  C   UNL A   1      40.711  25.788  26.328  1.00  0.00     0.001 A 
ATOM     87  C   UNL A   1      41.539  26.382  25.378  1.00  0.00     0.000 A 
ENDBRANCH  63  82
BRANCH  75  88
ATOM     88  C   UNL A   1      36.054  32.423  29.417  1.00  0.00    -0.014 A 
ATOM     89  C   UNL A   1      34.922  31.713  28.991  1.00  0.00     0.009 A 
ATOM     90  C   UNL A   1      36.144  33.795  29.126  1.00  0.00     0.009 A 
ATOM     91  C   UNL A   1      33.919  32.355  28.259  1.00  0.00     0.001 A 
ATOM     92  C   UNL A   1      35.125  34.440  28.423  1.00  0.00     0.001 A 
ATOM     93  C   UNL A   1      34.018  33.718  27.981  1.00  0.00     0.000 A 
ENDBRANCH  75  88
ENDBRANCH  49  50
ENDBRANCH  42  44
ENDBRANCH  41  42
ENDBRANCH  40  41
ENDBRANCH  39  40
ENDBRANCH  38  39
ENDBRANCH  37  38
ENDBRANCH   1  37
TORSDOF 22
ENDMDL
MODEL 3
REMARK VINA RESULT:      -8.0      4.813     12.790
REMARK SMILES COc1ccc([C@H]2CC(c3ccc(S(C)(=O)=O)cc3)=NN2c2ccc(C(=O)OCCOCCOCCOC(=O)c3ccc(-c4c5nc(c(-c6ccccc6)c6ccc([nH]6)c(-c6ccccc6)c6nc(c(-c7ccccc7)c7ccc4[nH]7)C=C6)C=C5)cc3)cc2)cc1
REMARK SMILES IDX 32 1 31 2 30 3 29 4 28 5 26 6 27 7 25 8 22 9 23 10 89 11
REMARK SMILES IDX 24 12 88 13 21 14 7 15 8 16 9 17 20 18 6 19 3 20 4 21 91 22
REMARK SMILES IDX 5 23 90 24 2 25 1 26 10 27 11 28 19 29 12 30 18 31 13 32
REMARK SMILES IDX 14 33 15 34 16 35 17 36 33 37 34 38 35 39 36 40 37 41 38 42
REMARK SMILES IDX 39 43 40 44 41 45 87 46 42 47 86 48 43 49 44 50 45 51 80 52
REMARK SMILES IDX 46 53 85 54 79 55 81 56 47 57 84 58 78 59 77 60 48 62 70 63
REMARK SMILES IDX 55 64 69 65 56 66 59 67 68 68 82 69 57 70 58 71 67 73 83 74
REMARK SMILES IDX 60 75 49 76 50 77 54 78 51 79 53 80 52 81 71 82 72 83 76 84
REMARK SMILES IDX 73 85 75 86 74 87 61 88 62 89 66 90 63 91 65 92 64 93
REMARK H PARENT 81 61 59 72
REMARK Flexibility Score: inf
ROOT
ATOM      1  C   UNL A   1      52.496  28.704  34.373  1.00  0.00     0.188 C 
ENDROOT
BRANCH   1   2
ATOM      2  O   UNL A   1      51.838  29.786  33.747  1.00  0.00    -0.376 OA
BRANCH   2   3
ATOM      3  C   UNL A   1      52.249  31.120  33.987  1.00  0.00     0.202 C 
BRANCH   3   4
ATOM      4  C   UNL A   1      51.865  32.307  33.085  1.00  0.00     0.261 C 
BRANCH   4   5
ATOM      5  O   UNL A   1      51.065  32.005  31.936  1.00  0.00    -0.460 OA
BRANCH   5   6
ATOM      6  C   UNL A   1      50.148  32.951  31.611  1.00  0.00     0.338 C 
ATOM      7  O   UNL A   1      50.271  34.159  31.731  1.00  0.00    -0.246 OA
BRANCH   6   8
ATOM      8  C   UNL A   1      49.009  32.333  30.899  1.00  0.00     0.060 A 
ATOM      9  C   UNL A   1      46.884  30.972  29.659  1.00  0.00     0.060 A 
ATOM     10  C   UNL A   1      46.876  31.191  31.042  1.00  0.00     0.029 A 
ATOM     11  C   UNL A   1      47.928  31.530  28.901  1.00  0.00     0.029 A 
ATOM     12  C   UNL A   1      47.946  31.837  31.663  1.00  0.00     0.018 A 
ATOM     13  C   UNL A   1      48.978  32.226  29.509  1.00  0.00     0.018 A 
BRANCH   9  14
ATOM     14  N   UNL A   1      45.945  30.132  29.067  1.00  0.00    -0.257 N 
ATOM     15  C   UNL A   1      44.546  30.537  28.901  1.00  0.00     0.144 C 
ATOM     16  C   UNL A   1      43.956  29.382  28.090  1.00  0.00     0.091 C 
ATOM     17  C   UNL A   1      45.190  28.553  27.865  1.00  0.00     0.071 C 
ATOM     18  N   UNL A   1      46.289  29.001  28.393  1.00  0.00    -0.176 NA
BRANCH  15  19
ATOM     19  C   UNL A   1      44.397  31.885  28.205  1.00  0.00    -0.023 A 
ATOM     20  C   UNL A   1      44.107  34.410  26.968  1.00  0.00     0.118 A 
ATOM     21  C   UNL A   1      44.128  34.299  28.359  1.00  0.00     0.047 A 
ATOM     22  C   UNL A   1      44.267  33.264  26.192  1.00  0.00     0.047 A 
ATOM     23  C   UNL A   1      44.265  33.051  28.973  1.00  0.00     0.010 A 
ATOM     24  C   UNL A   1      44.420  32.013  26.806  1.00  0.00     0.010 A 
BRANCH  20  25
ATOM     25  O   UNL A   1      43.973  35.684  26.492  1.00  0.00    -0.497 OA
ATOM     26  C   UNL A   1      42.663  36.237  26.536  1.00  0.00     0.278 C 
ENDBRANCH  20  25
ENDBRANCH  15  19
BRANCH  17  27
ATOM     27  C   UNL A   1      45.085  27.281  27.139  1.00  0.00    -0.002 A 
ATOM     28  C   UNL A   1      44.725  26.127  27.845  1.00  0.00     0.011 A 
ATOM     29  C   UNL A   1      45.267  27.244  25.754  1.00  0.00     0.011 A 
ATOM     30  C   UNL A   1      44.528  24.928  27.156  1.00  0.00     0.021 A 
ATOM     31  C   UNL A   1      45.094  26.039  25.066  1.00  0.00     0.021 A 
ATOM     32  C   UNL A   1      44.725  24.889  25.771  1.00  0.00     0.067 A 
BRANCH  32  33
ATOM     33  S   UNL A   1      44.449  23.364  24.894  1.00  0.00     0.175 S 
ATOM     34  C   UNL A   1      44.986  22.104  26.019  1.00  0.00     0.163 C 
ATOM     35  O   UNL A   1      43.015  23.240  24.716  1.00  0.00    -0.224 OA
ATOM     36  O   UNL A   1      45.348  23.346  23.755  1.00  0.00    -0.224 OA
ENDBRANCH  32  33
ENDBRANCH  17  27
ENDBRANCH   9  14
ENDBRANCH   6   8
ENDBRANCH   5   6
ENDBRANCH   4   5
ENDBRANCH   3   4
ENDBRANCH   2   3
ENDBRANCH   1   2
BRANCH   1  37
ATOM     37  C   UNL A   1      52.417  27.286  33.770  1.00  0.00     0.188 C 
BRANCH  37  38
ATOM     38  O   UNL A   1      51.254  26.921  33.067  1.00  0.00    -0.376 OA
BRANCH  38  39
ATOM     39  C   UNL A   1      50.156  26.321  33.731  1.00  0.00     0.202 C 
BRANCH  39  40
ATOM     40  C   UNL A   1      48.857  27.026  34.163  1.00  0.00     0.261 C 
BRANCH  40  41
ATOM     41  O   UNL A   1      48.076  26.433  35.201  1.00  0.00    -0.460 OA
BRANCH  41  42
ATOM     42  C   UNL A   1      47.350  27.293  35.951  1.00  0.00     0.338 C 
ATOM     43  O   UNL A   1      47.636  27.753  37.049  1.00  0.00    -0.246 OA
BRANCH  42  44
ATOM     44  C   UNL A   1      46.186  27.737  35.169  1.00  0.00     0.060 A 
ATOM     45  C   UNL A   1      46.305  28.876  34.361  1.00  0.00     0.016 A 
ATOM     46  C   UNL A   1      44.976  27.049  35.260  1.00  0.00     0.016 A 
ATOM     47  C   UNL A   1      45.202  29.341  33.648  1.00  0.00     0.010 A 
ATOM     48  C   UNL A   1      43.866  27.530  34.561  1.00  0.00     0.010 A 
ATOM     49  C   UNL A   1      43.967  28.693  33.773  1.00  0.00    -0.014 A 
BRANCH  49  50
ATOM     50  C   UNL A   1      42.742  29.313  33.218  1.00  0.00     0.031 A 
ATOM     51  C   UNL A   1      42.182  28.777  31.931  1.00  0.00     0.074 A 
ATOM     52  C   UNL A   1      42.133  30.333  33.845  1.00  0.00     0.049 A 
ATOM     53  N   UNL A   1      41.159  29.196  31.230  1.00  0.00    -0.248 NA
ATOM     54  C   UNL A   1      42.873  27.612  31.355  1.00  0.00     0.031 C 
ATOM     55  C   UNL A   1      42.543  30.911  35.123  1.00  0.00     0.029 A 
ATOM     56  N   UNL A   1      41.036  31.072  33.475  1.00  0.00    -0.354 N 
ATOM     57  C   UNL A   1      41.091  28.356  30.126  1.00  0.00     0.074 A 
ATOM     58  C   UNL A   1      42.193  27.424  30.235  1.00  0.00     0.031 C 
ATOM     59  C   UNL A   1      41.710  31.920  35.430  1.00  0.00     0.029 A 
ATOM     60  C   UNL A   1      40.737  32.084  34.352  1.00  0.00     0.049 A 
ATOM     61  H   UNL A   1      40.515  30.892  32.659  1.00  0.00     0.167 HD
ATOM     62  C   UNL A   1      40.191  28.355  29.115  1.00  0.00     0.031 A 
ATOM     63  C   UNL A   1      39.798  33.047  34.280  1.00  0.00     0.031 A 
ATOM     64  C   UNL A   1      39.114  29.301  28.991  1.00  0.00     0.049 A 
ATOM     65  C   UNL A   1      38.872  33.093  33.091  1.00  0.00     0.074 A 
ATOM     66  C   UNL A   1      38.143  29.379  28.008  1.00  0.00     0.029 A 
ATOM     67  N   UNL A   1      38.877  30.345  29.871  1.00  0.00    -0.354 N 
ATOM     68  N   UNL A   1      38.796  32.278  32.068  1.00  0.00    -0.248 NA
ATOM     69  C   UNL A   1      37.896  34.193  33.056  1.00  0.00     0.031 C 
ATOM     70  C   UNL A   1      37.359  30.510  28.258  1.00  0.00     0.029 A 
ATOM     71  C   UNL A   1      37.795  31.093  29.436  1.00  0.00     0.049 A 
ATOM     72  H   UNL A   1      39.399  30.527  30.686  1.00  0.00     0.167 HD
ATOM     73  C   UNL A   1      37.748  32.746  31.284  1.00  0.00     0.074 A 
ATOM     74  C   UNL A   1      37.209  33.909  31.957  1.00  0.00     0.031 C 
ATOM     75  C   UNL A   1      37.270  32.252  30.113  1.00  0.00     0.031 A 
BRANCH  62  76
ATOM     76  C   UNL A   1      40.373  27.321  28.036  1.00  0.00    -0.014 A 
ATOM     77  C   UNL A   1      41.228  27.544  26.945  1.00  0.00     0.009 A 
ATOM     78  C   UNL A   1      39.677  26.105  28.115  1.00  0.00     0.009 A 
ATOM     79  C   UNL A   1      41.345  26.589  25.931  1.00  0.00     0.001 A 
ATOM     80  C   UNL A   1      39.821  25.139  27.117  1.00  0.00     0.001 A 
ATOM     81  C   UNL A   1      40.645  25.388  26.020  1.00  0.00     0.000 A 
ENDBRANCH  62  76
BRANCH  63  82
ATOM     82  C   UNL A   1      39.687  34.060  35.362  1.00  0.00    -0.014 A 
ATOM     83  C   UNL A   1      40.337  35.298  35.249  1.00  0.00     0.009 A 
ATOM     84  C   UNL A   1      38.939  33.789  36.520  1.00  0.00     0.009 A 
ATOM     85  C   UNL A   1      40.255  36.238  36.281  1.00  0.00     0.001 A 
ATOM     86  C   UNL A   1      38.835  34.742  37.535  1.00  0.00     0.001 A 
ATOM     87  C   UNL A   1      39.500  35.961  37.419  1.00  0.00     0.000 A 
ENDBRANCH  63  82
BRANCH  75  88
ATOM     88  C   UNL A   1      36.078  32.942  29.506  1.00  0.00    -0.014 A 
ATOM     89  C   UNL A   1      36.214  34.120  28.755  1.00  0.00     0.009 A 
ATOM     90  C   UNL A   1      34.802  32.373  29.649  1.00  0.00     0.009 A 
ATOM     91  C   UNL A   1      35.091  34.732  28.191  1.00  0.00     0.001 A 
ATOM     92  C   UNL A   1      33.687  32.969  29.057  1.00  0.00     0.001 A 
ATOM     93  C   UNL A   1      33.830  34.153  28.337  1.00  0.00     0.000 A 
ENDBRANCH  75  88
ENDBRANCH  49  50
ENDBRANCH  42  44
ENDBRANCH  41  42
ENDBRANCH  40  41
ENDBRANCH  39  40
ENDBRANCH  38  39
ENDBRANCH  37  38
ENDBRANCH   1  37
TORSDOF 22
ENDMDL
