MODEL 1
REMARK VINA RESULT:     -11.5      0.000      0.000
REMARK SMILES O=C(Cn1c(-c2nc(-c3ccc(C(F)(F)F)cc3)no2)cc2ccccc21)OCCOCCOCCOC(=O)c1ccc(-c2c3nc(c(-c4ccccc4)c4ccc([nH]4)c(-c4ccccc4)c4nc(c(-c5ccccc5)c5ccc2[nH]5)C=C4)C=C3)cc1
REMARK SMILES IDX 32 1 31 2 30 3 29 4 28 5 2 6 1 7 3 8 4 9 5 10 27 11 21 12
REMARK SMILES IDX 22 13 26 14 23 15 25 16 24 17 6 18 7 19 20 20 8 21 19 22
REMARK SMILES IDX 9 23 10 24 18 25 11 26 17 27 12 28 13 29 14 30 15 31 16 32
REMARK SMILES IDX 33 33 34 34 35 35 36 36 37 37 38 38 39 39 40 40 41 41 87 42
REMARK SMILES IDX 42 43 86 44 43 45 44 46 45 47 80 48 46 49 85 50 79 51 81 52
REMARK SMILES IDX 47 53 84 54 78 55 77 56 48 58 70 59 55 60 69 61 56 62 59 63
REMARK SMILES IDX 68 64 82 65 57 66 58 67 67 69 83 70 60 71 49 72 50 73 54 74
REMARK SMILES IDX 51 75 53 76 52 77 71 78 72 79 76 80 73 81 75 82 74 83 61 84
REMARK SMILES IDX 62 85 66 86 63 87 65 88 64 89
REMARK H PARENT 81 57 59 68
REMARK Flexibility Score: inf
ROOT
ATOM      1  C   UNL A   1      31.023  27.085  26.517  1.00  0.00     0.188 C 
ENDROOT
BRANCH   1   2
ATOM      2  O   UNL A   1      31.368  25.871  27.176  1.00  0.00    -0.376 OA
BRANCH   2   3
ATOM      3  C   UNL A   1      31.055  24.717  26.407  1.00  0.00     0.202 C 
BRANCH   3   4
ATOM      4  C   UNL A   1      31.901  23.559  26.905  1.00  0.00     0.261 C 
BRANCH   4   5
ATOM      5  O   UNL A   1      33.331  23.735  26.724  1.00  0.00    -0.462 OA
BRANCH   5   6
ATOM      6  C   UNL A   1      34.047  24.285  25.726  1.00  0.00     0.326 C 
ATOM      7  O   UNL A   1      34.327  25.485  25.814  1.00  0.00    -0.250 OA
BRANCH   6   8
ATOM      8  C   UNL A   1      34.433  23.531  24.482  1.00  0.00     0.245 C 
BRANCH   8   9
ATOM      9  N   UNL A   1      33.469  22.614  23.892  1.00  0.00    -0.325 N 
ATOM     10  C   UNL A   1      32.379  22.969  23.125  1.00  0.00     0.109 A 
ATOM     11  C   UNL A   1      33.531  21.233  24.036  1.00  0.00     0.049 A 
ATOM     12  C   UNL A   1      31.775  21.795  22.716  1.00  0.00     0.042 A 
ATOM     13  C   UNL A   1      32.470  20.703  23.300  1.00  0.00     0.000 A 
ATOM     14  C   UNL A   1      34.426  20.400  24.735  1.00  0.00     0.027 A 
ATOM     15  C   UNL A   1      32.292  19.305  23.261  1.00  0.00     0.010 A 
ATOM     16  C   UNL A   1      34.237  19.015  24.671  1.00  0.00     0.002 A 
ATOM     17  C   UNL A   1      33.182  18.473  23.947  1.00  0.00     0.001 A 
BRANCH  10  18
ATOM     18  C   UNL A   1      32.077  24.308  22.707  1.00  0.00     0.274 A 
ATOM     19  N   UNL A   1      31.106  25.056  23.192  1.00  0.00    -0.185 NA
ATOM     20  O   UNL A   1      32.916  25.012  21.890  1.00  0.00    -0.332 OA
ATOM     21  C   UNL A   1      31.385  26.306  22.670  1.00  0.00     0.202 A 
ATOM     22  N   UNL A   1      32.473  26.324  21.884  1.00  0.00    -0.057 NA
BRANCH  21  23
ATOM     23  C   UNL A   1      30.562  27.493  22.907  1.00  0.00     0.023 A 
ATOM     24  C   UNL A   1      31.166  28.757  22.997  1.00  0.00     0.013 A 
ATOM     25  C   UNL A   1      29.167  27.417  23.008  1.00  0.00     0.013 A 
ATOM     26  C   UNL A   1      30.399  29.919  23.122  1.00  0.00     0.014 A 
ATOM     27  C   UNL A   1      28.392  28.582  23.134  1.00  0.00     0.014 A 
ATOM     28  C   UNL A   1      29.001  29.847  23.164  1.00  0.00     0.056 A 
BRANCH  28  29
ATOM     29  C   UNL A   1      28.196  31.122  23.236  1.00  0.00     0.416 C 
ATOM     30  F   UNL A   1      27.462  31.344  22.110  1.00  0.00    -0.166 F 
ATOM     31  F   UNL A   1      27.300  31.114  24.265  1.00  0.00    -0.166 F 
ATOM     32  F   UNL A   1      28.953  32.240  23.416  1.00  0.00    -0.166 F 
ENDBRANCH  28  29
ENDBRANCH  21  23
ENDBRANCH  10  18
ENDBRANCH   8   9
ENDBRANCH   6   8
ENDBRANCH   5   6
ENDBRANCH   4   5
ENDBRANCH   3   4
ENDBRANCH   2   3
ENDBRANCH   1   2
BRANCH   1  33
ATOM     33  C   UNL A   1      32.170  28.100  26.578  1.00  0.00     0.188 C 
BRANCH  33  34
ATOM     34  O   UNL A   1      31.884  29.427  27.019  1.00  0.00    -0.376 OA
BRANCH  34  35
ATOM     35  C   UNL A   1      32.699  30.484  26.525  1.00  0.00     0.202 C 
BRANCH  35  36
ATOM     36  C   UNL A   1      33.515  31.226  27.594  1.00  0.00     0.261 C 
BRANCH  36  37
ATOM     37  O   UNL A   1      34.920  31.213  27.281  1.00  0.00    -0.460 OA
BRANCH  37  38
ATOM     38  C   UNL A   1      35.733  31.922  28.106  1.00  0.00     0.338 C 
ATOM     39  O   UNL A   1      35.521  33.009  28.589  1.00  0.00    -0.246 OA
BRANCH  38  40
ATOM     40  C   UNL A   1      36.829  31.017  28.542  1.00  0.00     0.060 A 
ATOM     41  C   UNL A   1      37.995  31.487  29.149  1.00  0.00     0.016 A 
ATOM     42  C   UNL A   1      36.718  29.663  28.197  1.00  0.00     0.016 A 
ATOM     43  C   UNL A   1      39.054  30.601  29.371  1.00  0.00     0.010 A 
ATOM     44  C   UNL A   1      37.783  28.783  28.410  1.00  0.00     0.010 A 
ATOM     45  C   UNL A   1      38.966  29.247  28.985  1.00  0.00    -0.014 A 
BRANCH  45  46
ATOM     46  C   UNL A   1      40.087  28.361  29.355  1.00  0.00     0.031 A 
ATOM     47  C   UNL A   1      40.406  28.325  30.809  1.00  0.00     0.074 A 
ATOM     48  C   UNL A   1      40.744  27.454  28.600  1.00  0.00     0.049 A 
ATOM     49  N   UNL A   1      41.517  28.625  31.400  1.00  0.00    -0.248 NA
ATOM     50  C   UNL A   1      39.319  27.919  31.712  1.00  0.00     0.031 C 
ATOM     51  C   UNL A   1      40.382  26.960  27.274  1.00  0.00     0.029 A 
ATOM     52  N   UNL A   1      41.864  26.717  28.917  1.00  0.00    -0.354 N 
ATOM     53  C   UNL A   1      41.328  28.291  32.739  1.00  0.00     0.074 A 
ATOM     54  C   UNL A   1      39.933  27.959  32.892  1.00  0.00     0.031 C 
ATOM     55  C   UNL A   1      41.159  25.897  26.969  1.00  0.00     0.029 A 
ATOM     56  C   UNL A   1      42.140  25.694  28.022  1.00  0.00     0.049 A 
ATOM     57  H   UNL A   1      42.420  26.901  29.708  1.00  0.00     0.167 HD
ATOM     58  C   UNL A   1      42.355  28.133  33.616  1.00  0.00     0.031 A 
ATOM     59  C   UNL A   1      43.060  24.705  28.126  1.00  0.00     0.031 A 
ATOM     60  C   UNL A   1      43.578  28.732  33.165  1.00  0.00     0.049 A 
ATOM     61  C   UNL A   1      44.056  25.048  29.164  1.00  0.00     0.074 A 
ATOM     62  C   UNL A   1      43.967  30.004  32.800  1.00  0.00     0.029 A 
ATOM     63  N   UNL A   1      44.596  27.899  32.774  1.00  0.00    -0.354 N 
ATOM     64  N   UNL A   1      45.010  25.921  29.027  1.00  0.00    -0.248 NA
ATOM     65  C   UNL A   1      43.857  24.556  30.518  1.00  0.00     0.031 C 
ATOM     66  C   UNL A   1      44.986  29.824  31.824  1.00  0.00     0.029 A 
ATOM     67  C   UNL A   1      45.182  28.450  31.663  1.00  0.00     0.049 A 
ATOM     68  H   UNL A   1      44.859  27.057  33.213  1.00  0.00     0.167 HD
ATOM     69  C   UNL A   1      45.251  26.394  30.306  1.00  0.00     0.074 A 
ATOM     70  C   UNL A   1      44.635  25.410  31.185  1.00  0.00     0.031 C 
ATOM     71  C   UNL A   1      45.662  27.679  30.530  1.00  0.00     0.031 A 
BRANCH  58  72
ATOM     72  C   UNL A   1      42.304  27.164  34.768  1.00  0.00    -0.014 A 
ATOM     73  C   UNL A   1      41.805  27.521  36.037  1.00  0.00     0.009 A 
ATOM     74  C   UNL A   1      42.531  25.796  34.538  1.00  0.00     0.009 A 
ATOM     75  C   UNL A   1      41.578  26.575  37.039  1.00  0.00     0.001 A 
ATOM     76  C   UNL A   1      42.260  24.839  35.525  1.00  0.00     0.001 A 
ATOM     77  C   UNL A   1      41.790  25.228  36.776  1.00  0.00     0.000 A 
ENDBRANCH  58  72
BRANCH  59  78
ATOM     78  C   UNL A   1      43.052  23.371  27.482  1.00  0.00    -0.014 A 
ATOM     79  C   UNL A   1      43.590  23.205  26.194  1.00  0.00     0.009 A 
ATOM     80  C   UNL A   1      42.323  22.299  28.025  1.00  0.00     0.009 A 
ATOM     81  C   UNL A   1      43.409  22.023  25.471  1.00  0.00     0.001 A 
ATOM     82  C   UNL A   1      42.128  21.119  27.295  1.00  0.00     0.001 A 
ATOM     83  C   UNL A   1      42.666  20.984  26.016  1.00  0.00     0.000 A 
ENDBRANCH  59  78
BRANCH  71  84
ATOM     84  C   UNL A   1      46.367  28.437  29.423  1.00  0.00    -0.014 A 
ATOM     85  C   UNL A   1      47.774  28.388  29.373  1.00  0.00     0.009 A 
ATOM     86  C   UNL A   1      45.716  29.254  28.487  1.00  0.00     0.009 A 
ATOM     87  C   UNL A   1      48.497  29.125  28.430  1.00  0.00     0.001 A 
ATOM     88  C   UNL A   1      46.435  29.932  27.500  1.00  0.00     0.001 A 
ATOM     89  C   UNL A   1      47.825  29.888  27.483  1.00  0.00     0.000 A 
ENDBRANCH  71  84
ENDBRANCH  45  46
ENDBRANCH  38  40
ENDBRANCH  37  38
ENDBRANCH  36  37
ENDBRANCH  35  36
ENDBRANCH  34  35
ENDBRANCH  33  34
ENDBRANCH   1  33
TORSDOF 21
ENDMDL
MODEL 2
REMARK VINA RESULT:     -11.2      3.143      7.783
REMARK SMILES O=C(Cn1c(-c2nc(-c3ccc(C(F)(F)F)cc3)no2)cc2ccccc21)OCCOCCOCCOC(=O)c1ccc(-c2c3nc(c(-c4ccccc4)c4ccc([nH]4)c(-c4ccccc4)c4nc(c(-c5ccccc5)c5ccc2[nH]5)C=C4)C=C3)cc1
REMARK SMILES IDX 32 1 31 2 30 3 29 4 28 5 2 6 1 7 3 8 4 9 5 10 27 11 21 12
REMARK SMILES IDX 22 13 26 14 23 15 25 16 24 17 6 18 7 19 20 20 8 21 19 22
REMARK SMILES IDX 9 23 10 24 18 25 11 26 17 27 12 28 13 29 14 30 15 31 16 32
REMARK SMILES IDX 33 33 34 34 35 35 36 36 37 37 38 38 39 39 40 40 41 41 87 42
REMARK SMILES IDX 42 43 86 44 43 45 44 46 45 47 80 48 46 49 85 50 79 51 81 52
REMARK SMILES IDX 47 53 84 54 78 55 77 56 48 58 70 59 55 60 69 61 56 62 59 63
REMARK SMILES IDX 68 64 82 65 57 66 58 67 67 69 83 70 60 71 49 72 50 73 54 74
REMARK SMILES IDX 51 75 53 76 52 77 71 78 72 79 76 80 73 81 75 82 74 83 61 84
REMARK SMILES IDX 62 85 66 86 63 87 65 88 64 89
REMARK H PARENT 81 57 59 68
REMARK Flexibility Score: inf
ROOT
ATOM      1  C   UNL A   1      40.989  21.406  27.149  1.00  0.00     0.188 C 
ENDROOT
BRANCH   1   2
ATOM      2  O   UNL A   1      39.983  21.833  26.237  1.00  0.00    -0.376 OA
BRANCH   2   3
ATOM      3  C   UNL A   1      39.434  23.099  26.575  1.00  0.00     0.202 C 
BRANCH   3   4
ATOM      4  C   UNL A   1      38.006  23.161  26.062  1.00  0.00     0.261 C 
BRANCH   4   5
ATOM      5  O   UNL A   1      37.393  21.866  25.827  1.00  0.00    -0.462 OA
BRANCH   5   6
ATOM      6  C   UNL A   1      36.107  21.497  25.679  1.00  0.00     0.326 C 
ATOM      7  O   UNL A   1      35.360  21.611  26.655  1.00  0.00    -0.250 OA
BRANCH   6   8
ATOM      8  C   UNL A   1      35.576  20.870  24.417  1.00  0.00     0.245 C 
BRANCH   8   9
ATOM      9  N   UNL A   1      34.299  20.173  24.465  1.00  0.00    -0.325 N 
ATOM     10  C   UNL A   1      33.053  20.763  24.399  1.00  0.00     0.109 A 
ATOM     11  C   UNL A   1      34.176  18.795  24.588  1.00  0.00     0.049 A 
ATOM     12  C   UNL A   1      32.123  19.740  24.412  1.00  0.00     0.042 A 
ATOM     13  C   UNL A   1      32.812  18.506  24.556  1.00  0.00     0.000 A 
ATOM     14  C   UNL A   1      35.139  17.774  24.714  1.00  0.00     0.027 A 
ATOM     15  C   UNL A   1      32.391  17.164  24.655  1.00  0.00     0.010 A 
ATOM     16  C   UNL A   1      34.698  16.449  24.799  1.00  0.00     0.002 A 
ATOM     17  C   UNL A   1      33.342  16.146  24.773  1.00  0.00     0.001 A 
BRANCH  10  18
ATOM     18  C   UNL A   1      32.822  22.161  24.176  1.00  0.00     0.274 A 
ATOM     19  N   UNL A   1      32.791  23.086  25.114  1.00  0.00    -0.185 NA
ATOM     20  O   UNL A   1      32.812  22.695  22.918  1.00  0.00    -0.332 OA
ATOM     21  C   UNL A   1      32.799  24.265  24.390  1.00  0.00     0.202 A 
ATOM     22  N   UNL A   1      32.818  24.073  23.062  1.00  0.00    -0.057 NA
BRANCH  21  23
ATOM     23  C   UNL A   1      32.750  25.596  24.995  1.00  0.00     0.023 A 
ATOM     24  C   UNL A   1      33.804  26.500  24.787  1.00  0.00     0.013 A 
ATOM     25  C   UNL A   1      31.652  26.024  25.752  1.00  0.00     0.013 A 
ATOM     26  C   UNL A   1      33.740  27.811  25.267  1.00  0.00     0.014 A 
ATOM     27  C   UNL A   1      31.583  27.341  26.237  1.00  0.00     0.014 A 
ATOM     28  C   UNL A   1      32.615  28.255  25.974  1.00  0.00     0.056 A 
BRANCH  28  29
ATOM     29  C   UNL A   1      32.545  29.694  26.426  1.00  0.00     0.416 C 
ATOM     30  F   UNL A   1      31.751  30.457  25.625  1.00  0.00    -0.166 F 
ATOM     31  F   UNL A   1      32.032  29.819  27.684  1.00  0.00    -0.166 F 
ATOM     32  F   UNL A   1      33.755  30.319  26.459  1.00  0.00    -0.166 F 
ENDBRANCH  28  29
ENDBRANCH  21  23
ENDBRANCH  10  18
ENDBRANCH   8   9
ENDBRANCH   6   8
ENDBRANCH   5   6
ENDBRANCH   4   5
ENDBRANCH   3   4
ENDBRANCH   2   3
ENDBRANCH   1   2
BRANCH   1  33
ATOM     33  C   UNL A   1      41.332  19.925  26.951  1.00  0.00     0.188 C 
BRANCH  33  34
ATOM     34  O   UNL A   1      42.698  19.560  26.760  1.00  0.00    -0.376 OA
BRANCH  34  35
ATOM     35  C   UNL A   1      42.998  18.597  25.755  1.00  0.00     0.202 C 
BRANCH  35  36
ATOM     36  C   UNL A   1      44.186  18.956  24.850  1.00  0.00     0.261 C 
BRANCH  36  37
ATOM     37  O   UNL A   1      44.285  20.379  24.657  1.00  0.00    -0.460 OA
BRANCH  37  38
ATOM     38  C   UNL A   1      45.415  20.978  25.114  1.00  0.00     0.338 C 
ATOM     39  O   UNL A   1      46.558  20.636  24.918  1.00  0.00    -0.246 OA
BRANCH  38  40
ATOM     40  C   UNL A   1      45.027  22.296  25.682  1.00  0.00     0.060 A 
ATOM     41  C   UNL A   1      45.708  22.886  26.749  1.00  0.00     0.016 A 
ATOM     42  C   UNL A   1      43.849  22.882  25.196  1.00  0.00     0.016 A 
ATOM     43  C   UNL A   1      45.182  24.036  27.343  1.00  0.00     0.010 A 
ATOM     44  C   UNL A   1      43.319  24.025  25.801  1.00  0.00     0.010 A 
ATOM     45  C   UNL A   1      43.973  24.604  26.889  1.00  0.00    -0.014 A 
BRANCH  45  46
ATOM     46  C   UNL A   1      43.547  25.878  27.502  1.00  0.00     0.031 A 
ATOM     47  C   UNL A   1      44.458  27.030  27.252  1.00  0.00     0.074 A 
ATOM     48  C   UNL A   1      42.378  26.188  28.102  1.00  0.00     0.049 A 
ATOM     49  N   UNL A   1      45.084  27.766  28.111  1.00  0.00    -0.248 NA
ATOM     50  C   UNL A   1      44.707  27.379  25.845  1.00  0.00     0.031 C 
ATOM     51  C   UNL A   1      41.144  25.409  28.119  1.00  0.00     0.029 A 
ATOM     52  N   UNL A   1      42.034  27.340  28.776  1.00  0.00    -0.354 N 
ATOM     53  C   UNL A   1      45.684  28.779  27.367  1.00  0.00     0.074 A 
ATOM     54  C   UNL A   1      45.504  28.436  25.977  1.00  0.00     0.031 C 
ATOM     55  C   UNL A   1      40.145  26.169  28.620  1.00  0.00     0.029 A 
ATOM     56  C   UNL A   1      40.680  27.449  29.055  1.00  0.00     0.049 A 
ATOM     57  H   UNL A   1      42.692  28.025  29.038  1.00  0.00     0.167 HD
ATOM     58  C   UNL A   1      46.141  29.934  27.920  1.00  0.00     0.031 A 
ATOM     59  C   UNL A   1      40.003  28.510  29.557  1.00  0.00     0.031 A 
ATOM     60  C   UNL A   1      46.331  29.843  29.339  1.00  0.00     0.049 A 
ATOM     61  C   UNL A   1      40.947  29.471  30.165  1.00  0.00     0.074 A 
ATOM     62  C   UNL A   1      47.080  29.041  30.175  1.00  0.00     0.029 A 
ATOM     63  N   UNL A   1      45.458  30.523  30.150  1.00  0.00    -0.354 N 
ATOM     64  N   UNL A   1      41.545  29.311  31.309  1.00  0.00    -0.248 NA
ATOM     65  C   UNL A   1      41.434  30.581  29.362  1.00  0.00     0.031 C 
ATOM     66  C   UNL A   1      46.332  28.949  31.382  1.00  0.00     0.029 A 
ATOM     67  C   UNL A   1      45.178  29.721  31.226  1.00  0.00     0.049 A 
ATOM     68  H   UNL A   1      45.098  31.425  29.988  1.00  0.00     0.167 HD
ATOM     69  C   UNL A   1      42.732  30.017  31.196  1.00  0.00     0.074 A 
ATOM     70  C   UNL A   1      42.530  30.897  30.054  1.00  0.00     0.031 C 
ATOM     71  C   UNL A   1      43.868  29.617  31.844  1.00  0.00     0.031 A 
BRANCH  58  72
ATOM     72  C   UNL A   1      46.135  31.250  27.187  1.00  0.00    -0.014 A 
ATOM     73  C   UNL A   1      44.945  31.934  26.868  1.00  0.00     0.009 A 
ATOM     74  C   UNL A   1      47.338  31.956  27.013  1.00  0.00     0.009 A 
ATOM     75  C   UNL A   1      44.950  33.238  26.368  1.00  0.00     0.001 A 
ATOM     76  C   UNL A   1      47.344  33.281  26.556  1.00  0.00     0.001 A 
ATOM     77  C   UNL A   1      46.151  33.919  26.228  1.00  0.00     0.000 A 
ENDBRANCH  58  72
BRANCH  59  78
ATOM     78  C   UNL A   1      38.566  28.838  29.405  1.00  0.00    -0.014 A 
ATOM     79  C   UNL A   1      38.047  29.169  28.141  1.00  0.00     0.009 A 
ATOM     80  C   UNL A   1      37.739  29.045  30.522  1.00  0.00     0.009 A 
ATOM     81  C   UNL A   1      36.759  29.689  27.991  1.00  0.00     0.001 A 
ATOM     82  C   UNL A   1      36.453  29.581  30.374  1.00  0.00     0.001 A 
ATOM     83  C   UNL A   1      35.966  29.908  29.110  1.00  0.00     0.000 A 
ENDBRANCH  59  78
BRANCH  71  84
ATOM     84  C   UNL A   1      43.751  28.752  33.083  1.00  0.00    -0.014 A 
ATOM     85  C   UNL A   1      43.519  27.373  32.914  1.00  0.00     0.009 A 
ATOM     86  C   UNL A   1      43.780  29.245  34.396  1.00  0.00     0.009 A 
ATOM     87  C   UNL A   1      43.322  26.526  34.009  1.00  0.00     0.001 A 
ATOM     88  C   UNL A   1      43.657  28.387  35.491  1.00  0.00     0.001 A 
ATOM     89  C   UNL A   1      43.405  27.033  35.301  1.00  0.00     0.000 A 
ENDBRANCH  71  84
ENDBRANCH  45  46
ENDBRANCH  38  40
ENDBRANCH  37  38
ENDBRANCH  36  37
ENDBRANCH  35  36
ENDBRANCH  34  35
ENDBRANCH  33  34
ENDBRANCH   1  33
TORSDOF 21
ENDMDL
MODEL 3
REMARK VINA RESULT:     -11.1      2.898      7.579
REMARK SMILES O=C(Cn1c(-c2nc(-c3ccc(C(F)(F)F)cc3)no2)cc2ccccc21)OCCOCCOCCOC(=O)c1ccc(-c2c3nc(c(-c4ccccc4)c4ccc([nH]4)c(-c4ccccc4)c4nc(c(-c5ccccc5)c5ccc2[nH]5)C=C4)C=C3)cc1
REMARK SMILES IDX 32 1 31 2 30 3 29 4 28 5 2 6 1 7 3 8 4 9 5 10 27 11 21 12
REMARK SMILES IDX 22 13 26 14 23 15 25 16 24 17 6 18 7 19 20 20 8 21 19 22
REMARK SMILES IDX 9 23 10 24 18 25 11 26 17 27 12 28 13 29 14 30 15 31 16 32
REMARK SMILES IDX 33 33 34 34 35 35 36 36 37 37 38 38 39 39 40 40 41 41 87 42
REMARK SMILES IDX 42 43 86 44 43 45 44 46 45 47 80 48 46 49 85 50 79 51 81 52
REMARK SMILES IDX 47 53 84 54 78 55 77 56 48 58 70 59 55 60 69 61 56 62 59 63
REMARK SMILES IDX 68 64 82 65 57 66 58 67 67 69 83 70 60 71 49 72 50 73 54 74
REMARK SMILES IDX 51 75 53 76 52 77 71 78 72 79 76 80 73 81 75 82 74 83 61 84
REMARK SMILES IDX 62 85 66 86 63 87 65 88 64 89
REMARK H PARENT 81 57 59 68
REMARK Flexibility Score: inf
ROOT
ATOM      1  C   UNL A   1      41.359  21.097  26.874  1.00  0.00     0.188 C 
ENDROOT
BRANCH   1   2
ATOM      2  O   UNL A   1      40.018  21.418  27.226  1.00  0.00    -0.376 OA
BRANCH   2   3
ATOM      3  C   UNL A   1      39.240  21.834  26.111  1.00  0.00     0.202 C 
BRANCH   3   4
ATOM      4  C   UNL A   1      38.730  23.240  26.374  1.00  0.00     0.261 C 
BRANCH   4   5
ATOM      5  O   UNL A   1      37.625  23.649  25.526  1.00  0.00    -0.462 OA
BRANCH   5   6
ATOM      6  C   UNL A   1      36.292  23.512  25.663  1.00  0.00     0.326 C 
ATOM      7  O   UNL A   1      35.833  23.471  26.808  1.00  0.00    -0.250 OA
BRANCH   6   8
ATOM      8  C   UNL A   1      35.365  23.317  24.494  1.00  0.00     0.245 C 
BRANCH   8   9
ATOM      9  N   UNL A   1      34.085  22.661  24.717  1.00  0.00    -0.325 N 
ATOM     10  C   UNL A   1      32.881  23.294  24.949  1.00  0.00     0.109 A 
ATOM     11  C   UNL A   1      33.916  21.282  24.725  1.00  0.00     0.049 A 
ATOM     12  C   UNL A   1      31.918  22.307  25.039  1.00  0.00     0.042 A 
ATOM     13  C   UNL A   1      32.556  21.043  24.926  1.00  0.00     0.000 A 
ATOM     14  C   UNL A   1      34.830  20.222  24.562  1.00  0.00     0.027 A 
ATOM     15  C   UNL A   1      32.091  19.713  24.972  1.00  0.00     0.010 A 
ATOM     16  C   UNL A   1      34.344  18.911  24.599  1.00  0.00     0.002 A 
ATOM     17  C   UNL A   1      32.993  18.657  24.804  1.00  0.00     0.001 A 
BRANCH  10  18
ATOM     18  C   UNL A   1      32.686  24.715  24.913  1.00  0.00     0.274 A 
ATOM     19  N   UNL A   1      31.712  25.333  24.275  1.00  0.00    -0.185 NA
ATOM     20  O   UNL A   1      33.395  25.558  25.721  1.00  0.00    -0.332 OA
ATOM     21  C   UNL A   1      31.804  26.630  24.747  1.00  0.00     0.202 A 
ATOM     22  N   UNL A   1      32.803  26.807  25.626  1.00  0.00    -0.057 NA
BRANCH  21  23
ATOM     23  C   UNL A   1      30.934  27.723  24.310  1.00  0.00     0.023 A 
ATOM     24  C   UNL A   1      31.206  29.039  24.716  1.00  0.00     0.013 A 
ATOM     25  C   UNL A   1      29.846  27.505  23.455  1.00  0.00     0.013 A 
ATOM     26  C   UNL A   1      30.454  30.115  24.234  1.00  0.00     0.014 A 
ATOM     27  C   UNL A   1      29.088  28.583  22.969  1.00  0.00     0.014 A 
ATOM     28  C   UNL A   1      29.404  29.901  23.333  1.00  0.00     0.056 A 
BRANCH  28  29
ATOM     29  C   UNL A   1      28.650  31.087  22.780  1.00  0.00     0.416 C 
ATOM     30  F   UNL A   1      27.319  31.041  23.064  1.00  0.00    -0.166 F 
ATOM     31  F   UNL A   1      29.096  32.271  23.292  1.00  0.00    -0.166 F 
ATOM     32  F   UNL A   1      28.741  31.214  21.427  1.00  0.00    -0.166 F 
ENDBRANCH  28  29
ENDBRANCH  21  23
ENDBRANCH  10  18
ENDBRANCH   8   9
ENDBRANCH   6   8
ENDBRANCH   5   6
ENDBRANCH   4   5
ENDBRANCH   3   4
ENDBRANCH   2   3
ENDBRANCH   1   2
BRANCH   1  33
ATOM     33  C   UNL A   1      41.498  19.620  26.488  1.00  0.00     0.188 C 
BRANCH  33  34
ATOM     34  O   UNL A   1      42.396  18.800  27.235  1.00  0.00    -0.376 OA
BRANCH  34  35
ATOM     35  C   UNL A   1      43.459  18.164  26.534  1.00  0.00     0.202 C 
BRANCH  35  36
ATOM     36  C   UNL A   1      43.795  18.782  25.169  1.00  0.00     0.261 C 
BRANCH  36  37
ATOM     37  O   UNL A   1      44.839  19.766  25.283  1.00  0.00    -0.460 OA
BRANCH  37  38
ATOM     38  C   UNL A   1      44.799  20.800  24.402  1.00  0.00     0.338 C 
ATOM     39  O   UNL A   1      44.872  20.740  23.198  1.00  0.00    -0.246 OA
BRANCH  38  40
ATOM     40  C   UNL A   1      44.378  22.013  25.152  1.00  0.00     0.060 A 
ATOM     41  C   UNL A   1      43.463  22.934  24.638  1.00  0.00     0.016 A 
ATOM     42  C   UNL A   1      45.040  22.284  26.358  1.00  0.00     0.016 A 
ATOM     43  C   UNL A   1      43.249  24.136  25.319  1.00  0.00     0.010 A 
ATOM     44  C   UNL A   1      44.832  23.492  27.029  1.00  0.00     0.010 A 
ATOM     45  C   UNL A   1      43.946  24.435  26.509  1.00  0.00    -0.014 A 
BRANCH  45  46
ATOM     46  C   UNL A   1      43.578  25.677  27.218  1.00  0.00     0.031 A 
ATOM     47  C   UNL A   1      44.508  26.821  27.004  1.00  0.00     0.074 A 
ATOM     48  C   UNL A   1      42.442  25.975  27.883  1.00  0.00     0.049 A 
ATOM     49  N   UNL A   1      45.187  27.485  27.881  1.00  0.00    -0.248 NA
ATOM     50  C   UNL A   1      44.710  27.253  25.613  1.00  0.00     0.031 C 
ATOM     51  C   UNL A   1      41.189  25.226  27.901  1.00  0.00     0.029 A 
ATOM     52  N   UNL A   1      42.154  27.089  28.642  1.00  0.00    -0.354 N 
ATOM     53  C   UNL A   1      45.782  28.530  27.178  1.00  0.00     0.074 A 
ATOM     54  C   UNL A   1      45.540  28.281  25.779  1.00  0.00     0.031 C 
ATOM     55  C   UNL A   1      40.231  25.975  28.489  1.00  0.00     0.029 A 
ATOM     56  C   UNL A   1      40.816  27.212  28.982  1.00  0.00     0.049 A 
ATOM     57  H   UNL A   1      42.840  27.740  28.919  1.00  0.00     0.167 HD
ATOM     58  C   UNL A   1      46.291  29.635  27.784  1.00  0.00     0.031 A 
ATOM     59  C   UNL A   1      40.187  28.254  29.578  1.00  0.00     0.031 A 
ATOM     60  C   UNL A   1      46.534  29.449  29.186  1.00  0.00     0.049 A 
ATOM     61  C   UNL A   1      41.179  29.151  30.206  1.00  0.00     0.074 A 
ATOM     62  C   UNL A   1      47.294  28.578  29.938  1.00  0.00     0.029 A 
ATOM     63  N   UNL A   1      45.712  30.096  30.073  1.00  0.00    -0.354 N 
ATOM     64  N   UNL A   1      41.817  28.905  31.312  1.00  0.00    -0.248 NA
ATOM     65  C   UNL A   1      41.663  30.299  29.455  1.00  0.00     0.031 C 
ATOM     66  C   UNL A   1      46.592  28.426  31.167  1.00  0.00     0.029 A 
ATOM     67  C   UNL A   1      45.454  29.234  31.107  1.00  0.00     0.049 A 
ATOM     68  H   UNL A   1      45.369  31.015  29.983  1.00  0.00     0.167 HD
ATOM     69  C   UNL A   1      43.016  29.588  31.195  1.00  0.00     0.074 A 
ATOM     70  C   UNL A   1      42.793  30.545  30.120  1.00  0.00     0.031 C 
ATOM     71  C   UNL A   1      44.166  29.120  31.770  1.00  0.00     0.031 A 
BRANCH  58  72
ATOM     72  C   UNL A   1      46.291  30.995  27.136  1.00  0.00    -0.014 A 
ATOM     73  C   UNL A   1      45.103  31.702  26.858  1.00  0.00     0.009 A 
ATOM     74  C   UNL A   1      47.495  31.708  27.013  1.00  0.00     0.009 A 
ATOM     75  C   UNL A   1      45.113  33.035  26.442  1.00  0.00     0.001 A 
ATOM     76  C   UNL A   1      47.506  33.059  26.640  1.00  0.00     0.001 A 
ATOM     77  C   UNL A   1      46.316  33.720  26.350  1.00  0.00     0.000 A 
ENDBRANCH  58  72
BRANCH  59  78
ATOM     78  C   UNL A   1      38.754  28.625  29.505  1.00  0.00    -0.014 A 
ATOM     79  C   UNL A   1      38.163  28.920  28.264  1.00  0.00     0.009 A 
ATOM     80  C   UNL A   1      38.011  28.907  30.663  1.00  0.00     0.009 A 
ATOM     81  C   UNL A   1      36.885  29.478  28.176  1.00  0.00     0.001 A 
ATOM     82  C   UNL A   1      36.735  29.480  30.576  1.00  0.00     0.001 A 
ATOM     83  C   UNL A   1      36.175  29.771  29.334  1.00  0.00     0.000 A 
ENDBRANCH  59  78
BRANCH  71  84
ATOM     84  C   UNL A   1      44.076  28.181  32.956  1.00  0.00    -0.014 A 
ATOM     85  C   UNL A   1      44.099  28.738  34.250  1.00  0.00     0.009 A 
ATOM     86  C   UNL A   1      44.052  26.782  32.856  1.00  0.00     0.009 A 
ATOM     87  C   UNL A   1      44.099  27.931  35.392  1.00  0.00     0.001 A 
ATOM     88  C   UNL A   1      43.978  25.979  33.996  1.00  0.00     0.001 A 
ATOM     89  C   UNL A   1      44.025  26.549  35.264  1.00  0.00     0.000 A 
ENDBRANCH  71  84
ENDBRANCH  45  46
ENDBRANCH  38  40
ENDBRANCH  37  38
ENDBRANCH  36  37
ENDBRANCH  35  36
ENDBRANCH  34  35
ENDBRANCH  33  34
ENDBRANCH   1  33
TORSDOF 21
ENDMDL
