MODEL 1
REMARK VINA RESULT:     -10.8      0.000      0.000
REMARK SMILES Cc1cc(C(=O)OCCOCCOCCOC(=O)c2ccc(-c3c4nc(c(-c5ccccc5)c5ccc([nH]5)c(-c5ccccc5)c5nc(c(-c6ccccc6)c6ccc3[nH]6)C=C5)C=C4)cc2)cc(S(=O)(=O)NNC(=O)c2c[nH]c3ccccc23)c1C
REMARK SMILES IDX 11 1 10 2 9 3 8 4 7 5 5 6 6 7 4 8 1 9 2 10 3 11 85 12 68 13
REMARK SMILES IDX 86 14 67 15 69 16 70 17 71 18 72 19 73 21 74 22 75 24 76 25
REMARK SMILES IDX 77 26 84 27 78 28 79 29 83 30 80 32 82 33 81 34 12 35 13 36
REMARK SMILES IDX 14 37 15 38 16 39 17 40 18 41 19 42 20 43 66 44 21 45 65 46
REMARK SMILES IDX 22 47 23 48 24 49 59 50 25 51 64 52 58 53 60 54 26 55 63 56
REMARK SMILES IDX 57 57 56 58 27 60 49 61 34 62 48 63 35 64 38 65 47 66 61 67
REMARK SMILES IDX 36 68 37 69 46 71 62 72 39 73 28 74 29 75 33 76 30 77 32 78
REMARK SMILES IDX 31 79 50 80 51 81 55 82 52 83 54 84 53 85 40 86 41 87 45 88
REMARK SMILES IDX 42 89 44 90 43 91
REMARK H PARENT 72 20 73 23 78 31 60 59 38 70
REMARK Flexibility Score: inf
ROOT
ATOM      1  C   UNL A   1      35.595  32.570  29.030  1.00  0.00     0.188 C 
ENDROOT
BRANCH   1   2
ATOM      2  O   UNL A   1      34.613  31.567  28.853  1.00  0.00    -0.376 OA
BRANCH   2   3
ATOM      3  C   UNL A   1      34.583  30.766  27.684  1.00  0.00     0.202 C 
BRANCH   3   4
ATOM      4  C   UNL A   1      33.312  30.060  27.178  1.00  0.00     0.261 C 
BRANCH   4   5
ATOM      5  O   UNL A   1      33.226  28.651  27.408  1.00  0.00    -0.460 OA
BRANCH   5   6
ATOM      6  C   UNL A   1      31.999  28.093  27.243  1.00  0.00     0.338 C 
ATOM      7  O   UNL A   1      31.081  28.090  28.044  1.00  0.00    -0.246 OA
BRANCH   6   8
ATOM      8  C   UNL A   1      31.862  27.602  25.849  1.00  0.00     0.061 A 
ATOM      9  C   UNL A   1      31.369  29.066  22.377  1.00  0.00     0.044 C 
ATOM     10  C   UNL A   1      31.563  28.049  23.471  1.00  0.00    -0.046 A 
ATOM     11  C   UNL A   1      31.681  28.502  24.793  1.00  0.00     0.019 A 
ATOM     12  C   UNL A   1      31.651  26.666  23.202  1.00  0.00    -0.028 A 
ATOM     13  C   UNL A   1      31.775  25.758  24.289  1.00  0.00     0.088 A 
ATOM     14  C   UNL A   1      31.637  26.153  21.778  1.00  0.00     0.046 C 
ATOM     15  C   UNL A   1      31.885  26.221  25.606  1.00  0.00     0.037 A 
BRANCH  13  16
ATOM     16  S   UNL A   1      31.656  24.012  23.935  1.00  0.00     0.257 S 
ATOM     17  O   UNL A   1      30.307  23.808  23.427  1.00  0.00    -0.205 OA
ATOM     18  O   UNL A   1      32.815  23.626  23.181  1.00  0.00    -0.205 OA
BRANCH  16  19
ATOM     19  N   UNL A   1      31.794  23.174  25.446  1.00  0.00    -0.123 NA
ATOM     20  H   UNL A   1      30.971  23.396  26.007  1.00  0.00     0.167 HD
BRANCH  19  21
ATOM     21  N   UNL A   1      31.894  21.693  25.343  1.00  0.00    -0.273 N 
ATOM     22  C   UNL A   1      33.145  21.120  25.192  1.00  0.00     0.268 C 
ATOM     23  H   UNL A   1      31.087  21.132  25.382  1.00  0.00     0.186 HD
ATOM     24  O   UNL A   1      33.369  20.429  24.197  1.00  0.00    -0.268 OA
BRANCH  22  25
ATOM     25  C   UNL A   1      34.110  21.250  26.303  1.00  0.00     0.066 A 
ATOM     26  C   UNL A   1      34.062  22.187  27.348  1.00  0.00     0.097 A 
ATOM     27  C   UNL A   1      35.441  21.552  25.908  1.00  0.00     0.012 A 
ATOM     28  N   UNL A   1      34.380  23.342  26.616  1.00  0.00    -0.360 N 
ATOM     29  C   UNL A   1      35.393  22.956  25.778  1.00  0.00     0.046 A 
ATOM     30  C   UNL A   1      36.387  20.816  25.229  1.00  0.00     0.011 A 
ATOM     31  H   UNL A   1      33.967  24.232  26.689  1.00  0.00     0.166 HD
ATOM     32  C   UNL A   1      36.104  23.681  24.871  1.00  0.00     0.027 A 
ATOM     33  C   UNL A   1      37.154  21.538  24.367  1.00  0.00     0.001 A 
ATOM     34  C   UNL A   1      36.934  22.875  24.169  1.00  0.00     0.002 A 
ENDBRANCH  22  25
ENDBRANCH  19  21
ENDBRANCH  16  19
ENDBRANCH  13  16
ENDBRANCH   6   8
ENDBRANCH   5   6
ENDBRANCH   4   5
ENDBRANCH   3   4
ENDBRANCH   2   3
ENDBRANCH   1   2
BRANCH   1  35
ATOM     35  C   UNL A   1      35.198  34.052  29.172  1.00  0.00     0.188 C 
BRANCH  35  36
ATOM     36  O   UNL A   1      34.248  34.538  28.258  1.00  0.00    -0.376 OA
BRANCH  36  37
ATOM     37  C   UNL A   1      33.044  35.122  28.723  1.00  0.00     0.202 C 
BRANCH  37  38
ATOM     38  C   UNL A   1      32.897  36.089  29.920  1.00  0.00     0.261 C 
BRANCH  38  39
ATOM     39  O   UNL A   1      32.355  35.606  31.159  1.00  0.00    -0.460 OA
BRANCH  39  40
ATOM     40  C   UNL A   1      32.954  36.053  32.295  1.00  0.00     0.338 C 
ATOM     41  O   UNL A   1      32.609  37.005  32.972  1.00  0.00    -0.246 OA
BRANCH  40  42
ATOM     42  C   UNL A   1      34.043  35.121  32.691  1.00  0.00     0.060 A 
ATOM     43  C   UNL A   1      33.724  33.851  33.181  1.00  0.00     0.016 A 
ATOM     44  C   UNL A   1      35.380  35.514  32.641  1.00  0.00     0.016 A 
ATOM     45  C   UNL A   1      34.750  32.983  33.607  1.00  0.00     0.010 A 
ATOM     46  C   UNL A   1      36.398  34.641  33.087  1.00  0.00     0.010 A 
ATOM     47  C   UNL A   1      36.105  33.360  33.582  1.00  0.00    -0.014 A 
BRANCH  47  48
ATOM     48  C   UNL A   1      37.219  32.485  34.146  1.00  0.00     0.031 A 
ATOM     49  C   UNL A   1      37.823  31.418  33.151  1.00  0.00     0.074 A 
ATOM     50  C   UNL A   1      37.714  32.769  35.396  1.00  0.00     0.049 A 
ATOM     51  N   UNL A   1      38.663  30.414  33.325  1.00  0.00    -0.248 NA
ATOM     52  C   UNL A   1      37.482  31.595  31.717  1.00  0.00     0.031 C 
ATOM     53  C   UNL A   1      37.447  34.026  36.130  1.00  0.00     0.029 A 
ATOM     54  N   UNL A   1      38.649  32.150  36.229  1.00  0.00    -0.354 N 
ATOM     55  C   UNL A   1      39.072  29.955  32.038  1.00  0.00     0.074 A 
ATOM     56  C   UNL A   1      38.194  30.649  31.100  1.00  0.00     0.031 C 
ATOM     57  C   UNL A   1      38.308  34.146  37.168  1.00  0.00     0.029 A 
ATOM     58  C   UNL A   1      39.205  32.976  37.214  1.00  0.00     0.049 A 
ATOM     59  H   UNL A   1      38.900  31.203  36.131  1.00  0.00     0.167 HD
ATOM     60  C   UNL A   1      40.241  29.311  31.642  1.00  0.00     0.031 A 
ATOM     61  C   UNL A   1      40.383  32.924  37.927  1.00  0.00     0.031 A 
ATOM     62  C   UNL A   1      41.387  28.966  32.548  1.00  0.00     0.049 A 
ATOM     63  C   UNL A   1      41.531  31.922  37.536  1.00  0.00     0.074 A 
ATOM     64  C   UNL A   1      42.247  27.871  32.562  1.00  0.00     0.029 A 
ATOM     65  N   UNL A   1      42.077  29.849  33.414  1.00  0.00    -0.354 N 
ATOM     66  N   UNL A   1      41.635  31.126  36.492  1.00  0.00    -0.248 NA
ATOM     67  C   UNL A   1      42.758  31.904  38.353  1.00  0.00     0.031 C 
ATOM     68  C   UNL A   1      43.155  28.001  33.651  1.00  0.00     0.029 A 
ATOM     69  C   UNL A   1      42.902  29.194  34.313  1.00  0.00     0.049 A 
ATOM     70  H   UNL A   1      41.979  30.828  33.381  1.00  0.00     0.167 HD
ATOM     71  C   UNL A   1      42.940  30.640  36.416  1.00  0.00     0.074 A 
ATOM     72  C   UNL A   1      43.592  31.175  37.609  1.00  0.00     0.031 C 
ATOM     73  C   UNL A   1      43.532  29.802  35.495  1.00  0.00     0.031 A 
BRANCH  60  74
ATOM     74  C   UNL A   1      40.243  28.746  30.219  1.00  0.00    -0.014 A 
ATOM     75  C   UNL A   1      40.836  29.326  29.079  1.00  0.00     0.009 A 
ATOM     76  C   UNL A   1      39.533  27.547  30.032  1.00  0.00     0.009 A 
ATOM     77  C   UNL A   1      40.688  28.734  27.807  1.00  0.00     0.001 A 
ATOM     78  C   UNL A   1      39.413  26.942  28.776  1.00  0.00     0.001 A 
ATOM     79  C   UNL A   1      39.980  27.542  27.658  1.00  0.00     0.000 A 
ENDBRANCH  60  74
BRANCH  61  80
ATOM     80  C   UNL A   1      40.700  34.002  38.970  1.00  0.00    -0.014 A 
ATOM     81  C   UNL A   1      41.423  35.181  38.680  1.00  0.00     0.009 A 
ATOM     82  C   UNL A   1      40.330  33.812  40.315  1.00  0.00     0.009 A 
ATOM     83  C   UNL A   1      41.837  36.066  39.696  1.00  0.00     0.001 A 
ATOM     84  C   UNL A   1      40.713  34.712  41.325  1.00  0.00     0.001 A 
ATOM     85  C   UNL A   1      41.492  35.824  41.021  1.00  0.00     0.000 A 
ENDBRANCH  61  80
BRANCH  73  86
ATOM     86  C   UNL A   1      44.850  29.203  35.934  1.00  0.00    -0.014 A 
ATOM     87  C   UNL A   1      44.783  28.122  36.832  1.00  0.00     0.009 A 
ATOM     88  C   UNL A   1      46.104  29.579  35.431  1.00  0.00     0.009 A 
ATOM     89  C   UNL A   1      45.929  27.455  37.253  1.00  0.00     0.001 A 
ATOM     90  C   UNL A   1      47.258  28.888  35.839  1.00  0.00     0.001 A 
ATOM     91  C   UNL A   1      47.168  27.833  36.751  1.00  0.00     0.000 A 
ENDBRANCH  73  86
ENDBRANCH  47  48
ENDBRANCH  40  42
ENDBRANCH  39  40
ENDBRANCH  38  39
ENDBRANCH  37  38
ENDBRANCH  36  37
ENDBRANCH  35  36
ENDBRANCH   1  35
TORSDOF 21
ENDMDL
MODEL 2
REMARK VINA RESULT:     -10.7      4.278      8.073
REMARK SMILES Cc1cc(C(=O)OCCOCCOCCOC(=O)c2ccc(-c3c4nc(c(-c5ccccc5)c5ccc([nH]5)c(-c5ccccc5)c5nc(c(-c6ccccc6)c6ccc3[nH]6)C=C5)C=C4)cc2)cc(S(=O)(=O)NNC(=O)c2c[nH]c3ccccc23)c1C
REMARK SMILES IDX 11 1 10 2 9 3 8 4 7 5 5 6 6 7 4 8 1 9 2 10 3 11 85 12 68 13
REMARK SMILES IDX 86 14 67 15 69 16 70 17 71 18 72 19 73 21 74 22 75 24 76 25
REMARK SMILES IDX 77 26 84 27 78 28 79 29 83 30 80 32 82 33 81 34 12 35 13 36
REMARK SMILES IDX 14 37 15 38 16 39 17 40 18 41 19 42 20 43 66 44 21 45 65 46
REMARK SMILES IDX 22 47 23 48 24 49 59 50 25 51 64 52 58 53 60 54 26 55 63 56
REMARK SMILES IDX 57 57 56 58 27 60 49 61 34 62 48 63 35 64 38 65 47 66 61 67
REMARK SMILES IDX 36 68 37 69 46 71 62 72 39 73 28 74 29 75 33 76 30 77 32 78
REMARK SMILES IDX 31 79 50 80 51 81 55 82 52 83 54 84 53 85 40 86 41 87 45 88
REMARK SMILES IDX 42 89 44 90 43 91
REMARK H PARENT 72 20 73 23 78 31 60 59 38 70
REMARK Flexibility Score: inf
ROOT
ATOM      1  C   UNL A   1      34.392  34.912  28.990  1.00  0.00     0.188 C 
ENDROOT
BRANCH   1   2
ATOM      2  O   UNL A   1      34.830  33.759  28.296  1.00  0.00    -0.376 OA
BRANCH   2   3
ATOM      3  C   UNL A   1      34.249  32.490  28.541  1.00  0.00     0.202 C 
BRANCH   3   4
ATOM      4  C   UNL A   1      34.693  31.205  27.818  1.00  0.00     0.261 C 
BRANCH   4   5
ATOM      5  O   UNL A   1      33.703  30.534  27.035  1.00  0.00    -0.460 OA
BRANCH   5   6
ATOM      6  C   UNL A   1      34.014  29.276  26.629  1.00  0.00     0.338 C 
ATOM      7  O   UNL A   1      35.039  28.662  26.865  1.00  0.00    -0.246 OA
BRANCH   6   8
ATOM      8  C   UNL A   1      32.836  28.665  25.964  1.00  0.00     0.061 A 
ATOM      9  C   UNL A   1      30.044  29.741  23.621  1.00  0.00     0.044 C 
ATOM     10  C   UNL A   1      30.899  28.863  24.497  1.00  0.00    -0.046 A 
ATOM     11  C   UNL A   1      32.007  29.434  25.139  1.00  0.00     0.019 A 
ATOM     12  C   UNL A   1      30.632  27.487  24.667  1.00  0.00    -0.028 A 
ATOM     13  C   UNL A   1      31.445  26.731  25.555  1.00  0.00     0.088 A 
ATOM     14  C   UNL A   1      29.509  26.817  23.903  1.00  0.00     0.046 C 
ATOM     15  C   UNL A   1      32.545  27.313  26.197  1.00  0.00     0.037 A 
BRANCH  13  16
ATOM     16  S   UNL A   1      30.945  25.058  25.924  1.00  0.00     0.257 S 
ATOM     17  O   UNL A   1      32.023  24.495  26.723  1.00  0.00    -0.205 OA
ATOM     18  O   UNL A   1      29.589  25.088  26.395  1.00  0.00    -0.205 OA
BRANCH  16  19
ATOM     19  N   UNL A   1      30.885  24.198  24.419  1.00  0.00    -0.123 NA
ATOM     20  H   UNL A   1      29.937  24.274  24.050  1.00  0.00     0.167 HD
BRANCH  19  21
ATOM     21  N   UNL A   1      31.826  24.684  23.374  1.00  0.00    -0.273 N 
ATOM     22  C   UNL A   1      33.167  24.359  23.484  1.00  0.00     0.268 C 
ATOM     23  H   UNL A   1      31.501  25.226  22.619  1.00  0.00     0.186 HD
ATOM     24  O   UNL A   1      33.998  25.265  23.554  1.00  0.00    -0.268 OA
BRANCH  22  25
ATOM     25  C   UNL A   1      33.549  22.936  23.369  1.00  0.00     0.066 A 
ATOM     26  C   UNL A   1      32.896  21.843  23.959  1.00  0.00     0.097 A 
ATOM     27  C   UNL A   1      34.837  22.620  23.880  1.00  0.00     0.012 A 
ATOM     28  N   UNL A   1      33.247  22.080  25.298  1.00  0.00    -0.360 N 
ATOM     29  C   UNL A   1      34.567  22.442  25.253  1.00  0.00     0.046 A 
ATOM     30  C   UNL A   1      36.103  22.951  23.451  1.00  0.00     0.011 A 
ATOM     31  H   UNL A   1      32.671  22.003  26.092  1.00  0.00     0.166 HD
ATOM     32  C   UNL A   1      35.425  22.751  26.265  1.00  0.00     0.027 A 
ATOM     33  C   UNL A   1      36.993  23.197  24.450  1.00  0.00     0.001 A 
ATOM     34  C   UNL A   1      36.611  23.170  25.765  1.00  0.00     0.002 A 
ENDBRANCH  22  25
ENDBRANCH  19  21
ENDBRANCH  16  19
ENDBRANCH  13  16
ENDBRANCH   6   8
ENDBRANCH   5   6
ENDBRANCH   4   5
ENDBRANCH   3   4
ENDBRANCH   2   3
ENDBRANCH   1   2
BRANCH   1  35
ATOM     35  C   UNL A   1      33.671  34.795  30.347  1.00  0.00     0.188 C 
BRANCH  35  36
ATOM     36  O   UNL A   1      34.350  35.310  31.464  1.00  0.00    -0.376 OA
BRANCH  36  37
ATOM     37  C   UNL A   1      34.327  34.613  32.697  1.00  0.00     0.202 C 
BRANCH  37  38
ATOM     38  C   UNL A   1      34.185  33.084  32.884  1.00  0.00     0.261 C 
BRANCH  38  39
ATOM     39  O   UNL A   1      35.148  32.205  32.285  1.00  0.00    -0.460 OA
BRANCH  39  40
ATOM     40  C   UNL A   1      36.307  32.022  32.973  1.00  0.00     0.338 C 
ATOM     41  O   UNL A   1      36.476  32.184  34.169  1.00  0.00    -0.246 OA
BRANCH  40  42
ATOM     42  C   UNL A   1      37.344  31.454  32.072  1.00  0.00     0.060 A 
ATOM     43  C   UNL A   1      38.357  30.649  32.602  1.00  0.00     0.016 A 
ATOM     44  C   UNL A   1      37.362  31.760  30.711  1.00  0.00     0.016 A 
ATOM     45  C   UNL A   1      39.372  30.149  31.760  1.00  0.00     0.010 A 
ATOM     46  C   UNL A   1      38.394  31.268  29.881  1.00  0.00     0.010 A 
ATOM     47  C   UNL A   1      39.422  30.456  30.388  1.00  0.00    -0.014 A 
BRANCH  47  48
ATOM     48  C   UNL A   1      40.572  30.026  29.484  1.00  0.00     0.031 A 
ATOM     49  C   UNL A   1      41.839  30.968  29.490  1.00  0.00     0.074 A 
ATOM     50  C   UNL A   1      40.496  28.807  28.854  1.00  0.00     0.049 A 
ATOM     51  N   UNL A   1      42.927  31.001  28.742  1.00  0.00    -0.248 NA
ATOM     52  C   UNL A   1      41.909  31.963  30.590  1.00  0.00     0.031 C 
ATOM     53  C   UNL A   1      39.517  27.752  29.198  1.00  0.00     0.029 A 
ATOM     54  N   UNL A   1      41.304  28.148  27.923  1.00  0.00    -0.354 N 
ATOM     55  C   UNL A   1      43.860  31.884  29.363  1.00  0.00     0.074 A 
ATOM     56  C   UNL A   1      43.102  32.539  30.426  1.00  0.00     0.031 C 
ATOM     57  C   UNL A   1      39.887  26.577  28.637  1.00  0.00     0.029 A 
ATOM     58  C   UNL A   1      41.133  26.759  27.867  1.00  0.00     0.049 A 
ATOM     59  H   UNL A   1      41.945  28.624  27.349  1.00  0.00     0.167 HD
ATOM     60  C   UNL A   1      45.250  31.911  29.301  1.00  0.00     0.031 A 
ATOM     61  C   UNL A   1      41.945  25.730  27.444  1.00  0.00     0.031 A 
ATOM     62  C   UNL A   1      46.101  30.942  28.532  1.00  0.00     0.049 A 
ATOM     63  C   UNL A   1      43.467  25.970  27.124  1.00  0.00     0.074 A 
ATOM     64  C   UNL A   1      47.292  31.121  27.834  1.00  0.00     0.029 A 
ATOM     65  N   UNL A   1      46.057  29.529  28.613  1.00  0.00    -0.354 N 
ATOM     66  N   UNL A   1      44.208  27.043  27.307  1.00  0.00    -0.248 NA
ATOM     67  C   UNL A   1      44.276  24.829  26.656  1.00  0.00     0.031 C 
ATOM     68  C   UNL A   1      47.683  29.883  27.249  1.00  0.00     0.029 A 
ATOM     69  C   UNL A   1      46.764  28.903  27.600  1.00  0.00     0.049 A 
ATOM     70  H   UNL A   1      45.571  29.040  29.317  1.00  0.00     0.167 HD
ATOM     71  C   UNL A   1      45.551  26.706  27.144  1.00  0.00     0.074 A 
ATOM     72  C   UNL A   1      45.521  25.300  26.746  1.00  0.00     0.031 C 
ATOM     73  C   UNL A   1      46.689  27.476  27.258  1.00  0.00     0.031 A 
BRANCH  60  74
ATOM     74  C   UNL A   1      45.922  33.149  29.902  1.00  0.00    -0.014 A 
ATOM     75  C   UNL A   1      46.075  34.409  29.290  1.00  0.00     0.009 A 
ATOM     76  C   UNL A   1      46.487  32.983  31.179  1.00  0.00     0.009 A 
ATOM     77  C   UNL A   1      46.793  35.442  29.931  1.00  0.00     0.001 A 
ATOM     78  C   UNL A   1      47.171  34.017  31.828  1.00  0.00     0.001 A 
ATOM     79  C   UNL A   1      47.336  35.244  31.200  1.00  0.00     0.000 A 
ENDBRANCH  60  74
BRANCH  61  80
ATOM     80  C   UNL A   1      41.447  24.282  27.501  1.00  0.00    -0.014 A 
ATOM     81  C   UNL A   1      41.881  23.344  28.466  1.00  0.00     0.009 A 
ATOM     82  C   UNL A   1      40.563  23.801  26.516  1.00  0.00     0.009 A 
ATOM     83  C   UNL A   1      41.528  21.982  28.386  1.00  0.00     0.001 A 
ATOM     84  C   UNL A   1      40.183  22.448  26.456  1.00  0.00     0.001 A 
ATOM     85  C   UNL A   1      40.688  21.532  27.373  1.00  0.00     0.000 A 
ENDBRANCH  61  80
BRANCH  73  86
ATOM     86  C   UNL A   1      47.934  26.863  26.656  1.00  0.00    -0.014 A 
ATOM     87  C   UNL A   1      48.076  26.968  25.260  1.00  0.00     0.009 A 
ATOM     88  C   UNL A   1      48.987  26.305  27.396  1.00  0.00     0.009 A 
ATOM     89  C   UNL A   1      49.211  26.497  24.607  1.00  0.00     0.001 A 
ATOM     90  C   UNL A   1      50.143  25.853  26.737  1.00  0.00     0.001 A 
ATOM     91  C   UNL A   1      50.249  25.945  25.346  1.00  0.00     0.000 A 
ENDBRANCH  73  86
ENDBRANCH  47  48
ENDBRANCH  40  42
ENDBRANCH  39  40
ENDBRANCH  38  39
ENDBRANCH  37  38
ENDBRANCH  36  37
ENDBRANCH  35  36
ENDBRANCH   1  35
TORSDOF 21
ENDMDL
MODEL 3
REMARK VINA RESULT:     -10.2      4.596      8.962
REMARK SMILES Cc1cc(C(=O)OCCOCCOCCOC(=O)c2ccc(-c3c4nc(c(-c5ccccc5)c5ccc([nH]5)c(-c5ccccc5)c5nc(c(-c6ccccc6)c6ccc3[nH]6)C=C5)C=C4)cc2)cc(S(=O)(=O)NNC(=O)c2c[nH]c3ccccc23)c1C
REMARK SMILES IDX 11 1 10 2 9 3 8 4 7 5 5 6 6 7 4 8 1 9 2 10 3 11 85 12 68 13
REMARK SMILES IDX 86 14 67 15 69 16 70 17 71 18 72 19 73 21 74 22 75 24 76 25
REMARK SMILES IDX 77 26 84 27 78 28 79 29 83 30 80 32 82 33 81 34 12 35 13 36
REMARK SMILES IDX 14 37 15 38 16 39 17 40 18 41 19 42 20 43 66 44 21 45 65 46
REMARK SMILES IDX 22 47 23 48 24 49 59 50 25 51 64 52 58 53 60 54 26 55 63 56
REMARK SMILES IDX 57 57 56 58 27 60 49 61 34 62 48 63 35 64 38 65 47 66 61 67
REMARK SMILES IDX 36 68 37 69 46 71 62 72 39 73 28 74 29 75 33 76 30 77 32 78
REMARK SMILES IDX 31 79 50 80 51 81 55 82 52 83 54 84 53 85 40 86 41 87 45 88
REMARK SMILES IDX 42 89 44 90 43 91
REMARK H PARENT 72 20 73 23 78 31 60 59 38 70
REMARK Flexibility Score: inf
ROOT
ATOM      1  C   UNL A   1      33.253  37.144  32.013  1.00  0.00     0.188 C 
ENDROOT
BRANCH   1   2
ATOM      2  O   UNL A   1      32.902  37.502  30.689  1.00  0.00    -0.376 OA
BRANCH   2   3
ATOM      3  C   UNL A   1      32.635  36.515  29.708  1.00  0.00     0.202 C 
BRANCH   3   4
ATOM      4  C   UNL A   1      33.721  35.915  28.797  1.00  0.00     0.261 C 
BRANCH   4   5
ATOM      5  O   UNL A   1      33.691  34.498  28.607  1.00  0.00    -0.460 OA
BRANCH   5   6
ATOM      6  C   UNL A   1      34.769  33.811  29.065  1.00  0.00     0.338 C 
ATOM      7  O   UNL A   1      35.539  34.156  29.942  1.00  0.00    -0.246 OA
BRANCH   6   8
ATOM      8  C   UNL A   1      34.798  32.464  28.441  1.00  0.00     0.061 A 
ATOM      9  C   UNL A   1      37.261  29.600  28.029  1.00  0.00     0.044 C 
ATOM     10  C   UNL A   1      35.989  30.399  27.929  1.00  0.00    -0.046 A 
ATOM     11  C   UNL A   1      35.955  31.677  28.505  1.00  0.00     0.019 A 
ATOM     12  C   UNL A   1      34.832  29.891  27.299  1.00  0.00    -0.028 A 
ATOM     13  C   UNL A   1      33.685  30.723  27.189  1.00  0.00     0.088 A 
ATOM     14  C   UNL A   1      34.802  28.475  26.764  1.00  0.00     0.046 C 
ATOM     15  C   UNL A   1      33.663  32.001  27.761  1.00  0.00     0.037 A 
BRANCH  13  16
ATOM     16  S   UNL A   1      32.324  30.139  26.192  1.00  0.00     0.257 S 
ATOM     17  O   UNL A   1      31.396  31.258  26.104  1.00  0.00    -0.205 OA
ATOM     18  O   UNL A   1      32.864  29.509  25.020  1.00  0.00    -0.205 OA
BRANCH  16  19
ATOM     19  N   UNL A   1      31.549  28.866  27.078  1.00  0.00    -0.123 NA
ATOM     20  H   UNL A   1      30.544  28.937  26.919  1.00  0.00     0.167 HD
BRANCH  19  21
ATOM     21  N   UNL A   1      31.977  27.489  26.714  1.00  0.00    -0.273 N 
ATOM     22  C   UNL A   1      31.082  26.670  26.047  1.00  0.00     0.268 C 
ATOM     23  H   UNL A   1      32.878  27.166  26.942  1.00  0.00     0.186 HD
ATOM     24  O   UNL A   1      30.755  25.598  26.561  1.00  0.00    -0.268 OA
BRANCH  22  25
ATOM     25  C   UNL A   1      30.668  27.056  24.683  1.00  0.00     0.066 A 
ATOM     26  C   UNL A   1      29.433  26.785  24.073  1.00  0.00     0.097 A 
ATOM     27  C   UNL A   1      31.460  26.505  23.639  1.00  0.00     0.012 A 
ATOM     28  N   UNL A   1      29.579  25.399  23.898  1.00  0.00    -0.360 N 
ATOM     29  C   UNL A   1      30.868  25.237  23.465  1.00  0.00     0.046 A 
ATOM     30  C   UNL A   1      32.766  26.728  23.261  1.00  0.00     0.011 A 
ATOM     31  H   UNL A   1      28.903  24.700  24.053  1.00  0.00     0.166 HD
ATOM     32  C   UNL A   1      31.536  24.104  23.109  1.00  0.00     0.027 A 
ATOM     33  C   UNL A   1      33.429  25.618  22.837  1.00  0.00     0.001 A 
ATOM     34  C   UNL A   1      32.836  24.384  22.857  1.00  0.00     0.002 A 
ENDBRANCH  22  25
ENDBRANCH  19  21
ENDBRANCH  16  19
ENDBRANCH  13  16
ENDBRANCH   6   8
ENDBRANCH   5   6
ENDBRANCH   4   5
ENDBRANCH   3   4
ENDBRANCH   2   3
ENDBRANCH   1   2
BRANCH   1  35
ATOM     35  C   UNL A   1      33.077  35.698  32.516  1.00  0.00     0.188 C 
BRANCH  35  36
ATOM     36  O   UNL A   1      34.240  34.913  32.590  1.00  0.00    -0.376 OA
BRANCH  36  37
ATOM     37  C   UNL A   1      34.308  33.820  33.487  1.00  0.00     0.202 C 
BRANCH  37  38
ATOM     38  C   UNL A   1      35.408  32.734  33.530  1.00  0.00     0.261 C 
BRANCH  38  39
ATOM     39  O   UNL A   1      36.732  33.085  33.957  1.00  0.00    -0.460 OA
BRANCH  39  40
ATOM     40  C   UNL A   1      37.533  32.055  34.343  1.00  0.00     0.338 C 
ATOM     41  O   UNL A   1      37.412  31.376  35.348  1.00  0.00    -0.246 OA
BRANCH  40  42
ATOM     42  C   UNL A   1      38.532  31.768  33.280  1.00  0.00     0.060 A 
ATOM     43  C   UNL A   1      38.382  32.342  32.014  1.00  0.00     0.016 A 
ATOM     44  C   UNL A   1      39.588  30.884  33.504  1.00  0.00     0.016 A 
ATOM     45  C   UNL A   1      39.297  32.033  30.988  1.00  0.00     0.010 A 
ATOM     46  C   UNL A   1      40.488  30.568  32.462  1.00  0.00     0.010 A 
ATOM     47  C   UNL A   1      40.361  31.132  31.182  1.00  0.00    -0.014 A 
BRANCH  47  48
ATOM     48  C   UNL A   1      41.291  30.693  30.057  1.00  0.00     0.031 A 
ATOM     49  C   UNL A   1      42.595  31.562  29.866  1.00  0.00     0.074 A 
ATOM     50  C   UNL A   1      41.020  29.518  29.397  1.00  0.00     0.049 A 
ATOM     51  N   UNL A   1      43.523  31.579  28.927  1.00  0.00    -0.248 NA
ATOM     52  C   UNL A   1      42.933  32.487  30.977  1.00  0.00     0.031 C 
ATOM     53  C   UNL A   1      40.056  28.500  29.871  1.00  0.00     0.029 A 
ATOM     54  N   UNL A   1      41.595  28.871  28.300  1.00  0.00    -0.354 N 
ATOM     55  C   UNL A   1      44.611  32.372  29.399  1.00  0.00     0.074 A 
ATOM     56  C   UNL A   1      44.109  33.005  30.616  1.00  0.00     0.031 C 
ATOM     57  C   UNL A   1      40.239  27.341  29.196  1.00  0.00     0.029 A 
ATOM     58  C   UNL A   1      41.328  27.499  28.213  1.00  0.00     0.049 A 
ATOM     59  H   UNL A   1      42.148  29.344  27.637  1.00  0.00     0.167 HD
ATOM     60  C   UNL A   1      45.964  32.327  29.075  1.00  0.00     0.031 A 
ATOM     61  C   UNL A   1      41.979  26.453  27.596  1.00  0.00     0.031 A 
ATOM     62  C   UNL A   1      46.592  31.359  28.115  1.00  0.00     0.049 A 
ATOM     63  C   UNL A   1      43.426  26.627  27.005  1.00  0.00     0.074 A 
ATOM     64  C   UNL A   1      47.640  31.512  27.213  1.00  0.00     0.029 A 
ATOM     65  N   UNL A   1      46.472  29.948  28.138  1.00  0.00    -0.354 N 
ATOM     66  N   UNL A   1      44.256  27.647  27.093  1.00  0.00    -0.248 NA
ATOM     67  C   UNL A   1      44.058  25.473  26.339  1.00  0.00     0.031 C 
ATOM     68  C   UNL A   1      47.835  30.291  26.507  1.00  0.00     0.029 A 
ATOM     69  C   UNL A   1      46.937  29.344  26.980  1.00  0.00     0.049 A 
ATOM     70  H   UNL A   1      46.097  29.447  28.897  1.00  0.00     0.167 HD
ATOM     71  C   UNL A   1      45.520  27.246  26.663  1.00  0.00     0.074 A 
ATOM     72  C   UNL A   1      45.326  25.869  26.213  1.00  0.00     0.031 C 
ATOM     73  C   UNL A   1      46.706  27.945  26.594  1.00  0.00     0.031 A 
BRANCH  60  74
ATOM     74  C   UNL A   1      46.815  33.489  29.595  1.00  0.00    -0.014 A 
ATOM     75  C   UNL A   1      47.628  33.494  30.747  1.00  0.00     0.009 A 
ATOM     76  C   UNL A   1      46.727  34.689  28.869  1.00  0.00     0.009 A 
ATOM     77  C   UNL A   1      48.295  34.668  31.156  1.00  0.00     0.001 A 
ATOM     78  C   UNL A   1      47.414  35.845  29.256  1.00  0.00     0.001 A 
ATOM     79  C   UNL A   1      48.190  35.840  30.408  1.00  0.00     0.000 A 
ENDBRANCH  60  74
BRANCH  61  80
ATOM     80  C   UNL A   1      41.407  25.033  27.680  1.00  0.00    -0.014 A 
ATOM     81  C   UNL A   1      41.990  24.001  28.450  1.00  0.00     0.009 A 
ATOM     82  C   UNL A   1      40.284  24.679  26.909  1.00  0.00     0.009 A 
ATOM     83  C   UNL A   1      41.533  22.670  28.372  1.00  0.00     0.001 A 
ATOM     84  C   UNL A   1      39.806  23.357  26.856  1.00  0.00     0.001 A 
ATOM     85  C   UNL A   1      40.448  22.346  27.564  1.00  0.00     0.000 A 
ENDBRANCH  61  80
BRANCH  73  86
ATOM     86  C   UNL A   1      47.775  27.301  25.739  1.00  0.00    -0.014 A 
ATOM     87  C   UNL A   1      47.645  27.455  24.346  1.00  0.00     0.009 A 
ATOM     88  C   UNL A   1      48.922  26.666  26.238  1.00  0.00     0.009 A 
ATOM     89  C   UNL A   1      48.603  26.959  23.467  1.00  0.00     0.001 A 
ATOM     90  C   UNL A   1      49.901  26.188  25.349  1.00  0.00     0.001 A 
ATOM     91  C   UNL A   1      49.736  26.331  23.969  1.00  0.00     0.000 A 
ENDBRANCH  73  86
ENDBRANCH  47  48
ENDBRANCH  40  42
ENDBRANCH  39  40
ENDBRANCH  38  39
ENDBRANCH  37  38
ENDBRANCH  36  37
ENDBRANCH  35  36
ENDBRANCH   1  35
TORSDOF 21
ENDMDL
