MODEL 1
REMARK VINA RESULT:     -10.2      0.000      0.000
REMARK SMILES O=C(OCCOCCOCCOC(=O)c1cc2c(c(S(=O)(=O)Nc3cc(C(F)(F)F)ccc3-n3cccn3)c1)CCC2)c1ccc(-c2c3nc(c(-c4ccccc4)c4ccc([nH]4)c(-c4ccccc4)c4nc(c(-c5ccccc5)c5ccc2[nH]5)C=C4)C=C3)cc1
REMARK SMILES IDX 8 1 7 2 6 3 5 4 4 5 3 6 2 7 1 8 43 9 44 10 90 11 45 12 89 13
REMARK SMILES IDX 46 14 47 15 48 16 83 17 49 18 88 19 82 20 84 21 50 22 87 23
REMARK SMILES IDX 81 24 80 25 51 27 73 28 58 29 72 30 59 31 62 32 71 33 85 34
REMARK SMILES IDX 60 35 61 36 70 38 86 39 63 40 52 41 53 42 57 43 54 44 56 45
REMARK SMILES IDX 55 46 74 47 75 48 79 49 76 50 78 51 77 52 64 53 65 54 69 55
REMARK SMILES IDX 66 56 68 57 67 58 9 59 10 60 11 61 12 62 13 63 14 64 15 65
REMARK SMILES IDX 16 66 39 67 17 68 19 69 18 70 42 71 40 72 41 73 20 74 21 75
REMARK SMILES IDX 22 76 23 77 24 79 25 80 33 81 26 82 32 83 31 84 34 85 35 86
REMARK SMILES IDX 38 87 36 88 37 89 27 90 28 91 29 92 30 93
REMARK H PARENT 84 26 62 37 23 78
REMARK Flexibility Score: inf
ROOT
ATOM      1  C   UNL A   1      35.563  30.959  28.956  1.00  0.00     0.188 C 
ENDROOT
BRANCH   1   2
ATOM      2  C   UNL A   1      36.674  32.018  28.819  1.00  0.00     0.188 C 
BRANCH   2   3
ATOM      3  O   UNL A   1      36.304  33.303  29.286  1.00  0.00    -0.376 OA
BRANCH   3   4
ATOM      4  C   UNL A   1      34.994  33.430  29.803  1.00  0.00     0.202 C 
BRANCH   4   5
ATOM      5  C   UNL A   1      34.901  33.183  31.309  1.00  0.00     0.261 C 
BRANCH   5   6
ATOM      6  O   UNL A   1      36.039  33.600  32.090  1.00  0.00    -0.460 OA
BRANCH   6   7
ATOM      7  C   UNL A   1      36.983  32.905  32.752  1.00  0.00     0.338 C 
ATOM      8  O   UNL A   1      37.328  33.279  33.871  1.00  0.00    -0.246 OA
BRANCH   7   9
ATOM      9  C   UNL A   1      37.746  31.787  32.139  1.00  0.00     0.060 A 
ATOM     10  C   UNL A   1      37.397  30.440  32.214  1.00  0.00     0.016 A 
ATOM     11  C   UNL A   1      38.962  32.144  31.519  1.00  0.00     0.016 A 
ATOM     12  C   UNL A   1      38.274  29.466  31.749  1.00  0.00     0.010 A 
ATOM     13  C   UNL A   1      39.849  31.173  31.071  1.00  0.00     0.010 A 
ATOM     14  C   UNL A   1      39.527  29.830  31.250  1.00  0.00    -0.014 A 
BRANCH  14  15
ATOM     15  C   UNL A   1      40.510  28.763  31.090  1.00  0.00     0.031 A 
ATOM     16  C   UNL A   1      41.366  28.407  32.250  1.00  0.00     0.074 A 
ATOM     17  C   UNL A   1      40.659  28.116  29.917  1.00  0.00     0.049 A 
ATOM     18  N   UNL A   1      42.658  28.465  32.332  1.00  0.00    -0.248 NA
ATOM     19  C   UNL A   1      40.701  27.935  33.471  1.00  0.00     0.031 C 
ATOM     20  C   UNL A   1      39.763  28.129  28.756  1.00  0.00     0.029 A 
ATOM     21  N   UNL A   1      41.629  27.227  29.556  1.00  0.00    -0.354 N 
ATOM     22  C   UNL A   1      42.993  27.910  33.564  1.00  0.00     0.074 A 
ATOM     23  C   UNL A   1      41.747  27.661  34.251  1.00  0.00     0.031 C 
ATOM     24  C   UNL A   1      40.113  27.131  27.917  1.00  0.00     0.029 A 
ATOM     25  C   UNL A   1      41.333  26.514  28.407  1.00  0.00     0.049 A 
ATOM     26  H   UNL A   1      42.462  27.104  30.065  1.00  0.00     0.167 HD
ATOM     27  C   UNL A   1      44.264  27.553  33.897  1.00  0.00     0.031 A 
ATOM     28  C   UNL A   1      42.005  25.448  27.916  1.00  0.00     0.031 A 
ATOM     29  C   UNL A   1      45.257  28.166  33.062  1.00  0.00     0.049 A 
ATOM     30  C   UNL A   1      43.369  25.453  28.485  1.00  0.00     0.074 A 
ATOM     31  C   UNL A   1      45.665  29.462  32.820  1.00  0.00     0.029 A 
ATOM     32  N   UNL A   1      45.833  27.405  32.076  1.00  0.00    -0.354 N 
ATOM     33  N   UNL A   1      44.281  26.328  28.175  1.00  0.00    -0.248 NA
ATOM     34  C   UNL A   1      43.632  24.682  29.688  1.00  0.00     0.031 C 
ATOM     35  C   UNL A   1      46.068  29.478  31.453  1.00  0.00     0.029 A 
ATOM     36  C   UNL A   1      45.892  28.187  30.950  1.00  0.00     0.049 A 
ATOM     37  H   UNL A   1      46.144  26.475  32.160  1.00  0.00     0.167 HD
ATOM     38  C   UNL A   1      45.008  26.514  29.340  1.00  0.00     0.074 A 
ATOM     39  C   UNL A   1      44.655  25.381  30.187  1.00  0.00     0.031 C 
ATOM     40  C   UNL A   1      45.610  27.709  29.614  1.00  0.00     0.031 A 
BRANCH  27  41
ATOM     41  C   UNL A   1      44.592  26.420  34.831  1.00  0.00    -0.014 A 
ATOM     42  C   UNL A   1      44.687  25.108  34.334  1.00  0.00     0.009 A 
ATOM     43  C   UNL A   1      44.568  26.570  36.231  1.00  0.00     0.009 A 
ATOM     44  C   UNL A   1      44.736  24.005  35.196  1.00  0.00     0.001 A 
ATOM     45  C   UNL A   1      44.656  25.474  37.094  1.00  0.00     0.001 A 
ATOM     46  C   UNL A   1      44.723  24.189  36.575  1.00  0.00     0.000 A 
ENDBRANCH  27  41
BRANCH  28  47
ATOM     47  C   UNL A   1      41.446  24.298  27.183  1.00  0.00    -0.014 A 
ATOM     48  C   UNL A   1      42.228  23.555  26.289  1.00  0.00     0.009 A 
ATOM     49  C   UNL A   1      40.192  23.775  27.553  1.00  0.00     0.009 A 
ATOM     50  C   UNL A   1      41.779  22.320  25.802  1.00  0.00     0.001 A 
ATOM     51  C   UNL A   1      39.742  22.547  27.064  1.00  0.00     0.001 A 
ATOM     52  C   UNL A   1      40.543  21.813  26.198  1.00  0.00     0.000 A 
ENDBRANCH  28  47
BRANCH  40  53
ATOM     53  C   UNL A   1      45.682  28.730  28.501  1.00  0.00    -0.014 A 
ATOM     54  C   UNL A   1      44.534  29.358  27.985  1.00  0.00     0.009 A 
ATOM     55  C   UNL A   1      46.936  29.175  28.060  1.00  0.00     0.009 A 
ATOM     56  C   UNL A   1      44.637  30.370  27.025  1.00  0.00     0.001 A 
ATOM     57  C   UNL A   1      47.040  30.203  27.118  1.00  0.00     0.001 A 
ATOM     58  C   UNL A   1      45.892  30.794  26.595  1.00  0.00     0.000 A 
ENDBRANCH  40  53
ENDBRANCH  14  15
ENDBRANCH   7   9
ENDBRANCH   6   7
ENDBRANCH   5   6
ENDBRANCH   4   5
ENDBRANCH   3   4
ENDBRANCH   2   3
ENDBRANCH   1   2
BRANCH   1  59
ATOM     59  O   UNL A   1      35.489  29.853  28.064  1.00  0.00    -0.376 OA
BRANCH  59  60
ATOM     60  C   UNL A   1      34.711  29.938  26.882  1.00  0.00     0.202 C 
BRANCH  60  61
ATOM     61  C   UNL A   1      33.193  30.106  27.030  1.00  0.00     0.261 C 
BRANCH  61  62
ATOM     62  O   UNL A   1      32.432  28.887  27.115  1.00  0.00    -0.460 OA
BRANCH  62  63
ATOM     63  C   UNL A   1      32.160  28.261  25.940  1.00  0.00     0.338 C 
ATOM     64  O   UNL A   1      31.645  28.734  24.945  1.00  0.00    -0.246 OA
BRANCH  63  65
ATOM     65  C   UNL A   1      32.628  26.858  26.012  1.00  0.00     0.061 A 
ATOM     66  C   UNL A   1      33.947  26.585  25.650  1.00  0.00     0.019 A 
ATOM     67  C   UNL A   1      31.771  25.835  26.490  1.00  0.00     0.038 A 
ATOM     68  C   UNL A   1      34.393  25.284  25.784  1.00  0.00    -0.043 A 
ATOM     69  C   UNL A   1      32.226  24.502  26.578  1.00  0.00     0.092 A 
ATOM     70  C   UNL A   1      33.538  24.242  26.197  1.00  0.00    -0.024 A 
ATOM     71  C   UNL A   1      35.780  24.775  25.523  1.00  0.00     0.036 C 
ATOM     72  C   UNL A   1      34.290  22.950  26.093  1.00  0.00     0.037 C 
ATOM     73  C   UNL A   1      35.724  23.450  26.287  1.00  0.00     0.010 C 
BRANCH  69  74
ATOM     74  S   UNL A   1      31.078  23.186  26.939  1.00  0.00     0.262 S 
ATOM     75  O   UNL A   1      31.731  22.288  27.871  1.00  0.00    -0.201 OA
ATOM     76  O   UNL A   1      29.810  23.781  27.312  1.00  0.00    -0.201 OA
BRANCH  74  77
ATOM     77  N   UNL A   1      30.785  22.244  25.545  1.00  0.00    -0.277 N 
ATOM     78  H   UNL A   1      30.229  21.434  25.610  1.00  0.00     0.180 HD
BRANCH  77  79
ATOM     79  C   UNL A   1      31.343  22.624  24.277  1.00  0.00     0.075 A 
ATOM     80  C   UNL A   1      31.112  23.923  23.791  1.00  0.00     0.042 A 
ATOM     81  C   UNL A   1      32.231  21.780  23.591  1.00  0.00     0.089 A 
ATOM     82  C   UNL A   1      31.803  24.405  22.658  1.00  0.00     0.058 A 
ATOM     83  C   UNL A   1      32.919  22.254  22.462  1.00  0.00     0.031 A 
ATOM     84  C   UNL A   1      32.698  23.553  21.995  1.00  0.00     0.015 A 
BRANCH  81  85
ATOM     85  N   UNL A   1      32.475  20.453  24.025  1.00  0.00    -0.239 N 
ATOM     86  C   UNL A   1      32.329  19.285  23.310  1.00  0.00     0.115 A 
ATOM     87  N   UNL A   1      32.832  20.202  25.309  1.00  0.00    -0.177 NA
ATOM     88  C   UNL A   1      32.411  18.251  24.209  1.00  0.00     0.042 A 
ATOM     89  C   UNL A   1      32.695  18.879  25.431  1.00  0.00     0.135 A 
ENDBRANCH  81  85
BRANCH  82  90
ATOM     90  C   UNL A   1      31.629  25.837  22.206  1.00  0.00     0.416 C 
ATOM     91  F   UNL A   1      31.520  25.949  20.856  1.00  0.00    -0.166 F 
ATOM     92  F   UNL A   1      30.505  26.409  22.724  1.00  0.00    -0.166 F 
ATOM     93  F   UNL A   1      32.657  26.651  22.572  1.00  0.00    -0.166 F 
ENDBRANCH  82  90
ENDBRANCH  77  79
ENDBRANCH  74  77
ENDBRANCH  69  74
ENDBRANCH  63  65
ENDBRANCH  62  63
ENDBRANCH  61  62
ENDBRANCH  60  61
ENDBRANCH  59  60
ENDBRANCH   1  59
TORSDOF 22
ENDMDL
MODEL 2
REMARK VINA RESULT:      -9.6      3.559      8.286
REMARK SMILES O=C(OCCOCCOCCOC(=O)c1cc2c(c(S(=O)(=O)Nc3cc(C(F)(F)F)ccc3-n3cccn3)c1)CCC2)c1ccc(-c2c3nc(c(-c4ccccc4)c4ccc([nH]4)c(-c4ccccc4)c4nc(c(-c5ccccc5)c5ccc2[nH]5)C=C4)C=C3)cc1
REMARK SMILES IDX 8 1 7 2 6 3 5 4 4 5 3 6 2 7 1 8 43 9 44 10 90 11 45 12 89 13
REMARK SMILES IDX 46 14 47 15 48 16 83 17 49 18 88 19 82 20 84 21 50 22 87 23
REMARK SMILES IDX 81 24 80 25 51 27 73 28 58 29 72 30 59 31 62 32 71 33 85 34
REMARK SMILES IDX 60 35 61 36 70 38 86 39 63 40 52 41 53 42 57 43 54 44 56 45
REMARK SMILES IDX 55 46 74 47 75 48 79 49 76 50 78 51 77 52 64 53 65 54 69 55
REMARK SMILES IDX 66 56 68 57 67 58 9 59 10 60 11 61 12 62 13 63 14 64 15 65
REMARK SMILES IDX 16 66 39 67 17 68 19 69 18 70 42 71 40 72 41 73 20 74 21 75
REMARK SMILES IDX 22 76 23 77 24 79 25 80 33 81 26 82 32 83 31 84 34 85 35 86
REMARK SMILES IDX 38 87 36 88 37 89 27 90 28 91 29 92 30 93
REMARK H PARENT 84 26 62 37 23 78
REMARK Flexibility Score: inf
ROOT
ATOM      1  C   UNL A   1      34.296  22.062  27.569  1.00  0.00     0.188 C 
ENDROOT
BRANCH   1   2
ATOM      2  C   UNL A   1      35.307  22.469  26.480  1.00  0.00     0.188 C 
BRANCH   2   3
ATOM      3  O   UNL A   1      36.086  21.392  25.989  1.00  0.00    -0.376 OA
BRANCH   3   4
ATOM      4  C   UNL A   1      37.112  21.725  25.075  1.00  0.00     0.202 C 
BRANCH   4   5
ATOM      5  C   UNL A   1      38.520  21.591  25.658  1.00  0.00     0.261 C 
BRANCH   5   6
ATOM      6  O   UNL A   1      38.886  22.563  26.658  1.00  0.00    -0.460 OA
BRANCH   6   7
ATOM      7  C   UNL A   1      40.066  22.869  27.228  1.00  0.00     0.338 C 
ATOM      8  O   UNL A   1      40.735  21.972  27.739  1.00  0.00    -0.246 OA
BRANCH   7   9
ATOM      9  C   UNL A   1      40.540  24.265  27.412  1.00  0.00     0.060 A 
ATOM     10  C   UNL A   1      41.335  24.710  28.467  1.00  0.00     0.016 A 
ATOM     11  C   UNL A   1      40.054  25.204  26.479  1.00  0.00     0.016 A 
ATOM     12  C   UNL A   1      41.578  26.070  28.630  1.00  0.00     0.010 A 
ATOM     13  C   UNL A   1      40.278  26.565  26.650  1.00  0.00     0.010 A 
ATOM     14  C   UNL A   1      40.987  26.997  27.768  1.00  0.00    -0.014 A 
BRANCH  14  15
ATOM     15  C   UNL A   1      41.012  28.395  28.184  1.00  0.00     0.031 A 
ATOM     16  C   UNL A   1      42.226  29.201  27.894  1.00  0.00     0.074 A 
ATOM     17  C   UNL A   1      39.971  28.955  28.832  1.00  0.00     0.049 A 
ATOM     18  N   UNL A   1      43.011  29.788  28.740  1.00  0.00    -0.248 NA
ATOM     19  C   UNL A   1      42.617  29.365  26.488  1.00  0.00     0.031 C 
ATOM     20  C   UNL A   1      38.610  28.428  28.981  1.00  0.00     0.029 A 
ATOM     21  N   UNL A   1      39.902  30.179  29.430  1.00  0.00    -0.354 N 
ATOM     22  C   UNL A   1      43.924  30.515  27.981  1.00  0.00     0.074 A 
ATOM     23  C   UNL A   1      43.677  30.167  26.601  1.00  0.00     0.031 C 
ATOM     24  C   UNL A   1      37.803  29.413  29.431  1.00  0.00     0.029 A 
ATOM     25  C   UNL A   1      38.612  30.579  29.736  1.00  0.00     0.049 A 
ATOM     26  H   UNL A   1      40.695  30.727  29.626  1.00  0.00     0.167 HD
ATOM     27  C   UNL A   1      44.737  31.470  28.511  1.00  0.00     0.031 A 
ATOM     28  C   UNL A   1      38.220  31.802  30.157  1.00  0.00     0.031 A 
ATOM     29  C   UNL A   1      44.868  31.369  29.937  1.00  0.00     0.049 A 
ATOM     30  C   UNL A   1      39.393  32.503  30.719  1.00  0.00     0.074 A 
ATOM     31  C   UNL A   1      45.378  30.427  30.807  1.00  0.00     0.029 A 
ATOM     32  N   UNL A   1      44.159  32.248  30.716  1.00  0.00    -0.354 N 
ATOM     33  N   UNL A   1      39.972  32.169  31.835  1.00  0.00    -0.248 NA
ATOM     34  C   UNL A   1      40.167  33.381  29.857  1.00  0.00     0.031 C 
ATOM     35  C   UNL A   1      44.568  30.520  31.976  1.00  0.00     0.029 A 
ATOM     36  C   UNL A   1      43.623  31.523  31.750  1.00  0.00     0.049 A 
ATOM     37  H   UNL A   1      44.054  33.215  30.562  1.00  0.00     0.167 HD
ATOM     38  C   UNL A   1      41.316  32.439  31.635  1.00  0.00     0.074 A 
ATOM     39  C   UNL A   1      41.354  33.307  30.463  1.00  0.00     0.031 C 
ATOM     40  C   UNL A   1      42.285  31.713  32.268  1.00  0.00     0.031 A 
BRANCH  27  41
ATOM     41  C   UNL A   1      45.212  32.677  27.748  1.00  0.00    -0.014 A 
ATOM     42  C   UNL A   1      44.282  33.638  27.311  1.00  0.00     0.009 A 
ATOM     43  C   UNL A   1      46.518  32.772  27.230  1.00  0.00     0.009 A 
ATOM     44  C   UNL A   1      44.641  34.631  26.390  1.00  0.00     0.001 A 
ATOM     45  C   UNL A   1      46.888  33.785  26.341  1.00  0.00     0.001 A 
ATOM     46  C   UNL A   1      45.944  34.705  25.907  1.00  0.00     0.000 A 
ENDBRANCH  27  41
BRANCH  28  47
ATOM     47  C   UNL A   1      36.943  32.481  29.867  1.00  0.00    -0.014 A 
ATOM     48  C   UNL A   1      36.718  33.115  28.639  1.00  0.00     0.009 A 
ATOM     49  C   UNL A   1      35.841  32.292  30.724  1.00  0.00     0.009 A 
ATOM     50  C   UNL A   1      35.429  33.522  28.270  1.00  0.00     0.001 A 
ATOM     51  C   UNL A   1      34.557  32.704  30.359  1.00  0.00     0.001 A 
ATOM     52  C   UNL A   1      34.350  33.307  29.125  1.00  0.00     0.000 A 
ENDBRANCH  28  47
BRANCH  40  53
ATOM     53  C   UNL A   1      41.853  30.788  33.382  1.00  0.00    -0.014 A 
ATOM     54  C   UNL A   1      41.294  29.522  33.131  1.00  0.00     0.009 A 
ATOM     55  C   UNL A   1      42.143  31.133  34.710  1.00  0.00     0.009 A 
ATOM     56  C   UNL A   1      40.994  28.647  34.180  1.00  0.00     0.001 A 
ATOM     57  C   UNL A   1      41.865  30.249  35.756  1.00  0.00     0.001 A 
ATOM     58  C   UNL A   1      41.284  29.010  35.493  1.00  0.00     0.000 A 
ENDBRANCH  40  53
ENDBRANCH  14  15
ENDBRANCH   7   9
ENDBRANCH   6   7
ENDBRANCH   5   6
ENDBRANCH   4   5
ENDBRANCH   3   4
ENDBRANCH   2   3
ENDBRANCH   1   2
BRANCH   1  59
ATOM     59  O   UNL A   1      32.983  21.631  27.228  1.00  0.00    -0.376 OA
BRANCH  59  60
ATOM     60  C   UNL A   1      32.469  21.864  25.928  1.00  0.00     0.202 C 
BRANCH  60  61
ATOM     61  C   UNL A   1      31.000  22.288  25.801  1.00  0.00     0.261 C 
BRANCH  61  62
ATOM     62  O   UNL A   1      30.763  23.532  25.117  1.00  0.00    -0.460 OA
BRANCH  62  63
ATOM     63  C   UNL A   1      30.634  24.637  25.897  1.00  0.00     0.338 C 
ATOM     64  O   UNL A   1      30.969  24.773  27.059  1.00  0.00    -0.246 OA
BRANCH  63  65
ATOM     65  C   UNL A   1      30.033  25.731  25.102  1.00  0.00     0.061 A 
ATOM     66  C   UNL A   1      28.659  25.694  24.866  1.00  0.00     0.019 A 
ATOM     67  C   UNL A   1      30.828  26.811  24.643  1.00  0.00     0.038 A 
ATOM     68  C   UNL A   1      28.097  26.753  24.180  1.00  0.00    -0.043 A 
ATOM     69  C   UNL A   1      30.248  27.864  23.903  1.00  0.00     0.092 A 
ATOM     70  C   UNL A   1      28.880  27.805  23.661  1.00  0.00    -0.024 A 
ATOM     71  C   UNL A   1      26.643  26.961  23.874  1.00  0.00     0.036 C 
ATOM     72  C   UNL A   1      27.988  28.700  22.855  1.00  0.00     0.037 C 
ATOM     73  C   UNL A   1      26.649  28.457  23.556  1.00  0.00     0.010 C 
BRANCH  69  74
ATOM     74  S   UNL A   1      31.285  29.084  23.119  1.00  0.00     0.262 S 
ATOM     75  O   UNL A   1      31.069  28.980  21.690  1.00  0.00    -0.201 OA
ATOM     76  O   UNL A   1      31.057  30.359  23.772  1.00  0.00    -0.201 OA
BRANCH  74  77
ATOM     77  N   UNL A   1      32.936  28.707  23.349  1.00  0.00    -0.277 N 
ATOM     78  H   UNL A   1      33.628  29.350  23.068  1.00  0.00     0.180 HD
BRANCH  77  79
ATOM     79  C   UNL A   1      33.323  27.460  23.946  1.00  0.00     0.075 A 
ATOM     80  C   UNL A   1      33.289  26.290  23.167  1.00  0.00     0.042 A 
ATOM     81  C   UNL A   1      33.872  27.411  25.237  1.00  0.00     0.089 A 
ATOM     82  C   UNL A   1      33.850  25.086  23.644  1.00  0.00     0.058 A 
ATOM     83  C   UNL A   1      34.430  26.215  25.718  1.00  0.00     0.031 A 
ATOM     84  C   UNL A   1      34.409  25.061  24.930  1.00  0.00     0.015 A 
BRANCH  81  85
ATOM     85  N   UNL A   1      33.903  28.556  26.072  1.00  0.00    -0.239 N 
ATOM     86  C   UNL A   1      34.946  29.015  26.845  1.00  0.00     0.115 A 
ATOM     87  N   UNL A   1      32.791  29.313  26.246  1.00  0.00    -0.177 NA
ATOM     88  C   UNL A   1      34.433  29.978  27.679  1.00  0.00     0.042 A 
ATOM     89  C   UNL A   1      33.094  30.101  27.281  1.00  0.00     0.135 A 
ENDBRANCH  81  85
BRANCH  82  90
ATOM     90  C   UNL A   1      33.905  23.862  22.758  1.00  0.00     0.416 C 
ATOM     91  F   UNL A   1      33.318  22.777  23.329  1.00  0.00    -0.166 F 
ATOM     92  F   UNL A   1      33.265  24.055  21.570  1.00  0.00    -0.166 F 
ATOM     93  F   UNL A   1      35.172  23.481  22.436  1.00  0.00    -0.166 F 
ENDBRANCH  82  90
ENDBRANCH  77  79
ENDBRANCH  74  77
ENDBRANCH  69  74
ENDBRANCH  63  65
ENDBRANCH  62  63
ENDBRANCH  61  62
ENDBRANCH  60  61
ENDBRANCH  59  60
ENDBRANCH   1  59
TORSDOF 22
ENDMDL
MODEL 3
REMARK VINA RESULT:      -9.5      7.445     13.027
REMARK SMILES O=C(OCCOCCOCCOC(=O)c1cc2c(c(S(=O)(=O)Nc3cc(C(F)(F)F)ccc3-n3cccn3)c1)CCC2)c1ccc(-c2c3nc(c(-c4ccccc4)c4ccc([nH]4)c(-c4ccccc4)c4nc(c(-c5ccccc5)c5ccc2[nH]5)C=C4)C=C3)cc1
REMARK SMILES IDX 8 1 7 2 6 3 5 4 4 5 3 6 2 7 1 8 43 9 44 10 90 11 45 12 89 13
REMARK SMILES IDX 46 14 47 15 48 16 83 17 49 18 88 19 82 20 84 21 50 22 87 23
REMARK SMILES IDX 81 24 80 25 51 27 73 28 58 29 72 30 59 31 62 32 71 33 85 34
REMARK SMILES IDX 60 35 61 36 70 38 86 39 63 40 52 41 53 42 57 43 54 44 56 45
REMARK SMILES IDX 55 46 74 47 75 48 79 49 76 50 78 51 77 52 64 53 65 54 69 55
REMARK SMILES IDX 66 56 68 57 67 58 9 59 10 60 11 61 12 62 13 63 14 64 15 65
REMARK SMILES IDX 16 66 39 67 17 68 19 69 18 70 42 71 40 72 41 73 20 74 21 75
REMARK SMILES IDX 22 76 23 77 24 79 25 80 33 81 26 82 32 83 31 84 34 85 35 86
REMARK SMILES IDX 38 87 36 88 37 89 27 90 28 91 29 92 30 93
REMARK H PARENT 84 26 62 37 23 78
REMARK Flexibility Score: inf
ROOT
ATOM      1  C   UNL A   1      46.305  25.592  26.553  1.00  0.00     0.188 C 
ENDROOT
BRANCH   1   2
ATOM      2  C   UNL A   1      46.235  24.201  27.212  1.00  0.00     0.188 C 
BRANCH   2   3
ATOM      3  O   UNL A   1      45.304  23.323  26.605  1.00  0.00    -0.376 OA
BRANCH   3   4
ATOM      4  C   UNL A   1      44.885  23.659  25.297  1.00  0.00     0.202 C 
BRANCH   4   5
ATOM      5  C   UNL A   1      43.976  22.610  24.656  1.00  0.00     0.261 C 
BRANCH   5   6
ATOM      6  O   UNL A   1      42.570  22.724  24.953  1.00  0.00    -0.460 OA
BRANCH   6   7
ATOM      7  C   UNL A   1      41.888  22.698  26.113  1.00  0.00     0.338 C 
ATOM      8  O   UNL A   1      41.487  21.620  26.548  1.00  0.00    -0.246 OA
BRANCH   7   9
ATOM      9  C   UNL A   1      41.455  23.927  26.827  1.00  0.00     0.060 A 
ATOM     10  C   UNL A   1      40.578  24.883  26.320  1.00  0.00     0.016 A 
ATOM     11  C   UNL A   1      42.071  24.158  28.075  1.00  0.00     0.016 A 
ATOM     12  C   UNL A   1      40.376  26.077  27.005  1.00  0.00     0.010 A 
ATOM     13  C   UNL A   1      41.888  25.358  28.752  1.00  0.00     0.010 A 
ATOM     14  C   UNL A   1      41.089  26.342  28.177  1.00  0.00    -0.014 A 
BRANCH  14  15
ATOM     15  C   UNL A   1      41.079  27.720  28.658  1.00  0.00     0.031 A 
ATOM     16  C   UNL A   1      42.203  28.613  28.274  1.00  0.00     0.074 A 
ATOM     17  C   UNL A   1      40.088  28.183  29.446  1.00  0.00     0.049 A 
ATOM     18  N   UNL A   1      43.044  29.212  29.056  1.00  0.00    -0.248 NA
ATOM     19  C   UNL A   1      42.419  28.863  26.844  1.00  0.00     0.031 C 
ATOM     20  C   UNL A   1      38.787  27.564  29.719  1.00  0.00     0.029 A 
ATOM     21  N   UNL A   1      40.017  29.373  30.109  1.00  0.00    -0.354 N 
ATOM     22  C   UNL A   1      43.819  30.029  28.237  1.00  0.00     0.074 A 
ATOM     23  C   UNL A   1      43.435  29.726  26.878  1.00  0.00     0.031 C 
ATOM     24  C   UNL A   1      37.981  28.474  30.306  1.00  0.00     0.029 A 
ATOM     25  C   UNL A   1      38.750  29.676  30.577  1.00  0.00     0.049 A 
ATOM     26  H   UNL A   1      40.794  29.962  30.242  1.00  0.00     0.167 HD
ATOM     27  C   UNL A   1      44.630  31.010  28.720  1.00  0.00     0.031 A 
ATOM     28  C   UNL A   1      38.337  30.852  31.100  1.00  0.00     0.031 A 
ATOM     29  C   UNL A   1      44.930  30.856  30.115  1.00  0.00     0.049 A 
ATOM     30  C   UNL A   1      39.524  31.602  31.561  1.00  0.00     0.074 A 
ATOM     31  C   UNL A   1      45.590  29.911  30.874  1.00  0.00     0.029 A 
ATOM     32  N   UNL A   1      44.264  31.653  31.012  1.00  0.00    -0.354 N 
ATOM     33  N   UNL A   1      40.245  31.257  32.588  1.00  0.00    -0.248 NA
ATOM     34  C   UNL A   1      40.140  32.564  30.664  1.00  0.00     0.031 C 
ATOM     35  C   UNL A   1      44.917  29.902  32.130  1.00  0.00     0.029 A 
ATOM     36  C   UNL A   1      43.895  30.852  32.062  1.00  0.00     0.049 A 
ATOM     37  H   UNL A   1      44.086  32.617  30.919  1.00  0.00     0.167 HD
ATOM     38  C   UNL A   1      41.540  31.622  32.252  1.00  0.00     0.074 A 
ATOM     39  C   UNL A   1      41.391  32.540  31.129  1.00  0.00     0.031 C 
ATOM     40  C   UNL A   1      42.616  30.933  32.735  1.00  0.00     0.031 A 
BRANCH  27  41
ATOM     41  C   UNL A   1      44.942  32.277  27.970  1.00  0.00    -0.014 A 
ATOM     42  C   UNL A   1      43.924  33.218  27.733  1.00  0.00     0.009 A 
ATOM     43  C   UNL A   1      46.152  32.458  27.273  1.00  0.00     0.009 A 
ATOM     44  C   UNL A   1      44.106  34.275  26.831  1.00  0.00     0.001 A 
ATOM     45  C   UNL A   1      46.349  33.533  26.402  1.00  0.00     0.001 A 
ATOM     46  C   UNL A   1      45.319  34.433  26.168  1.00  0.00     0.000 A 
ENDBRANCH  27  41
BRANCH  28  47
ATOM     47  C   UNL A   1      36.998  31.459  30.990  1.00  0.00    -0.014 A 
ATOM     48  C   UNL A   1      36.201  31.675  32.122  1.00  0.00     0.009 A 
ATOM     49  C   UNL A   1      36.599  32.057  29.779  1.00  0.00     0.009 A 
ATOM     50  C   UNL A   1      35.059  32.483  32.048  1.00  0.00     0.001 A 
ATOM     51  C   UNL A   1      35.457  32.857  29.704  1.00  0.00     0.001 A 
ATOM     52  C   UNL A   1      34.694  33.081  30.843  1.00  0.00     0.000 A 
ENDBRANCH  28  47
BRANCH  40  53
ATOM     53  C   UNL A   1      42.370  29.934  33.843  1.00  0.00    -0.014 A 
ATOM     54  C   UNL A   1      42.000  28.602  33.584  1.00  0.00     0.009 A 
ATOM     55  C   UNL A   1      42.653  30.298  35.167  1.00  0.00     0.009 A 
ATOM     56  C   UNL A   1      41.875  27.674  34.622  1.00  0.00     0.001 A 
ATOM     57  C   UNL A   1      42.550  29.364  36.202  1.00  0.00     0.001 A 
ATOM     58  C   UNL A   1      42.154  28.056  35.932  1.00  0.00     0.000 A 
ENDBRANCH  40  53
ENDBRANCH  14  15
ENDBRANCH   7   9
ENDBRANCH   6   7
ENDBRANCH   5   6
ENDBRANCH   4   5
ENDBRANCH   3   4
ENDBRANCH   2   3
ENDBRANCH   1   2
BRANCH   1  59
ATOM     59  O   UNL A   1      47.543  26.131  26.105  1.00  0.00    -0.376 OA
BRANCH  59  60
ATOM     60  C   UNL A   1      48.147  27.209  26.799  1.00  0.00     0.202 C 
BRANCH  60  61
ATOM     61  C   UNL A   1      49.289  26.888  27.772  1.00  0.00     0.261 C 
BRANCH  61  62
ATOM     62  O   UNL A   1      49.131  25.688  28.552  1.00  0.00    -0.460 OA
BRANCH  62  63
ATOM     63  C   UNL A   1      49.638  25.715  29.812  1.00  0.00     0.338 C 
ATOM     64  O   UNL A   1      50.806  25.680  30.147  1.00  0.00    -0.246 OA
BRANCH  63  65
ATOM     65  C   UNL A   1      48.527  25.835  30.784  1.00  0.00     0.061 A 
ATOM     66  C   UNL A   1      47.248  26.097  30.292  1.00  0.00     0.019 A 
ATOM     67  C   UNL A   1      48.754  25.633  32.168  1.00  0.00     0.038 A 
ATOM     68  C   UNL A   1      46.208  26.141  31.201  1.00  0.00    -0.043 A 
ATOM     69  C   UNL A   1      47.690  25.728  33.090  1.00  0.00     0.092 A 
ATOM     70  C   UNL A   1      46.423  26.006  32.587  1.00  0.00    -0.024 A 
ATOM     71  C   UNL A   1      44.752  26.337  30.896  1.00  0.00     0.036 C 
ATOM     72  C   UNL A   1      45.122  26.249  33.290  1.00  0.00     0.037 C 
ATOM     73  C   UNL A   1      44.137  25.821  32.199  1.00  0.00     0.010 C 
BRANCH  69  74
ATOM     74  S   UNL A   1      48.020  25.721  34.843  1.00  0.00     0.262 S 
ATOM     75  O   UNL A   1      49.370  25.225  35.025  1.00  0.00    -0.201 OA
ATOM     76  O   UNL A   1      47.676  27.026  35.373  1.00  0.00    -0.201 OA
BRANCH  74  77
ATOM     77  N   UNL A   1      47.018  24.590  35.639  1.00  0.00    -0.277 N 
ATOM     78  H   UNL A   1      46.537  24.854  36.457  1.00  0.00     0.180 HD
BRANCH  77  79
ATOM     79  C   UNL A   1      46.873  23.256  35.127  1.00  0.00     0.075 A 
ATOM     80  C   UNL A   1      48.018  22.560  34.700  1.00  0.00     0.042 A 
ATOM     81  C   UNL A   1      45.641  22.585  35.183  1.00  0.00     0.089 A 
ATOM     82  C   UNL A   1      47.954  21.186  34.383  1.00  0.00     0.058 A 
ATOM     83  C   UNL A   1      45.571  21.218  34.867  1.00  0.00     0.031 A 
ATOM     84  C   UNL A   1      46.718  20.529  34.461  1.00  0.00     0.015 A 
BRANCH  81  85
ATOM     85  N   UNL A   1      44.454  23.250  35.580  1.00  0.00    -0.239 N 
ATOM     86  C   UNL A   1      43.252  23.314  34.911  1.00  0.00     0.115 A 
ATOM     87  N   UNL A   1      44.428  23.999  36.711  1.00  0.00    -0.177 NA
ATOM     88  C   UNL A   1      42.499  24.280  35.530  1.00  0.00     0.042 A 
ATOM     89  C   UNL A   1      43.286  24.686  36.617  1.00  0.00     0.135 A 
ENDBRANCH  81  85
BRANCH  82  90
ATOM     90  C   UNL A   1      49.209  20.422  34.028  1.00  0.00     0.416 C 
ATOM     91  F   UNL A   1      48.992  19.472  33.080  1.00  0.00    -0.166 F 
ATOM     92  F   UNL A   1      50.185  21.234  33.531  1.00  0.00    -0.166 F 
ATOM     93  F   UNL A   1      49.771  19.778  35.088  1.00  0.00    -0.166 F 
ENDBRANCH  82  90
ENDBRANCH  77  79
ENDBRANCH  74  77
ENDBRANCH  69  74
ENDBRANCH  63  65
ENDBRANCH  62  63
ENDBRANCH  61  62
ENDBRANCH  60  61
ENDBRANCH  59  60
ENDBRANCH   1  59
TORSDOF 22
ENDMDL
