MODEL 1
REMARK VINA RESULT:      -8.4      0.000      0.000
REMARK SMILES C[C@H](O)[C@H](C)C(C)(C)C(=O)OCCOCCOCCOC(=O)c1ccc(-c2c3nc(c(-c4ccccc4)c4ccc([nH]4)c(-c4ccccc4)c4nc(c(-c5ccccc5)c5ccc2[nH]5)C=C4)C=C3)cc1
REMARK SMILES IDX 15 1 14 2 13 3 12 4 11 5 9 6 10 7 6 8 7 9 8 10 4 11 5 12
REMARK SMILES IDX 2 13 1 14 3 15 16 17 17 18 18 19 19 20 20 21 21 22 22 23
REMARK SMILES IDX 23 24 24 25 70 26 25 27 69 28 26 29 27 30 28 31 63 32 29 33
REMARK SMILES IDX 68 34 62 35 64 36 30 37 67 38 61 39 60 40 31 42 53 43 38 44
REMARK SMILES IDX 52 45 39 46 42 47 51 48 65 49 40 50 41 51 50 53 66 54 43 55
REMARK SMILES IDX 32 56 33 57 37 58 34 59 36 60 35 61 54 62 55 63 59 64 56 65
REMARK SMILES IDX 58 66 57 67 44 68 45 69 49 70 46 71 48 72 47 73
REMARK H PARENT 3 16 64 41 42 52
REMARK Flexibility Score: inf
ROOT
ATOM      1  C   UNL A   1      32.941  29.087  24.751  1.00  0.00     0.188 C 
ENDROOT
BRANCH   1   2
ATOM      2  O   UNL A   1      33.617  28.203  25.625  1.00  0.00    -0.376 OA
BRANCH   2   3
ATOM      3  C   UNL A   1      32.864  27.187  26.267  1.00  0.00     0.202 C 
BRANCH   3   4
ATOM      4  C   UNL A   1      32.781  25.803  25.606  1.00  0.00     0.261 C 
BRANCH   4   5
ATOM      5  O   UNL A   1      33.583  24.764  26.216  1.00  0.00    -0.463 OA
BRANCH   5   6
ATOM      6  C   UNL A   1      32.950  23.584  26.474  1.00  0.00     0.311 C 
ATOM      7  O   UNL A   1      32.014  23.490  27.256  1.00  0.00    -0.252 OA
BRANCH   6   8
ATOM      8  C   UNL A   1      33.592  22.362  25.767  1.00  0.00     0.067 C 
ATOM      9  C   UNL A   1      32.633  22.042  24.588  1.00  0.00     0.024 C 
ATOM     10  C   UNL A   1      33.599  21.061  26.603  1.00  0.00     0.024 C 
BRANCH   8  11
ATOM     11  C   UNL A   1      35.043  22.700  25.187  1.00  0.00     0.031 C 
ATOM     12  C   UNL A   1      36.168  21.806  25.762  1.00  0.00     0.011 C 
BRANCH  11  13
ATOM     13  C   UNL A   1      35.276  22.907  23.646  1.00  0.00     0.115 C 
ATOM     14  C   UNL A   1      36.663  22.742  23.083  1.00  0.00     0.038 C 
BRANCH  13  15
ATOM     15  O   UNL A   1      34.819  24.187  23.199  1.00  0.00    -0.393 OA
ATOM     16  H   UNL A   1      35.512  24.849  23.348  1.00  0.00     0.210 HD
ENDBRANCH  13  15
ENDBRANCH  11  13
ENDBRANCH   8  11
ENDBRANCH   6   8
ENDBRANCH   5   6
ENDBRANCH   4   5
ENDBRANCH   3   4
ENDBRANCH   2   3
ENDBRANCH   1   2
BRANCH   1  17
ATOM     17  C   UNL A   1      31.492  29.520  25.066  1.00  0.00     0.188 C 
BRANCH  17  18
ATOM     18  O   UNL A   1      31.212  30.832  25.520  1.00  0.00    -0.376 OA
BRANCH  18  19
ATOM     19  C   UNL A   1      31.968  31.338  26.603  1.00  0.00     0.202 C 
BRANCH  19  20
ATOM     20  C   UNL A   1      31.668  32.769  27.055  1.00  0.00     0.261 C 
BRANCH  20  21
ATOM     21  O   UNL A   1      32.800  33.657  27.022  1.00  0.00    -0.460 OA
BRANCH  21  22
ATOM     22  C   UNL A   1      33.269  34.044  28.241  1.00  0.00     0.338 C 
ATOM     23  O   UNL A   1      32.726  34.797  29.022  1.00  0.00    -0.246 OA
BRANCH  22  24
ATOM     24  C   UNL A   1      34.517  33.312  28.577  1.00  0.00     0.060 A 
ATOM     25  C   UNL A   1      34.388  32.038  29.143  1.00  0.00     0.016 A 
ATOM     26  C   UNL A   1      35.789  33.866  28.401  1.00  0.00     0.016 A 
ATOM     27  C   UNL A   1      35.521  31.312  29.521  1.00  0.00     0.010 A 
ATOM     28  C   UNL A   1      36.926  33.150  28.811  1.00  0.00     0.010 A 
ATOM     29  C   UNL A   1      36.798  31.871  29.381  1.00  0.00    -0.014 A 
BRANCH  29  30
ATOM     30  C   UNL A   1      37.957  31.186  30.009  1.00  0.00     0.031 A 
ATOM     31  C   UNL A   1      38.253  31.469  31.456  1.00  0.00     0.074 A 
ATOM     32  C   UNL A   1      38.706  30.286  29.344  1.00  0.00     0.049 A 
ATOM     33  N   UNL A   1      39.161  30.944  32.240  1.00  0.00    -0.248 NA
ATOM     34  C   UNL A   1      37.396  32.471  32.110  1.00  0.00     0.031 C 
ATOM     35  C   UNL A   1      38.492  29.860  27.964  1.00  0.00     0.029 A 
ATOM     36  N   UNL A   1      39.794  29.555  29.758  1.00  0.00    -0.354 N 
ATOM     37  C   UNL A   1      38.970  31.533  33.482  1.00  0.00     0.074 A 
ATOM     38  C   UNL A   1      37.880  32.477  33.342  1.00  0.00     0.031 C 
ATOM     39  C   UNL A   1      39.420  28.939  27.644  1.00  0.00     0.029 A 
ATOM     40  C   UNL A   1      40.308  28.728  28.786  1.00  0.00     0.049 A 
ATOM     41  H   UNL A   1      40.171  29.618  30.665  1.00  0.00     0.167 HD
ATOM     42  C   UNL A   1      39.636  31.313  34.641  1.00  0.00     0.031 A 
ATOM     43  C   UNL A   1      41.374  27.904  28.815  1.00  0.00     0.031 A 
ATOM     44  C   UNL A   1      40.763  30.431  34.777  1.00  0.00     0.049 A 
ATOM     45  C   UNL A   1      42.181  27.773  30.085  1.00  0.00     0.074 A 
ATOM     46  C   UNL A   1      41.525  30.173  35.904  1.00  0.00     0.029 A 
ATOM     47  N   UNL A   1      41.307  29.679  33.747  1.00  0.00    -0.354 N 
ATOM     48  N   UNL A   1      41.976  28.318  31.260  1.00  0.00    -0.248 NA
ATOM     49  C   UNL A   1      43.365  26.901  30.031  1.00  0.00     0.031 C 
ATOM     50  C   UNL A   1      42.569  29.317  35.539  1.00  0.00     0.029 A 
ATOM     51  C   UNL A   1      42.413  28.982  34.204  1.00  0.00     0.049 A 
ATOM     52  H   UNL A   1      40.956  29.646  32.827  1.00  0.00     0.167 HD
ATOM     53  C   UNL A   1      42.979  27.827  32.089  1.00  0.00     0.074 A 
ATOM     54  C   UNL A   1      43.782  26.927  31.288  1.00  0.00     0.031 C 
ATOM     55  C   UNL A   1      43.212  28.093  33.398  1.00  0.00     0.031 A 
BRANCH  42  56
ATOM     56  C   UNL A   1      39.189  32.102  35.840  1.00  0.00    -0.014 A 
ATOM     57  C   UNL A   1      39.772  33.340  36.158  1.00  0.00     0.009 A 
ATOM     58  C   UNL A   1      38.174  31.596  36.666  1.00  0.00     0.009 A 
ATOM     59  C   UNL A   1      39.373  34.035  37.301  1.00  0.00     0.001 A 
ATOM     60  C   UNL A   1      37.756  32.308  37.791  1.00  0.00     0.001 A 
ATOM     61  C   UNL A   1      38.364  33.520  38.114  1.00  0.00     0.000 A 
ENDBRANCH  42  56
BRANCH  43  62
ATOM     62  C   UNL A   1      41.777  27.142  27.599  1.00  0.00    -0.014 A 
ATOM     63  C   UNL A   1      42.613  27.719  26.628  1.00  0.00     0.009 A 
ATOM     64  C   UNL A   1      41.275  25.851  27.372  1.00  0.00     0.009 A 
ATOM     65  C   UNL A   1      42.906  27.035  25.445  1.00  0.00     0.001 A 
ATOM     66  C   UNL A   1      41.597  25.155  26.204  1.00  0.00     0.001 A 
ATOM     67  C   UNL A   1      42.401  25.752  25.236  1.00  0.00     0.000 A 
ENDBRANCH  43  62
BRANCH  55  68
ATOM     68  C   UNL A   1      44.357  27.372  34.062  1.00  0.00    -0.014 A 
ATOM     69  C   UNL A   1      45.644  27.930  34.124  1.00  0.00     0.009 A 
ATOM     70  C   UNL A   1      44.134  26.122  34.662  1.00  0.00     0.009 A 
ATOM     71  C   UNL A   1      46.691  27.230  34.730  1.00  0.00     0.001 A 
ATOM     72  C   UNL A   1      45.173  25.441  35.298  1.00  0.00     0.001 A 
ATOM     73  C   UNL A   1      46.453  25.989  35.320  1.00  0.00     0.000 A 
ENDBRANCH  55  68
ENDBRANCH  29  30
ENDBRANCH  22  24
ENDBRANCH  21  22
ENDBRANCH  20  21
ENDBRANCH  19  20
ENDBRANCH  18  19
ENDBRANCH  17  18
ENDBRANCH   1  17
TORSDOF 20
ENDMDL
MODEL 2
REMARK VINA RESULT:      -8.1      1.571      6.127
REMARK SMILES C[C@H](O)[C@H](C)C(C)(C)C(=O)OCCOCCOCCOC(=O)c1ccc(-c2c3nc(c(-c4ccccc4)c4ccc([nH]4)c(-c4ccccc4)c4nc(c(-c5ccccc5)c5ccc2[nH]5)C=C4)C=C3)cc1
REMARK SMILES IDX 15 1 14 2 13 3 12 4 11 5 9 6 10 7 6 8 7 9 8 10 4 11 5 12
REMARK SMILES IDX 2 13 1 14 3 15 16 17 17 18 18 19 19 20 20 21 21 22 22 23
REMARK SMILES IDX 23 24 24 25 70 26 25 27 69 28 26 29 27 30 28 31 63 32 29 33
REMARK SMILES IDX 68 34 62 35 64 36 30 37 67 38 61 39 60 40 31 42 53 43 38 44
REMARK SMILES IDX 52 45 39 46 42 47 51 48 65 49 40 50 41 51 50 53 66 54 43 55
REMARK SMILES IDX 32 56 33 57 37 58 34 59 36 60 35 61 54 62 55 63 59 64 56 65
REMARK SMILES IDX 58 66 57 67 44 68 45 69 49 70 46 71 48 72 47 73
REMARK H PARENT 3 16 64 41 42 52
REMARK Flexibility Score: inf
ROOT
ATOM      1  C   UNL A   1      33.209  28.974  24.977  1.00  0.00     0.188 C 
ENDROOT
BRANCH   1   2
ATOM      2  O   UNL A   1      34.008  28.082  25.731  1.00  0.00    -0.376 OA
BRANCH   2   3
ATOM      3  C   UNL A   1      33.491  26.792  26.013  1.00  0.00     0.202 C 
BRANCH   3   4
ATOM      4  C   UNL A   1      34.175  25.569  25.384  1.00  0.00     0.261 C 
BRANCH   4   5
ATOM      5  O   UNL A   1      33.447  24.323  25.476  1.00  0.00    -0.463 OA
BRANCH   5   6
ATOM      6  C   UNL A   1      32.714  23.967  24.383  1.00  0.00     0.311 C 
ATOM      7  O   UNL A   1      31.697  24.559  24.044  1.00  0.00    -0.252 OA
BRANCH   6   8
ATOM      8  C   UNL A   1      33.228  22.687  23.674  1.00  0.00     0.067 C 
ATOM      9  C   UNL A   1      34.027  23.211  22.450  1.00  0.00     0.024 C 
ATOM     10  C   UNL A   1      32.121  21.808  23.046  1.00  0.00     0.024 C 
BRANCH   8  11
ATOM     11  C   UNL A   1      34.200  21.833  24.611  1.00  0.00     0.031 C 
ATOM     12  C   UNL A   1      33.737  20.372  24.823  1.00  0.00     0.011 C 
BRANCH  11  13
ATOM     13  C   UNL A   1      35.759  21.863  24.408  1.00  0.00     0.115 C 
ATOM     14  C   UNL A   1      36.595  20.738  24.960  1.00  0.00     0.038 C 
BRANCH  13  15
ATOM     15  O   UNL A   1      36.345  23.070  24.907  1.00  0.00    -0.393 OA
ATOM     16  H   UNL A   1      36.740  23.566  24.174  1.00  0.00     0.210 HD
ENDBRANCH  13  15
ENDBRANCH  11  13
ENDBRANCH   8  11
ENDBRANCH   6   8
ENDBRANCH   5   6
ENDBRANCH   4   5
ENDBRANCH   3   4
ENDBRANCH   2   3
ENDBRANCH   1   2
BRANCH   1  17
ATOM     17  C   UNL A   1      31.801  29.359  25.486  1.00  0.00     0.188 C 
BRANCH  17  18
ATOM     18  O   UNL A   1      31.478  30.711  25.763  1.00  0.00    -0.376 OA
BRANCH  18  19
ATOM     19  C   UNL A   1      32.249  31.396  26.730  1.00  0.00     0.202 C 
BRANCH  19  20
ATOM     20  C   UNL A   1      31.696  32.725  27.250  1.00  0.00     0.261 C 
BRANCH  20  21
ATOM     21  O   UNL A   1      32.610  33.832  27.155  1.00  0.00    -0.460 OA
BRANCH  21  22
ATOM     22  C   UNL A   1      33.075  34.305  28.344  1.00  0.00     0.338 C 
ATOM     23  O   UNL A   1      32.529  35.110  29.069  1.00  0.00    -0.246 OA
BRANCH  22  24
ATOM     24  C   UNL A   1      34.322  33.599  28.736  1.00  0.00     0.060 A 
ATOM     25  C   UNL A   1      34.290  32.828  29.905  1.00  0.00     0.016 A 
ATOM     26  C   UNL A   1      35.516  33.722  28.019  1.00  0.00     0.016 A 
ATOM     27  C   UNL A   1      35.441  32.172  30.352  1.00  0.00     0.010 A 
ATOM     28  C   UNL A   1      36.680  33.089  28.487  1.00  0.00     0.010 A 
ATOM     29  C   UNL A   1      36.651  32.316  29.661  1.00  0.00    -0.014 A 
BRANCH  29  30
ATOM     30  C   UNL A   1      37.901  31.812  30.286  1.00  0.00     0.031 A 
ATOM     31  C   UNL A   1      38.489  30.529  29.767  1.00  0.00     0.074 A 
ATOM     32  C   UNL A   1      38.546  32.493  31.253  1.00  0.00     0.049 A 
ATOM     33  N   UNL A   1      39.603  29.928  30.100  1.00  0.00    -0.248 NA
ATOM     34  C   UNL A   1      37.721  29.840  28.718  1.00  0.00     0.031 C 
ATOM     35  C   UNL A   1      38.134  33.781  31.802  1.00  0.00     0.029 A 
ATOM     36  N   UNL A   1      39.703  32.192  31.931  1.00  0.00    -0.354 N 
ATOM     37  C   UNL A   1      39.681  28.805  29.287  1.00  0.00     0.074 A 
ATOM     38  C   UNL A   1      38.487  28.792  28.466  1.00  0.00     0.031 C 
ATOM     39  C   UNL A   1      39.027  34.163  32.733  1.00  0.00     0.029 A 
ATOM     40  C   UNL A   1      40.059  33.137  32.865  1.00  0.00     0.049 A 
ATOM     41  H   UNL A   1      40.228  31.376  31.764  1.00  0.00     0.167 HD
ATOM     42  C   UNL A   1      40.654  27.865  29.222  1.00  0.00     0.031 A 
ATOM     43  C   UNL A   1      41.094  33.165  33.729  1.00  0.00     0.031 A 
ATOM     44  C   UNL A   1      41.809  27.829  30.079  1.00  0.00     0.049 A 
ATOM     45  C   UNL A   1      42.098  32.037  33.726  1.00  0.00     0.074 A 
ATOM     46  C   UNL A   1      42.829  26.894  30.111  1.00  0.00     0.029 A 
ATOM     47  N   UNL A   1      42.085  28.756  31.071  1.00  0.00    -0.354 N 
ATOM     48  N   UNL A   1      42.173  30.993  32.936  1.00  0.00    -0.248 NA
ATOM     49  C   UNL A   1      43.169  32.101  34.732  1.00  0.00     0.031 C 
ATOM     50  C   UNL A   1      43.687  27.219  31.167  1.00  0.00     0.029 A 
ATOM     51  C   UNL A   1      43.243  28.398  31.743  1.00  0.00     0.049 A 
ATOM     52  H   UNL A   1      41.539  29.552  31.268  1.00  0.00     0.167 HD
ATOM     53  C   UNL A   1      43.314  30.300  33.326  1.00  0.00     0.074 A 
ATOM     54  C   UNL A   1      43.910  31.051  34.411  1.00  0.00     0.031 C 
ATOM     55  C   UNL A   1      43.826  29.147  32.827  1.00  0.00     0.031 A 
BRANCH  42  56
ATOM     56  C   UNL A   1      40.464  26.760  28.222  1.00  0.00    -0.014 A 
ATOM     57  C   UNL A   1      39.714  25.614  28.534  1.00  0.00     0.009 A 
ATOM     58  C   UNL A   1      41.047  26.865  26.950  1.00  0.00     0.009 A 
ATOM     59  C   UNL A   1      39.587  24.579  27.606  1.00  0.00     0.001 A 
ATOM     60  C   UNL A   1      40.893  25.842  26.013  1.00  0.00     0.001 A 
ATOM     61  C   UNL A   1      40.174  24.695  26.346  1.00  0.00     0.000 A 
ENDBRANCH  42  56
BRANCH  43  62
ATOM     62  C   UNL A   1      41.239  34.284  34.702  1.00  0.00    -0.014 A 
ATOM     63  C   UNL A   1      40.627  34.227  35.966  1.00  0.00     0.009 A 
ATOM     64  C   UNL A   1      41.941  35.446  34.347  1.00  0.00     0.009 A 
ATOM     65  C   UNL A   1      40.687  35.321  36.834  1.00  0.00     0.001 A 
ATOM     66  C   UNL A   1      42.028  36.525  35.230  1.00  0.00     0.001 A 
ATOM     67  C   UNL A   1      41.390  36.468  36.467  1.00  0.00     0.000 A 
ENDBRANCH  43  62
BRANCH  55  68
ATOM     68  C   UNL A   1      45.118  28.646  33.420  1.00  0.00    -0.014 A 
ATOM     69  C   UNL A   1      46.366  29.022  32.897  1.00  0.00     0.009 A 
ATOM     70  C   UNL A   1      45.083  27.804  34.543  1.00  0.00     0.009 A 
ATOM     71  C   UNL A   1      47.546  28.527  33.457  1.00  0.00     0.001 A 
ATOM     72  C   UNL A   1      46.265  27.338  35.123  1.00  0.00     0.001 A 
ATOM     73  C   UNL A   1      47.494  27.689  34.571  1.00  0.00     0.000 A 
ENDBRANCH  55  68
ENDBRANCH  29  30
ENDBRANCH  22  24
ENDBRANCH  21  22
ENDBRANCH  20  21
ENDBRANCH  19  20
ENDBRANCH  18  19
ENDBRANCH  17  18
ENDBRANCH   1  17
TORSDOF 20
ENDMDL
MODEL 3
REMARK VINA RESULT:      -8.1      1.753      2.380
REMARK SMILES C[C@H](O)[C@H](C)C(C)(C)C(=O)OCCOCCOCCOC(=O)c1ccc(-c2c3nc(c(-c4ccccc4)c4ccc([nH]4)c(-c4ccccc4)c4nc(c(-c5ccccc5)c5ccc2[nH]5)C=C4)C=C3)cc1
REMARK SMILES IDX 15 1 14 2 13 3 12 4 11 5 9 6 10 7 6 8 7 9 8 10 4 11 5 12
REMARK SMILES IDX 2 13 1 14 3 15 16 17 17 18 18 19 19 20 20 21 21 22 22 23
REMARK SMILES IDX 23 24 24 25 70 26 25 27 69 28 26 29 27 30 28 31 63 32 29 33
REMARK SMILES IDX 68 34 62 35 64 36 30 37 67 38 61 39 60 40 31 42 53 43 38 44
REMARK SMILES IDX 52 45 39 46 42 47 51 48 65 49 40 50 41 51 50 53 66 54 43 55
REMARK SMILES IDX 32 56 33 57 37 58 34 59 36 60 35 61 54 62 55 63 59 64 56 65
REMARK SMILES IDX 58 66 57 67 44 68 45 69 49 70 46 71 48 72 47 73
REMARK H PARENT 3 16 64 41 42 52
REMARK Flexibility Score: inf
ROOT
ATOM      1  C   UNL A   1      32.972  29.218  25.150  1.00  0.00     0.188 C 
ENDROOT
BRANCH   1   2
ATOM      2  O   UNL A   1      33.282  29.111  23.773  1.00  0.00    -0.376 OA
BRANCH   2   3
ATOM      3  C   UNL A   1      32.534  28.201  22.984  1.00  0.00     0.202 C 
BRANCH   3   4
ATOM      4  C   UNL A   1      33.269  27.034  22.309  1.00  0.00     0.261 C 
BRANCH   4   5
ATOM      5  O   UNL A   1      34.024  26.170  23.190  1.00  0.00    -0.463 OA
BRANCH   5   6
ATOM      6  C   UNL A   1      33.764  24.834  23.096  1.00  0.00     0.311 C 
ATOM      7  O   UNL A   1      33.618  24.260  22.026  1.00  0.00    -0.252 OA
BRANCH   6   8
ATOM      8  C   UNL A   1      33.570  24.138  24.468  1.00  0.00     0.067 C 
ATOM      9  C   UNL A   1      32.058  23.788  24.520  1.00  0.00     0.024 C 
ATOM     10  C   UNL A   1      33.782  25.055  25.695  1.00  0.00     0.024 C 
BRANCH   8  11
ATOM     11  C   UNL A   1      34.425  22.792  24.582  1.00  0.00     0.031 C 
ATOM     12  C   UNL A   1      33.702  21.545  24.019  1.00  0.00     0.011 C 
BRANCH  11  13
ATOM     13  C   UNL A   1      35.940  22.752  24.163  1.00  0.00     0.115 C 
ATOM     14  C   UNL A   1      36.915  23.680  24.838  1.00  0.00     0.038 C 
BRANCH  13  15
ATOM     15  O   UNL A   1      36.114  22.953  22.756  1.00  0.00    -0.393 OA
ATOM     16  H   UNL A   1      36.651  23.747  22.606  1.00  0.00     0.210 HD
ENDBRANCH  13  15
ENDBRANCH  11  13
ENDBRANCH   8  11
ENDBRANCH   6   8
ENDBRANCH   5   6
ENDBRANCH   4   5
ENDBRANCH   3   4
ENDBRANCH   2   3
ENDBRANCH   1   2
BRANCH   1  17
ATOM     17  C   UNL A   1      31.785  30.098  25.603  1.00  0.00     0.188 C 
BRANCH  17  18
ATOM     18  O   UNL A   1      31.786  30.709  26.881  1.00  0.00    -0.376 OA
BRANCH  18  19
ATOM     19  C   UNL A   1      32.889  31.522  27.230  1.00  0.00     0.202 C 
BRANCH  19  20
ATOM     20  C   UNL A   1      32.687  33.038  27.164  1.00  0.00     0.261 C 
BRANCH  20  21
ATOM     21  O   UNL A   1      32.365  33.654  28.424  1.00  0.00    -0.460 OA
BRANCH  21  22
ATOM     22  C   UNL A   1      33.193  34.666  28.803  1.00  0.00     0.338 C 
ATOM     23  O   UNL A   1      32.960  35.855  28.749  1.00  0.00    -0.246 OA
BRANCH  22  24
ATOM     24  C   UNL A   1      34.423  34.125  29.437  1.00  0.00     0.060 A 
ATOM     25  C   UNL A   1      35.639  34.335  28.773  1.00  0.00     0.016 A 
ATOM     26  C   UNL A   1      34.399  33.383  30.621  1.00  0.00     0.016 A 
ATOM     27  C   UNL A   1      36.829  33.817  29.294  1.00  0.00     0.010 A 
ATOM     28  C   UNL A   1      35.590  32.836  31.127  1.00  0.00     0.010 A 
ATOM     29  C   UNL A   1      36.812  33.042  30.461  1.00  0.00    -0.014 A 
BRANCH  29  30
ATOM     30  C   UNL A   1      38.041  32.307  30.856  1.00  0.00     0.031 A 
ATOM     31  C   UNL A   1      38.840  32.828  32.019  1.00  0.00     0.074 A 
ATOM     32  C   UNL A   1      38.424  31.170  30.245  1.00  0.00     0.049 A 
ATOM     33  N   UNL A   1      39.903  32.324  32.592  1.00  0.00    -0.248 NA
ATOM     34  C   UNL A   1      38.361  34.080  32.625  1.00  0.00     0.031 C 
ATOM     35  C   UNL A   1      37.711  30.510  29.155  1.00  0.00     0.029 A 
ATOM     36  N   UNL A   1      39.510  30.358  30.477  1.00  0.00    -0.354 N 
ATOM     37  C   UNL A   1      40.206  33.184  33.639  1.00  0.00     0.074 A 
ATOM     38  C   UNL A   1      39.234  34.257  33.604  1.00  0.00     0.031 C 
ATOM     39  C   UNL A   1      38.378  29.392  28.813  1.00  0.00     0.029 A 
ATOM     40  C   UNL A   1      39.577  29.269  29.640  1.00  0.00     0.049 A 
ATOM     41  H   UNL A   1      40.178  30.541  31.177  1.00  0.00     0.167 HD
ATOM     42  C   UNL A   1      41.203  33.095  34.553  1.00  0.00     0.031 A 
ATOM     43  C   UNL A   1      40.501  28.292  29.550  1.00  0.00     0.031 A 
ATOM     44  C   UNL A   1      42.215  32.073  34.557  1.00  0.00     0.049 A 
ATOM     45  C   UNL A   1      41.675  28.287  30.499  1.00  0.00     0.074 A 
ATOM     46  C   UNL A   1      43.286  31.924  35.422  1.00  0.00     0.029 A 
ATOM     47  N   UNL A   1      42.297  31.039  33.638  1.00  0.00    -0.354 N 
ATOM     48  N   UNL A   1      41.938  29.092  31.500  1.00  0.00    -0.248 NA
ATOM     49  C   UNL A   1      42.676  27.226  30.309  1.00  0.00     0.031 C 
ATOM     50  C   UNL A   1      44.052  30.839  34.985  1.00  0.00     0.029 A 
ATOM     51  C   UNL A   1      43.418  30.266  33.895  1.00  0.00     0.049 A 
ATOM     52  H   UNL A   1      41.652  30.878  32.910  1.00  0.00     0.167 HD
ATOM     53  C   UNL A   1      43.110  28.614  32.078  1.00  0.00     0.074 A 
ATOM     54  C   UNL A   1      43.497  27.439  31.326  1.00  0.00     0.031 C 
ATOM     55  C   UNL A   1      43.801  29.101  33.138  1.00  0.00     0.031 A 
BRANCH  42  56
ATOM     56  C   UNL A   1      41.272  34.183  35.587  1.00  0.00    -0.014 A 
ATOM     57  C   UNL A   1      40.606  34.063  36.818  1.00  0.00     0.009 A 
ATOM     58  C   UNL A   1      42.013  35.345  35.326  1.00  0.00     0.009 A 
ATOM     59  C   UNL A   1      40.647  35.104  37.747  1.00  0.00     0.001 A 
ATOM     60  C   UNL A   1      42.077  36.372  36.269  1.00  0.00     0.001 A 
ATOM     61  C   UNL A   1      41.385  36.256  37.473  1.00  0.00     0.000 A 
ENDBRANCH  42  56
BRANCH  43  62
ATOM     62  C   UNL A   1      40.387  27.234  28.506  1.00  0.00    -0.014 A 
ATOM     63  C   UNL A   1      40.969  27.404  27.239  1.00  0.00     0.009 A 
ATOM     64  C   UNL A   1      39.639  26.073  28.752  1.00  0.00     0.009 A 
ATOM     65  C   UNL A   1      40.775  26.451  26.234  1.00  0.00     0.001 A 
ATOM     66  C   UNL A   1      39.474  25.106  27.757  1.00  0.00     0.001 A 
ATOM     67  C   UNL A   1      40.030  25.301  26.495  1.00  0.00     0.000 A 
ENDBRANCH  43  62
BRANCH  55  68
ATOM     68  C   UNL A   1      45.026  28.342  33.578  1.00  0.00    -0.014 A 
ATOM     69  C   UNL A   1      44.964  27.354  34.574  1.00  0.00     0.009 A 
ATOM     70  C   UNL A   1      46.260  28.602  32.962  1.00  0.00     0.009 A 
ATOM     71  C   UNL A   1      46.120  26.679  34.974  1.00  0.00     0.001 A 
ATOM     72  C   UNL A   1      47.408  27.902  33.339  1.00  0.00     0.001 A 
ATOM     73  C   UNL A   1      47.339  26.951  34.353  1.00  0.00     0.000 A 
ENDBRANCH  55  68
ENDBRANCH  29  30
ENDBRANCH  22  24
ENDBRANCH  21  22
ENDBRANCH  20  21
ENDBRANCH  19  20
ENDBRANCH  18  19
ENDBRANCH  17  18
ENDBRANCH   1  17
TORSDOF 20
ENDMDL
