MODEL 1
REMARK VINA RESULT:      -9.8      0.000      0.000
REMARK SMILES Cc1cc(NC(=O)c2ccc3ncsc3c2)sc1C(=O)OCCOCCOCCOC(=O)c1ccc(-c2c3nc(c(-c4ccccc4)c4ccc([nH]4)c(-c4ccccc4)c4nc(c(-c5ccccc5)c5ccc2[nH]5)C=C4)C=C3)cc1
REMARK SMILES IDX 25 1 24 2 23 3 22 4 21 5 19 6 20 7 18 8 1 9 2 10 3 11 4 12
REMARK SMILES IDX 17 13 5 14 6 15 7 17 8 18 9 19 16 20 10 21 15 22 11 23 14 24
REMARK SMILES IDX 12 25 13 26 26 27 27 28 28 29 29 30 30 31 31 32 32 33 33 34
REMARK SMILES IDX 34 35 80 36 35 37 79 38 36 39 37 40 38 41 73 42 39 43 78 44
REMARK SMILES IDX 72 45 74 46 40 47 77 48 71 49 70 50 41 52 63 53 48 54 62 55
REMARK SMILES IDX 49 56 52 57 61 58 75 59 50 60 51 61 60 63 76 64 53 65 42 66
REMARK SMILES IDX 43 67 47 68 44 69 46 70 45 71 64 72 65 73 69 74 66 75 68 76
REMARK SMILES IDX 67 77 54 78 55 79 59 80 56 81 58 82 57 83
REMARK H PARENT 5 16 74 51 52 62
REMARK Flexibility Score: inf
ROOT
ATOM      1  C   UNL A   1      34.321  32.118  28.357  1.00  0.00     0.188 C 
ENDROOT
BRANCH   1   2
ATOM      2  O   UNL A   1      33.354  31.658  27.420  1.00  0.00    -0.376 OA
BRANCH   2   3
ATOM      3  C   UNL A   1      33.396  30.299  26.988  1.00  0.00     0.202 C 
BRANCH   3   4
ATOM      4  C   UNL A   1      32.116  29.485  27.180  1.00  0.00     0.261 C 
BRANCH   4   5
ATOM      5  O   UNL A   1      32.089  28.350  26.302  1.00  0.00    -0.459 OA
BRANCH   5   6
ATOM      6  C   UNL A   1      31.395  28.506  25.139  1.00  0.00     0.348 C 
ATOM      7  O   UNL A   1      31.000  29.584  24.710  1.00  0.00    -0.245 OA
BRANCH   6   8
ATOM      8  C   UNL A   1      31.312  27.235  24.438  1.00  0.00     0.117 A 
ATOM      9  C   UNL A   1      29.686  25.808  25.869  1.00  0.00     0.046 C 
ATOM     10  C   UNL A   1      30.634  26.055  24.736  1.00  0.00    -0.023 A 
ATOM     11  C   UNL A   1      30.934  25.039  23.765  1.00  0.00     0.042 A 
ATOM     12  C   UNL A   1      31.678  25.516  22.716  1.00  0.00     0.096 A 
ATOM     13  S   UNL A   1      32.253  27.077  22.999  1.00  0.00    -0.111 S 
BRANCH  12  14
ATOM     14  N   UNL A   1      32.030  24.987  21.497  1.00  0.00    -0.314 N 
ATOM     15  C   UNL A   1      32.925  23.960  21.271  1.00  0.00     0.256 C 
ATOM     16  H   UNL A   1      31.601  25.381  20.705  1.00  0.00     0.171 HD
ATOM     17  O   UNL A   1      33.352  23.725  20.144  1.00  0.00    -0.269 OA
BRANCH  15  18
ATOM     18  C   UNL A   1      33.329  23.074  22.389  1.00  0.00     0.041 A 
ATOM     19  C   UNL A   1      32.556  21.954  22.710  1.00  0.00     0.016 A 
ATOM     20  C   UNL A   1      34.455  23.422  23.143  1.00  0.00     0.035 A 
ATOM     21  C   UNL A   1      32.824  21.226  23.873  1.00  0.00     0.030 A 
ATOM     22  C   UNL A   1      34.708  22.679  24.309  1.00  0.00     0.055 A 
ATOM     23  C   UNL A   1      33.900  21.605  24.699  1.00  0.00     0.081 A 
ATOM     24  S   UNL A   1      35.950  22.896  25.485  1.00  0.00    -0.122 S 
ATOM     25  N   UNL A   1      34.239  21.011  25.901  1.00  0.00    -0.245 NA
ATOM     26  C   UNL A   1      35.294  21.609  26.403  1.00  0.00     0.176 A 
ENDBRANCH  15  18
ENDBRANCH  12  14
ENDBRANCH   6   8
ENDBRANCH   5   6
ENDBRANCH   4   5
ENDBRANCH   3   4
ENDBRANCH   2   3
ENDBRANCH   1   2
BRANCH   1  27
ATOM     27  C   UNL A   1      34.458  33.630  28.614  1.00  0.00     0.188 C 
BRANCH  27  28
ATOM     28  O   UNL A   1      33.245  34.280  28.954  1.00  0.00    -0.376 OA
BRANCH  28  29
ATOM     29  C   UNL A   1      33.291  35.701  28.945  1.00  0.00     0.202 C 
BRANCH  29  30
ATOM     30  C   UNL A   1      32.513  36.330  30.106  1.00  0.00     0.261 C 
BRANCH  30  31
ATOM     31  O   UNL A   1      33.231  36.373  31.352  1.00  0.00    -0.460 OA
BRANCH  31  32
ATOM     32  C   UNL A   1      32.997  35.368  32.225  1.00  0.00     0.338 C 
ATOM     33  O   UNL A   1      31.926  35.028  32.691  1.00  0.00    -0.246 OA
BRANCH  32  34
ATOM     34  C   UNL A   1      34.259  34.618  32.396  1.00  0.00     0.060 A 
ATOM     35  C   UNL A   1      34.224  33.365  33.019  1.00  0.00     0.016 A 
ATOM     36  C   UNL A   1      35.467  35.153  31.943  1.00  0.00     0.016 A 
ATOM     37  C   UNL A   1      35.409  32.652  33.212  1.00  0.00     0.010 A 
ATOM     38  C   UNL A   1      36.653  34.445  32.151  1.00  0.00     0.010 A 
ATOM     39  C   UNL A   1      36.634  33.203  32.809  1.00  0.00    -0.014 A 
BRANCH  39  40
ATOM     40  C   UNL A   1      37.911  32.568  33.211  1.00  0.00     0.031 A 
ATOM     41  C   UNL A   1      38.502  31.510  32.321  1.00  0.00     0.074 A 
ATOM     42  C   UNL A   1      38.534  32.910  34.353  1.00  0.00     0.049 A 
ATOM     43  N   UNL A   1      39.583  30.792  32.490  1.00  0.00    -0.248 NA
ATOM     44  C   UNL A   1      37.775  31.224  31.074  1.00  0.00     0.031 C 
ATOM     45  C   UNL A   1      38.086  33.936  35.292  1.00  0.00     0.029 A 
ATOM     46  N   UNL A   1      39.683  32.412  34.918  1.00  0.00    -0.354 N 
ATOM     47  C   UNL A   1      39.667  29.972  31.373  1.00  0.00     0.074 A 
ATOM     48  C   UNL A   1      38.515  30.262  30.546  1.00  0.00     0.031 C 
ATOM     49  C   UNL A   1      38.947  33.984  36.325  1.00  0.00     0.029 A 
ATOM     50  C   UNL A   1      39.988  32.977  36.131  1.00  0.00     0.049 A 
ATOM     51  H   UNL A   1      40.234  31.716  34.492  1.00  0.00     0.167 HD
ATOM     52  C   UNL A   1      40.618  29.064  31.056  1.00  0.00     0.031 A 
ATOM     53  C   UNL A   1      40.982  32.696  36.996  1.00  0.00     0.031 A 
ATOM     54  C   UNL A   1      41.750  28.748  31.883  1.00  0.00     0.049 A 
ATOM     55  C   UNL A   1      41.983  31.621  36.661  1.00  0.00     0.074 A 
ATOM     56  C   UNL A   1      42.771  27.845  31.640  1.00  0.00     0.029 A 
ATOM     57  N   UNL A   1      42.004  29.318  33.120  1.00  0.00    -0.354 N 
ATOM     58  N   UNL A   1      42.070  30.877  35.586  1.00  0.00    -0.248 NA
ATOM     59  C   UNL A   1      43.027  31.352  37.663  1.00  0.00     0.031 C 
ATOM     60  C   UNL A   1      43.618  27.835  32.754  1.00  0.00     0.029 A 
ATOM     61  C   UNL A   1      43.152  28.768  33.665  1.00  0.00     0.049 A 
ATOM     62  H   UNL A   1      41.452  30.012  33.547  1.00  0.00     0.167 HD
ATOM     63  C   UNL A   1      43.190  30.073  35.769  1.00  0.00     0.074 A 
ATOM     64  C   UNL A   1      43.755  30.427  37.054  1.00  0.00     0.031 C 
ATOM     65  C   UNL A   1      43.704  29.129  34.945  1.00  0.00     0.031 A 
BRANCH  52  66
ATOM     66  C   UNL A   1      40.449  28.320  29.763  1.00  0.00    -0.014 A 
ATOM     67  C   UNL A   1      39.713  27.127  29.705  1.00  0.00     0.009 A 
ATOM     68  C   UNL A   1      41.017  28.830  28.586  1.00  0.00     0.009 A 
ATOM     69  C   UNL A   1      39.576  26.440  28.498  1.00  0.00     0.001 A 
ATOM     70  C   UNL A   1      40.858  28.154  27.375  1.00  0.00     0.001 A 
ATOM     71  C   UNL A   1      40.147  26.956  27.334  1.00  0.00     0.000 A 
ENDBRANCH  52  66
BRANCH  53  72
ATOM     72  C   UNL A   1      41.079  33.430  38.284  1.00  0.00    -0.014 A 
ATOM     73  C   UNL A   1      40.400  32.970  39.423  1.00  0.00     0.009 A 
ATOM     74  C   UNL A   1      41.828  34.614  38.371  1.00  0.00     0.009 A 
ATOM     75  C   UNL A   1      40.451  33.694  40.617  1.00  0.00     0.001 A 
ATOM     76  C   UNL A   1      41.897  35.321  39.573  1.00  0.00     0.001 A 
ATOM     77  C   UNL A   1      41.203  34.865  40.692  1.00  0.00     0.000 A 
ENDBRANCH  53  72
BRANCH  65  78
ATOM     78  C   UNL A   1      44.960  28.434  35.387  1.00  0.00    -0.014 A 
ATOM     79  C   UNL A   1      46.227  28.958  35.091  1.00  0.00     0.009 A 
ATOM     80  C   UNL A   1      44.870  27.260  36.154  1.00  0.00     0.009 A 
ATOM     81  C   UNL A   1      47.381  28.307  35.530  1.00  0.00     0.001 A 
ATOM     82  C   UNL A   1      46.025  26.625  36.613  1.00  0.00     0.001 A 
ATOM     83  C   UNL A   1      47.279  27.143  36.295  1.00  0.00     0.000 A 
ENDBRANCH  65  78
ENDBRANCH  39  40
ENDBRANCH  32  34
ENDBRANCH  31  32
ENDBRANCH  30  31
ENDBRANCH  29  30
ENDBRANCH  28  29
ENDBRANCH  27  28
ENDBRANCH   1  27
TORSDOF 19
ENDMDL
MODEL 2
REMARK VINA RESULT:      -9.5      3.150      7.924
REMARK SMILES Cc1cc(NC(=O)c2ccc3ncsc3c2)sc1C(=O)OCCOCCOCCOC(=O)c1ccc(-c2c3nc(c(-c4ccccc4)c4ccc([nH]4)c(-c4ccccc4)c4nc(c(-c5ccccc5)c5ccc2[nH]5)C=C4)C=C3)cc1
REMARK SMILES IDX 25 1 24 2 23 3 22 4 21 5 19 6 20 7 18 8 1 9 2 10 3 11 4 12
REMARK SMILES IDX 17 13 5 14 6 15 7 17 8 18 9 19 16 20 10 21 15 22 11 23 14 24
REMARK SMILES IDX 12 25 13 26 26 27 27 28 28 29 29 30 30 31 31 32 32 33 33 34
REMARK SMILES IDX 34 35 80 36 35 37 79 38 36 39 37 40 38 41 73 42 39 43 78 44
REMARK SMILES IDX 72 45 74 46 40 47 77 48 71 49 70 50 41 52 63 53 48 54 62 55
REMARK SMILES IDX 49 56 52 57 61 58 75 59 50 60 51 61 60 63 76 64 53 65 42 66
REMARK SMILES IDX 43 67 47 68 44 69 46 70 45 71 64 72 65 73 69 74 66 75 68 76
REMARK SMILES IDX 67 77 54 78 55 79 59 80 56 81 58 82 57 83
REMARK H PARENT 5 16 74 51 52 62
REMARK Flexibility Score: inf
ROOT
ATOM      1  C   UNL A   1      34.994  21.209  25.841  1.00  0.00     0.188 C 
ENDROOT
BRANCH   1   2
ATOM      2  O   UNL A   1      34.582  22.284  26.678  1.00  0.00    -0.376 OA
BRANCH   2   3
ATOM      3  C   UNL A   1      33.264  22.274  27.223  1.00  0.00     0.202 C 
BRANCH   3   4
ATOM      4  C   UNL A   1      32.292  23.316  26.667  1.00  0.00     0.261 C 
BRANCH   4   5
ATOM      5  O   UNL A   1      31.339  22.712  25.779  1.00  0.00    -0.459 OA
BRANCH   5   6
ATOM      6  C   UNL A   1      31.825  22.275  24.583  1.00  0.00     0.348 C 
ATOM      7  O   UNL A   1      31.925  21.096  24.267  1.00  0.00    -0.245 OA
BRANCH   6   8
ATOM      8  C   UNL A   1      32.080  23.410  23.710  1.00  0.00     0.117 A 
ATOM      9  C   UNL A   1      34.503  23.046  22.860  1.00  0.00     0.046 C 
ATOM     10  C   UNL A   1      33.214  23.795  22.996  1.00  0.00    -0.023 A 
ATOM     11  C   UNL A   1      32.994  25.051  22.336  1.00  0.00     0.042 A 
ATOM     12  C   UNL A   1      31.697  25.483  22.440  1.00  0.00     0.096 A 
ATOM     13  S   UNL A   1      30.803  24.559  23.535  1.00  0.00    -0.111 S 
BRANCH  12  14
ATOM     14  N   UNL A   1      30.991  26.493  21.832  1.00  0.00    -0.314 N 
ATOM     15  C   UNL A   1      30.815  27.777  22.305  1.00  0.00     0.256 C 
ATOM     16  H   UNL A   1      30.567  26.278  20.970  1.00  0.00     0.171 HD
ATOM     17  O   UNL A   1      29.974  28.526  21.815  1.00  0.00    -0.269 OA
BRANCH  15  18
ATOM     18  C   UNL A   1      31.698  28.297  23.375  1.00  0.00     0.041 A 
ATOM     19  C   UNL A   1      32.992  28.730  23.068  1.00  0.00     0.016 A 
ATOM     20  C   UNL A   1      31.230  28.283  24.694  1.00  0.00     0.035 A 
ATOM     21  C   UNL A   1      33.891  29.042  24.093  1.00  0.00     0.030 A 
ATOM     22  C   UNL A   1      32.148  28.597  25.711  1.00  0.00     0.055 A 
ATOM     23  C   UNL A   1      33.473  28.953  25.435  1.00  0.00     0.081 A 
ATOM     24  S   UNL A   1      31.916  28.597  27.419  1.00  0.00    -0.122 S 
ATOM     25  N   UNL A   1      34.272  29.176  26.542  1.00  0.00    -0.245 NA
ATOM     26  C   UNL A   1      33.562  29.012  27.634  1.00  0.00     0.176 A 
ENDBRANCH  15  18
ENDBRANCH  12  14
ENDBRANCH   6   8
ENDBRANCH   5   6
ENDBRANCH   4   5
ENDBRANCH   3   4
ENDBRANCH   2   3
ENDBRANCH   1   2
BRANCH   1  27
ATOM     27  C   UNL A   1      36.461  21.136  25.380  1.00  0.00     0.188 C 
BRANCH  27  28
ATOM     28  O   UNL A   1      37.213  22.314  25.623  1.00  0.00    -0.376 OA
BRANCH  28  29
ATOM     29  C   UNL A   1      38.625  22.151  25.605  1.00  0.00     0.202 C 
BRANCH  29  30
ATOM     30  C   UNL A   1      39.339  23.022  26.644  1.00  0.00     0.261 C 
BRANCH  30  31
ATOM     31  O   UNL A   1      39.046  24.427  26.549  1.00  0.00    -0.460 OA
BRANCH  31  32
ATOM     32  C   UNL A   1      40.097  25.260  26.389  1.00  0.00     0.338 C 
ATOM     33  O   UNL A   1      40.761  25.428  25.382  1.00  0.00    -0.246 OA
BRANCH  32  34
ATOM     34  C   UNL A   1      40.210  26.082  27.611  1.00  0.00     0.060 A 
ATOM     35  C   UNL A   1      39.244  25.942  28.614  1.00  0.00     0.016 A 
ATOM     36  C   UNL A   1      41.264  26.987  27.760  1.00  0.00     0.016 A 
ATOM     37  C   UNL A   1      39.320  26.729  29.766  1.00  0.00     0.010 A 
ATOM     38  C   UNL A   1      41.329  27.783  28.906  1.00  0.00     0.010 A 
ATOM     39  C   UNL A   1      40.345  27.677  29.903  1.00  0.00    -0.014 A 
BRANCH  39  40
ATOM     40  C   UNL A   1      40.306  28.669  31.003  1.00  0.00     0.031 A 
ATOM     41  C   UNL A   1      39.310  29.792  30.925  1.00  0.00     0.074 A 
ATOM     42  C   UNL A   1      41.145  28.588  32.050  1.00  0.00     0.049 A 
ATOM     43  N   UNL A   1      39.123  30.794  31.746  1.00  0.00    -0.248 NA
ATOM     44  C   UNL A   1      38.404  29.785  29.765  1.00  0.00     0.031 C 
ATOM     45  C   UNL A   1      42.139  27.537  32.264  1.00  0.00     0.029 A 
ATOM     46  N   UNL A   1      41.298  29.422  33.130  1.00  0.00    -0.354 N 
ATOM     47  C   UNL A   1      38.080  31.534  31.204  1.00  0.00     0.074 A 
ATOM     48  C   UNL A   1      37.693  30.882  29.972  1.00  0.00     0.031 C 
ATOM     49  C   UNL A   1      42.807  27.797  33.403  1.00  0.00     0.029 A 
ATOM     50  C   UNL A   1      42.306  29.042  33.981  1.00  0.00     0.049 A 
ATOM     51  H   UNL A   1      40.736  30.217  33.280  1.00  0.00     0.167 HD
ATOM     52  C   UNL A   1      37.491  32.652  31.688  1.00  0.00     0.031 A 
ATOM     53  C   UNL A   1      42.783  29.644  35.087  1.00  0.00     0.031 A 
ATOM     54  C   UNL A   1      37.887  33.323  32.895  1.00  0.00     0.049 A 
ATOM     55  C   UNL A   1      42.166  30.934  35.562  1.00  0.00     0.074 A 
ATOM     56  C   UNL A   1      37.343  34.460  33.468  1.00  0.00     0.029 A 
ATOM     57  N   UNL A   1      38.934  32.925  33.710  1.00  0.00    -0.354 N 
ATOM     58  N   UNL A   1      41.159  31.604  35.059  1.00  0.00    -0.248 NA
ATOM     59  C   UNL A   1      42.755  31.546  36.764  1.00  0.00     0.031 C 
ATOM     60  C   UNL A   1      38.093  34.777  34.606  1.00  0.00     0.029 A 
ATOM     61  C   UNL A   1      39.070  33.809  34.768  1.00  0.00     0.049 A 
ATOM     62  H   UNL A   1      39.497  32.132  33.560  1.00  0.00     0.167 HD
ATOM     63  C   UNL A   1      40.976  32.700  35.896  1.00  0.00     0.074 A 
ATOM     64  C   UNL A   1      41.969  32.599  36.944  1.00  0.00     0.031 C 
ATOM     65  C   UNL A   1      40.063  33.697  35.804  1.00  0.00     0.031 A 
BRANCH  52  66
ATOM     66  C   UNL A   1      36.368  33.236  30.881  1.00  0.00    -0.014 A 
ATOM     67  C   UNL A   1      35.059  33.275  31.384  1.00  0.00     0.009 A 
ATOM     68  C   UNL A   1      36.627  33.768  29.609  1.00  0.00     0.009 A 
ATOM     69  C   UNL A   1      34.024  33.809  30.616  1.00  0.00     0.001 A 
ATOM     70  C   UNL A   1      35.594  34.323  28.852  1.00  0.00     0.001 A 
ATOM     71  C   UNL A   1      34.292  34.334  29.352  1.00  0.00     0.000 A 
ENDBRANCH  52  66
BRANCH  53  72
ATOM     72  C   UNL A   1      43.927  29.048  35.826  1.00  0.00    -0.014 A 
ATOM     73  C   UNL A   1      45.248  29.365  35.475  1.00  0.00     0.009 A 
ATOM     74  C   UNL A   1      43.700  28.133  36.866  1.00  0.00     0.009 A 
ATOM     75  C   UNL A   1      46.319  28.761  36.137  1.00  0.00     0.001 A 
ATOM     76  C   UNL A   1      44.774  27.550  37.542  1.00  0.00     0.001 A 
ATOM     77  C   UNL A   1      46.081  27.858  37.172  1.00  0.00     0.000 A 
ENDBRANCH  53  72
BRANCH  65  78
ATOM     78  C   UNL A   1      40.071  34.744  36.882  1.00  0.00    -0.014 A 
ATOM     79  C   UNL A   1      40.870  35.892  36.777  1.00  0.00     0.009 A 
ATOM     80  C   UNL A   1      39.229  34.598  37.997  1.00  0.00     0.009 A 
ATOM     81  C   UNL A   1      40.845  36.862  37.781  1.00  0.00     0.001 A 
ATOM     82  C   UNL A   1      39.189  35.581  38.987  1.00  0.00     0.001 A 
ATOM     83  C   UNL A   1      40.002  36.709  38.882  1.00  0.00     0.000 A 
ENDBRANCH  65  78
ENDBRANCH  39  40
ENDBRANCH  32  34
ENDBRANCH  31  32
ENDBRANCH  30  31
ENDBRANCH  29  30
ENDBRANCH  28  29
ENDBRANCH  27  28
ENDBRANCH   1  27
TORSDOF 19
ENDMDL
MODEL 3
REMARK VINA RESULT:      -9.4      2.587      6.848
REMARK SMILES Cc1cc(NC(=O)c2ccc3ncsc3c2)sc1C(=O)OCCOCCOCCOC(=O)c1ccc(-c2c3nc(c(-c4ccccc4)c4ccc([nH]4)c(-c4ccccc4)c4nc(c(-c5ccccc5)c5ccc2[nH]5)C=C4)C=C3)cc1
REMARK SMILES IDX 25 1 24 2 23 3 22 4 21 5 19 6 20 7 18 8 1 9 2 10 3 11 4 12
REMARK SMILES IDX 17 13 5 14 6 15 7 17 8 18 9 19 16 20 10 21 15 22 11 23 14 24
REMARK SMILES IDX 12 25 13 26 26 27 27 28 28 29 29 30 30 31 31 32 32 33 33 34
REMARK SMILES IDX 34 35 80 36 35 37 79 38 36 39 37 40 38 41 73 42 39 43 78 44
REMARK SMILES IDX 72 45 74 46 40 47 77 48 71 49 70 50 41 52 63 53 48 54 62 55
REMARK SMILES IDX 49 56 52 57 61 58 75 59 50 60 51 61 60 63 76 64 53 65 42 66
REMARK SMILES IDX 43 67 47 68 44 69 46 70 45 71 64 72 65 73 69 74 66 75 68 76
REMARK SMILES IDX 67 77 54 78 55 79 59 80 56 81 58 82 57 83
REMARK H PARENT 5 16 74 51 52 62
REMARK Flexibility Score: inf
ROOT
ATOM      1  C   UNL A   1      28.543  31.925  23.305  1.00  0.00     0.188 C 
ENDROOT
BRANCH   1   2
ATOM      2  O   UNL A   1      28.700  31.680  21.911  1.00  0.00    -0.376 OA
BRANCH   2   3
ATOM      3  C   UNL A   1      28.615  30.342  21.427  1.00  0.00     0.202 C 
BRANCH   3   4
ATOM      4  C   UNL A   1      29.058  29.241  22.391  1.00  0.00     0.261 C 
BRANCH   4   5
ATOM      5  O   UNL A   1      30.303  28.660  21.974  1.00  0.00    -0.459 OA
BRANCH   5   6
ATOM      6  C   UNL A   1      31.208  28.404  22.961  1.00  0.00     0.348 C 
ATOM      7  O   UNL A   1      32.000  29.229  23.401  1.00  0.00    -0.245 OA
BRANCH   6   8
ATOM      8  C   UNL A   1      31.000  27.065  23.487  1.00  0.00     0.117 A 
ATOM      9  C   UNL A   1      31.920  25.492  21.642  1.00  0.00     0.046 C 
ATOM     10  C   UNL A   1      31.249  25.806  22.943  1.00  0.00    -0.023 A 
ATOM     11  C   UNL A   1      30.792  24.772  23.829  1.00  0.00     0.042 A 
ATOM     12  C   UNL A   1      30.371  25.262  25.039  1.00  0.00     0.096 A 
ATOM     13  S   UNL A   1      30.256  26.946  25.040  1.00  0.00    -0.111 S 
BRANCH  12  14
ATOM     14  N   UNL A   1      30.043  24.663  26.232  1.00  0.00    -0.314 N 
ATOM     15  C   UNL A   1      30.503  23.449  26.700  1.00  0.00     0.256 C 
ATOM     16  H   UNL A   1      29.415  25.151  26.812  1.00  0.00     0.171 HD
ATOM     17  O   UNL A   1      29.969  22.892  27.655  1.00  0.00    -0.269 OA
BRANCH  15  18
ATOM     18  C   UNL A   1      31.706  22.832  26.092  1.00  0.00     0.041 A 
ATOM     19  C   UNL A   1      31.585  21.670  25.323  1.00  0.00     0.016 A 
ATOM     20  C   UNL A   1      32.956  23.402  26.358  1.00  0.00     0.035 A 
ATOM     21  C   UNL A   1      32.728  20.981  24.908  1.00  0.00     0.030 A 
ATOM     22  C   UNL A   1      34.094  22.695  25.934  1.00  0.00     0.055 A 
ATOM     23  C   UNL A   1      34.002  21.485  25.236  1.00  0.00     0.081 A 
ATOM     24  S   UNL A   1      35.758  23.077  26.168  1.00  0.00    -0.122 S 
ATOM     25  N   UNL A   1      35.208  20.877  24.939  1.00  0.00    -0.245 NA
ATOM     26  C   UNL A   1      36.194  21.620  25.384  1.00  0.00     0.176 A 
ENDBRANCH  15  18
ENDBRANCH  12  14
ENDBRANCH   6   8
ENDBRANCH   5   6
ENDBRANCH   4   5
ENDBRANCH   3   4
ENDBRANCH   2   3
ENDBRANCH   1   2
BRANCH   1  27
ATOM     27  C   UNL A   1      29.772  32.333  24.139  1.00  0.00     0.188 C 
BRANCH  27  28
ATOM     28  O   UNL A   1      30.139  31.398  25.140  1.00  0.00    -0.376 OA
BRANCH  28  29
ATOM     29  C   UNL A   1      31.088  31.863  26.091  1.00  0.00     0.202 C 
BRANCH  29  30
ATOM     30  C   UNL A   1      31.935  30.734  26.688  1.00  0.00     0.261 C 
BRANCH  30  31
ATOM     31  O   UNL A   1      33.355  30.948  26.613  1.00  0.00    -0.460 OA
BRANCH  31  32
ATOM     32  C   UNL A   1      33.880  31.861  27.459  1.00  0.00     0.338 C 
ATOM     33  O   UNL A   1      33.368  32.899  27.836  1.00  0.00    -0.246 OA
BRANCH  32  34
ATOM     34  C   UNL A   1      35.136  31.303  28.001  1.00  0.00     0.060 A 
ATOM     35  C   UNL A   1      35.207  29.931  28.271  1.00  0.00     0.016 A 
ATOM     36  C   UNL A   1      36.233  32.133  28.242  1.00  0.00     0.016 A 
ATOM     37  C   UNL A   1      36.377  29.389  28.808  1.00  0.00     0.010 A 
ATOM     38  C   UNL A   1      37.396  31.590  28.793  1.00  0.00     0.010 A 
ATOM     39  C   UNL A   1      37.466  30.221  29.102  1.00  0.00    -0.014 A 
BRANCH  39  40
ATOM     40  C   UNL A   1      38.618  29.703  29.878  1.00  0.00     0.031 A 
ATOM     41  C   UNL A   1      38.778  30.139  31.308  1.00  0.00     0.074 A 
ATOM     42  C   UNL A   1      39.516  28.868  29.326  1.00  0.00     0.049 A 
ATOM     43  N   UNL A   1      39.725  29.848  32.163  1.00  0.00    -0.248 NA
ATOM     44  C   UNL A   1      37.730  31.023  31.844  1.00  0.00     0.031 C 
ATOM     45  C   UNL A   1      39.465  28.346  27.962  1.00  0.00     0.029 A 
ATOM     46  N   UNL A   1      40.660  28.324  29.855  1.00  0.00    -0.354 N 
ATOM     47  C   UNL A   1      39.388  30.510  33.336  1.00  0.00     0.074 A 
ATOM     48  C   UNL A   1      38.165  31.238  33.076  1.00  0.00     0.031 C 
ATOM     49  C   UNL A   1      40.539  27.561  27.757  1.00  0.00     0.029 A 
ATOM     50  C   UNL A   1      41.363  27.550  28.964  1.00  0.00     0.049 A 
ATOM     51  H   UNL A   1      40.948  28.473  30.784  1.00  0.00     0.167 HD
ATOM     52  C   UNL A   1      40.032  30.510  34.526  1.00  0.00     0.031 A 
ATOM     53  C   UNL A   1      42.546  26.923  29.103  1.00  0.00     0.031 A 
ATOM     54  C   UNL A   1      41.261  29.815  34.787  1.00  0.00     0.049 A 
ATOM     55  C   UNL A   1      43.288  27.005  30.412  1.00  0.00     0.074 A 
ATOM     56  C   UNL A   1      41.984  29.751  35.966  1.00  0.00     0.029 A 
ATOM     57  N   UNL A   1      41.958  29.070  33.849  1.00  0.00    -0.354 N 
ATOM     58  N   UNL A   1      42.941  27.606  31.523  1.00  0.00    -0.248 NA
ATOM     59  C   UNL A   1      44.586  26.315  30.483  1.00  0.00     0.031 C 
ATOM     60  C   UNL A   1      43.144  29.006  35.727  1.00  0.00     0.029 A 
ATOM     61  C   UNL A   1      43.116  28.564  34.414  1.00  0.00     0.049 A 
ATOM     62  H   UNL A   1      41.672  28.922  32.919  1.00  0.00     0.167 HD
ATOM     63  C   UNL A   1      43.961  27.345  32.432  1.00  0.00     0.074 A 
ATOM     64  C   UNL A   1      44.935  26.523  31.745  1.00  0.00     0.031 C 
ATOM     65  C   UNL A   1      44.077  27.748  33.720  1.00  0.00     0.031 A 
BRANCH  52  66
ATOM     66  C   UNL A   1      39.422  31.322  35.632  1.00  0.00    -0.014 A 
ATOM     67  C   UNL A   1      39.903  32.603  35.939  1.00  0.00     0.009 A 
ATOM     68  C   UNL A   1      38.342  30.805  36.363  1.00  0.00     0.009 A 
ATOM     69  C   UNL A   1      39.335  33.341  36.978  1.00  0.00     0.001 A 
ATOM     70  C   UNL A   1      37.760  31.554  37.387  1.00  0.00     0.001 A 
ATOM     71  C   UNL A   1      38.262  32.816  37.700  1.00  0.00     0.000 A 
ENDBRANCH  52  66
BRANCH  53  72
ATOM     72  C   UNL A   1      43.129  26.168  27.962  1.00  0.00    -0.014 A 
ATOM     73  C   UNL A   1      43.930  26.818  27.010  1.00  0.00     0.009 A 
ATOM     74  C   UNL A   1      42.859  24.801  27.804  1.00  0.00     0.009 A 
ATOM     75  C   UNL A   1      44.430  26.115  25.911  1.00  0.00     0.001 A 
ATOM     76  C   UNL A   1      43.381  24.096  26.718  1.00  0.00     0.001 A 
ATOM     77  C   UNL A   1      44.159  24.756  25.768  1.00  0.00     0.000 A 
ENDBRANCH  53  72
BRANCH  65  78
ATOM     78  C   UNL A   1      45.283  27.280  34.485  1.00  0.00    -0.014 A 
ATOM     79  C   UNL A   1      46.458  28.046  34.533  1.00  0.00     0.009 A 
ATOM     80  C   UNL A   1      45.222  26.077  35.207  1.00  0.00     0.009 A 
ATOM     81  C   UNL A   1      47.558  27.602  35.269  1.00  0.00     0.001 A 
ATOM     82  C   UNL A   1      46.316  25.648  35.961  1.00  0.00     0.001 A 
ATOM     83  C   UNL A   1      47.486  26.407  35.985  1.00  0.00     0.000 A 
ENDBRANCH  65  78
ENDBRANCH  39  40
ENDBRANCH  32  34
ENDBRANCH  31  32
ENDBRANCH  30  31
ENDBRANCH  29  30
ENDBRANCH  28  29
ENDBRANCH  27  28
ENDBRANCH   1  27
TORSDOF 19
ENDMDL
