MODEL 1
REMARK VINA RESULT:      -9.8      0.000      0.000
REMARK SMILES O=C(Cc1ccn(-c2ccccc2F)c1)OCCOCCOCCOC(=O)c1ccc(-c2c3nc(c(-c4ccccc4)c4ccc([nH]4)c(-c4ccccc4)c4nc(c(-c5ccccc5)c5ccc2[nH]5)C=C4)C=C3)cc1
REMARK SMILES IDX 20 1 19 2 18 3 17 4 16 5 2 6 1 7 3 8 4 9 5 10 15 11 6 12
REMARK SMILES IDX 7 13 8 14 9 15 13 16 10 17 12 18 14 19 11 20 21 21 22 22
REMARK SMILES IDX 23 23 24 24 25 25 26 26 27 27 28 28 29 29 75 30 30 31 74 32
REMARK SMILES IDX 31 33 32 34 33 35 68 36 34 37 73 38 67 39 69 40 35 41 72 42
REMARK SMILES IDX 66 43 65 44 36 46 58 47 43 48 57 49 44 50 47 51 56 52 70 53
REMARK SMILES IDX 45 54 46 55 55 57 71 58 48 59 37 60 38 61 42 62 39 63 41 64
REMARK SMILES IDX 40 65 59 66 60 67 64 68 61 69 63 70 62 71 49 72 50 73 54 74
REMARK SMILES IDX 51 75 53 76 52 77
REMARK H PARENT 69 45 47 56
REMARK Flexibility Score: inf
ROOT
ATOM      1  C   UNL A   1      45.052  22.390  24.720  1.00  0.00     0.188 C 
ENDROOT
BRANCH   1   2
ATOM      2  O   UNL A   1      44.035  21.435  24.501  1.00  0.00    -0.376 OA
BRANCH   2   3
ATOM      3  C   UNL A   1      44.262  20.095  24.909  1.00  0.00     0.202 C 
BRANCH   3   4
ATOM      4  C   UNL A   1      43.145  19.387  25.682  1.00  0.00     0.261 C 
BRANCH   4   5
ATOM      5  O   UNL A   1      41.850  20.022  25.685  1.00  0.00    -0.463 OA
BRANCH   5   6
ATOM      6  C   UNL A   1      41.297  20.660  26.742  1.00  0.00     0.310 C 
ATOM      7  O   UNL A   1      40.791  20.011  27.655  1.00  0.00    -0.252 OA
BRANCH   6   8
ATOM      8  C   UNL A   1      41.144  22.157  26.664  1.00  0.00     0.159 C 
BRANCH   8   9
ATOM      9  C   UNL A   1      39.742  22.637  26.545  1.00  0.00    -0.019 A 
ATOM     10  C   UNL A   1      39.168  23.881  26.908  1.00  0.00     0.024 A 
ATOM     11  C   UNL A   1      38.729  21.914  25.950  1.00  0.00     0.095 A 
ATOM     12  C   UNL A   1      37.851  23.870  26.504  1.00  0.00     0.091 A 
ATOM     13  N   UNL A   1      37.569  22.651  25.923  1.00  0.00    -0.321 N 
BRANCH  13  14
ATOM     14  C   UNL A   1      36.336  22.246  25.356  1.00  0.00     0.081 A 
ATOM     15  C   UNL A   1      35.407  21.534  26.126  1.00  0.00     0.030 A 
ATOM     16  C   UNL A   1      36.018  22.571  24.032  1.00  0.00     0.147 A 
ATOM     17  C   UNL A   1      34.172  21.179  25.576  1.00  0.00     0.002 A 
ATOM     18  C   UNL A   1      34.795  22.203  23.482  1.00  0.00     0.041 A 
ATOM     19  F   UNL A   1      36.891  23.194  23.226  1.00  0.00    -0.205 F 
ATOM     20  C   UNL A   1      33.867  21.511  24.256  1.00  0.00     0.003 A 
ENDBRANCH  13  14
ENDBRANCH   8   9
ENDBRANCH   6   8
ENDBRANCH   5   6
ENDBRANCH   4   5
ENDBRANCH   3   4
ENDBRANCH   2   3
ENDBRANCH   1   2
BRANCH   1  21
ATOM     21  C   UNL A   1      45.153  22.950  26.152  1.00  0.00     0.188 C 
BRANCH  21  22
ATOM     22  O   UNL A   1      44.874  24.301  26.503  1.00  0.00    -0.376 OA
BRANCH  22  23
ATOM     23  C   UNL A   1      43.880  24.682  27.438  1.00  0.00     0.202 C 
BRANCH  23  24
ATOM     24  C   UNL A   1      43.211  26.043  27.278  1.00  0.00     0.261 C 
BRANCH  24  25
ATOM     25  O   UNL A   1      41.814  26.037  27.552  1.00  0.00    -0.460 OA
BRANCH  25  26
ATOM     26  C   UNL A   1      41.086  26.627  26.592  1.00  0.00     0.338 C 
ATOM     27  O   UNL A   1      41.230  26.526  25.376  1.00  0.00    -0.246 OA
BRANCH  26  28
ATOM     28  C   UNL A   1      40.125  27.567  27.166  1.00  0.00     0.060 A 
ATOM     29  C   UNL A   1      40.456  28.921  27.049  1.00  0.00     0.016 A 
ATOM     30  C   UNL A   1      39.230  27.093  28.131  1.00  0.00     0.016 A 
ATOM     31  C   UNL A   1      40.099  29.770  28.072  1.00  0.00     0.010 A 
ATOM     32  C   UNL A   1      38.903  27.935  29.172  1.00  0.00     0.010 A 
ATOM     33  C   UNL A   1      39.424  29.235  29.174  1.00  0.00    -0.014 A 
BRANCH  33  34
ATOM     34  C   UNL A   1      39.332  30.061  30.383  1.00  0.00     0.031 A 
ATOM     35  C   UNL A   1      40.286  29.624  31.464  1.00  0.00     0.074 A 
ATOM     36  C   UNL A   1      38.384  31.043  30.361  1.00  0.00     0.049 A 
ATOM     37  N   UNL A   1      40.236  29.857  32.736  1.00  0.00    -0.248 NA
ATOM     38  C   UNL A   1      41.437  28.760  31.095  1.00  0.00     0.031 C 
ATOM     39  C   UNL A   1      37.513  31.329  29.200  1.00  0.00     0.029 A 
ATOM     40  N   UNL A   1      37.948  31.978  31.275  1.00  0.00    -0.354 N 
ATOM     41  C   UNL A   1      41.407  29.322  33.291  1.00  0.00     0.074 A 
ATOM     42  C   UNL A   1      42.060  28.577  32.257  1.00  0.00     0.031 C 
ATOM     43  C   UNL A   1      36.632  32.305  29.493  1.00  0.00     0.029 A 
ATOM     44  C   UNL A   1      36.851  32.763  30.850  1.00  0.00     0.049 A 
ATOM     45  H   UNL A   1      38.368  32.091  32.159  1.00  0.00     0.167 HD
ATOM     46  C   UNL A   1      41.846  29.629  34.540  1.00  0.00     0.031 A 
ATOM     47  C   UNL A   1      36.136  33.700  31.541  1.00  0.00     0.031 A 
ATOM     48  C   UNL A   1      40.893  30.406  35.260  1.00  0.00     0.049 A 
ATOM     49  C   UNL A   1      36.797  33.871  32.848  1.00  0.00     0.074 A 
ATOM     50  C   UNL A   1      39.675  30.124  35.823  1.00  0.00     0.029 A 
ATOM     51  N   UNL A   1      41.038  31.770  35.206  1.00  0.00    -0.354 N 
ATOM     52  N   UNL A   1      37.930  34.475  33.035  1.00  0.00    -0.248 NA
ATOM     53  C   UNL A   1      36.182  33.285  34.044  1.00  0.00     0.031 C 
ATOM     54  C   UNL A   1      38.948  31.336  35.740  1.00  0.00     0.029 A 
ATOM     55  C   UNL A   1      39.774  32.311  35.174  1.00  0.00     0.049 A 
ATOM     56  H   UNL A   1      41.887  32.268  35.195  1.00  0.00     0.167 HD
ATOM     57  C   UNL A   1      38.330  34.000  34.262  1.00  0.00     0.074 A 
ATOM     58  C   UNL A   1      37.132  33.552  34.937  1.00  0.00     0.031 C 
ATOM     59  C   UNL A   1      39.594  33.534  34.422  1.00  0.00     0.031 A 
BRANCH  46  60
ATOM     60  C   UNL A   1      43.222  29.455  35.100  1.00  0.00    -0.014 A 
ATOM     61  C   UNL A   1      43.339  29.077  36.454  1.00  0.00     0.009 A 
ATOM     62  C   UNL A   1      44.381  29.908  34.454  1.00  0.00     0.009 A 
ATOM     63  C   UNL A   1      44.541  29.211  37.149  1.00  0.00     0.001 A 
ATOM     64  C   UNL A   1      45.597  30.007  35.139  1.00  0.00     0.001 A 
ATOM     65  C   UNL A   1      45.669  29.685  36.491  1.00  0.00     0.000 A 
ENDBRANCH  46  60
BRANCH  47  66
ATOM     66  C   UNL A   1      34.885  34.504  31.306  1.00  0.00    -0.014 A 
ATOM     67  C   UNL A   1      34.266  35.342  32.239  1.00  0.00     0.009 A 
ATOM     68  C   UNL A   1      34.277  34.469  30.024  1.00  0.00     0.009 A 
ATOM     69  C   UNL A   1      33.161  36.143  31.891  1.00  0.00     0.001 A 
ATOM     70  C   UNL A   1      33.199  35.282  29.662  1.00  0.00     0.001 A 
ATOM     71  C   UNL A   1      32.644  36.133  30.599  1.00  0.00     0.000 A 
ENDBRANCH  47  66
BRANCH  59  72
ATOM     72  C   UNL A   1      40.581  34.046  33.387  1.00  0.00    -0.014 A 
ATOM     73  C   UNL A   1      40.676  33.446  32.124  1.00  0.00     0.009 A 
ATOM     74  C   UNL A   1      41.518  35.048  33.698  1.00  0.00     0.009 A 
ATOM     75  C   UNL A   1      41.677  33.824  31.219  1.00  0.00     0.001 A 
ATOM     76  C   UNL A   1      42.516  35.434  32.797  1.00  0.00     0.001 A 
ATOM     77  C   UNL A   1      42.597  34.815  31.556  1.00  0.00     0.000 A 
ENDBRANCH  59  72
ENDBRANCH  33  34
ENDBRANCH  26  28
ENDBRANCH  25  26
ENDBRANCH  24  25
ENDBRANCH  23  24
ENDBRANCH  22  23
ENDBRANCH  21  22
ENDBRANCH   1  21
TORSDOF 19
ENDMDL
MODEL 2
REMARK VINA RESULT:      -9.6      3.099      4.571
REMARK SMILES O=C(Cc1ccn(-c2ccccc2F)c1)OCCOCCOCCOC(=O)c1ccc(-c2c3nc(c(-c4ccccc4)c4ccc([nH]4)c(-c4ccccc4)c4nc(c(-c5ccccc5)c5ccc2[nH]5)C=C4)C=C3)cc1
REMARK SMILES IDX 20 1 19 2 18 3 17 4 16 5 2 6 1 7 3 8 4 9 5 10 15 11 6 12
REMARK SMILES IDX 7 13 8 14 9 15 13 16 10 17 12 18 14 19 11 20 21 21 22 22
REMARK SMILES IDX 23 23 24 24 25 25 26 26 27 27 28 28 29 29 75 30 30 31 74 32
REMARK SMILES IDX 31 33 32 34 33 35 68 36 34 37 73 38 67 39 69 40 35 41 72 42
REMARK SMILES IDX 66 43 65 44 36 46 58 47 43 48 57 49 44 50 47 51 56 52 70 53
REMARK SMILES IDX 45 54 46 55 55 57 71 58 48 59 37 60 38 61 42 62 39 63 41 64
REMARK SMILES IDX 40 65 59 66 60 67 64 68 61 69 63 70 62 71 49 72 50 73 54 74
REMARK SMILES IDX 51 75 53 76 52 77
REMARK H PARENT 69 45 47 56
REMARK Flexibility Score: inf
ROOT
ATOM      1  C   UNL A   1      38.994  21.958  26.053  1.00  0.00     0.188 C 
ENDROOT
BRANCH   1   2
ATOM      2  O   UNL A   1      37.919  21.699  25.174  1.00  0.00    -0.376 OA
BRANCH   2   3
ATOM      3  C   UNL A   1      36.636  22.208  25.502  1.00  0.00     0.202 C 
BRANCH   3   4
ATOM      4  C   UNL A   1      35.504  21.199  25.717  1.00  0.00     0.261 C 
BRANCH   4   5
ATOM      5  O   UNL A   1      34.576  21.016  24.630  1.00  0.00    -0.463 OA
BRANCH   5   6
ATOM      6  C   UNL A   1      33.277  21.393  24.641  1.00  0.00     0.310 C 
ATOM      7  O   UNL A   1      32.434  20.675  25.174  1.00  0.00    -0.252 OA
BRANCH   6   8
ATOM      8  C   UNL A   1      32.880  22.593  23.820  1.00  0.00     0.159 C 
BRANCH   8   9
ATOM      9  C   UNL A   1      32.117  23.633  24.559  1.00  0.00    -0.019 A 
ATOM     10  C   UNL A   1      31.023  23.504  25.449  1.00  0.00     0.024 A 
ATOM     11  C   UNL A   1      32.432  24.976  24.541  1.00  0.00     0.095 A 
ATOM     12  C   UNL A   1      30.734  24.755  25.947  1.00  0.00     0.091 A 
ATOM     13  N   UNL A   1      31.594  25.674  25.379  1.00  0.00    -0.321 N 
BRANCH  13  14
ATOM     14  C   UNL A   1      31.645  27.064  25.642  1.00  0.00     0.081 A 
ATOM     15  C   UNL A   1      32.167  27.532  26.856  1.00  0.00     0.030 A 
ATOM     16  C   UNL A   1      31.198  27.987  24.690  1.00  0.00     0.147 A 
ATOM     17  C   UNL A   1      32.258  28.907  27.090  1.00  0.00     0.002 A 
ATOM     18  C   UNL A   1      31.275  29.354  24.933  1.00  0.00     0.041 A 
ATOM     19  F   UNL A   1      30.630  27.600  23.538  1.00  0.00    -0.205 F 
ATOM     20  C   UNL A   1      31.812  29.816  26.131  1.00  0.00     0.003 A 
ENDBRANCH  13  14
ENDBRANCH   8   9
ENDBRANCH   6   8
ENDBRANCH   5   6
ENDBRANCH   4   5
ENDBRANCH   3   4
ENDBRANCH   2   3
ENDBRANCH   1   2
BRANCH   1  21
ATOM     21  C   UNL A   1      39.922  20.765  26.352  1.00  0.00     0.188 C 
BRANCH  21  22
ATOM     22  O   UNL A   1      41.260  20.891  26.820  1.00  0.00    -0.376 OA
BRANCH  22  23
ATOM     23  C   UNL A   1      42.382  21.037  25.967  1.00  0.00     0.202 C 
BRANCH  23  24
ATOM     24  C   UNL A   1      42.963  22.432  25.761  1.00  0.00     0.261 C 
BRANCH  24  25
ATOM     25  O   UNL A   1      42.161  23.479  26.295  1.00  0.00    -0.460 OA
BRANCH  25  26
ATOM     26  C   UNL A   1      42.371  24.661  25.698  1.00  0.00     0.338 C 
ATOM     27  O   UNL A   1      43.324  24.984  24.993  1.00  0.00    -0.246 OA
BRANCH  26  28
ATOM     28  C   UNL A   1      41.360  25.638  26.098  1.00  0.00     0.060 A 
ATOM     29  C   UNL A   1      41.656  26.974  25.804  1.00  0.00     0.016 A 
ATOM     30  C   UNL A   1      40.442  25.273  27.088  1.00  0.00     0.016 A 
ATOM     31  C   UNL A   1      41.233  27.944  26.684  1.00  0.00     0.010 A 
ATOM     32  C   UNL A   1      40.048  26.240  27.988  1.00  0.00     0.010 A 
ATOM     33  C   UNL A   1      40.530  27.545  27.825  1.00  0.00    -0.014 A 
BRANCH  33  34
ATOM     34  C   UNL A   1      40.365  28.527  28.902  1.00  0.00     0.031 A 
ATOM     35  C   UNL A   1      41.332  28.320  30.038  1.00  0.00     0.074 A 
ATOM     36  C   UNL A   1      39.351  29.427  28.735  1.00  0.00     0.049 A 
ATOM     37  N   UNL A   1      41.249  28.729  31.262  1.00  0.00    -0.248 NA
ATOM     38  C   UNL A   1      42.544  27.494  29.802  1.00  0.00     0.031 C 
ATOM     39  C   UNL A   1      38.478  29.481  27.541  1.00  0.00     0.029 A 
ATOM     40  N   UNL A   1      38.839  30.451  29.502  1.00  0.00    -0.354 N 
ATOM     41  C   UNL A   1      42.446  28.363  31.893  1.00  0.00     0.074 A 
ATOM     42  C   UNL A   1      43.163  27.525  30.980  1.00  0.00     0.031 C 
ATOM     43  C   UNL A   1      37.528  30.425  27.687  1.00  0.00     0.029 A 
ATOM     44  C   UNL A   1      37.697  31.088  28.964  1.00  0.00     0.049 A 
ATOM     45  H   UNL A   1      39.238  30.719  30.362  1.00  0.00     0.167 HD
ATOM     46  C   UNL A   1      42.846  28.878  33.085  1.00  0.00     0.031 A 
ATOM     47  C   UNL A   1      36.909  32.062  29.510  1.00  0.00     0.031 A 
ATOM     48  C   UNL A   1      41.832  29.681  33.683  1.00  0.00     0.049 A 
ATOM     49  C   UNL A   1      37.538  32.466  30.781  1.00  0.00     0.074 A 
ATOM     50  C   UNL A   1      40.629  29.398  34.276  1.00  0.00     0.029 A 
ATOM     51  N   UNL A   1      41.883  31.030  33.433  1.00  0.00    -0.354 N 
ATOM     52  N   UNL A   1      38.624  33.168  30.883  1.00  0.00    -0.248 NA
ATOM     53  C   UNL A   1      36.949  32.015  32.047  1.00  0.00     0.031 C 
ATOM     54  C   UNL A   1      39.821  30.532  34.016  1.00  0.00     0.029 A 
ATOM     55  C   UNL A   1      40.585  31.471  33.318  1.00  0.00     0.049 A 
ATOM     56  H   UNL A   1      42.696  31.579  33.352  1.00  0.00     0.167 HD
ATOM     57  C   UNL A   1      39.040  32.904  32.167  1.00  0.00     0.074 A 
ATOM     58  C   UNL A   1      37.867  32.475  32.895  1.00  0.00     0.031 C 
ATOM     59  C   UNL A   1      40.331  32.556  32.397  1.00  0.00     0.031 A 
BRANCH  46  60
ATOM     60  C   UNL A   1      44.223  28.884  33.670  1.00  0.00    -0.014 A 
ATOM     61  C   UNL A   1      44.402  28.295  34.939  1.00  0.00     0.009 A 
ATOM     62  C   UNL A   1      45.270  29.670  33.169  1.00  0.00     0.009 A 
ATOM     63  C   UNL A   1      45.545  28.538  35.702  1.00  0.00     0.001 A 
ATOM     64  C   UNL A   1      46.433  29.884  33.917  1.00  0.00     0.001 A 
ATOM     65  C   UNL A   1      46.557  29.342  35.193  1.00  0.00     0.000 A 
ENDBRANCH  46  60
BRANCH  47  66
ATOM     66  C   UNL A   1      35.609  32.733  29.157  1.00  0.00    -0.014 A 
ATOM     67  C   UNL A   1      35.222  34.019  29.548  1.00  0.00     0.009 A 
ATOM     68  C   UNL A   1      34.689  32.049  28.319  1.00  0.00     0.009 A 
ATOM     69  C   UNL A   1      34.032  34.606  29.074  1.00  0.00     0.001 A 
ATOM     70  C   UNL A   1      33.522  32.636  27.821  1.00  0.00     0.001 A 
ATOM     71  C   UNL A   1      33.197  33.927  28.192  1.00  0.00     0.000 A 
ENDBRANCH  47  66
BRANCH  59  72
ATOM     72  C   UNL A   1      41.294  32.982  31.301  1.00  0.00    -0.014 A 
ATOM     73  C   UNL A   1      41.936  32.031  30.498  1.00  0.00     0.009 A 
ATOM     74  C   UNL A   1      41.674  34.327  31.139  1.00  0.00     0.009 A 
ATOM     75  C   UNL A   1      42.927  32.410  29.582  1.00  0.00     0.001 A 
ATOM     76  C   UNL A   1      42.658  34.713  30.224  1.00  0.00     0.001 A 
ATOM     77  C   UNL A   1      43.290  33.749  29.447  1.00  0.00     0.000 A 
ENDBRANCH  59  72
ENDBRANCH  33  34
ENDBRANCH  26  28
ENDBRANCH  25  26
ENDBRANCH  24  25
ENDBRANCH  23  24
ENDBRANCH  22  23
ENDBRANCH  21  22
ENDBRANCH   1  21
TORSDOF 19
ENDMDL
MODEL 3
REMARK VINA RESULT:      -9.6      4.241      9.486
REMARK SMILES O=C(Cc1ccn(-c2ccccc2F)c1)OCCOCCOCCOC(=O)c1ccc(-c2c3nc(c(-c4ccccc4)c4ccc([nH]4)c(-c4ccccc4)c4nc(c(-c5ccccc5)c5ccc2[nH]5)C=C4)C=C3)cc1
REMARK SMILES IDX 20 1 19 2 18 3 17 4 16 5 2 6 1 7 3 8 4 9 5 10 15 11 6 12
REMARK SMILES IDX 7 13 8 14 9 15 13 16 10 17 12 18 14 19 11 20 21 21 22 22
REMARK SMILES IDX 23 23 24 24 25 25 26 26 27 27 28 28 29 29 75 30 30 31 74 32
REMARK SMILES IDX 31 33 32 34 33 35 68 36 34 37 73 38 67 39 69 40 35 41 72 42
REMARK SMILES IDX 66 43 65 44 36 46 58 47 43 48 57 49 44 50 47 51 56 52 70 53
REMARK SMILES IDX 45 54 46 55 55 57 71 58 48 59 37 60 38 61 42 62 39 63 41 64
REMARK SMILES IDX 40 65 59 66 60 67 64 68 61 69 63 70 62 71 49 72 50 73 54 74
REMARK SMILES IDX 51 75 53 76 52 77
REMARK H PARENT 69 45 47 56
REMARK Flexibility Score: inf
ROOT
ATOM      1  C   UNL A   1      34.564  34.998  28.491  1.00  0.00     0.188 C 
ENDROOT
BRANCH   1   2
ATOM      2  O   UNL A   1      34.527  33.918  27.582  1.00  0.00    -0.376 OA
BRANCH   2   3
ATOM      3  C   UNL A   1      33.707  32.802  27.887  1.00  0.00     0.202 C 
BRANCH   3   4
ATOM      4  C   UNL A   1      34.169  31.426  27.398  1.00  0.00     0.261 C 
BRANCH   4   5
ATOM      5  O   UNL A   1      33.327  30.301  27.721  1.00  0.00    -0.463 OA
BRANCH   5   6
ATOM      6  C   UNL A   1      32.298  29.854  26.964  1.00  0.00     0.310 C 
ATOM      7  O   UNL A   1      31.794  30.589  26.117  1.00  0.00    -0.252 OA
BRANCH   6   8
ATOM      8  C   UNL A   1      31.675  28.532  27.327  1.00  0.00     0.159 C 
BRANCH   8   9
ATOM      9  C   UNL A   1      31.789  27.479  26.284  1.00  0.00    -0.019 A 
ATOM     10  C   UNL A   1      31.071  27.308  25.074  1.00  0.00     0.024 A 
ATOM     11  C   UNL A   1      32.734  26.473  26.306  1.00  0.00     0.095 A 
ATOM     12  C   UNL A   1      31.615  26.232  24.408  1.00  0.00     0.091 A 
ATOM     13  N   UNL A   1      32.637  25.702  25.171  1.00  0.00    -0.321 N 
BRANCH  13  14
ATOM     14  C   UNL A   1      33.466  24.606  24.833  1.00  0.00     0.081 A 
ATOM     15  C   UNL A   1      34.000  24.498  23.542  1.00  0.00     0.030 A 
ATOM     16  C   UNL A   1      33.782  23.630  25.786  1.00  0.00     0.147 A 
ATOM     17  C   UNL A   1      34.856  23.438  23.229  1.00  0.00     0.002 A 
ATOM     18  C   UNL A   1      34.621  22.568  25.467  1.00  0.00     0.041 A 
ATOM     19  F   UNL A   1      33.250  23.643  27.018  1.00  0.00    -0.205 F 
ATOM     20  C   UNL A   1      35.165  22.475  24.189  1.00  0.00     0.003 A 
ENDBRANCH  13  14
ENDBRANCH   8   9
ENDBRANCH   6   8
ENDBRANCH   5   6
ENDBRANCH   4   5
ENDBRANCH   3   4
ENDBRANCH   2   3
ENDBRANCH   1   2
BRANCH   1  21
ATOM     21  C   UNL A   1      33.224  35.370  29.152  1.00  0.00     0.188 C 
BRANCH  21  22
ATOM     22  O   UNL A   1      32.831  34.952  30.455  1.00  0.00    -0.376 OA
BRANCH  22  23
ATOM     23  C   UNL A   1      32.943  35.764  31.610  1.00  0.00     0.202 C 
BRANCH  23  24
ATOM     24  C   UNL A   1      34.250  35.739  32.394  1.00  0.00     0.261 C 
BRANCH  24  25
ATOM     25  O   UNL A   1      35.115  34.663  32.045  1.00  0.00    -0.460 OA
BRANCH  25  26
ATOM     26  C   UNL A   1      34.988  33.601  32.855  1.00  0.00     0.338 C 
ATOM     27  O   UNL A   1      34.504  33.574  33.983  1.00  0.00    -0.246 OA
BRANCH  26  28
ATOM     28  C   UNL A   1      35.644  32.426  32.284  1.00  0.00     0.060 A 
ATOM     29  C   UNL A   1      36.470  31.708  33.156  1.00  0.00     0.016 A 
ATOM     30  C   UNL A   1      35.774  32.350  30.894  1.00  0.00     0.016 A 
ATOM     31  C   UNL A   1      37.603  31.119  32.644  1.00  0.00     0.010 A 
ATOM     32  C   UNL A   1      36.927  31.791  30.385  1.00  0.00     0.010 A 
ATOM     33  C   UNL A   1      37.871  31.269  31.279  1.00  0.00    -0.014 A 
BRANCH  33  34
ATOM     34  C   UNL A   1      39.216  30.923  30.807  1.00  0.00     0.031 A 
ATOM     35  C   UNL A   1      40.156  32.100  30.803  1.00  0.00     0.074 A 
ATOM     36  C   UNL A   1      39.390  29.629  30.405  1.00  0.00     0.049 A 
ATOM     37  N   UNL A   1      41.253  32.263  30.138  1.00  0.00    -0.248 NA
ATOM     38  C   UNL A   1      39.807  33.295  31.614  1.00  0.00     0.031 C 
ATOM     39  C   UNL A   1      38.337  28.592  30.469  1.00  0.00     0.029 A 
ATOM     40  N   UNL A   1      40.445  28.925  29.866  1.00  0.00    -0.354 N 
ATOM     41  C   UNL A   1      41.805  33.480  30.559  1.00  0.00     0.074 A 
ATOM     42  C   UNL A   1      40.830  34.117  31.393  1.00  0.00     0.031 C 
ATOM     43  C   UNL A   1      38.777  27.433  29.944  1.00  0.00     0.029 A 
ATOM     44  C   UNL A   1      40.151  27.588  29.510  1.00  0.00     0.049 A 
ATOM     45  H   UNL A   1      41.337  29.322  29.738  1.00  0.00     0.167 HD
ATOM     46  C   UNL A   1      43.090  33.842  30.307  1.00  0.00     0.031 A 
ATOM     47  C   UNL A   1      40.937  26.666  28.880  1.00  0.00     0.031 A 
ATOM     48  C   UNL A   1      43.735  32.926  29.426  1.00  0.00     0.049 A 
ATOM     49  C   UNL A   1      42.272  27.271  28.722  1.00  0.00     0.074 A 
ATOM     50  C   UNL A   1      43.611  32.655  28.088  1.00  0.00     0.029 A 
ATOM     51  N   UNL A   1      44.458  31.913  30.007  1.00  0.00    -0.354 N 
ATOM     52  N   UNL A   1      43.121  27.463  29.684  1.00  0.00    -0.248 NA
ATOM     53  C   UNL A   1      42.689  27.753  27.399  1.00  0.00     0.031 C 
ATOM     54  C   UNL A   1      43.934  31.282  27.965  1.00  0.00     0.029 A 
ATOM     55  C   UNL A   1      44.285  30.793  29.226  1.00  0.00     0.049 A 
ATOM     56  H   UNL A   1      44.999  31.976  30.826  1.00  0.00     0.167 HD
ATOM     57  C   UNL A   1      43.966  28.414  29.162  1.00  0.00     0.074 A 
ATOM     58  C   UNL A   1      43.850  28.317  27.724  1.00  0.00     0.031 C 
ATOM     59  C   UNL A   1      44.278  29.511  29.896  1.00  0.00     0.031 A 
BRANCH  46  60
ATOM     60  C   UNL A   1      43.906  34.887  31.000  1.00  0.00    -0.014 A 
ATOM     61  C   UNL A   1      44.340  34.620  32.315  1.00  0.00     0.009 A 
ATOM     62  C   UNL A   1      44.026  36.205  30.536  1.00  0.00     0.009 A 
ATOM     63  C   UNL A   1      44.806  35.635  33.151  1.00  0.00     0.001 A 
ATOM     64  C   UNL A   1      44.529  37.217  31.360  1.00  0.00     0.001 A 
ATOM     65  C   UNL A   1      44.892  36.937  32.674  1.00  0.00     0.000 A 
ENDBRANCH  46  60
BRANCH  47  66
ATOM     66  C   UNL A   1      40.749  25.287  28.306  1.00  0.00    -0.014 A 
ATOM     67  C   UNL A   1      39.635  24.848  27.584  1.00  0.00     0.009 A 
ATOM     68  C   UNL A   1      41.794  24.335  28.450  1.00  0.00     0.009 A 
ATOM     69  C   UNL A   1      39.599  23.573  26.987  1.00  0.00     0.001 A 
ATOM     70  C   UNL A   1      41.778  23.080  27.835  1.00  0.00     0.001 A 
ATOM     71  C   UNL A   1      40.678  22.700  27.090  1.00  0.00     0.000 A 
ENDBRANCH  47  66
BRANCH  59  72
ATOM     72  C   UNL A   1      44.075  29.337  31.392  1.00  0.00    -0.014 A 
ATOM     73  C   UNL A   1      42.922  29.823  32.023  1.00  0.00     0.009 A 
ATOM     74  C   UNL A   1      45.083  28.802  32.213  1.00  0.00     0.009 A 
ATOM     75  C   UNL A   1      42.794  29.788  33.418  1.00  0.00     0.001 A 
ATOM     76  C   UNL A   1      44.960  28.759  33.605  1.00  0.00     0.001 A 
ATOM     77  C   UNL A   1      43.813  29.259  34.209  1.00  0.00     0.000 A 
ENDBRANCH  59  72
ENDBRANCH  33  34
ENDBRANCH  26  28
ENDBRANCH  25  26
ENDBRANCH  24  25
ENDBRANCH  23  24
ENDBRANCH  22  23
ENDBRANCH  21  22
ENDBRANCH   1  21
TORSDOF 19
ENDMDL
