MODEL 1
REMARK VINA RESULT:     -12.3      0.000      0.000
REMARK SMILES Cc1ccc(-c2nc(C)cc(N3CCCC[C@H]3C(=O)OCCOCCOCCOC(=O)c3ccc(-c4c5nc(c(-c6ccccc6)c6ccc([nH]6)c(-c6ccccc6)c6nc(c(-c7ccccc7)c7ccc4[nH]7)C=C6)C=C5)cc3)n2)cc1
REMARK SMILES IDX 24 1 23 2 22 3 21 4 20 5 18 6 19 7 17 8 12 9 13 10 14 11
REMARK SMILES IDX 16 12 15 13 11 14 6 15 7 16 80 17 8 18 9 19 10 20 5 21 1 22
REMARK SMILES IDX 2 23 3 24 82 25 4 26 81 27 25 28 26 29 27 30 28 31 29 32
REMARK SMILES IDX 30 33 31 34 32 35 33 36 79 37 34 38 78 39 35 40 36 41 37 42
REMARK SMILES IDX 72 43 38 44 77 45 71 46 73 47 39 48 76 49 70 50 69 51 40 53
REMARK SMILES IDX 62 54 47 55 61 56 48 57 51 58 60 59 74 60 49 61 50 62 59 64
REMARK SMILES IDX 75 65 52 66 41 67 42 68 46 69 43 70 45 71 44 72 63 73 64 74
REMARK SMILES IDX 68 75 65 76 67 77 66 78 53 79 54 80 58 81 55 82 57 83 56 84
REMARK H PARENT 73 52 51 63
REMARK Flexibility Score: inf
ROOT
ATOM      1  C   UNL A   1      32.712  30.639  26.709  1.00  0.00     0.188 C 
ENDROOT
BRANCH   1   2
ATOM      2  O   UNL A   1      33.728  29.672  26.411  1.00  0.00    -0.376 OA
BRANCH   2   3
ATOM      3  C   UNL A   1      33.522  28.509  27.271  1.00  0.00     0.202 C 
BRANCH   3   4
ATOM      4  C   UNL A   1      32.059  27.919  27.078  1.00  0.00     0.261 C 
BRANCH   4   5
ATOM      5  O   UNL A   1      31.531  26.316  26.862  1.00  0.00    -0.462 OA
BRANCH   5   6
ATOM      6  C   UNL A   1      31.766  24.951  26.610  1.00  0.00     0.328 C 
ATOM      7  O   UNL A   1      31.366  23.952  27.207  1.00  0.00    -0.250 OA
BRANCH   6   8
ATOM      8  C   UNL A   1      32.636  24.603  25.442  1.00  0.00     0.193 C 
ATOM      9  N   UNL A   1      32.109  23.428  24.765  1.00  0.00    -0.343 N 
ATOM     10  C   UNL A   1      31.098  23.556  23.731  1.00  0.00     0.119 C 
ATOM     11  C   UNL A   1      31.018  24.922  23.051  1.00  0.00     0.022 C 
ATOM     12  C   UNL A   1      32.859  25.789  24.538  1.00  0.00     0.037 C 
ATOM     13  C   UNL A   1      31.609  26.131  23.754  1.00  0.00     0.005 C 
BRANCH   9  14
ATOM     14  C   UNL A   1      32.662  22.171  24.894  1.00  0.00     0.133 A 
ATOM     15  C   UNL A   1      34.684  21.080  25.012  1.00  0.00     0.161 A 
ATOM     16  N   UNL A   1      34.191  19.874  24.733  1.00  0.00    -0.233 NA
ATOM     17  N   UNL A   1      33.970  22.204  25.124  1.00  0.00    -0.211 NA
ATOM     18  C   UNL A   1      32.849  19.815  24.605  1.00  0.00     0.043 A 
ATOM     19  C   UNL A   1      32.330  18.434  24.329  1.00  0.00     0.067 C 
ATOM     20  C   UNL A   1      32.033  20.954  24.669  1.00  0.00     0.070 A 
BRANCH  15  21
ATOM     21  C   UNL A   1      36.116  21.307  25.111  1.00  0.00     0.019 A 
ATOM     22  C   UNL A   1      40.293  21.617  26.120  1.00  0.00     0.044 C 
ATOM     23  C   UNL A   1      38.851  21.522  25.723  1.00  0.00    -0.051 A 
ATOM     24  C   UNL A   1      38.011  22.642  25.820  1.00  0.00     0.004 A 
ATOM     25  C   UNL A   1      38.328  20.305  25.288  1.00  0.00     0.004 A 
ATOM     26  C   UNL A   1      36.653  22.538  25.507  1.00  0.00     0.012 A 
ATOM     27  C   UNL A   1      36.977  20.203  24.984  1.00  0.00     0.012 A 
ENDBRANCH  15  21
ENDBRANCH   9  14
ENDBRANCH   6   8
ENDBRANCH   5   6
ENDBRANCH   4   5
ENDBRANCH   3   4
ENDBRANCH   2   3
ENDBRANCH   1   2
BRANCH   1  28
ATOM     28  C   UNL A   1      33.049  31.684  27.764  1.00  0.00     0.188 C 
BRANCH  28  29
ATOM     29  O   UNL A   1      34.014  32.684  27.450  1.00  0.00    -0.376 OA
BRANCH  29  30
ATOM     30  C   UNL A   1      34.228  33.741  28.384  1.00  0.00     0.202 C 
BRANCH  30  31
ATOM     31  C   UNL A   1      35.667  34.003  28.887  1.00  0.00     0.261 C 
BRANCH  31  32
ATOM     32  O   UNL A   1      36.415  32.791  29.036  1.00  0.00    -0.460 OA
BRANCH  32  33
ATOM     33  C   UNL A   1      36.054  31.970  30.075  1.00  0.00     0.338 C 
ATOM     34  O   UNL A   1      35.827  32.278  31.212  1.00  0.00    -0.246 OA
BRANCH  33  35
ATOM     35  C   UNL A   1      36.370  30.610  29.568  1.00  0.00     0.060 A 
ATOM     36  C   UNL A   1      36.859  29.641  30.417  1.00  0.00     0.016 A 
ATOM     37  C   UNL A   1      36.589  30.424  28.241  1.00  0.00     0.016 A 
ATOM     38  C   UNL A   1      37.819  28.697  29.956  1.00  0.00     0.010 A 
ATOM     39  C   UNL A   1      37.636  29.555  27.871  1.00  0.00     0.010 A 
ATOM     40  C   UNL A   1      38.464  28.777  28.716  1.00  0.00    -0.014 A 
BRANCH  40  41
ATOM     41  C   UNL A   1      40.044  28.162  28.538  1.00  0.00     0.031 A 
ATOM     42  C   UNL A   1      40.751  26.675  28.043  1.00  0.00     0.074 A 
ATOM     43  C   UNL A   1      40.987  29.058  28.935  1.00  0.00     0.049 A 
ATOM     44  N   UNL A   1      41.834  26.168  28.613  1.00  0.00    -0.248 NA
ATOM     45  C   UNL A   1      40.299  25.595  27.082  1.00  0.00     0.031 C 
ATOM     46  C   UNL A   1      42.439  28.969  28.869  1.00  0.00     0.029 A 
ATOM     47  N   UNL A   1      40.778  30.207  29.706  1.00  0.00    -0.354 N 
ATOM     48  C   UNL A   1      42.135  24.951  27.977  1.00  0.00     0.074 A 
ATOM     49  C   UNL A   1      40.957  24.498  27.399  1.00  0.00     0.031 C 
ATOM     50  C   UNL A   1      42.954  29.791  29.803  1.00  0.00     0.029 A 
ATOM     51  C   UNL A   1      41.849  30.324  30.586  1.00  0.00     0.049 A 
ATOM     52  H   UNL A   1      40.011  30.821  29.639  1.00  0.00     0.167 HD
ATOM     53  C   UNL A   1      43.380  24.491  27.696  1.00  0.00     0.031 A 
ATOM     54  C   UNL A   1      41.657  30.149  31.929  1.00  0.00     0.031 A 
ATOM     55  C   UNL A   1      44.294  25.143  28.582  1.00  0.00     0.049 A 
ATOM     56  C   UNL A   1      42.456  28.984  32.491  1.00  0.00     0.074 A 
ATOM     57  C   UNL A   1      45.153  26.210  28.445  1.00  0.00     0.029 A 
ATOM     58  N   UNL A   1      44.039  24.985  29.930  1.00  0.00    -0.354 N 
ATOM     59  N   UNL A   1      43.056  28.076  31.766  1.00  0.00    -0.248 NA
ATOM     60  C   UNL A   1      42.637  28.746  33.921  1.00  0.00     0.031 C 
ATOM     61  C   UNL A   1      45.276  26.802  29.738  1.00  0.00     0.029 A 
ATOM     62  C   UNL A   1      44.566  26.035  30.647  1.00  0.00     0.049 A 
ATOM     63  H   UNL A   1      43.549  24.229  30.324  1.00  0.00     0.167 HD
ATOM     64  C   UNL A   1      43.661  27.151  32.577  1.00  0.00     0.074 A 
ATOM     65  C   UNL A   1      43.387  27.630  33.918  1.00  0.00     0.031 C 
ATOM     66  C   UNL A   1      44.317  26.058  32.083  1.00  0.00     0.031 A 
BRANCH  53  67
ATOM     67  C   UNL A   1      43.735  23.620  26.477  1.00  0.00    -0.014 A 
ATOM     68  C   UNL A   1      43.809  22.228  26.635  1.00  0.00     0.009 A 
ATOM     69  C   UNL A   1      44.146  24.085  25.200  1.00  0.00     0.009 A 
ATOM     70  C   UNL A   1      44.288  21.378  25.615  1.00  0.00     0.001 A 
ATOM     71  C   UNL A   1      44.594  23.245  24.166  1.00  0.00     0.001 A 
ATOM     72  C   UNL A   1      44.682  21.885  24.381  1.00  0.00     0.000 A 
ENDBRANCH  53  67
BRANCH  54  73
ATOM     73  C   UNL A   1      40.372  30.693  32.503  1.00  0.00    -0.014 A 
ATOM     74  C   UNL A   1      39.434  29.783  33.047  1.00  0.00     0.009 A 
ATOM     75  C   UNL A   1      40.147  32.057  32.750  1.00  0.00     0.009 A 
ATOM     76  C   UNL A   1      38.371  30.201  33.861  1.00  0.00     0.001 A 
ATOM     77  C   UNL A   1      39.079  32.474  33.573  1.00  0.00     0.001 A 
ATOM     78  C   UNL A   1      38.201  31.551  34.136  1.00  0.00     0.000 A 
ENDBRANCH  54  73
BRANCH  66  79
ATOM     79  C   UNL A   1      44.770  24.843  32.875  1.00  0.00    -0.014 A 
ATOM     80  C   UNL A   1      45.990  24.740  33.550  1.00  0.00     0.009 A 
ATOM     81  C   UNL A   1      43.844  23.792  33.100  1.00  0.00     0.009 A 
ATOM     82  C   UNL A   1      46.280  23.639  34.370  1.00  0.00     0.001 A 
ATOM     83  C   UNL A   1      44.096  22.736  33.976  1.00  0.00     0.001 A 
ATOM     84  C   UNL A   1      45.328  22.651  34.600  1.00  0.00     0.000 A 
ENDBRANCH  66  79
ENDBRANCH  40  41
ENDBRANCH  33  35
ENDBRANCH  32  33
ENDBRANCH  31  32
ENDBRANCH  30  31
ENDBRANCH  29  30
ENDBRANCH  28  29
ENDBRANCH   1  28
TORSDOF 19
ENDMDL
MODEL 2
REMARK VINA RESULT:     -12.3      0.928      2.233
REMARK SMILES Cc1ccc(-c2nc(C)cc(N3CCCC[C@H]3C(=O)OCCOCCOCCOC(=O)c3ccc(-c4c5nc(c(-c6ccccc6)c6ccc([nH]6)c(-c6ccccc6)c6nc(c(-c7ccccc7)c7ccc4[nH]7)C=C6)C=C5)cc3)n2)cc1
REMARK SMILES IDX 24 1 23 2 22 3 21 4 20 5 18 6 19 7 17 8 12 9 13 10 14 11
REMARK SMILES IDX 16 12 15 13 11 14 6 15 7 16 80 17 8 18 9 19 10 20 5 21 1 22
REMARK SMILES IDX 2 23 3 24 82 25 4 26 81 27 25 28 26 29 27 30 28 31 29 32
REMARK SMILES IDX 30 33 31 34 32 35 33 36 79 37 34 38 78 39 35 40 36 41 37 42
REMARK SMILES IDX 72 43 38 44 77 45 71 46 73 47 39 48 76 49 70 50 69 51 40 53
REMARK SMILES IDX 62 54 47 55 61 56 48 57 51 58 60 59 74 60 49 61 50 62 59 64
REMARK SMILES IDX 75 65 52 66 41 67 42 68 46 69 43 70 45 71 44 72 63 73 64 74
REMARK SMILES IDX 68 75 65 76 67 77 66 78 53 79 54 80 58 81 55 82 57 83 56 84
REMARK H PARENT 73 52 51 63
REMARK Flexibility Score: inf
ROOT
ATOM      1  C   UNL A   1      32.464  30.102  25.795  1.00  0.00     0.188 C 
ENDROOT
BRANCH   1   2
ATOM      2  O   UNL A   1      33.343  28.971  25.840  1.00  0.00    -0.376 OA
BRANCH   2   3
ATOM      3  C   UNL A   1      33.366  28.460  27.208  1.00  0.00     0.202 C 
BRANCH   3   4
ATOM      4  C   UNL A   1      32.057  27.609  27.513  1.00  0.00     0.261 C 
BRANCH   4   5
ATOM      5  O   UNL A   1      31.591  26.064  26.977  1.00  0.00    -0.462 OA
BRANCH   5   6
ATOM      6  C   UNL A   1      31.874  24.796  26.433  1.00  0.00     0.328 C 
ATOM      7  O   UNL A   1      31.636  23.671  26.871  1.00  0.00    -0.250 OA
BRANCH   6   8
ATOM      8  C   UNL A   1      32.579  24.753  25.112  1.00  0.00     0.193 C 
ATOM      9  N   UNL A   1      32.642  23.382  24.630  1.00  0.00    -0.343 N 
ATOM     10  C   UNL A   1      31.554  22.814  23.855  1.00  0.00     0.119 C 
ATOM     11  C   UNL A   1      30.649  23.824  23.149  1.00  0.00     0.022 C 
ATOM     12  C   UNL A   1      31.981  25.726  24.128  1.00  0.00     0.037 C 
ATOM     13  C   UNL A   1      30.625  25.261  23.639  1.00  0.00     0.005 C 
BRANCH   9  14
ATOM     14  C   UNL A   1      33.787  22.615  24.684  1.00  0.00     0.133 A 
ATOM     15  C   UNL A   1      34.507  20.433  24.813  1.00  0.00     0.161 A 
ATOM     16  N   UNL A   1      35.743  20.733  25.207  1.00  0.00    -0.233 NA
ATOM     17  N   UNL A   1      33.546  21.318  24.527  1.00  0.00    -0.211 NA
ATOM     18  C   UNL A   1      36.027  22.051  25.263  1.00  0.00     0.043 A 
ATOM     19  C   UNL A   1      37.440  22.347  25.672  1.00  0.00     0.067 C 
ATOM     20  C   UNL A   1      35.066  23.042  25.016  1.00  0.00     0.070 A 
BRANCH  15  21
ATOM     21  C   UNL A   1      34.040  19.057  24.770  1.00  0.00     0.019 A 
ATOM     22  C   UNL A   1      32.861  14.965  25.422  1.00  0.00     0.044 C 
ATOM     23  C   UNL A   1      33.247  16.387  25.152  1.00  0.00    -0.051 A 
ATOM     24  C   UNL A   1      34.441  16.685  24.478  1.00  0.00     0.004 A 
ATOM     25  C   UNL A   1      32.435  17.427  25.604  1.00  0.00     0.004 A 
ATOM     26  C   UNL A   1      34.831  18.012  24.280  1.00  0.00     0.012 A 
ATOM     27  C   UNL A   1      32.828  18.744  25.412  1.00  0.00     0.012 A 
ENDBRANCH  15  21
ENDBRANCH   9  14
ENDBRANCH   6   8
ENDBRANCH   5   6
ENDBRANCH   4   5
ENDBRANCH   3   4
ENDBRANCH   2   3
ENDBRANCH   1   2
BRANCH   1  28
ATOM     28  C   UNL A   1      32.559  31.089  26.951  1.00  0.00     0.188 C 
BRANCH  28  29
ATOM     29  O   UNL A   1      33.667  31.983  26.996  1.00  0.00    -0.376 OA
BRANCH  29  30
ATOM     30  C   UNL A   1      33.831  32.807  28.149  1.00  0.00     0.202 C 
BRANCH  30  31
ATOM     31  C   UNL A   1      35.202  33.482  28.386  1.00  0.00     0.261 C 
BRANCH  31  32
ATOM     32  O   UNL A   1      36.247  32.524  28.590  1.00  0.00    -0.460 OA
BRANCH  32  33
ATOM     33  C   UNL A   1      36.136  31.723  29.700  1.00  0.00     0.338 C 
ATOM     34  O   UNL A   1      36.057  32.061  30.848  1.00  0.00    -0.246 OA
BRANCH  33  35
ATOM     35  C   UNL A   1      36.508  30.377  29.192  1.00  0.00     0.060 A 
ATOM     36  C   UNL A   1      36.957  29.402  30.057  1.00  0.00     0.016 A 
ATOM     37  C   UNL A   1      36.815  30.216  27.880  1.00  0.00     0.016 A 
ATOM     38  C   UNL A   1      37.961  28.482  29.644  1.00  0.00     0.010 A 
ATOM     39  C   UNL A   1      37.898  29.371  27.565  1.00  0.00     0.010 A 
ATOM     40  C   UNL A   1      38.684  28.593  28.450  1.00  0.00    -0.014 A 
BRANCH  40  41
ATOM     41  C   UNL A   1      40.282  28.006  28.365  1.00  0.00     0.031 A 
ATOM     42  C   UNL A   1      41.045  26.538  27.897  1.00  0.00     0.074 A 
ATOM     43  C   UNL A   1      41.182  28.912  28.832  1.00  0.00     0.049 A 
ATOM     44  N   UNL A   1      42.098  26.041  28.528  1.00  0.00    -0.248 NA
ATOM     45  C   UNL A   1      40.673  25.464  26.896  1.00  0.00     0.031 C 
ATOM     46  C   UNL A   1      42.636  28.847  28.858  1.00  0.00     0.029 A 
ATOM     47  N   UNL A   1      40.905  30.046  29.604  1.00  0.00    -0.354 N 
ATOM     48  C   UNL A   1      42.459  24.838  27.898  1.00  0.00     0.074 A 
ATOM     49  C   UNL A   1      41.329  24.374  27.240  1.00  0.00     0.031 C 
ATOM     50  C   UNL A   1      43.077  29.665  29.834  1.00  0.00     0.029 A 
ATOM     51  C   UNL A   1      41.916  30.169  30.551  1.00  0.00     0.049 A 
ATOM     52  H   UNL A   1      40.133  30.648  29.496  1.00  0.00     0.167 HD
ATOM     53  C   UNL A   1      43.728  24.403  27.691  1.00  0.00     0.031 A 
ATOM     54  C   UNL A   1      41.642  29.972  31.877  1.00  0.00     0.031 A 
ATOM     55  C   UNL A   1      44.572  25.057  28.641  1.00  0.00     0.049 A 
ATOM     56  C   UNL A   1      42.424  28.813  32.474  1.00  0.00     0.074 A 
ATOM     57  C   UNL A   1      45.420  26.140  28.573  1.00  0.00     0.029 A 
ATOM     58  N   UNL A   1      44.235  24.877  29.969  1.00  0.00    -0.354 N 
ATOM     59  N   UNL A   1      43.083  27.925  31.777  1.00  0.00    -0.248 NA
ATOM     60  C   UNL A   1      42.517  28.558  33.909  1.00  0.00     0.031 C 
ATOM     61  C   UNL A   1      45.450  26.716  29.879  1.00  0.00     0.029 A 
ATOM     62  C   UNL A   1      44.697  25.925  30.731  1.00  0.00     0.049 A 
ATOM     63  H   UNL A   1      43.734  24.107  30.321  1.00  0.00     0.167 HD
ATOM     64  C   UNL A   1      43.652  26.999  32.613  1.00  0.00     0.074 A 
ATOM     65  C   UNL A   1      43.286  27.455  33.940  1.00  0.00     0.031 C 
ATOM     66  C   UNL A   1      44.357  25.924  32.148  1.00  0.00     0.031 A 
BRANCH  53  67
ATOM     67  C   UNL A   1      44.175  23.555  26.486  1.00  0.00    -0.014 A 
ATOM     68  C   UNL A   1      45.369  22.823  26.575  1.00  0.00     0.009 A 
ATOM     69  C   UNL A   1      43.572  23.533  25.200  1.00  0.00     0.009 A 
ATOM     70  C   UNL A   1      45.930  22.158  25.465  1.00  0.00     0.001 A 
ATOM     71  C   UNL A   1      44.106  22.848  24.095  1.00  0.00     0.001 A 
ATOM     72  C   UNL A   1      45.301  22.170  24.224  1.00  0.00     0.000 A 
ENDBRANCH  53  67
BRANCH  54  73
ATOM     73  C   UNL A   1      40.314  30.487  32.375  1.00  0.00    -0.014 A 
ATOM     74  C   UNL A   1      39.351  29.552  32.825  1.00  0.00     0.009 A 
ATOM     75  C   UNL A   1      40.055  31.841  32.644  1.00  0.00     0.009 A 
ATOM     76  C   UNL A   1      38.229  29.937  33.575  1.00  0.00     0.001 A 
ATOM     77  C   UNL A   1      38.928  32.224  33.402  1.00  0.00     0.001 A 
ATOM     78  C   UNL A   1      38.024  31.276  33.876  1.00  0.00     0.000 A 
ENDBRANCH  54  73
BRANCH  66  79
ATOM     79  C   UNL A   1      44.779  24.706  32.952  1.00  0.00    -0.014 A 
ATOM     80  C   UNL A   1      45.989  24.587  33.644  1.00  0.00     0.009 A 
ATOM     81  C   UNL A   1      43.834  23.671  33.169  1.00  0.00     0.009 A 
ATOM     82  C   UNL A   1      46.250  23.485  34.473  1.00  0.00     0.001 A 
ATOM     83  C   UNL A   1      44.057  22.615  34.053  1.00  0.00     0.001 A 
ATOM     84  C   UNL A   1      45.279  22.514  34.694  1.00  0.00     0.000 A 
ENDBRANCH  66  79
ENDBRANCH  40  41
ENDBRANCH  33  35
ENDBRANCH  32  33
ENDBRANCH  31  32
ENDBRANCH  30  31
ENDBRANCH  29  30
ENDBRANCH  28  29
ENDBRANCH   1  28
TORSDOF 19
ENDMDL
MODEL 3
REMARK VINA RESULT:     -12.0      3.717      9.654
REMARK SMILES Cc1ccc(-c2nc(C)cc(N3CCCC[C@H]3C(=O)OCCOCCOCCOC(=O)c3ccc(-c4c5nc(c(-c6ccccc6)c6ccc([nH]6)c(-c6ccccc6)c6nc(c(-c7ccccc7)c7ccc4[nH]7)C=C6)C=C5)cc3)n2)cc1
REMARK SMILES IDX 24 1 23 2 22 3 21 4 20 5 18 6 19 7 17 8 12 9 13 10 14 11
REMARK SMILES IDX 16 12 15 13 11 14 6 15 7 16 80 17 8 18 9 19 10 20 5 21 1 22
REMARK SMILES IDX 2 23 3 24 82 25 4 26 81 27 25 28 26 29 27 30 28 31 29 32
REMARK SMILES IDX 30 33 31 34 32 35 33 36 79 37 34 38 78 39 35 40 36 41 37 42
REMARK SMILES IDX 72 43 38 44 77 45 71 46 73 47 39 48 76 49 70 50 69 51 40 53
REMARK SMILES IDX 62 54 47 55 61 56 48 57 51 58 60 59 74 60 49 61 50 62 59 64
REMARK SMILES IDX 75 65 52 66 41 67 42 68 46 69 43 70 45 71 44 72 63 73 64 74
REMARK SMILES IDX 68 75 65 76 67 77 66 78 53 79 54 80 58 81 55 82 57 83 56 84
REMARK H PARENT 73 52 51 63
REMARK Flexibility Score: inf
ROOT
ATOM      1  C   UNL A   1      37.962  22.314  25.048  1.00  0.00     0.188 C 
ENDROOT
BRANCH   1   2
ATOM      2  O   UNL A   1      36.982  21.596  24.287  1.00  0.00    -0.376 OA
BRANCH   2   3
ATOM      3  C   UNL A   1      35.679  21.788  24.918  1.00  0.00     0.202 C 
BRANCH   3   4
ATOM      4  C   UNL A   1      35.260  23.322  24.890  1.00  0.00     0.261 C 
BRANCH   4   5
ATOM      5  O   UNL A   1      33.950  24.125  25.619  1.00  0.00    -0.462 OA
BRANCH   5   6
ATOM      6  C   UNL A   1      32.641  24.159  26.136  1.00  0.00     0.328 C 
ATOM      7  O   UNL A   1      32.171  23.641  27.148  1.00  0.00    -0.250 OA
BRANCH   6   8
ATOM      8  C   UNL A   1      31.616  24.936  25.368  1.00  0.00     0.193 C 
ATOM      9  N   UNL A   1      32.246  26.066  24.704  1.00  0.00    -0.343 N 
ATOM     10  C   UNL A   1      32.844  25.919  23.389  1.00  0.00     0.119 C 
ATOM     11  C   UNL A   1      32.330  24.743  22.559  1.00  0.00     0.022 C 
ATOM     12  C   UNL A   1      30.815  24.048  24.449  1.00  0.00     0.037 C 
ATOM     13  C   UNL A   1      31.638  23.590  23.263  1.00  0.00     0.005 C 
BRANCH   9  14
ATOM     14  C   UNL A   1      32.140  27.364  25.159  1.00  0.00     0.133 A 
ATOM     15  C   UNL A   1      31.143  29.382  24.676  1.00  0.00     0.161 A 
ATOM     16  N   UNL A   1      31.949  30.106  25.451  1.00  0.00    -0.233 NA
ATOM     17  N   UNL A   1      31.191  28.053  24.533  1.00  0.00    -0.211 NA
ATOM     18  C   UNL A   1      32.844  29.401  26.173  1.00  0.00     0.043 A 
ATOM     19  C   UNL A   1      33.706  30.249  27.062  1.00  0.00     0.067 C 
ATOM     20  C   UNL A   1      32.984  28.010  26.051  1.00  0.00     0.070 A 
BRANCH  15  21
ATOM     21  C   UNL A   1      30.175  30.011  23.793  1.00  0.00     0.019 A 
ATOM     22  C   UNL A   1      27.955  32.192  20.815  1.00  0.00     0.044 C 
ATOM     23  C   UNL A   1      28.687  31.409  21.862  1.00  0.00    -0.051 A 
ATOM     24  C   UNL A   1      28.755  31.877  23.182  1.00  0.00     0.004 A 
ATOM     25  C   UNL A   1      29.335  30.223  21.518  1.00  0.00     0.004 A 
ATOM     26  C   UNL A   1      29.488  31.178  24.145  1.00  0.00     0.012 A 
ATOM     27  C   UNL A   1      30.067  29.534  22.475  1.00  0.00     0.012 A 
ENDBRANCH  15  21
ENDBRANCH   9  14
ENDBRANCH   6   8
ENDBRANCH   5   6
ENDBRANCH   4   5
ENDBRANCH   3   4
ENDBRANCH   2   3
ENDBRANCH   1   2
BRANCH   1  28
ATOM     28  C   UNL A   1      38.714  21.526  26.112  1.00  0.00     0.188 C 
BRANCH  28  29
ATOM     29  O   UNL A   1      40.082  21.201  25.881  1.00  0.00    -0.376 OA
BRANCH  29  30
ATOM     30  C   UNL A   1      40.897  20.852  26.999  1.00  0.00     0.202 C 
BRANCH  30  31
ATOM     31  C   UNL A   1      42.091  21.768  27.357  1.00  0.00     0.261 C 
BRANCH  31  32
ATOM     32  O   UNL A   1      41.687  23.126  27.562  1.00  0.00    -0.460 OA
BRANCH  32  33
ATOM     33  C   UNL A   1      41.866  23.986  26.506  1.00  0.00     0.338 C 
ATOM     34  O   UNL A   1      42.841  24.114  25.819  1.00  0.00    -0.246 OA
BRANCH  33  35
ATOM     35  C   UNL A   1      40.746  24.950  26.651  1.00  0.00     0.060 A 
ATOM     36  C   UNL A   1      40.875  26.246  26.200  1.00  0.00     0.016 A 
ATOM     37  C   UNL A   1      39.779  24.721  27.575  1.00  0.00     0.016 A 
ATOM     38  C   UNL A   1      40.265  27.319  26.909  1.00  0.00     0.010 A 
ATOM     39  C   UNL A   1      39.308  25.826  28.313  1.00  0.00     0.010 A 
ATOM     40  C   UNL A   1      39.668  27.188  28.168  1.00  0.00    -0.014 A 
BRANCH  40  41
ATOM     41  C   UNL A   1      39.669  28.504  29.252  1.00  0.00     0.031 A 
ATOM     42  C   UNL A   1      38.657  29.859  29.564  1.00  0.00     0.074 A 
ATOM     43  C   UNL A   1      40.778  28.515  30.039  1.00  0.00     0.049 A 
ATOM     44  N   UNL A   1      39.131  31.053  29.886  1.00  0.00    -0.248 NA
ATOM     45  C   UNL A   1      37.168  30.083  29.403  1.00  0.00     0.031 C 
ATOM     46  C   UNL A   1      41.128  29.403  31.138  1.00  0.00     0.029 A 
ATOM     47  N   UNL A   1      41.959  27.793  29.831  1.00  0.00    -0.354 N 
ATOM     48  C   UNL A   1      38.042  31.924  30.063  1.00  0.00     0.074 A 
ATOM     49  C   UNL A   1      36.979  31.386  29.351  1.00  0.00     0.031 C 
ATOM     50  C   UNL A   1      42.468  29.398  31.275  1.00  0.00     0.029 A 
ATOM     51  C   UNL A   1      43.023  28.618  30.179  1.00  0.00     0.049 A 
ATOM     52  H   UNL A   1      42.025  26.869  29.498  1.00  0.00     0.167 HD
ATOM     53  C   UNL A   1      37.951  32.896  31.005  1.00  0.00     0.031 A 
ATOM     54  C   UNL A   1      43.878  29.079  29.216  1.00  0.00     0.031 A 
ATOM     55  C   UNL A   1      39.280  33.233  31.411  1.00  0.00     0.049 A 
ATOM     56  C   UNL A   1      43.879  30.596  29.107  1.00  0.00     0.074 A 
ATOM     57  C   UNL A   1      40.059  32.893  32.494  1.00  0.00     0.029 A 
ATOM     58  N   UNL A   1      40.129  33.647  30.403  1.00  0.00    -0.354 N 
ATOM     59  N   UNL A   1      42.994  31.381  29.663  1.00  0.00    -0.248 NA
ATOM     60  C   UNL A   1      44.878  31.350  28.354  1.00  0.00     0.031 C 
ATOM     61  C   UNL A   1      41.415  32.950  32.054  1.00  0.00     0.029 A 
ATOM     62  C   UNL A   1      41.440  33.407  30.747  1.00  0.00     0.049 A 
ATOM     63  H   UNL A   1      39.838  34.056  29.557  1.00  0.00     0.167 HD
ATOM     64  C   UNL A   1      43.261  32.688  29.350  1.00  0.00     0.074 A 
ATOM     65  C   UNL A   1      44.466  32.615  28.546  1.00  0.00     0.031 C 
ATOM     66  C   UNL A   1      42.461  33.720  29.756  1.00  0.00     0.031 A 
BRANCH  53  67
ATOM     67  C   UNL A   1      36.638  33.349  31.669  1.00  0.00    -0.014 A 
ATOM     68  C   UNL A   1      36.386  32.978  32.999  1.00  0.00     0.009 A 
ATOM     69  C   UNL A   1      35.551  34.002  31.029  1.00  0.00     0.009 A 
ATOM     70  C   UNL A   1      35.142  33.209  33.623  1.00  0.00     0.001 A 
ATOM     71  C   UNL A   1      34.319  34.266  31.651  1.00  0.00     0.001 A 
ATOM     72  C   UNL A   1      34.107  33.852  32.951  1.00  0.00     0.000 A 
ENDBRANCH  53  67
BRANCH  54  73
ATOM     73  C   UNL A   1      44.227  28.118  28.107  1.00  0.00    -0.014 A 
ATOM     74  C   UNL A   1      43.757  28.392  26.800  1.00  0.00     0.009 A 
ATOM     75  C   UNL A   1      45.183  27.097  28.234  1.00  0.00     0.009 A 
ATOM     76  C   UNL A   1      44.270  27.739  25.668  1.00  0.00     0.001 A 
ATOM     77  C   UNL A   1      45.699  26.445  27.094  1.00  0.00     0.001 A 
ATOM     78  C   UNL A   1      45.254  26.772  25.815  1.00  0.00     0.000 A 
ENDBRANCH  54  73
BRANCH  66  79
ATOM     79  C   UNL A   1      42.499  35.148  29.239  1.00  0.00    -0.014 A 
ATOM     80  C   UNL A   1      43.292  36.169  29.775  1.00  0.00     0.009 A 
ATOM     81  C   UNL A   1      41.821  35.456  28.032  1.00  0.00     0.009 A 
ATOM     82  C   UNL A   1      43.374  37.428  29.161  1.00  0.00     0.001 A 
ATOM     83  C   UNL A   1      41.962  36.679  27.375  1.00  0.00     0.001 A 
ATOM     84  C   UNL A   1      42.728  37.675  27.953  1.00  0.00     0.000 A 
ENDBRANCH  66  79
ENDBRANCH  40  41
ENDBRANCH  33  35
ENDBRANCH  32  33
ENDBRANCH  31  32
ENDBRANCH  30  31
ENDBRANCH  29  30
ENDBRANCH  28  29
ENDBRANCH   1  28
TORSDOF 19
ENDMDL
