MODEL 1
REMARK VINA RESULT:     -10.7      0.000      0.000
REMARK SMILES CC(=O)NS(=O)(=O)c1ccc(-c2ccn(C(F)F)c(=O)c2)cc1C(=O)OCCOCCOCCOC(=O)c1ccc(-c2c3nc(c(-c4ccccc4)c4ccc([nH]4)c(-c4ccccc4)c4nc(c(-c5ccccc5)c5ccc2[nH]5)C=C4)C=C3)cc1
REMARK SMILES IDX 30 1 29 2 28 3 27 4 26 5 24 6 25 7 23 8 8 9 9 10 10 11 22 12
REMARK SMILES IDX 11 13 5 14 6 15 7 16 4 17 1 18 2 19 3 20 12 22 13 23 21 24
REMARK SMILES IDX 14 25 19 26 15 27 20 28 16 29 17 30 18 31 31 32 32 33 33 34
REMARK SMILES IDX 34 35 35 36 36 37 37 38 38 39 39 40 85 41 40 42 84 43 41 44
REMARK SMILES IDX 42 45 43 46 78 47 44 48 83 49 77 50 79 51 45 52 82 53 76 54
REMARK SMILES IDX 75 55 46 57 68 58 53 59 67 60 54 61 57 62 66 63 80 64 55 65
REMARK SMILES IDX 56 66 65 68 81 69 58 70 47 71 48 72 52 73 49 74 51 75 50 76
REMARK SMILES IDX 69 77 70 78 74 79 71 80 73 81 72 82 59 83 60 84 64 85 61 86
REMARK SMILES IDX 63 87 62 88
REMARK H PARENT 4 21 79 56 57 67
REMARK Flexibility Score: inf
ROOT
ATOM      1  C   UNL A   1      39.372  21.028  25.765  1.00  0.00     0.188 C 
ENDROOT
BRANCH   1   2
ATOM      2  O   UNL A   1      38.762  21.966  26.638  1.00  0.00    -0.376 OA
BRANCH   2   3
ATOM      3  C   UNL A   1      38.960  23.337  26.316  1.00  0.00     0.202 C 
BRANCH   3   4
ATOM      4  C   UNL A   1      37.670  24.074  25.945  1.00  0.00     0.261 C 
BRANCH   4   5
ATOM      5  O   UNL A   1      36.584  23.201  25.593  1.00  0.00    -0.460 OA
BRANCH   5   6
ATOM      6  C   UNL A   1      36.216  23.151  24.307  1.00  0.00     0.339 C 
ATOM      7  O   UNL A   1      36.943  23.360  23.349  1.00  0.00    -0.246 OA
BRANCH   6   8
ATOM      8  C   UNL A   1      34.825  22.646  24.156  1.00  0.00     0.081 A 
ATOM      9  C   UNL A   1      33.719  23.381  23.707  1.00  0.00     0.102 A 
ATOM     10  C   UNL A   1      32.543  22.705  23.338  1.00  0.00     0.024 A 
ATOM     11  C   UNL A   1      32.405  21.339  23.577  1.00  0.00     0.010 A 
ATOM     12  C   UNL A   1      34.668  21.265  24.401  1.00  0.00     0.025 A 
ATOM     13  C   UNL A   1      33.451  20.618  24.153  1.00  0.00    -0.017 A 
BRANCH   9  14
ATOM     14  S   UNL A   1      33.700  25.156  23.713  1.00  0.00     0.264 S 
ATOM     15  O   UNL A   1      34.009  25.585  22.369  1.00  0.00    -0.201 OA
ATOM     16  O   UNL A   1      34.408  25.633  24.871  1.00  0.00    -0.201 OA
BRANCH  14  17
ATOM     17  N   UNL A   1      32.094  25.576  23.981  1.00  0.00    -0.249 N 
ATOM     18  C   UNL A   1      31.633  24.705  26.279  1.00  0.00     0.115 C 
ATOM     19  C   UNL A   1      31.575  25.826  25.272  1.00  0.00     0.230 C 
ATOM     20  O   UNL A   1      30.915  26.838  25.465  1.00  0.00    -0.274 OA
ATOM     21  H   UNL A   1      31.489  25.649  23.207  1.00  0.00     0.183 HD
ENDBRANCH  14  17
ENDBRANCH   9  14
BRANCH  13  22
ATOM     22  C   UNL A   1      33.276  19.193  24.478  1.00  0.00    -0.011 A 
ATOM     23  C   UNL A   1      32.642  18.731  25.698  1.00  0.00     0.027 A 
ATOM     24  C   UNL A   1      33.720  18.291  23.586  1.00  0.00     0.080 A 
ATOM     25  C   UNL A   1      32.516  17.421  25.942  1.00  0.00     0.095 A 
ATOM     26  C   UNL A   1      33.578  16.832  23.838  1.00  0.00     0.255 A 
ATOM     27  N   UNL A   1      32.976  16.482  25.036  1.00  0.00    -0.258 N 
ATOM     28  O   UNL A   1      33.994  16.053  22.987  1.00  0.00    -0.269 OA
BRANCH  27  29
ATOM     29  C   UNL A   1      32.853  15.074  25.314  1.00  0.00     0.451 C 
ATOM     30  F   UNL A   1      34.065  14.520  25.566  1.00  0.00    -0.185 F 
ATOM     31  F   UNL A   1      32.064  14.860  26.395  1.00  0.00    -0.185 F 
ENDBRANCH  27  29
ENDBRANCH  13  22
ENDBRANCH   6   8
ENDBRANCH   5   6
ENDBRANCH   4   5
ENDBRANCH   3   4
ENDBRANCH   2   3
ENDBRANCH   1   2
BRANCH   1  32
ATOM     32  C   UNL A   1      40.820  20.650  26.132  1.00  0.00     0.188 C 
BRANCH  32  33
ATOM     33  O   UNL A   1      41.947  21.352  25.628  1.00  0.00    -0.376 OA
BRANCH  33  34
ATOM     34  C   UNL A   1      43.250  20.811  25.755  1.00  0.00     0.202 C 
BRANCH  34  35
ATOM     35  C   UNL A   1      44.372  21.584  25.061  1.00  0.00     0.261 C 
BRANCH  35  36
ATOM     36  O   UNL A   1      44.141  22.998  24.988  1.00  0.00    -0.460 OA
BRANCH  36  37
ATOM     37  C   UNL A   1      44.890  23.738  25.839  1.00  0.00     0.338 C 
ATOM     38  O   UNL A   1      46.106  23.799  25.906  1.00  0.00    -0.246 OA
BRANCH  37  39
ATOM     39  C   UNL A   1      44.016  24.631  26.624  1.00  0.00     0.060 A 
ATOM     40  C   UNL A   1      44.386  25.980  26.718  1.00  0.00     0.016 A 
ATOM     41  C   UNL A   1      42.894  24.154  27.307  1.00  0.00     0.016 A 
ATOM     42  C   UNL A   1      43.658  26.849  27.525  1.00  0.00     0.010 A 
ATOM     43  C   UNL A   1      42.178  25.021  28.138  1.00  0.00     0.010 A 
ATOM     44  C   UNL A   1      42.581  26.362  28.274  1.00  0.00    -0.014 A 
BRANCH  44  45
ATOM     45  C   UNL A   1      42.019  27.215  29.345  1.00  0.00     0.031 A 
ATOM     46  C   UNL A   1      42.740  27.275  30.663  1.00  0.00     0.074 A 
ATOM     47  C   UNL A   1      40.926  27.968  29.134  1.00  0.00     0.049 A 
ATOM     48  N   UNL A   1      42.458  27.976  31.730  1.00  0.00    -0.248 NA
ATOM     49  C   UNL A   1      43.949  26.442  30.787  1.00  0.00     0.031 C 
ATOM     50  C   UNL A   1      40.164  28.032  27.889  1.00  0.00     0.029 A 
ATOM     51  N   UNL A   1      40.267  28.824  29.979  1.00  0.00    -0.354 N 
ATOM     52  C   UNL A   1      43.455  27.674  32.650  1.00  0.00     0.074 A 
ATOM     53  C   UNL A   1      44.335  26.711  32.025  1.00  0.00     0.031 C 
ATOM     54  C   UNL A   1      39.127  28.871  28.057  1.00  0.00     0.029 A 
ATOM     55  C   UNL A   1      39.141  29.382  29.427  1.00  0.00     0.049 A 
ATOM     56  H   UNL A   1      40.571  29.020  30.895  1.00  0.00     0.167 HD
ATOM     57  C   UNL A   1      43.628  28.158  33.901  1.00  0.00     0.031 A 
ATOM     58  C   UNL A   1      38.217  30.194  29.975  1.00  0.00     0.031 A 
ATOM     59  C   UNL A   1      42.737  29.087  34.541  1.00  0.00     0.049 A 
ATOM     60  C   UNL A   1      38.375  30.639  31.405  1.00  0.00     0.074 A 
ATOM     61  C   UNL A   1      42.828  29.637  35.807  1.00  0.00     0.029 A 
ATOM     62  N   UNL A   1      41.581  29.587  33.965  1.00  0.00    -0.354 N 
ATOM     63  N   UNL A   1      39.343  30.377  32.250  1.00  0.00    -0.248 NA
ATOM     64  C   UNL A   1      37.316  31.501  31.950  1.00  0.00     0.031 C 
ATOM     65  C   UNL A   1      41.698  30.436  36.016  1.00  0.00     0.029 A 
ATOM     66  C   UNL A   1      40.934  30.422  34.859  1.00  0.00     0.049 A 
ATOM     67  H   UNL A   1      41.267  29.380  33.056  1.00  0.00     0.167 HD
ATOM     68  C   UNL A   1      39.023  31.060  33.417  1.00  0.00     0.074 A 
ATOM     69  C   UNL A   1      37.780  31.760  33.165  1.00  0.00     0.031 C 
ATOM     70  C   UNL A   1      39.699  31.111  34.591  1.00  0.00     0.031 A 
BRANCH  57  71
ATOM     71  C   UNL A   1      44.815  27.657  34.670  1.00  0.00    -0.014 A 
ATOM     72  C   UNL A   1      44.763  26.443  35.375  1.00  0.00     0.009 A 
ATOM     73  C   UNL A   1      46.005  28.400  34.681  1.00  0.00     0.009 A 
ATOM     74  C   UNL A   1      45.870  26.001  36.102  1.00  0.00     0.001 A 
ATOM     75  C   UNL A   1      47.118  27.944  35.389  1.00  0.00     0.001 A 
ATOM     76  C   UNL A   1      47.047  26.749  36.105  1.00  0.00     0.000 A 
ENDBRANCH  57  71
BRANCH  58  77
ATOM     77  C   UNL A   1      37.039  30.624  29.181  1.00  0.00    -0.014 A 
ATOM     78  C   UNL A   1      36.031  29.710  28.843  1.00  0.00     0.009 A 
ATOM     79  C   UNL A   1      36.934  31.950  28.733  1.00  0.00     0.009 A 
ATOM     80  C   UNL A   1      34.953  30.110  28.051  1.00  0.00     0.001 A 
ATOM     81  C   UNL A   1      35.843  32.352  27.961  1.00  0.00     0.001 A 
ATOM     82  C   UNL A   1      34.858  31.431  27.613  1.00  0.00     0.000 A 
ENDBRANCH  58  77
BRANCH  70  83
ATOM     83  C   UNL A   1      39.131  31.980  35.677  1.00  0.00    -0.014 A 
ATOM     84  C   UNL A   1      39.466  33.338  35.774  1.00  0.00     0.009 A 
ATOM     85  C   UNL A   1      38.214  31.436  36.590  1.00  0.00     0.009 A 
ATOM     86  C   UNL A   1      38.915  34.129  36.785  1.00  0.00     0.001 A 
ATOM     87  C   UNL A   1      37.645  32.236  37.583  1.00  0.00     0.001 A 
ATOM     88  C   UNL A   1      38.003  33.579  37.685  1.00  0.00     0.000 A 
ENDBRANCH  70  83
ENDBRANCH  44  45
ENDBRANCH  37  39
ENDBRANCH  36  37
ENDBRANCH  35  36
ENDBRANCH  34  35
ENDBRANCH  33  34
ENDBRANCH  32  33
ENDBRANCH   1  32
TORSDOF 21
ENDMDL
MODEL 2
REMARK VINA RESULT:     -10.3      4.643      8.093
REMARK SMILES CC(=O)NS(=O)(=O)c1ccc(-c2ccn(C(F)F)c(=O)c2)cc1C(=O)OCCOCCOCCOC(=O)c1ccc(-c2c3nc(c(-c4ccccc4)c4ccc([nH]4)c(-c4ccccc4)c4nc(c(-c5ccccc5)c5ccc2[nH]5)C=C4)C=C3)cc1
REMARK SMILES IDX 30 1 29 2 28 3 27 4 26 5 24 6 25 7 23 8 8 9 9 10 10 11 22 12
REMARK SMILES IDX 11 13 5 14 6 15 7 16 4 17 1 18 2 19 3 20 12 22 13 23 21 24
REMARK SMILES IDX 14 25 19 26 15 27 20 28 16 29 17 30 18 31 31 32 32 33 33 34
REMARK SMILES IDX 34 35 35 36 36 37 37 38 38 39 39 40 85 41 40 42 84 43 41 44
REMARK SMILES IDX 42 45 43 46 78 47 44 48 83 49 77 50 79 51 45 52 82 53 76 54
REMARK SMILES IDX 75 55 46 57 68 58 53 59 67 60 54 61 57 62 66 63 80 64 55 65
REMARK SMILES IDX 56 66 65 68 81 69 58 70 47 71 48 72 52 73 49 74 51 75 50 76
REMARK SMILES IDX 69 77 70 78 74 79 71 80 73 81 72 82 59 83 60 84 64 85 61 86
REMARK SMILES IDX 63 87 62 88
REMARK H PARENT 4 21 79 56 57 67
REMARK Flexibility Score: inf
ROOT
ATOM      1  C   UNL A   1      32.641  20.598  25.150  1.00  0.00     0.188 C 
ENDROOT
BRANCH   1   2
ATOM      2  O   UNL A   1      31.966  21.765  25.594  1.00  0.00    -0.376 OA
BRANCH   2   3
ATOM      3  C   UNL A   1      32.361  22.269  26.863  1.00  0.00     0.202 C 
BRANCH   3   4
ATOM      4  C   UNL A   1      32.752  23.749  26.841  1.00  0.00     0.261 C 
BRANCH   4   5
ATOM      5  O   UNL A   1      34.116  23.983  26.454  1.00  0.00    -0.460 OA
BRANCH   5   6
ATOM      6  C   UNL A   1      34.334  24.649  25.313  1.00  0.00     0.339 C 
ATOM      7  O   UNL A   1      35.149  24.347  24.457  1.00  0.00    -0.246 OA
BRANCH   6   8
ATOM      8  C   UNL A   1      33.340  25.739  25.119  1.00  0.00     0.081 A 
ATOM      9  C   UNL A   1      32.125  25.641  24.426  1.00  0.00     0.102 A 
ATOM     10  C   UNL A   1      31.162  26.653  24.573  1.00  0.00     0.024 A 
ATOM     11  C   UNL A   1      31.466  27.829  25.256  1.00  0.00     0.010 A 
ATOM     12  C   UNL A   1      33.638  26.938  25.800  1.00  0.00     0.025 A 
ATOM     13  C   UNL A   1      32.724  27.998  25.836  1.00  0.00    -0.017 A 
BRANCH   9  14
ATOM     14  S   UNL A   1      31.809  24.345  23.255  1.00  0.00     0.264 S 
ATOM     15  O   UNL A   1      30.500  23.816  23.556  1.00  0.00    -0.201 OA
ATOM     16  O   UNL A   1      32.981  23.518  23.136  1.00  0.00    -0.201 OA
BRANCH  14  17
ATOM     17  N   UNL A   1      31.672  25.120  21.769  1.00  0.00    -0.249 N 
ATOM     18  C   UNL A   1      33.527  26.796  21.806  1.00  0.00     0.115 C 
ATOM     19  C   UNL A   1      32.779  25.692  21.102  1.00  0.00     0.230 C 
ATOM     20  O   UNL A   1      32.959  25.439  19.918  1.00  0.00    -0.274 OA
ATOM     21  H   UNL A   1      30.784  25.179  21.348  1.00  0.00     0.183 HD
ENDBRANCH  14  17
ENDBRANCH   9  14
BRANCH  13  22
ATOM     22  C   UNL A   1      33.071  29.271  26.489  1.00  0.00    -0.011 A 
ATOM     23  C   UNL A   1      34.312  29.477  27.211  1.00  0.00     0.027 A 
ATOM     24  C   UNL A   1      32.192  30.282  26.392  1.00  0.00     0.080 A 
ATOM     25  C   UNL A   1      34.571  30.656  27.791  1.00  0.00     0.095 A 
ATOM     26  C   UNL A   1      32.470  31.601  27.022  1.00  0.00     0.255 A 
ATOM     27  N   UNL A   1      33.671  31.702  27.706  1.00  0.00    -0.258 N 
ATOM     28  O   UNL A   1      31.636  32.491  26.897  1.00  0.00    -0.269 OA
BRANCH  27  29
ATOM     29  C   UNL A   1      33.948  32.962  28.348  1.00  0.00     0.451 C 
ATOM     30  F   UNL A   1      34.452  32.773  29.593  1.00  0.00    -0.185 F 
ATOM     31  F   UNL A   1      34.852  33.679  27.637  1.00  0.00    -0.185 F 
ENDBRANCH  27  29
ENDBRANCH  13  22
ENDBRANCH   6   8
ENDBRANCH   5   6
ENDBRANCH   4   5
ENDBRANCH   3   4
ENDBRANCH   2   3
ENDBRANCH   1   2
BRANCH   1  32
ATOM     32  C   UNL A   1      34.135  20.536  25.519  1.00  0.00     0.188 C 
BRANCH  32  33
ATOM     33  O   UNL A   1      35.121  20.006  24.644  1.00  0.00    -0.376 OA
BRANCH  33  34
ATOM     34  C   UNL A   1      36.477  19.933  25.044  1.00  0.00     0.202 C 
BRANCH  34  35
ATOM     35  C   UNL A   1      37.350  21.139  24.696  1.00  0.00     0.261 C 
BRANCH  35  36
ATOM     36  O   UNL A   1      37.753  21.910  25.837  1.00  0.00    -0.460 OA
BRANCH  36  37
ATOM     37  C   UNL A   1      39.047  21.748  26.200  1.00  0.00     0.338 C 
ATOM     38  O   UNL A   1      39.778  20.803  25.960  1.00  0.00    -0.246 OA
BRANCH  37  39
ATOM     39  C   UNL A   1      39.546  22.986  26.830  1.00  0.00     0.060 A 
ATOM     40  C   UNL A   1      38.922  24.190  26.474  1.00  0.00     0.016 A 
ATOM     41  C   UNL A   1      40.639  22.984  27.699  1.00  0.00     0.016 A 
ATOM     42  C   UNL A   1      39.411  25.399  26.957  1.00  0.00     0.010 A 
ATOM     43  C   UNL A   1      41.147  24.201  28.163  1.00  0.00     0.010 A 
ATOM     44  C   UNL A   1      40.554  25.413  27.765  1.00  0.00    -0.014 A 
BRANCH  44  45
ATOM     45  C   UNL A   1      41.232  26.705  28.012  1.00  0.00     0.031 A 
ATOM     46  C   UNL A   1      42.597  26.920  27.419  1.00  0.00     0.074 A 
ATOM     47  C   UNL A   1      40.626  27.688  28.698  1.00  0.00     0.049 A 
ATOM     48  N   UNL A   1      43.365  27.977  27.471  1.00  0.00    -0.248 NA
ATOM     49  C   UNL A   1      43.164  25.797  26.653  1.00  0.00     0.031 C 
ATOM     50  C   UNL A   1      39.289  27.619  29.284  1.00  0.00     0.029 A 
ATOM     51  N   UNL A   1      41.072  28.946  29.018  1.00  0.00    -0.354 N 
ATOM     52  C   UNL A   1      44.502  27.650  26.742  1.00  0.00     0.074 A 
ATOM     53  C   UNL A   1      44.334  26.290  26.278  1.00  0.00     0.031 C 
ATOM     54  C   UNL A   1      39.029  28.780  29.910  1.00  0.00     0.029 A 
ATOM     55  C   UNL A   1      40.190  29.661  29.788  1.00  0.00     0.049 A 
ATOM     56  H   UNL A   1      41.942  29.301  28.724  1.00  0.00     0.167 HD
ATOM     57  C   UNL A   1      45.587  28.413  26.477  1.00  0.00     0.031 A 
ATOM     58  C   UNL A   1      40.317  30.880  30.347  1.00  0.00     0.031 A 
ATOM     59  C   UNL A   1      45.776  29.750  26.966  1.00  0.00     0.049 A 
ATOM     60  C   UNL A   1      41.579  31.671  30.123  1.00  0.00     0.074 A 
ATOM     61  C   UNL A   1      46.842  30.605  26.751  1.00  0.00     0.029 A 
ATOM     62  N   UNL A   1      44.881  30.420  27.785  1.00  0.00    -0.354 N 
ATOM     63  N   UNL A   1      42.629  31.365  29.400  1.00  0.00    -0.248 NA
ATOM     64  C   UNL A   1      41.664  32.980  30.786  1.00  0.00     0.031 C 
ATOM     65  C   UNL A   1      46.613  31.778  27.481  1.00  0.00     0.029 A 
ATOM     66  C   UNL A   1      45.381  31.669  28.106  1.00  0.00     0.049 A 
ATOM     67  H   UNL A   1      44.018  30.060  28.093  1.00  0.00     0.167 HD
ATOM     68  C   UNL A   1      43.488  32.452  29.501  1.00  0.00     0.074 A 
ATOM     69  C   UNL A   1      42.830  33.431  30.342  1.00  0.00     0.031 C 
ATOM     70  C   UNL A   1      44.711  32.630  28.943  1.00  0.00     0.031 A 
BRANCH  57  71
ATOM     71  C   UNL A   1      46.670  27.793  25.643  1.00  0.00    -0.014 A 
ATOM     72  C   UNL A   1      46.684  27.938  24.247  1.00  0.00     0.009 A 
ATOM     73  C   UNL A   1      47.697  27.066  26.263  1.00  0.00     0.009 A 
ATOM     74  C   UNL A   1      47.689  27.339  23.485  1.00  0.00     0.001 A 
ATOM     75  C   UNL A   1      48.713  26.487  25.500  1.00  0.00     0.001 A 
ATOM     76  C   UNL A   1      48.704  26.617  24.112  1.00  0.00     0.000 A 
ENDBRANCH  57  71
BRANCH  58  77
ATOM     77  C   UNL A   1      39.230  31.425  31.199  1.00  0.00    -0.014 A 
ATOM     78  C   UNL A   1      39.207  31.173  32.579  1.00  0.00     0.009 A 
ATOM     79  C   UNL A   1      38.194  32.179  30.627  1.00  0.00     0.009 A 
ATOM     80  C   UNL A   1      38.153  31.645  33.364  1.00  0.00     0.001 A 
ATOM     81  C   UNL A   1      37.154  32.669  31.419  1.00  0.00     0.001 A 
ATOM     82  C   UNL A   1      37.130  32.395  32.785  1.00  0.00     0.000 A 
ENDBRANCH  58  77
BRANCH  70  83
ATOM     83  C   UNL A   1      45.398  33.943  29.191  1.00  0.00    -0.014 A 
ATOM     84  C   UNL A   1      46.268  34.117  30.277  1.00  0.00     0.009 A 
ATOM     85  C   UNL A   1      45.202  35.006  28.296  1.00  0.00     0.009 A 
ATOM     86  C   UNL A   1      46.906  35.343  30.478  1.00  0.00     0.001 A 
ATOM     87  C   UNL A   1      45.861  36.222  28.486  1.00  0.00     0.001 A 
ATOM     88  C   UNL A   1      46.705  36.392  29.582  1.00  0.00     0.000 A 
ENDBRANCH  70  83
ENDBRANCH  44  45
ENDBRANCH  37  39
ENDBRANCH  36  37
ENDBRANCH  35  36
ENDBRANCH  34  35
ENDBRANCH  33  34
ENDBRANCH  32  33
ENDBRANCH   1  32
TORSDOF 21
ENDMDL
MODEL 3
REMARK VINA RESULT:     -10.1      1.449      2.130
REMARK SMILES CC(=O)NS(=O)(=O)c1ccc(-c2ccn(C(F)F)c(=O)c2)cc1C(=O)OCCOCCOCCOC(=O)c1ccc(-c2c3nc(c(-c4ccccc4)c4ccc([nH]4)c(-c4ccccc4)c4nc(c(-c5ccccc5)c5ccc2[nH]5)C=C4)C=C3)cc1
REMARK SMILES IDX 30 1 29 2 28 3 27 4 26 5 24 6 25 7 23 8 8 9 9 10 10 11 22 12
REMARK SMILES IDX 11 13 5 14 6 15 7 16 4 17 1 18 2 19 3 20 12 22 13 23 21 24
REMARK SMILES IDX 14 25 19 26 15 27 20 28 16 29 17 30 18 31 31 32 32 33 33 34
REMARK SMILES IDX 34 35 35 36 36 37 37 38 38 39 39 40 85 41 40 42 84 43 41 44
REMARK SMILES IDX 42 45 43 46 78 47 44 48 83 49 77 50 79 51 45 52 82 53 76 54
REMARK SMILES IDX 75 55 46 57 68 58 53 59 67 60 54 61 57 62 66 63 80 64 55 65
REMARK SMILES IDX 56 66 65 68 81 69 58 70 47 71 48 72 52 73 49 74 51 75 50 76
REMARK SMILES IDX 69 77 70 78 74 79 71 80 73 81 72 82 59 83 60 84 64 85 61 86
REMARK SMILES IDX 63 87 62 88
REMARK H PARENT 4 21 79 56 57 67
REMARK Flexibility Score: inf
ROOT
ATOM      1  C   UNL A   1      37.955  22.487  25.743  1.00  0.00     0.188 C 
ENDROOT
BRANCH   1   2
ATOM      2  O   UNL A   1      37.380  22.138  24.494  1.00  0.00    -0.376 OA
BRANCH   2   3
ATOM      3  C   UNL A   1      36.636  23.159  23.842  1.00  0.00     0.202 C 
BRANCH   3   4
ATOM      4  C   UNL A   1      35.671  23.904  24.769  1.00  0.00     0.261 C 
BRANCH   4   5
ATOM      5  O   UNL A   1      34.925  24.944  24.115  1.00  0.00    -0.460 OA
BRANCH   5   6
ATOM      6  C   UNL A   1      33.846  24.586  23.408  1.00  0.00     0.339 C 
ATOM      7  O   UNL A   1      33.682  24.777  22.214  1.00  0.00    -0.246 OA
BRANCH   6   8
ATOM      8  C   UNL A   1      32.908  23.767  24.222  1.00  0.00     0.081 A 
ATOM      9  C   UNL A   1      31.804  24.242  24.944  1.00  0.00     0.102 A 
ATOM     10  C   UNL A   1      30.845  23.331  25.419  1.00  0.00     0.024 A 
ATOM     11  C   UNL A   1      31.066  21.958  25.333  1.00  0.00     0.010 A 
ATOM     12  C   UNL A   1      33.123  22.375  24.149  1.00  0.00     0.025 A 
ATOM     13  C   UNL A   1      32.231  21.471  24.738  1.00  0.00    -0.017 A 
BRANCH   9  14
ATOM     14  S   UNL A   1      31.638  25.949  25.401  1.00  0.00     0.264 S 
ATOM     15  O   UNL A   1      30.703  26.002  26.499  1.00  0.00    -0.201 OA
ATOM     16  O   UNL A   1      31.497  26.746  24.211  1.00  0.00    -0.201 OA
BRANCH  14  17
ATOM     17  N   UNL A   1      33.135  26.379  26.037  1.00  0.00    -0.249 N 
ATOM     18  C   UNL A   1      33.850  28.305  24.613  1.00  0.00     0.115 C 
ATOM     19  C   UNL A   1      33.640  27.698  25.977  1.00  0.00     0.230 C 
ATOM     20  O   UNL A   1      34.088  28.213  26.993  1.00  0.00    -0.274 OA
ATOM     21  H   UNL A   1      33.681  25.683  26.469  1.00  0.00     0.183 HD
ENDBRANCH  14  17
ENDBRANCH   9  14
BRANCH  13  22
ATOM     22  C   UNL A   1      32.500  20.024  24.717  1.00  0.00    -0.011 A 
ATOM     23  C   UNL A   1      32.739  19.247  25.918  1.00  0.00     0.027 A 
ATOM     24  C   UNL A   1      32.512  19.409  23.523  1.00  0.00     0.080 A 
ATOM     25  C   UNL A   1      32.985  17.933  25.837  1.00  0.00     0.095 A 
ATOM     26  C   UNL A   1      32.774  17.948  23.418  1.00  0.00     0.255 A 
ATOM     27  N   UNL A   1      33.008  17.288  24.614  1.00  0.00    -0.258 N 
ATOM     28  O   UNL A   1      32.766  17.435  22.303  1.00  0.00    -0.269 OA
BRANCH  27  29
ATOM     29  C   UNL A   1      33.292  15.878  24.533  1.00  0.00     0.451 C 
ATOM     30  F   UNL A   1      34.404  15.565  25.244  1.00  0.00    -0.185 F 
ATOM     31  F   UNL A   1      32.262  15.148  25.026  1.00  0.00    -0.185 F 
ENDBRANCH  27  29
ENDBRANCH  13  22
ENDBRANCH   6   8
ENDBRANCH   5   6
ENDBRANCH   4   5
ENDBRANCH   3   4
ENDBRANCH   2   3
ENDBRANCH   1   2
BRANCH   1  32
ATOM     32  C   UNL A   1      39.259  21.740  26.085  1.00  0.00     0.188 C 
BRANCH  32  33
ATOM     33  O   UNL A   1      40.460  22.411  26.435  1.00  0.00    -0.376 OA
BRANCH  33  34
ATOM     34  C   UNL A   1      41.716  21.783  26.258  1.00  0.00     0.202 C 
BRANCH  34  35
ATOM     35  C   UNL A   1      42.706  22.499  25.339  1.00  0.00     0.261 C 
BRANCH  35  36
ATOM     36  O   UNL A   1      42.651  23.930  25.432  1.00  0.00    -0.460 OA
BRANCH  36  37
ATOM     37  C   UNL A   1      43.533  24.474  26.303  1.00  0.00     0.338 C 
ATOM     38  O   UNL A   1      44.741  24.307  26.347  1.00  0.00    -0.246 OA
BRANCH  37  39
ATOM     39  C   UNL A   1      42.848  25.468  27.151  1.00  0.00     0.060 A 
ATOM     40  C   UNL A   1      43.398  26.756  27.211  1.00  0.00     0.016 A 
ATOM     41  C   UNL A   1      41.730  25.137  27.921  1.00  0.00     0.016 A 
ATOM     42  C   UNL A   1      42.855  27.707  28.069  1.00  0.00     0.010 A 
ATOM     43  C   UNL A   1      41.201  26.085  28.803  1.00  0.00     0.010 A 
ATOM     44  C   UNL A   1      41.785  27.360  28.902  1.00  0.00    -0.014 A 
BRANCH  44  45
ATOM     45  C   UNL A   1      41.425  28.272  30.011  1.00  0.00     0.031 A 
ATOM     46  C   UNL A   1      42.234  28.211  31.277  1.00  0.00     0.074 A 
ATOM     47  C   UNL A   1      40.441  29.177  29.876  1.00  0.00     0.049 A 
ATOM     48  N   UNL A   1      42.128  28.933  32.362  1.00  0.00    -0.248 NA
ATOM     49  C   UNL A   1      43.316  27.212  31.317  1.00  0.00     0.031 C 
ATOM     50  C   UNL A   1      39.615  29.366  28.686  1.00  0.00     0.029 A 
ATOM     51  N   UNL A   1      39.970  30.109  30.767  1.00  0.00    -0.354 N 
ATOM     52  C   UNL A   1      43.130  28.480  33.212  1.00  0.00     0.074 A 
ATOM     53  C   UNL A   1      43.818  27.407  32.526  1.00  0.00     0.031 C 
ATOM     54  C   UNL A   1      38.724  30.344  28.926  1.00  0.00     0.029 A 
ATOM     55  C   UNL A   1      38.903  30.830  30.293  1.00  0.00     0.049 A 
ATOM     56  H   UNL A   1      40.361  30.248  31.659  1.00  0.00     0.167 HD
ATOM     57  C   UNL A   1      43.455  28.918  34.450  1.00  0.00     0.031 A 
ATOM     58  C   UNL A   1      38.145  31.760  30.905  1.00  0.00     0.031 A 
ATOM     59  C   UNL A   1      42.752  29.957  35.151  1.00  0.00     0.049 A 
ATOM     60  C   UNL A   1      38.461  32.160  32.321  1.00  0.00     0.074 A 
ATOM     61  C   UNL A   1      43.005  30.473  36.409  1.00  0.00     0.029 A 
ATOM     62  N   UNL A   1      41.644  30.627  34.656  1.00  0.00    -0.354 N 
ATOM     63  N   UNL A   1      39.434  31.751  33.098  1.00  0.00    -0.248 NA
ATOM     64  C   UNL A   1      37.576  33.159  32.939  1.00  0.00     0.031 C 
ATOM     65  C   UNL A   1      42.019  31.424  36.696  1.00  0.00     0.029 A 
ATOM     66  C   UNL A   1      41.186  31.535  35.594  1.00  0.00     0.049 A 
ATOM     67  H   UNL A   1      41.243  30.478  33.770  1.00  0.00     0.167 HD
ATOM     68  C   UNL A   1      39.295  32.459  34.286  1.00  0.00     0.074 A 
ATOM     69  C   UNL A   1      38.152  33.334  34.121  1.00  0.00     0.031 C 
ATOM     70  C   UNL A   1      40.048  32.398  35.412  1.00  0.00     0.031 A 
BRANCH  57  71
ATOM     71  C   UNL A   1      44.605  28.241  35.135  1.00  0.00    -0.014 A 
ATOM     72  C   UNL A   1      45.880  28.830  35.165  1.00  0.00     0.009 A 
ATOM     73  C   UNL A   1      44.411  27.005  35.769  1.00  0.00     0.009 A 
ATOM     74  C   UNL A   1      46.944  28.177  35.790  1.00  0.00     0.001 A 
ATOM     75  C   UNL A   1      45.471  26.366  36.413  1.00  0.00     0.001 A 
ATOM     76  C   UNL A   1      46.738  26.948  36.417  1.00  0.00     0.000 A 
ENDBRANCH  57  71
BRANCH  58  77
ATOM     77  C   UNL A   1      36.992  32.365  30.193  1.00  0.00    -0.014 A 
ATOM     78  C   UNL A   1      37.151  33.536  29.436  1.00  0.00     0.009 A 
ATOM     79  C   UNL A   1      35.716  31.787  30.292  1.00  0.00     0.009 A 
ATOM     80  C   UNL A   1      36.051  34.128  28.813  1.00  0.00     0.001 A 
ATOM     81  C   UNL A   1      34.623  32.369  29.647  1.00  0.00     0.001 A 
ATOM     82  C   UNL A   1      34.789  33.543  28.916  1.00  0.00     0.000 A 
ENDBRANCH  58  77
BRANCH  70  83
ATOM     83  C   UNL A   1      39.686  33.326  36.536  1.00  0.00    -0.014 A 
ATOM     84  C   UNL A   1      40.191  34.633  36.593  1.00  0.00     0.009 A 
ATOM     85  C   UNL A   1      38.791  32.896  37.528  1.00  0.00     0.009 A 
ATOM     86  C   UNL A   1      39.828  35.483  37.642  1.00  0.00     0.001 A 
ATOM     87  C   UNL A   1      38.412  33.755  38.560  1.00  0.00     0.001 A 
ATOM     88  C   UNL A   1      38.937  35.045  38.621  1.00  0.00     0.000 A 
ENDBRANCH  70  83
ENDBRANCH  44  45
ENDBRANCH  37  39
ENDBRANCH  36  37
ENDBRANCH  35  36
ENDBRANCH  34  35
ENDBRANCH  33  34
ENDBRANCH  32  33
ENDBRANCH   1  32
TORSDOF 21
ENDMDL
