MODEL 1
REMARK VINA RESULT:     -10.4      0.000      0.000
REMARK SMILES Cc1cccc(NC(=O)C[C@H]([NH2+]C(C)C)C(=O)OCCOCCOCCOC(=O)c2ccc(-c3c4nc(c(-c5ccccc5)c5ccc([nH]5)c(-c5ccccc5)c5nc(c(-c6ccccc6)c6ccc3[nH]6)C=C5)C=C4)cc2)c1
REMARK SMILES IDX 22 1 21 2 20 3 19 4 18 5 16 6 17 7 11 8 10 9 8 10 7 11 9 13
REMARK SMILES IDX 6 14 1 15 2 16 3 17 78 18 4 19 5 20 12 21 13 24 14 25 15 26
REMARK SMILES IDX 23 27 24 28 25 29 26 30 27 31 28 32 29 33 30 34 31 35 77 36
REMARK SMILES IDX 32 37 76 38 33 39 34 40 35 41 70 42 36 43 75 44 69 45 71 46
REMARK SMILES IDX 37 47 74 48 68 49 67 50 38 52 60 53 45 54 59 55 46 56 49 57
REMARK SMILES IDX 58 58 72 59 47 60 48 61 57 63 73 64 50 65 39 66 40 67 44 68
REMARK SMILES IDX 41 69 43 70 42 71 61 72 62 73 66 74 63 75 65 76 64 77 51 78
REMARK SMILES IDX 52 79 56 80 53 81 55 82 54 83
REMARK H PARENT 7 12 12 22 12 23 71 51 49 62
REMARK Flexibility Score: inf
ROOT
ATOM      1  C   UNL A   1      35.840  32.373  28.646  1.00  0.00     0.188 C 
ENDROOT
BRANCH   1   2
ATOM      2  O   UNL A   1      36.274  31.099  29.090  1.00  0.00    -0.376 OA
BRANCH   2   3
ATOM      3  C   UNL A   1      36.223  29.866  28.397  1.00  0.00     0.202 C 
BRANCH   3   4
ATOM      4  C   UNL A   1      35.003  29.580  27.246  1.00  0.00     0.261 C 
BRANCH   4   5
ATOM      5  O   UNL A   1      33.300  29.252  27.365  1.00  0.00    -0.459 OA
BRANCH   5   6
ATOM      6  C   UNL A   1      32.291  28.184  27.368  1.00  0.00     0.365 C 
ATOM      7  O   UNL A   1      31.220  28.324  27.989  1.00  0.00    -0.245 OA
BRANCH   6   8
ATOM      8  C   UNL A   1      32.237  27.048  26.305  1.00  0.00     0.303 C 
BRANCH   8   9
ATOM      9  C   UNL A   1      32.452  27.357  24.536  1.00  0.00     0.177 C 
BRANCH   9  10
ATOM     10  C   UNL A   1      33.400  26.696  23.032  1.00  0.00     0.231 C 
ATOM     11  N   UNL A   1      34.091  25.229  22.627  1.00  0.00    -0.326 N 
ATOM     12  H   UNL A   1      34.505  25.331  21.739  1.00  0.00     0.169 HD
ATOM     13  O   UNL A   1      33.593  27.648  22.246  1.00  0.00    -0.274 OA
BRANCH  11  14
ATOM     14  C   UNL A   1      34.365  23.623  23.139  1.00  0.00     0.041 A 
ATOM     15  C   UNL A   1      32.305  20.416  23.974  1.00  0.00     0.044 C 
ATOM     16  C   UNL A   1      33.456  21.371  23.839  1.00  0.00    -0.049 A 
ATOM     17  C   UNL A   1      34.562  21.034  24.618  1.00  0.00     0.003 A 
ATOM     18  C   UNL A   1      33.391  22.608  23.053  1.00  0.00     0.029 A 
ATOM     19  C   UNL A   1      35.647  21.818  24.473  1.00  0.00     0.002 A 
ATOM     20  C   UNL A   1      35.508  22.993  23.706  1.00  0.00     0.026 A 
ENDBRANCH  11  14
ENDBRANCH   9  10
ENDBRANCH   8   9
BRANCH   8  21
ATOM     21  N   UNL A   1      31.395  25.916  27.073  1.00  0.00    -0.332 N 
ATOM     22  H   UNL A   1      30.402  26.095  26.930  1.00  0.00     0.347 HD
ATOM     23  H   UNL A   1      31.649  25.961  28.060  1.00  0.00     0.347 HD
BRANCH  21  24
ATOM     24  C   UNL A   1      31.719  24.478  26.572  1.00  0.00     0.176 C 
ATOM     25  C   UNL A   1      30.982  23.951  25.337  1.00  0.00     0.075 C 
ATOM     26  C   UNL A   1      33.204  24.039  26.484  1.00  0.00     0.075 C 
ENDBRANCH  21  24
ENDBRANCH   8  21
ENDBRANCH   6   8
ENDBRANCH   5   6
ENDBRANCH   4   5
ENDBRANCH   3   4
ENDBRANCH   2   3
ENDBRANCH   1   2
BRANCH   1  27
ATOM     27  C   UNL A   1      35.265  33.299  29.714  1.00  0.00     0.188 C 
BRANCH  27  28
ATOM     28  O   UNL A   1      34.357  32.654  30.591  1.00  0.00    -0.376 OA
BRANCH  28  29
ATOM     29  C   UNL A   1      34.874  32.368  31.897  1.00  0.00     0.202 C 
BRANCH  29  30
ATOM     30  C   UNL A   1      35.085  33.595  32.824  1.00  0.00     0.261 C 
BRANCH  30  31
ATOM     31  O   UNL A   1      36.232  33.460  33.710  1.00  0.00    -0.460 OA
BRANCH  31  32
ATOM     32  C   UNL A   1      37.489  33.218  33.171  1.00  0.00     0.338 C 
ATOM     33  O   UNL A   1      37.994  33.849  32.297  1.00  0.00    -0.246 OA
BRANCH  32  34
ATOM     34  C   UNL A   1      38.057  31.982  33.802  1.00  0.00     0.060 A 
ATOM     35  C   UNL A   1      37.914  31.560  35.137  1.00  0.00     0.016 A 
ATOM     36  C   UNL A   1      38.993  31.352  33.061  1.00  0.00     0.016 A 
ATOM     37  C   UNL A   1      38.848  30.632  35.749  1.00  0.00     0.010 A 
ATOM     38  C   UNL A   1      40.009  30.722  33.744  1.00  0.00     0.010 A 
ATOM     39  C   UNL A   1      40.064  30.253  35.128  1.00  0.00    -0.014 A 
BRANCH  39  40
ATOM     40  C   UNL A   1      41.470  29.381  35.888  1.00  0.00     0.031 A 
ATOM     41  C   UNL A   1      41.930  27.490  36.168  1.00  0.00     0.074 A 
ATOM     42  C   UNL A   1      42.251  30.515  36.097  1.00  0.00     0.049 A 
ATOM     43  N   UNL A   1      42.652  27.002  37.227  1.00  0.00    -0.248 NA
ATOM     44  C   UNL A   1      41.480  26.043  35.710  1.00  0.00     0.031 C 
ATOM     45  C   UNL A   1      43.645  30.849  35.833  1.00  0.00     0.029 A 
ATOM     46  N   UNL A   1      41.894  31.653  36.839  1.00  0.00    -0.354 N 
ATOM     47  C   UNL A   1      43.014  25.701  37.423  1.00  0.00     0.074 A 
ATOM     48  C   UNL A   1      42.055  25.103  36.523  1.00  0.00     0.031 C 
ATOM     49  C   UNL A   1      44.134  31.706  36.742  1.00  0.00     0.029 A 
ATOM     50  C   UNL A   1      43.014  32.154  37.515  1.00  0.00     0.049 A 
ATOM     51  H   UNL A   1      40.989  32.041  36.879  1.00  0.00     0.167 HD
ATOM     52  C   UNL A   1      44.278  25.390  37.969  1.00  0.00     0.031 A 
ATOM     53  C   UNL A   1      43.007  32.785  38.705  1.00  0.00     0.031 A 
ATOM     54  C   UNL A   1      45.106  26.536  38.546  1.00  0.00     0.049 A 
ATOM     55  C   UNL A   1      43.949  32.149  39.709  1.00  0.00     0.074 A 
ATOM     56  C   UNL A   1      46.288  27.144  38.090  1.00  0.00     0.029 A 
ATOM     57  N   UNL A   1      44.756  27.289  39.671  1.00  0.00    -0.354 N 
ATOM     58  N   UNL A   1      44.752  31.129  39.493  1.00  0.00    -0.248 NA
ATOM     59  C   UNL A   1      43.988  32.611  41.097  1.00  0.00     0.031 C 
ATOM     60  C   UNL A   1      46.587  28.292  38.866  1.00  0.00     0.029 A 
ATOM     61  C   UNL A   1      45.619  28.393  39.842  1.00  0.00     0.049 A 
ATOM     62  H   UNL A   1      44.004  27.075  40.269  1.00  0.00     0.167 HD
ATOM     63  C   UNL A   1      45.102  30.611  40.736  1.00  0.00     0.074 A 
ATOM     64  C   UNL A   1      44.790  31.693  41.657  1.00  0.00     0.031 C 
ATOM     65  C   UNL A   1      45.476  29.307  40.980  1.00  0.00     0.031 A 
BRANCH  52  66
ATOM     66  C   UNL A   1      45.114  24.136  37.517  1.00  0.00    -0.014 A 
ATOM     67  C   UNL A   1      45.278  23.843  36.133  1.00  0.00     0.009 A 
ATOM     68  C   UNL A   1      45.624  23.152  38.373  1.00  0.00     0.009 A 
ATOM     69  C   UNL A   1      45.767  22.620  35.640  1.00  0.00     0.001 A 
ATOM     70  C   UNL A   1      46.158  21.934  37.888  1.00  0.00     0.001 A 
ATOM     71  C   UNL A   1      46.202  21.654  36.526  1.00  0.00     0.000 A 
ENDBRANCH  52  66
BRANCH  53  72
ATOM     72  C   UNL A   1      41.715  33.504  38.922  1.00  0.00    -0.014 A 
ATOM     73  C   UNL A   1      41.497  34.634  38.093  1.00  0.00     0.009 A 
ATOM     74  C   UNL A   1      40.594  32.870  39.474  1.00  0.00     0.009 A 
ATOM     75  C   UNL A   1      40.205  35.026  37.718  1.00  0.00     0.001 A 
ATOM     76  C   UNL A   1      39.299  33.280  39.109  1.00  0.00     0.001 A 
ATOM     77  C   UNL A   1      39.107  34.329  38.208  1.00  0.00     0.000 A 
ENDBRANCH  53  72
BRANCH  65  78
ATOM     78  C   UNL A   1      45.800  28.721  42.348  1.00  0.00    -0.014 A 
ATOM     79  C   UNL A   1      47.083  28.511  42.867  1.00  0.00     0.009 A 
ATOM     80  C   UNL A   1      44.724  28.422  43.219  1.00  0.00     0.009 A 
ATOM     81  C   UNL A   1      47.280  27.973  44.149  1.00  0.00     0.001 A 
ATOM     82  C   UNL A   1      44.914  27.945  44.519  1.00  0.00     0.001 A 
ATOM     83  C   UNL A   1      46.197  27.700  44.978  1.00  0.00     0.000 A 
ENDBRANCH  65  78
ENDBRANCH  39  40
ENDBRANCH  32  34
ENDBRANCH  31  32
ENDBRANCH  30  31
ENDBRANCH  29  30
ENDBRANCH  28  29
ENDBRANCH  27  28
ENDBRANCH   1  27
TORSDOF 22
ENDMDL
MODEL 2
REMARK VINA RESULT:     -10.4      6.318      9.930
REMARK SMILES Cc1cccc(NC(=O)C[C@H]([NH2+]C(C)C)C(=O)OCCOCCOCCOC(=O)c2ccc(-c3c4nc(c(-c5ccccc5)c5ccc([nH]5)c(-c5ccccc5)c5nc(c(-c6ccccc6)c6ccc3[nH]6)C=C5)C=C4)cc2)c1
REMARK SMILES IDX 22 1 21 2 20 3 19 4 18 5 16 6 17 7 11 8 10 9 8 10 7 11 9 13
REMARK SMILES IDX 6 14 1 15 2 16 3 17 78 18 4 19 5 20 12 21 13 24 14 25 15 26
REMARK SMILES IDX 23 27 24 28 25 29 26 30 27 31 28 32 29 33 30 34 31 35 77 36
REMARK SMILES IDX 32 37 76 38 33 39 34 40 35 41 70 42 36 43 75 44 69 45 71 46
REMARK SMILES IDX 37 47 74 48 68 49 67 50 38 52 60 53 45 54 59 55 46 56 49 57
REMARK SMILES IDX 58 58 72 59 47 60 48 61 57 63 73 64 50 65 39 66 40 67 44 68
REMARK SMILES IDX 41 69 43 70 42 71 61 72 62 73 66 74 63 75 65 76 64 77 51 78
REMARK SMILES IDX 52 79 56 80 53 81 55 82 54 83
REMARK H PARENT 7 12 12 22 12 23 71 51 49 62
REMARK Flexibility Score: inf
ROOT
ATOM      1  C   UNL A   1      35.563  32.902  28.031  1.00  0.00     0.188 C 
ENDROOT
BRANCH   1   2
ATOM      2  O   UNL A   1      35.829  31.530  28.267  1.00  0.00    -0.376 OA
BRANCH   2   3
ATOM      3  C   UNL A   1      35.289  30.405  27.598  1.00  0.00     0.202 C 
BRANCH   3   4
ATOM      4  C   UNL A   1      33.648  30.383  27.147  1.00  0.00     0.261 C 
BRANCH   4   5
ATOM      5  O   UNL A   1      32.417  29.156  27.180  1.00  0.00    -0.459 OA
BRANCH   5   6
ATOM      6  C   UNL A   1      32.158  27.724  26.982  1.00  0.00     0.365 C 
ATOM      7  O   UNL A   1      31.218  27.160  27.574  1.00  0.00    -0.245 OA
BRANCH   6   8
ATOM      8  C   UNL A   1      32.682  26.916  25.757  1.00  0.00     0.303 C 
BRANCH   8   9
ATOM      9  C   UNL A   1      33.490  27.703  24.344  1.00  0.00     0.177 C 
BRANCH   9  10
ATOM     10  C   UNL A   1      33.091  28.430  22.638  1.00  0.00     0.231 C 
ATOM     11  N   UNL A   1      31.742  29.128  21.942  1.00  0.00    -0.326 N 
ATOM     12  H   UNL A   1      31.971  29.353  21.011  1.00  0.00     0.169 HD
ATOM     13  O   UNL A   1      34.071  28.225  21.890  1.00  0.00    -0.274 OA
BRANCH  11  14
ATOM     14  C   UNL A   1      30.124  29.607  22.202  1.00  0.00     0.041 A 
ATOM     15  C   UNL A   1      28.089  32.889  22.765  1.00  0.00     0.044 C 
ATOM     16  C   UNL A   1      28.436  31.432  22.663  1.00  0.00    -0.049 A 
ATOM     17  C   UNL A   1      27.518  30.588  23.288  1.00  0.00     0.003 A 
ATOM     18  C   UNL A   1      29.680  30.938  22.063  1.00  0.00     0.029 A 
ATOM     19  C   UNL A   1      27.746  29.268  23.156  1.00  0.00     0.002 A 
ATOM     20  C   UNL A   1      28.966  28.868  22.573  1.00  0.00     0.026 A 
ENDBRANCH  11  14
ENDBRANCH   9  10
ENDBRANCH   8   9
BRANCH   8  21
ATOM     21  N   UNL A   1      31.800  25.576  25.843  1.00  0.00    -0.332 N 
ATOM     22  H   UNL A   1      31.230  25.506  25.001  1.00  0.00     0.347 HD
ATOM     23  H   UNL A   1      31.225  25.640  26.684  1.00  0.00     0.347 HD
BRANCH  21  24
ATOM     24  C   UNL A   1      32.667  24.289  25.965  1.00  0.00     0.176 C 
ATOM     25  C   UNL A   1      34.191  24.432  25.970  1.00  0.00     0.075 C 
ATOM     26  C   UNL A   1      32.269  23.223  27.019  1.00  0.00     0.075 C 
ENDBRANCH  21  24
ENDBRANCH   8  21
ENDBRANCH   6   8
ENDBRANCH   5   6
ENDBRANCH   4   5
ENDBRANCH   3   4
ENDBRANCH   2   3
ENDBRANCH   1   2
BRANCH   1  27
ATOM     27  C   UNL A   1      34.604  33.580  29.006  1.00  0.00     0.188 C 
BRANCH  27  28
ATOM     28  O   UNL A   1      34.100  32.706  30.001  1.00  0.00    -0.376 OA
BRANCH  28  29
ATOM     29  C   UNL A   1      34.410  33.079  31.350  1.00  0.00     0.202 C 
BRANCH  29  30
ATOM     30  C   UNL A   1      34.808  34.564  31.566  1.00  0.00     0.261 C 
BRANCH  30  31
ATOM     31  O   UNL A   1      35.764  34.754  32.647  1.00  0.00    -0.460 OA
BRANCH  31  32
ATOM     32  C   UNL A   1      36.678  33.749  32.938  1.00  0.00     0.338 C 
ATOM     33  O   UNL A   1      36.610  33.009  33.868  1.00  0.00    -0.246 OA
BRANCH  32  34
ATOM     34  C   UNL A   1      37.802  33.817  31.949  1.00  0.00     0.060 A 
ATOM     35  C   UNL A   1      37.955  33.057  30.774  1.00  0.00     0.016 A 
ATOM     36  C   UNL A   1      38.882  34.508  32.371  1.00  0.00     0.016 A 
ATOM     37  C   UNL A   1      39.251  32.867  30.150  1.00  0.00     0.010 A 
ATOM     38  C   UNL A   1      40.112  34.072  31.935  1.00  0.00     0.010 A 
ATOM     39  C   UNL A   1      40.464  33.249  30.778  1.00  0.00    -0.014 A 
BRANCH  39  40
ATOM     40  C   UNL A   1      42.156  32.789  30.289  1.00  0.00     0.031 A 
ATOM     41  C   UNL A   1      43.573  33.661  29.240  1.00  0.00     0.074 A 
ATOM     42  C   UNL A   1      42.217  31.624  31.049  1.00  0.00     0.049 A 
ATOM     43  N   UNL A   1      44.498  33.007  28.469  1.00  0.00    -0.248 NA
ATOM     44  C   UNL A   1      43.945  35.072  28.627  1.00  0.00     0.031 C 
ATOM     45  C   UNL A   1      43.198  31.064  31.970  1.00  0.00     0.029 A 
ATOM     46  N   UNL A   1      41.345  30.524  30.969  1.00  0.00    -0.354 N 
ATOM     47  C   UNL A   1      45.512  33.588  27.762  1.00  0.00     0.074 A 
ATOM     48  C   UNL A   1      44.977  34.929  27.737  1.00  0.00     0.031 C 
ATOM     49  C   UNL A   1      43.199  29.722  31.944  1.00  0.00     0.029 A 
ATOM     50  C   UNL A   1      42.056  29.335  31.172  1.00  0.00     0.049 A 
ATOM     51  H   UNL A   1      40.377  30.582  30.796  1.00  0.00     0.167 HD
ATOM     52  C   UNL A   1      46.772  32.958  27.681  1.00  0.00     0.031 A 
ATOM     53  C   UNL A   1      41.775  28.138  30.621  1.00  0.00     0.031 A 
ATOM     54  C   UNL A   1      46.886  31.523  28.191  1.00  0.00     0.049 A 
ATOM     55  C   UNL A   1      42.963  27.535  29.896  1.00  0.00     0.074 A 
ATOM     56  C   UNL A   1      47.531  30.991  29.320  1.00  0.00     0.029 A 
ATOM     57  N   UNL A   1      46.247  30.417  27.620  1.00  0.00    -0.354 N 
ATOM     58  N   UNL A   1      44.175  28.042  29.822  1.00  0.00    -0.248 NA
ATOM     59  C   UNL A   1      42.822  26.300  29.124  1.00  0.00     0.031 C 
ATOM     60  C   UNL A   1      47.209  29.619  29.476  1.00  0.00     0.029 A 
ATOM     61  C   UNL A   1      46.391  29.266  28.424  1.00  0.00     0.049 A 
ATOM     62  H   UNL A   1      45.760  30.439  26.765  1.00  0.00     0.167 HD
ATOM     63  C   UNL A   1      44.814  27.425  28.751  1.00  0.00     0.074 A 
ATOM     64  C   UNL A   1      44.020  26.226  28.524  1.00  0.00     0.031 C 
ATOM     65  C   UNL A   1      45.841  27.971  28.012  1.00  0.00     0.031 A 
BRANCH  52  66
ATOM     66  C   UNL A   1      48.125  33.761  27.668  1.00  0.00    -0.014 A 
ATOM     67  C   UNL A   1      49.125  33.468  26.697  1.00  0.00     0.009 A 
ATOM     68  C   UNL A   1      48.527  34.685  28.640  1.00  0.00     0.009 A 
ATOM     69  C   UNL A   1      50.450  33.932  26.768  1.00  0.00     0.001 A 
ATOM     70  C   UNL A   1      49.848  35.192  28.698  1.00  0.00     0.001 A 
ATOM     71  C   UNL A   1      50.816  34.794  27.783  1.00  0.00     0.000 A 
ENDBRANCH  52  66
BRANCH  53  72
ATOM     72  C   UNL A   1      40.313  28.007  30.342  1.00  0.00    -0.014 A 
ATOM     73  C   UNL A   1      39.473  27.962  31.485  1.00  0.00     0.009 A 
ATOM     74  C   UNL A   1      39.746  28.421  29.129  1.00  0.00     0.009 A 
ATOM     75  C   UNL A   1      38.160  28.446  31.446  1.00  0.00     0.001 A 
ATOM     76  C   UNL A   1      38.419  28.888  29.091  1.00  0.00     0.001 A 
ATOM     77  C   UNL A   1      37.643  28.934  30.251  1.00  0.00     0.000 A 
ENDBRANCH  53  72
BRANCH  65  78
ATOM     78  C   UNL A   1      46.501  27.324  26.801  1.00  0.00    -0.014 A 
ATOM     79  C   UNL A   1      47.286  26.164  26.817  1.00  0.00     0.009 A 
ATOM     80  C   UNL A   1      46.252  27.885  25.525  1.00  0.00     0.009 A 
ATOM     81  C   UNL A   1      47.845  25.637  25.641  1.00  0.00     0.001 A 
ATOM     82  C   UNL A   1      46.753  27.329  24.344  1.00  0.00     0.001 A 
ATOM     83  C   UNL A   1      47.570  26.212  24.405  1.00  0.00     0.000 A 
ENDBRANCH  65  78
ENDBRANCH  39  40
ENDBRANCH  32  34
ENDBRANCH  31  32
ENDBRANCH  30  31
ENDBRANCH  29  30
ENDBRANCH  28  29
ENDBRANCH  27  28
ENDBRANCH   1  27
TORSDOF 22
ENDMDL
MODEL 3
REMARK VINA RESULT:     -10.3      4.047      6.548
REMARK SMILES Cc1cccc(NC(=O)C[C@H]([NH2+]C(C)C)C(=O)OCCOCCOCCOC(=O)c2ccc(-c3c4nc(c(-c5ccccc5)c5ccc([nH]5)c(-c5ccccc5)c5nc(c(-c6ccccc6)c6ccc3[nH]6)C=C5)C=C4)cc2)c1
REMARK SMILES IDX 22 1 21 2 20 3 19 4 18 5 16 6 17 7 11 8 10 9 8 10 7 11 9 13
REMARK SMILES IDX 6 14 1 15 2 16 3 17 78 18 4 19 5 20 12 21 13 24 14 25 15 26
REMARK SMILES IDX 23 27 24 28 25 29 26 30 27 31 28 32 29 33 30 34 31 35 77 36
REMARK SMILES IDX 32 37 76 38 33 39 34 40 35 41 70 42 36 43 75 44 69 45 71 46
REMARK SMILES IDX 37 47 74 48 68 49 67 50 38 52 60 53 45 54 59 55 46 56 49 57
REMARK SMILES IDX 58 58 72 59 47 60 48 61 57 63 73 64 50 65 39 66 40 67 44 68
REMARK SMILES IDX 41 69 43 70 42 71 61 72 62 73 66 74 63 75 65 76 64 77 51 78
REMARK SMILES IDX 52 79 56 80 53 81 55 82 54 83
REMARK H PARENT 7 12 12 22 12 23 71 51 49 62
REMARK Flexibility Score: inf
ROOT
ATOM      1  C   UNL A   1      35.329  29.709  27.218  1.00  0.00     0.188 C 
ENDROOT
BRANCH   1   2
ATOM      2  O   UNL A   1      34.162  29.119  27.766  1.00  0.00    -0.376 OA
BRANCH   2   3
ATOM      3  C   UNL A   1      33.019  28.640  27.081  1.00  0.00     0.202 C 
BRANCH   3   4
ATOM      4  C   UNL A   1      31.968  29.730  26.304  1.00  0.00     0.261 C 
BRANCH   4   5
ATOM      5  O   UNL A   1      31.162  29.719  24.763  1.00  0.00    -0.459 OA
BRANCH   5   6
ATOM      6  C   UNL A   1      30.755  28.866  23.639  1.00  0.00     0.365 C 
ATOM      7  O   UNL A   1      30.845  29.275  22.466  1.00  0.00    -0.245 OA
BRANCH   6   8
ATOM      8  C   UNL A   1      30.621  27.317  23.737  1.00  0.00     0.303 C 
BRANCH   8   9
ATOM      9  C   UNL A   1      30.865  26.415  25.285  1.00  0.00     0.177 C 
BRANCH   9  10
ATOM     10  C   UNL A   1      30.416  24.770  26.116  1.00  0.00     0.231 C 
ATOM     11  N   UNL A   1      31.034  23.218  26.065  1.00  0.00    -0.326 N 
ATOM     12  H   UNL A   1      30.475  22.656  26.650  1.00  0.00     0.169 HD
ATOM     13  O   UNL A   1      29.358  24.936  26.759  1.00  0.00    -0.274 OA
BRANCH  11  14
ATOM     14  C   UNL A   1      32.251  22.218  25.405  1.00  0.00     0.041 A 
ATOM     15  C   UNL A   1      32.601  18.650  23.864  1.00  0.00     0.044 C 
ATOM     16  C   UNL A   1      32.955  19.996  24.426  1.00  0.00    -0.049 A 
ATOM     17  C   UNL A   1      34.286  20.107  24.827  1.00  0.00     0.003 A 
ATOM     18  C   UNL A   1      31.974  21.065  24.643  1.00  0.00     0.029 A 
ATOM     19  C   UNL A   1      34.671  21.321  25.266  1.00  0.00     0.002 A 
ATOM     20  C   UNL A   1      33.671  22.296  25.454  1.00  0.00     0.026 A 
ENDBRANCH  11  14
ENDBRANCH   9  10
ENDBRANCH   8   9
BRANCH   8  21
ATOM     21  N   UNL A   1      30.865  26.867  22.215  1.00  0.00    -0.332 N 
ATOM     22  H   UNL A   1      30.860  27.697  21.624  1.00  0.00     0.347 HD
ATOM     23  H   UNL A   1      30.118  26.218  21.963  1.00  0.00     0.347 HD
BRANCH  21  24
ATOM     24  C   UNL A   1      32.218  26.123  22.015  1.00  0.00     0.176 C 
ATOM     25  C   UNL A   1      33.516  26.862  22.353  1.00  0.00     0.075 C 
ATOM     26  C   UNL A   1      32.341  24.659  22.513  1.00  0.00     0.075 C 
ENDBRANCH  21  24
ENDBRANCH   8  21
ENDBRANCH   6   8
ENDBRANCH   5   6
ENDBRANCH   4   5
ENDBRANCH   3   4
ENDBRANCH   2   3
ENDBRANCH   1   2
BRANCH   1  27
ATOM     27  C   UNL A   1      36.299  30.334  28.217  1.00  0.00     0.188 C 
BRANCH  27  28
ATOM     28  O   UNL A   1      35.656  30.937  29.327  1.00  0.00    -0.376 OA
BRANCH  28  29
ATOM     29  C   UNL A   1      34.780  32.025  29.004  1.00  0.00     0.202 C 
BRANCH  29  30
ATOM     30  C   UNL A   1      35.453  33.267  28.359  1.00  0.00     0.261 C 
BRANCH  30  31
ATOM     31  O   UNL A   1      35.990  34.204  29.335  1.00  0.00    -0.460 OA
BRANCH  31  32
ATOM     32  C   UNL A   1      36.125  33.811  30.660  1.00  0.00     0.338 C 
ATOM     33  O   UNL A   1      35.298  33.949  31.505  1.00  0.00    -0.246 OA
BRANCH  32  34
ATOM     34  C   UNL A   1      37.511  33.277  30.867  1.00  0.00     0.060 A 
ATOM     35  C   UNL A   1      38.677  33.624  30.159  1.00  0.00     0.016 A 
ATOM     36  C   UNL A   1      37.579  32.180  31.652  1.00  0.00     0.016 A 
ATOM     37  C   UNL A   1      39.834  32.750  30.117  1.00  0.00     0.010 A 
ATOM     38  C   UNL A   1      38.558  31.259  31.353  1.00  0.00     0.010 A 
ATOM     39  C   UNL A   1      39.802  31.418  30.601  1.00  0.00    -0.014 A 
BRANCH  39  40
ATOM     40  C   UNL A   1      41.039  30.111  30.327  1.00  0.00     0.031 A 
ATOM     41  C   UNL A   1      41.174  28.575  29.105  1.00  0.00     0.074 A 
ATOM     42  C   UNL A   1      41.999  30.632  31.190  1.00  0.00     0.049 A 
ATOM     43  N   UNL A   1      41.800  27.391  29.394  1.00  0.00    -0.248 NA
ATOM     44  C   UNL A   1      40.489  27.985  27.805  1.00  0.00     0.031 C 
ATOM     45  C   UNL A   1      43.429  30.886  31.081  1.00  0.00     0.029 A 
ATOM     46  N   UNL A   1      41.836  30.902  32.559  1.00  0.00    -0.354 N 
ATOM     47  C   UNL A   1      41.938  26.326  28.550  1.00  0.00     0.074 A 
ATOM     48  C   UNL A   1      40.895  26.690  27.619  1.00  0.00     0.031 C 
ATOM     49  C   UNL A   1      44.054  30.746  32.261  1.00  0.00     0.029 A 
ATOM     50  C   UNL A   1      43.022  30.617  33.247  1.00  0.00     0.049 A 
ATOM     51  H   UNL A   1      41.009  31.242  32.974  1.00  0.00     0.167 HD
ATOM     52  C   UNL A   1      43.131  25.572  28.548  1.00  0.00     0.031 A 
ATOM     53  C   UNL A   1      43.118  30.177  34.517  1.00  0.00     0.031 A 
ATOM     54  C   UNL A   1      44.138  25.828  29.667  1.00  0.00     0.049 A 
ATOM     55  C   UNL A   1      43.936  28.907  34.635  1.00  0.00     0.074 A 
ATOM     56  C   UNL A   1      45.406  26.432  29.649  1.00  0.00     0.029 A 
ATOM     57  N   UNL A   1      43.916  25.558  31.021  1.00  0.00    -0.354 N 
ATOM     58  N   UNL A   1      44.558  28.281  33.658  1.00  0.00    -0.248 NA
ATOM     59  C   UNL A   1      44.049  28.203  35.913  1.00  0.00     0.031 C 
ATOM     60  C   UNL A   1      45.892  26.607  30.970  1.00  0.00     0.029 A 
ATOM     61  C   UNL A   1      44.952  26.077  31.827  1.00  0.00     0.049 A 
ATOM     62  H   UNL A   1      43.137  25.066  31.368  1.00  0.00     0.167 HD
ATOM     63  C   UNL A   1      44.812  26.985  34.095  1.00  0.00     0.074 A 
ATOM     64  C   UNL A   1      44.683  27.081  35.541  1.00  0.00     0.031 C 
ATOM     65  C   UNL A   1      44.961  25.883  33.281  1.00  0.00     0.031 A 
BRANCH  52  66
ATOM     66  C   UNL A   1      43.745  24.955  27.237  1.00  0.00    -0.014 A 
ATOM     67  C   UNL A   1      43.178  23.783  26.661  1.00  0.00     0.009 A 
ATOM     68  C   UNL A   1      44.931  25.377  26.623  1.00  0.00     0.009 A 
ATOM     69  C   UNL A   1      43.805  23.013  25.665  1.00  0.00     0.001 A 
ATOM     70  C   UNL A   1      45.551  24.633  25.590  1.00  0.00     0.001 A 
ATOM     71  C   UNL A   1      45.006  23.438  25.133  1.00  0.00     0.000 A 
ENDBRANCH  52  66
BRANCH  53  72
ATOM     72  C   UNL A   1      41.965  30.657  35.338  1.00  0.00    -0.014 A 
ATOM     73  C   UNL A   1      41.989  32.032  35.683  1.00  0.00     0.009 A 
ATOM     74  C   UNL A   1      40.724  30.004  35.330  1.00  0.00     0.009 A 
ATOM     75  C   UNL A   1      40.806  32.758  35.875  1.00  0.00     0.001 A 
ATOM     76  C   UNL A   1      39.540  30.734  35.543  1.00  0.00     0.001 A 
ATOM     77  C   UNL A   1      39.580  32.111  35.778  1.00  0.00     0.000 A 
ENDBRANCH  53  72
BRANCH  65  78
ATOM     78  C   UNL A   1      45.178  24.453  33.758  1.00  0.00    -0.014 A 
ATOM     79  C   UNL A   1      46.395  23.906  34.184  1.00  0.00     0.009 A 
ATOM     80  C   UNL A   1      44.049  23.604  33.859  1.00  0.00     0.009 A 
ATOM     81  C   UNL A   1      46.491  22.574  34.618  1.00  0.00     0.001 A 
ATOM     82  C   UNL A   1      44.128  22.297  34.349  1.00  0.00     0.001 A 
ATOM     83  C   UNL A   1      45.358  21.774  34.711  1.00  0.00     0.000 A 
ENDBRANCH  65  78
ENDBRANCH  39  40
ENDBRANCH  32  34
ENDBRANCH  31  32
ENDBRANCH  30  31
ENDBRANCH  29  30
ENDBRANCH  28  29
ENDBRANCH  27  28
ENDBRANCH   1  27
TORSDOF 22
ENDMDL
