MODEL 1
REMARK VINA RESULT:      -9.6      0.000      0.000
REMARK SMILES C[C@H](NC(=O)C(=O)c1ccccc1)C(=O)OCCOCCOCCOC(=O)c1ccc(-c2c3nc(c(-c4ccccc4)c4ccc([nH]4)c(-c4ccccc4)c4nc(c(-c5ccccc5)c5ccc2[nH]5)C=C4)C=C3)cc1
REMARK SMILES IDX 20 1 19 2 18 3 17 4 16 5 14 6 15 7 2 8 1 9 3 10 4 11 5 13
REMARK SMILES IDX 6 14 7 15 8 16 9 17 13 18 10 19 12 20 11 21 21 22 22 23
REMARK SMILES IDX 23 24 24 25 25 26 26 27 27 28 28 29 29 30 75 31 30 32 74 33
REMARK SMILES IDX 31 34 32 35 33 36 68 37 34 38 73 39 67 40 69 41 35 42 72 43
REMARK SMILES IDX 66 44 65 45 36 47 58 48 43 49 57 50 44 51 47 52 56 53 70 54
REMARK SMILES IDX 45 55 46 56 55 58 71 59 48 60 37 61 38 62 42 63 39 64 41 65
REMARK SMILES IDX 40 66 59 67 60 68 64 69 61 70 63 71 62 72 49 73 50 74 54 75
REMARK SMILES IDX 51 76 53 77 52 78
REMARK H PARENT 3 12 69 46 47 57
REMARK Flexibility Score: inf
ROOT
ATOM      1  C   UNL A   1      39.788  20.949  26.506  1.00  0.00     0.188 C 
ENDROOT
BRANCH   1   2
ATOM      2  O   UNL A   1      39.267  21.991  25.690  1.00  0.00    -0.376 OA
BRANCH   2   3
ATOM      3  C   UNL A   1      37.902  22.371  25.841  1.00  0.00     0.202 C 
BRANCH   3   4
ATOM      4  C   UNL A   1      36.806  21.424  25.316  1.00  0.00     0.261 C 
BRANCH   4   5
ATOM      5  O   UNL A   1      35.542  22.057  25.022  1.00  0.00    -0.462 OA
BRANCH   5   6
ATOM      6  C   UNL A   1      34.647  22.117  26.050  1.00  0.00     0.328 C 
ATOM      7  O   UNL A   1      34.735  22.899  26.993  1.00  0.00    -0.250 OA
BRANCH   6   8
ATOM      8  C   UNL A   1      33.365  21.280  25.789  1.00  0.00     0.189 C 
ATOM      9  C   UNL A   1      33.242  20.880  24.323  1.00  0.00     0.043 C 
BRANCH   8  10
ATOM     10  N   UNL A   1      32.074  21.633  26.399  1.00  0.00    -0.336 N 
ATOM     11  C   UNL A   1      31.173  22.628  26.126  1.00  0.00     0.293 C 
ATOM     12  H   UNL A   1      31.808  21.045  27.143  1.00  0.00     0.164 HD
ATOM     13  O   UNL A   1      30.120  22.674  26.755  1.00  0.00    -0.265 OA
BRANCH  11  14
ATOM     14  C   UNL A   1      31.456  23.648  25.028  1.00  0.00     0.250 C 
ATOM     15  O   UNL A   1      31.055  23.479  23.885  1.00  0.00    -0.283 OA
BRANCH  14  16
ATOM     16  C   UNL A   1      32.192  24.880  25.372  1.00  0.00     0.028 A 
ATOM     17  C   UNL A   1      31.637  25.746  26.320  1.00  0.00     0.012 A 
ATOM     18  C   UNL A   1      33.372  25.220  24.706  1.00  0.00     0.012 A 
ATOM     19  C   UNL A   1      32.261  26.962  26.595  1.00  0.00     0.001 A 
ATOM     20  C   UNL A   1      33.984  26.446  24.974  1.00  0.00     0.001 A 
ATOM     21  C   UNL A   1      33.426  27.316  25.912  1.00  0.00     0.000 A 
ENDBRANCH  14  16
ENDBRANCH  11  14
ENDBRANCH   8  10
ENDBRANCH   6   8
ENDBRANCH   5   6
ENDBRANCH   4   5
ENDBRANCH   3   4
ENDBRANCH   2   3
ENDBRANCH   1   2
BRANCH   1  22
ATOM     22  C   UNL A   1      40.127  19.589  25.866  1.00  0.00     0.188 C 
BRANCH  22  23
ATOM     23  O   UNL A   1      41.507  19.344  25.742  1.00  0.00    -0.376 OA
BRANCH  23  24
ATOM     24  C   UNL A   1      42.409  20.238  26.361  1.00  0.00     0.202 C 
BRANCH  24  25
ATOM     25  C   UNL A   1      43.290  21.159  25.500  1.00  0.00     0.261 C 
BRANCH  25  26
ATOM     26  O   UNL A   1      42.732  22.422  25.108  1.00  0.00    -0.460 OA
BRANCH  26  27
ATOM     27  C   UNL A   1      43.578  23.474  25.005  1.00  0.00     0.338 C 
ATOM     28  O   UNL A   1      44.492  23.614  24.218  1.00  0.00    -0.246 OA
BRANCH  27  29
ATOM     29  C   UNL A   1      43.062  24.531  25.903  1.00  0.00     0.060 A 
ATOM     30  C   UNL A   1      43.552  25.841  25.788  1.00  0.00     0.016 A 
ATOM     31  C   UNL A   1      42.077  24.223  26.842  1.00  0.00     0.016 A 
ATOM     32  C   UNL A   1      43.059  26.849  26.620  1.00  0.00     0.010 A 
ATOM     33  C   UNL A   1      41.606  25.223  27.690  1.00  0.00     0.010 A 
ATOM     34  C   UNL A   1      42.107  26.535  27.599  1.00  0.00    -0.014 A 
BRANCH  34  35
ATOM     35  C   UNL A   1      41.753  27.500  28.666  1.00  0.00     0.031 A 
ATOM     36  C   UNL A   1      42.516  27.435  29.956  1.00  0.00     0.074 A 
ATOM     37  C   UNL A   1      40.723  28.352  28.532  1.00  0.00     0.049 A 
ATOM     38  N   UNL A   1      42.265  28.011  31.103  1.00  0.00    -0.248 NA
ATOM     39  C   UNL A   1      43.719  26.586  29.953  1.00  0.00     0.031 C 
ATOM     40  C   UNL A   1      39.933  28.544  27.319  1.00  0.00     0.029 A 
ATOM     41  N   UNL A   1      40.143  29.188  29.454  1.00  0.00    -0.354 N 
ATOM     42  C   UNL A   1      43.256  27.565  31.968  1.00  0.00     0.074 A 
ATOM     43  C   UNL A   1      44.104  26.665  31.216  1.00  0.00     0.031 C 
ATOM     44  C   UNL A   1      38.941  29.412  27.583  1.00  0.00     0.029 A 
ATOM     45  C   UNL A   1      39.001  29.795  28.993  1.00  0.00     0.049 A 
ATOM     46  H   UNL A   1      40.510  29.338  30.355  1.00  0.00     0.167 HD
ATOM     47  C   UNL A   1      43.434  27.867  33.275  1.00  0.00     0.031 A 
ATOM     48  C   UNL A   1      38.079  30.530  29.648  1.00  0.00     0.031 A 
ATOM     49  C   UNL A   1      42.572  28.741  34.024  1.00  0.00     0.049 A 
ATOM     50  C   UNL A   1      38.252  30.799  31.120  1.00  0.00     0.074 A 
ATOM     51  C   UNL A   1      42.681  29.135  35.344  1.00  0.00     0.029 A 
ATOM     52  N   UNL A   1      41.429  29.341  33.518  1.00  0.00    -0.354 N 
ATOM     53  N   UNL A   1      39.204  30.399  31.928  1.00  0.00    -0.248 NA
ATOM     54  C   UNL A   1      37.223  31.623  31.771  1.00  0.00     0.031 C 
ATOM     55  C   UNL A   1      41.567  29.919  35.658  1.00  0.00     0.029 A 
ATOM     56  C   UNL A   1      40.804  30.074  34.511  1.00  0.00     0.049 A 
ATOM     57  H   UNL A   1      41.109  29.257  32.590  1.00  0.00     0.167 HD
ATOM     58  C   UNL A   1      38.907  30.946  33.171  1.00  0.00     0.074 A 
ATOM     59  C   UNL A   1      37.687  31.710  33.010  1.00  0.00     0.031 C 
ATOM     60  C   UNL A   1      39.590  30.832  34.338  1.00  0.00     0.031 A 
BRANCH  47  61
ATOM     61  C   UNL A   1      44.570  27.184  33.986  1.00  0.00    -0.014 A 
ATOM     62  C   UNL A   1      44.371  26.024  34.750  1.00  0.00     0.009 A 
ATOM     63  C   UNL A   1      45.863  27.722  33.894  1.00  0.00     0.009 A 
ATOM     64  C   UNL A   1      45.433  25.448  35.451  1.00  0.00     0.001 A 
ATOM     65  C   UNL A   1      46.930  27.125  34.566  1.00  0.00     0.001 A 
ATOM     66  C   UNL A   1      46.712  25.998  35.356  1.00  0.00     0.000 A 
ENDBRANCH  47  61
BRANCH  48  67
ATOM     67  C   UNL A   1      36.885  31.027  28.916  1.00  0.00    -0.014 A 
ATOM     68  C   UNL A   1      35.826  30.164  28.601  1.00  0.00     0.009 A 
ATOM     69  C   UNL A   1      36.790  32.379  28.547  1.00  0.00     0.009 A 
ATOM     70  C   UNL A   1      34.701  30.642  27.923  1.00  0.00     0.001 A 
ATOM     71  C   UNL A   1      35.652  32.861  27.896  1.00  0.00     0.001 A 
ATOM     72  C   UNL A   1      34.612  31.990  27.579  1.00  0.00     0.000 A 
ENDBRANCH  48  67
BRANCH  60  73
ATOM     73  C   UNL A   1      39.070  31.588  35.531  1.00  0.00    -0.014 A 
ATOM     74  C   UNL A   1      39.295  32.964  35.684  1.00  0.00     0.009 A 
ATOM     75  C   UNL A   1      38.271  30.921  36.473  1.00  0.00     0.009 A 
ATOM     76  C   UNL A   1      38.744  33.653  36.769  1.00  0.00     0.001 A 
ATOM     77  C   UNL A   1      37.697  31.616  37.538  1.00  0.00     0.001 A 
ATOM     78  C   UNL A   1      37.939  32.980  37.688  1.00  0.00     0.000 A 
ENDBRANCH  60  73
ENDBRANCH  34  35
ENDBRANCH  27  29
ENDBRANCH  26  27
ENDBRANCH  25  26
ENDBRANCH  24  25
ENDBRANCH  23  24
ENDBRANCH  22  23
ENDBRANCH   1  22
TORSDOF 20
ENDMDL
MODEL 2
REMARK VINA RESULT:      -9.6      1.062      2.363
REMARK SMILES C[C@H](NC(=O)C(=O)c1ccccc1)C(=O)OCCOCCOCCOC(=O)c1ccc(-c2c3nc(c(-c4ccccc4)c4ccc([nH]4)c(-c4ccccc4)c4nc(c(-c5ccccc5)c5ccc2[nH]5)C=C4)C=C3)cc1
REMARK SMILES IDX 20 1 19 2 18 3 17 4 16 5 14 6 15 7 2 8 1 9 3 10 4 11 5 13
REMARK SMILES IDX 6 14 7 15 8 16 9 17 13 18 10 19 12 20 11 21 21 22 22 23
REMARK SMILES IDX 23 24 24 25 25 26 26 27 27 28 28 29 29 30 75 31 30 32 74 33
REMARK SMILES IDX 31 34 32 35 33 36 68 37 34 38 73 39 67 40 69 41 35 42 72 43
REMARK SMILES IDX 66 44 65 45 36 47 58 48 43 49 57 50 44 51 47 52 56 53 70 54
REMARK SMILES IDX 45 55 46 56 55 58 71 59 48 60 37 61 38 62 42 63 39 64 41 65
REMARK SMILES IDX 40 66 59 67 60 68 64 69 61 70 63 71 62 72 49 73 50 74 54 75
REMARK SMILES IDX 51 76 53 77 52 78
REMARK H PARENT 3 12 69 46 47 57
REMARK Flexibility Score: inf
ROOT
ATOM      1  C   UNL A   1      39.933  20.952  26.552  1.00  0.00     0.188 C 
ENDROOT
BRANCH   1   2
ATOM      2  O   UNL A   1      39.361  22.074  25.891  1.00  0.00    -0.376 OA
BRANCH   2   3
ATOM      3  C   UNL A   1      37.942  22.187  25.824  1.00  0.00     0.202 C 
BRANCH   3   4
ATOM      4  C   UNL A   1      37.246  21.992  24.464  1.00  0.00     0.261 C 
BRANCH   4   5
ATOM      5  O   UNL A   1      35.814  22.183  24.478  1.00  0.00    -0.462 OA
BRANCH   5   6
ATOM      6  C   UNL A   1      35.322  23.106  23.602  1.00  0.00     0.328 C 
ATOM      7  O   UNL A   1      35.348  22.975  22.381  1.00  0.00    -0.250 OA
BRANCH   6   8
ATOM      8  C   UNL A   1      34.494  24.221  24.296  1.00  0.00     0.189 C 
ATOM      9  C   UNL A   1      34.972  24.474  25.721  1.00  0.00     0.043 C 
BRANCH   8  10
ATOM     10  N   UNL A   1      33.032  24.298  24.157  1.00  0.00    -0.336 N 
ATOM     11  C   UNL A   1      32.023  23.499  24.627  1.00  0.00     0.293 C 
ATOM     12  H   UNL A   1      32.720  25.066  23.626  1.00  0.00     0.164 HD
ATOM     13  O   UNL A   1      30.857  23.819  24.419  1.00  0.00    -0.265 OA
BRANCH  11  14
ATOM     14  C   UNL A   1      32.343  22.245  25.434  1.00  0.00     0.250 C 
ATOM     15  O   UNL A   1      32.413  22.275  26.655  1.00  0.00    -0.283 OA
BRANCH  14  16
ATOM     16  C   UNL A   1      32.527  20.966  24.720  1.00  0.00     0.028 A 
ATOM     17  C   UNL A   1      32.170  20.899  23.370  1.00  0.00     0.012 A 
ATOM     18  C   UNL A   1      32.964  19.824  25.397  1.00  0.00     0.012 A 
ATOM     19  C   UNL A   1      32.242  19.680  22.695  1.00  0.00     0.001 A 
ATOM     20  C   UNL A   1      33.019  18.604  24.721  1.00  0.00     0.001 A 
ATOM     21  C   UNL A   1      32.653  18.533  23.375  1.00  0.00     0.000 A 
ENDBRANCH  14  16
ENDBRANCH  11  14
ENDBRANCH   8  10
ENDBRANCH   6   8
ENDBRANCH   5   6
ENDBRANCH   4   5
ENDBRANCH   3   4
ENDBRANCH   2   3
ENDBRANCH   1   2
BRANCH   1  22
ATOM     22  C   UNL A   1      40.122  19.636  25.775  1.00  0.00     0.188 C 
BRANCH  22  23
ATOM     23  O   UNL A   1      41.466  19.241  25.637  1.00  0.00    -0.376 OA
BRANCH  23  24
ATOM     24  C   UNL A   1      42.460  19.983  26.315  1.00  0.00     0.202 C 
BRANCH  24  25
ATOM     25  C   UNL A   1      43.345  20.969  25.535  1.00  0.00     0.261 C 
BRANCH  25  26
ATOM     26  O   UNL A   1      42.753  22.219  25.150  1.00  0.00    -0.460 OA
BRANCH  26  27
ATOM     27  C   UNL A   1      43.580  23.279  24.989  1.00  0.00     0.338 C 
ATOM     28  O   UNL A   1      44.453  23.417  24.157  1.00  0.00    -0.246 OA
BRANCH  27  29
ATOM     29  C   UNL A   1      43.093  24.345  25.892  1.00  0.00     0.060 A 
ATOM     30  C   UNL A   1      43.625  25.640  25.789  1.00  0.00     0.016 A 
ATOM     31  C   UNL A   1      42.094  24.062  26.824  1.00  0.00     0.016 A 
ATOM     32  C   UNL A   1      43.160  26.657  26.628  1.00  0.00     0.010 A 
ATOM     33  C   UNL A   1      41.651  25.070  27.677  1.00  0.00     0.010 A 
ATOM     34  C   UNL A   1      42.194  26.366  27.599  1.00  0.00    -0.014 A 
BRANCH  34  35
ATOM     35  C   UNL A   1      41.865  27.334  28.672  1.00  0.00     0.031 A 
ATOM     36  C   UNL A   1      42.634  27.248  29.957  1.00  0.00     0.074 A 
ATOM     37  C   UNL A   1      40.852  28.207  28.547  1.00  0.00     0.049 A 
ATOM     38  N   UNL A   1      42.401  27.824  31.108  1.00  0.00    -0.248 NA
ATOM     39  C   UNL A   1      43.819  26.375  29.944  1.00  0.00     0.031 C 
ATOM     40  C   UNL A   1      40.059  28.419  27.339  1.00  0.00     0.029 A 
ATOM     41  N   UNL A   1      40.294  29.051  29.475  1.00  0.00    -0.354 N 
ATOM     42  C   UNL A   1      43.387  27.354  31.965  1.00  0.00     0.074 A 
ATOM     43  C   UNL A   1      44.213  26.441  31.206  1.00  0.00     0.031 C 
ATOM     44  C   UNL A   1      39.087  29.307  27.612  1.00  0.00     0.029 A 
ATOM     45  C   UNL A   1      39.162  29.683  29.023  1.00  0.00     0.049 A 
ATOM     46  H   UNL A   1      40.669  29.190  30.375  1.00  0.00     0.167 HD
ATOM     47  C   UNL A   1      43.579  27.648  33.273  1.00  0.00     0.031 A 
ATOM     48  C   UNL A   1      38.259  30.434  29.686  1.00  0.00     0.031 A 
ATOM     49  C   UNL A   1      42.739  28.536  34.030  1.00  0.00     0.049 A 
ATOM     50  C   UNL A   1      38.446  30.693  31.158  1.00  0.00     0.074 A 
ATOM     51  C   UNL A   1      42.864  28.922  35.351  1.00  0.00     0.029 A 
ATOM     52  N   UNL A   1      41.606  29.161  33.533  1.00  0.00    -0.354 N 
ATOM     53  N   UNL A   1      39.394  30.271  31.959  1.00  0.00    -0.248 NA
ATOM     54  C   UNL A   1      37.437  31.536  31.818  1.00  0.00     0.031 C 
ATOM     55  C   UNL A   1      41.767  29.728  35.674  1.00  0.00     0.029 A 
ATOM     56  C   UNL A   1      41.001  29.903  34.532  1.00  0.00     0.049 A 
ATOM     57  H   UNL A   1      41.279  29.088  32.607  1.00  0.00     0.167 HD
ATOM     58  C   UNL A   1      39.115  30.819  33.206  1.00  0.00     0.074 A 
ATOM     59  C   UNL A   1      37.910  31.607  33.055  1.00  0.00     0.031 C 
ATOM     60  C   UNL A   1      39.801  30.686  34.368  1.00  0.00     0.031 A 
BRANCH  47  61
ATOM     61  C   UNL A   1      44.705  26.939  33.974  1.00  0.00    -0.014 A 
ATOM     62  C   UNL A   1      45.980  27.514  34.091  1.00  0.00     0.009 A 
ATOM     63  C   UNL A   1      44.482  25.665  34.519  1.00  0.00     0.009 A 
ATOM     64  C   UNL A   1      47.023  26.804  34.691  1.00  0.00     0.001 A 
ATOM     65  C   UNL A   1      45.517  24.972  35.149  1.00  0.00     0.001 A 
ATOM     66  C   UNL A   1      46.790  25.535  35.221  1.00  0.00     0.000 A 
ENDBRANCH  47  61
BRANCH  48  67
ATOM     67  C   UNL A   1      37.072  30.957  28.963  1.00  0.00    -0.014 A 
ATOM     68  C   UNL A   1      36.016  30.107  28.605  1.00  0.00     0.009 A 
ATOM     69  C   UNL A   1      36.979  32.323  28.645  1.00  0.00     0.009 A 
ATOM     70  C   UNL A   1      34.897  30.610  27.936  1.00  0.00     0.001 A 
ATOM     71  C   UNL A   1      35.847  32.829  28.002  1.00  0.00     0.001 A 
ATOM     72  C   UNL A   1      34.810  31.970  27.643  1.00  0.00     0.000 A 
ENDBRANCH  48  67
BRANCH  60  73
ATOM     73  C   UNL A   1      39.304  31.448  35.568  1.00  0.00    -0.014 A 
ATOM     74  C   UNL A   1      39.773  32.736  35.866  1.00  0.00     0.009 A 
ATOM     75  C   UNL A   1      38.287  30.893  36.361  1.00  0.00     0.009 A 
ATOM     76  C   UNL A   1      39.243  33.445  36.948  1.00  0.00     0.001 A 
ATOM     77  C   UNL A   1      37.740  31.615  37.422  1.00  0.00     0.001 A 
ATOM     78  C   UNL A   1      38.223  32.888  37.719  1.00  0.00     0.000 A 
ENDBRANCH  60  73
ENDBRANCH  34  35
ENDBRANCH  27  29
ENDBRANCH  26  27
ENDBRANCH  25  26
ENDBRANCH  24  25
ENDBRANCH  23  24
ENDBRANCH  22  23
ENDBRANCH   1  22
TORSDOF 20
ENDMDL
MODEL 3
REMARK VINA RESULT:      -9.4      4.144      7.990
REMARK SMILES C[C@H](NC(=O)C(=O)c1ccccc1)C(=O)OCCOCCOCCOC(=O)c1ccc(-c2c3nc(c(-c4ccccc4)c4ccc([nH]4)c(-c4ccccc4)c4nc(c(-c5ccccc5)c5ccc2[nH]5)C=C4)C=C3)cc1
REMARK SMILES IDX 20 1 19 2 18 3 17 4 16 5 14 6 15 7 2 8 1 9 3 10 4 11 5 13
REMARK SMILES IDX 6 14 7 15 8 16 9 17 13 18 10 19 12 20 11 21 21 22 22 23
REMARK SMILES IDX 23 24 24 25 25 26 26 27 27 28 28 29 29 30 75 31 30 32 74 33
REMARK SMILES IDX 31 34 32 35 33 36 68 37 34 38 73 39 67 40 69 41 35 42 72 43
REMARK SMILES IDX 66 44 65 45 36 47 58 48 43 49 57 50 44 51 47 52 56 53 70 54
REMARK SMILES IDX 45 55 46 56 55 58 71 59 48 60 37 61 38 62 42 63 39 64 41 65
REMARK SMILES IDX 40 66 59 67 60 68 64 69 61 70 63 71 62 72 49 73 50 74 54 75
REMARK SMILES IDX 51 76 53 77 52 78
REMARK H PARENT 3 12 69 46 47 57
REMARK Flexibility Score: inf
ROOT
ATOM      1  C   UNL A   1      35.756  22.558  25.676  1.00  0.00     0.188 C 
ENDROOT
BRANCH   1   2
ATOM      2  O   UNL A   1      35.532  23.706  24.867  1.00  0.00    -0.376 OA
BRANCH   2   3
ATOM      3  C   UNL A   1      34.717  24.760  25.375  1.00  0.00     0.202 C 
BRANCH   3   4
ATOM      4  C   UNL A   1      33.316  24.970  24.772  1.00  0.00     0.261 C 
BRANCH   4   5
ATOM      5  O   UNL A   1      33.166  26.168  23.980  1.00  0.00    -0.462 OA
BRANCH   5   6
ATOM      6  C   UNL A   1      33.079  27.340  24.674  1.00  0.00     0.328 C 
ATOM      7  O   UNL A   1      33.881  28.263  24.565  1.00  0.00    -0.250 OA
BRANCH   6   8
ATOM      8  C   UNL A   1      31.729  27.503  25.424  1.00  0.00     0.189 C 
ATOM      9  C   UNL A   1      31.923  27.531  26.935  1.00  0.00     0.043 C 
BRANCH   8  10
ATOM     10  N   UNL A   1      30.523  26.769  25.012  1.00  0.00    -0.336 N 
ATOM     11  C   UNL A   1      29.688  26.908  23.934  1.00  0.00     0.293 C 
ATOM     12  H   UNL A   1      30.267  26.042  25.625  1.00  0.00     0.164 HD
ATOM     13  O   UNL A   1      28.765  26.115  23.784  1.00  0.00    -0.265 OA
BRANCH  11  14
ATOM     14  C   UNL A   1      29.924  28.015  22.912  1.00  0.00     0.250 C 
ATOM     15  O   UNL A   1      30.645  27.838  21.940  1.00  0.00    -0.283 OA
BRANCH  14  16
ATOM     16  C   UNL A   1      29.229  29.305  23.085  1.00  0.00     0.028 A 
ATOM     17  C   UNL A   1      28.037  29.520  22.385  1.00  0.00     0.012 A 
ATOM     18  C   UNL A   1      29.791  30.323  23.860  1.00  0.00     0.012 A 
ATOM     19  C   UNL A   1      27.409  30.763  22.455  1.00  0.00     0.001 A 
ATOM     20  C   UNL A   1      29.166  31.571  23.912  1.00  0.00     0.001 A 
ATOM     21  C   UNL A   1      27.981  31.791  23.206  1.00  0.00     0.000 A 
ENDBRANCH  14  16
ENDBRANCH  11  14
ENDBRANCH   8  10
ENDBRANCH   6   8
ENDBRANCH   5   6
ENDBRANCH   4   5
ENDBRANCH   3   4
ENDBRANCH   2   3
ENDBRANCH   1   2
BRANCH   1  22
ATOM     22  C   UNL A   1      37.156  21.915  25.700  1.00  0.00     0.188 C 
BRANCH  22  23
ATOM     23  O   UNL A   1      37.423  21.086  24.594  1.00  0.00    -0.376 OA
BRANCH  23  24
ATOM     24  C   UNL A   1      38.018  19.825  24.824  1.00  0.00     0.202 C 
BRANCH  24  25
ATOM     25  C   UNL A   1      39.239  19.711  25.752  1.00  0.00     0.261 C 
BRANCH  25  26
ATOM     26  O   UNL A   1      40.508  19.443  25.135  1.00  0.00    -0.460 OA
BRANCH  26  27
ATOM     27  C   UNL A   1      41.584  19.321  25.948  1.00  0.00     0.338 C 
ATOM     28  O   UNL A   1      42.270  18.335  26.124  1.00  0.00    -0.246 OA
BRANCH  27  29
ATOM     29  C   UNL A   1      41.905  20.677  26.444  1.00  0.00     0.060 A 
ATOM     30  C   UNL A   1      42.158  21.710  25.527  1.00  0.00     0.016 A 
ATOM     31  C   UNL A   1      41.933  20.925  27.817  1.00  0.00     0.016 A 
ATOM     32  C   UNL A   1      42.446  22.998  25.986  1.00  0.00     0.010 A 
ATOM     33  C   UNL A   1      42.247  22.204  28.273  1.00  0.00     0.010 A 
ATOM     34  C   UNL A   1      42.526  23.241  27.363  1.00  0.00    -0.014 A 
BRANCH  34  35
ATOM     35  C   UNL A   1      43.080  24.510  27.890  1.00  0.00     0.031 A 
ATOM     36  C   UNL A   1      42.116  25.585  28.297  1.00  0.00     0.074 A 
ATOM     37  C   UNL A   1      44.403  24.740  27.924  1.00  0.00     0.049 A 
ATOM     38  N   UNL A   1      42.340  26.842  28.580  1.00  0.00    -0.248 NA
ATOM     39  C   UNL A   1      40.700  25.188  28.373  1.00  0.00     0.031 C 
ATOM     40  C   UNL A   1      45.442  23.767  27.600  1.00  0.00     0.029 A 
ATOM     41  N   UNL A   1      45.092  25.893  28.212  1.00  0.00    -0.354 N 
ATOM     42  C   UNL A   1      41.091  27.394  28.833  1.00  0.00     0.074 A 
ATOM     43  C   UNL A   1      40.116  26.340  28.659  1.00  0.00     0.031 C 
ATOM     44  C   UNL A   1      46.639  24.376  27.666  1.00  0.00     0.029 A 
ATOM     45  C   UNL A   1      46.442  25.789  27.988  1.00  0.00     0.049 A 
ATOM     46  H   UNL A   1      44.660  26.713  28.547  1.00  0.00     0.167 HD
ATOM     47  C   UNL A   1      40.783  28.670  29.166  1.00  0.00     0.031 A 
ATOM     48  C   UNL A   1      47.402  26.736  27.988  1.00  0.00     0.031 A 
ATOM     49  C   UNL A   1      41.755  29.720  29.311  1.00  0.00     0.049 A 
ATOM     50  C   UNL A   1      47.035  28.166  28.290  1.00  0.00     0.074 A 
ATOM     51  C   UNL A   1      41.551  31.039  29.673  1.00  0.00     0.029 A 
ATOM     52  N   UNL A   1      43.114  29.571  29.082  1.00  0.00    -0.354 N 
ATOM     53  N   UNL A   1      45.858  28.680  28.556  1.00  0.00    -0.248 NA
ATOM     54  C   UNL A   1      48.130  29.147  28.294  1.00  0.00     0.031 C 
ATOM     55  C   UNL A   1      42.777  31.705  29.597  1.00  0.00     0.029 A 
ATOM     56  C   UNL A   1      43.757  30.784  29.260  1.00  0.00     0.049 A 
ATOM     57  H   UNL A   1      43.557  28.729  28.828  1.00  0.00     0.167 HD
ATOM     58  C   UNL A   1      46.074  30.033  28.787  1.00  0.00     0.074 A 
ATOM     59  C   UNL A   1      47.495  30.261  28.635  1.00  0.00     0.031 C 
ATOM     60  C   UNL A   1      45.174  30.997  29.106  1.00  0.00     0.031 A 
BRANCH  47  61
ATOM     61  C   UNL A   1      39.325  29.003  29.323  1.00  0.00    -0.014 A 
ATOM     62  C   UNL A   1      38.688  28.952  30.573  1.00  0.00     0.009 A 
ATOM     63  C   UNL A   1      38.576  29.363  28.193  1.00  0.00     0.009 A 
ATOM     64  C   UNL A   1      37.317  29.203  30.678  1.00  0.00     0.001 A 
ATOM     65  C   UNL A   1      37.215  29.648  28.306  1.00  0.00     0.001 A 
ATOM     66  C   UNL A   1      36.583  29.554  29.545  1.00  0.00     0.000 A 
ENDBRANCH  47  61
BRANCH  48  67
ATOM     67  C   UNL A   1      48.799  26.362  27.648  1.00  0.00    -0.014 A 
ATOM     68  C   UNL A   1      49.697  25.959  28.646  1.00  0.00     0.009 A 
ATOM     69  C   UNL A   1      49.236  26.387  26.314  1.00  0.00     0.009 A 
ATOM     70  C   UNL A   1      51.006  25.596  28.316  1.00  0.00     0.001 A 
ATOM     71  C   UNL A   1      50.536  25.998  25.983  1.00  0.00     0.001 A 
ATOM     72  C   UNL A   1      51.421  25.608  26.986  1.00  0.00     0.000 A 
ENDBRANCH  48  67
BRANCH  60  73
ATOM     73  C   UNL A   1      45.696  32.385  29.366  1.00  0.00    -0.014 A 
ATOM     74  C   UNL A   1      45.757  33.349  28.349  1.00  0.00     0.009 A 
ATOM     75  C   UNL A   1      46.053  32.752  30.673  1.00  0.00     0.009 A 
ATOM     76  C   UNL A   1      46.184  34.650  28.636  1.00  0.00     0.001 A 
ATOM     77  C   UNL A   1      46.450  34.058  30.963  1.00  0.00     0.001 A 
ATOM     78  C   UNL A   1      46.521  35.004  29.942  1.00  0.00     0.000 A 
ENDBRANCH  60  73
ENDBRANCH  34  35
ENDBRANCH  27  29
ENDBRANCH  26  27
ENDBRANCH  25  26
ENDBRANCH  24  25
ENDBRANCH  23  24
ENDBRANCH  22  23
ENDBRANCH   1  22
TORSDOF 20
ENDMDL
