MODEL 1
REMARK VINA RESULT:      -9.0      0.000      0.000
REMARK SMILES CCc1nn(C)c(N[C@@](C)(CC)C(=O)OCCOCCOCCOC(=O)c2ccc(-c3c4nc(c(-c5ccccc5)c5ccc([nH]5)c(-c5ccccc5)c5nc(c(-c6ccccc6)c6ccc3[nH]6)C=C5)C=C4)cc2)c1[N+](=O)[O-]
REMARK SMILES IDX 19 1 18 2 17 3 16 4 15 5 13 6 14 7 9 8 10 9 8 10 7 12 3 13
REMARK SMILES IDX 4 14 75 15 5 16 6 17 2 18 1 19 76 20 77 21 78 22 11 23 12 24
REMARK SMILES IDX 20 25 21 26 22 27 23 28 24 29 25 30 26 31 27 32 28 33 74 34
REMARK SMILES IDX 29 35 73 36 30 37 31 38 32 39 67 40 33 41 72 42 66 43 68 44
REMARK SMILES IDX 34 45 71 46 65 47 64 48 35 50 57 51 42 52 56 53 43 54 46 55
REMARK SMILES IDX 55 56 69 57 44 58 45 59 54 61 70 62 47 63 36 64 37 65 41 66
REMARK SMILES IDX 38 67 40 68 39 69 58 70 59 71 63 72 60 73 62 74 61 75 48 76
REMARK SMILES IDX 49 77 53 78 50 79 52 80 51 81
REMARK H PARENT 8 11 68 49 46 60
REMARK Flexibility Score: inf
ROOT
ATOM      1  C   UNL A   1      33.290  28.472  27.172  1.00  0.00     0.188 C 
ENDROOT
BRANCH   1   2
ATOM      2  O   UNL A   1      32.785  28.370  25.849  1.00  0.00    -0.376 OA
BRANCH   2   3
ATOM      3  C   UNL A   1      33.684  27.915  24.849  1.00  0.00     0.202 C 
BRANCH   3   4
ATOM      4  C   UNL A   1      33.316  26.610  24.132  1.00  0.00     0.261 C 
BRANCH   4   5
ATOM      5  O   UNL A   1      32.159  25.983  24.726  1.00  0.00    -0.462 OA
BRANCH   5   6
ATOM      6  C   UNL A   1      32.371  24.828  25.408  1.00  0.00     0.331 C 
ATOM      7  O   UNL A   1      33.090  24.766  26.400  1.00  0.00    -0.249 OA
BRANCH   6   8
ATOM      8  C   UNL A   1      31.722  23.589  24.725  1.00  0.00     0.134 C 
ATOM      9  C   UNL A   1      30.661  24.140  23.742  1.00  0.00     0.047 C 
BRANCH   8  10
ATOM     10  N   UNL A   1      32.548  22.676  23.900  1.00  0.00    -0.349 N 
ATOM     11  H   UNL A   1      32.190  22.552  22.992  1.00  0.00     0.163 HD
BRANCH  10  12
ATOM     12  C   UNL A   1      33.695  21.967  24.121  1.00  0.00     0.205 A 
ATOM     13  C   UNL A   1      35.574  21.007  24.896  1.00  0.00     0.142 A 
ATOM     14  N   UNL A   1      34.653  20.047  24.901  1.00  0.00    -0.169 NA
ATOM     15  C   UNL A   1      35.074  22.158  24.230  1.00  0.00     0.334 A 
ATOM     16  N   UNL A   1      33.591  20.591  24.298  1.00  0.00    -0.246 N 
ATOM     17  C   UNL A   1      32.545  19.685  23.880  1.00  0.00     0.176 C 
BRANCH  13  18
ATOM     18  C   UNL A   1      36.897  20.715  25.533  1.00  0.00     0.062 C 
ATOM     19  C   UNL A   1      37.759  19.798  24.667  1.00  0.00     0.011 C 
ENDBRANCH  13  18
BRANCH  15  20
ATOM     20  N   UNL A   1      35.867  23.256  23.803  1.00  0.00     0.068 N 
ATOM     21  O   UNL A   1      36.450  23.144  22.718  1.00  0.00    -0.258 OA
ATOM     22  O   UNL A   1      35.849  24.267  24.512  1.00  0.00    -0.258 OA
ENDBRANCH  15  20
ENDBRANCH  10  12
ENDBRANCH   8  10
BRANCH   8  23
ATOM     23  C   UNL A   1      30.932  22.763  25.824  1.00  0.00     0.037 C 
ATOM     24  C   UNL A   1      29.930  23.456  26.763  1.00  0.00     0.007 C 
ENDBRANCH   8  23
ENDBRANCH   6   8
ENDBRANCH   5   6
ENDBRANCH   4   5
ENDBRANCH   3   4
ENDBRANCH   2   3
ENDBRANCH   1   2
BRANCH   1  25
ATOM     25  C   UNL A   1      34.475  29.438  27.287  1.00  0.00     0.188 C 
BRANCH  25  26
ATOM     26  O   UNL A   1      34.315  30.821  26.998  1.00  0.00    -0.376 OA
BRANCH  26  27
ATOM     27  C   UNL A   1      33.398  31.573  27.771  1.00  0.00     0.202 C 
BRANCH  27  28
ATOM     28  C   UNL A   1      33.058  32.995  27.305  1.00  0.00     0.261 C 
BRANCH  28  29
ATOM     29  O   UNL A   1      32.297  33.794  28.229  1.00  0.00    -0.460 OA
BRANCH  29  30
ATOM     30  C   UNL A   1      32.931  34.899  28.688  1.00  0.00     0.338 C 
ATOM     31  O   UNL A   1      32.554  36.060  28.592  1.00  0.00    -0.246 OA
BRANCH  30  32
ATOM     32  C   UNL A   1      34.121  34.522  29.482  1.00  0.00     0.060 A 
ATOM     33  C   UNL A   1      35.380  34.605  28.867  1.00  0.00     0.016 A 
ATOM     34  C   UNL A   1      34.007  34.001  30.772  1.00  0.00     0.016 A 
ATOM     35  C   UNL A   1      36.517  34.132  29.523  1.00  0.00     0.010 A 
ATOM     36  C   UNL A   1      35.147  33.501  31.419  1.00  0.00     0.010 A 
ATOM     37  C   UNL A   1      36.400  33.530  30.784  1.00  0.00    -0.014 A 
BRANCH  37  38
ATOM     38  C   UNL A   1      37.560  32.782  31.340  1.00  0.00     0.031 A 
ATOM     39  C   UNL A   1      38.092  33.168  32.687  1.00  0.00     0.074 A 
ATOM     40  C   UNL A   1      38.105  31.737  30.693  1.00  0.00     0.049 A 
ATOM     41  N   UNL A   1      39.099  32.661  33.350  1.00  0.00    -0.248 NA
ATOM     42  C   UNL A   1      37.409  34.277  33.369  1.00  0.00     0.031 C 
ATOM     43  C   UNL A   1      37.666  31.264  29.394  1.00  0.00     0.029 A 
ATOM     44  N   UNL A   1      39.120  30.877  31.033  1.00  0.00    -0.354 N 
ATOM     45  C   UNL A   1      39.195  33.413  34.510  1.00  0.00     0.074 A 
ATOM     46  C   UNL A   1      38.143  34.406  34.464  1.00  0.00     0.031 C 
ATOM     47  C   UNL A   1      38.351  30.158  29.063  1.00  0.00     0.029 A 
ATOM     48  C   UNL A   1      39.348  29.896  30.094  1.00  0.00     0.049 A 
ATOM     49  H   UNL A   1      39.635  30.955  31.868  1.00  0.00     0.167 HD
ATOM     50  C   UNL A   1      40.092  33.295  35.517  1.00  0.00     0.031 A 
ATOM     51  C   UNL A   1      40.276  28.920  30.056  1.00  0.00     0.031 A 
ATOM     52  C   UNL A   1      41.150  32.321  35.551  1.00  0.00     0.049 A 
ATOM     53  C   UNL A   1      41.288  28.841  31.168  1.00  0.00     0.074 A 
ATOM     54  C   UNL A   1      42.117  32.134  36.524  1.00  0.00     0.029 A 
ATOM     55  N   UNL A   1      41.384  31.373  34.566  1.00  0.00    -0.354 N 
ATOM     56  N   UNL A   1      41.370  29.562  32.260  1.00  0.00    -0.248 NA
ATOM     57  C   UNL A   1      42.347  27.831  31.031  1.00  0.00     0.031 C 
ATOM     58  C   UNL A   1      42.967  31.107  36.103  1.00  0.00     0.029 A 
ATOM     59  C   UNL A   1      42.494  30.612  34.899  1.00  0.00     0.049 A 
ATOM     60  H   UNL A   1      40.843  31.257  33.752  1.00  0.00     0.167 HD
ATOM     61  C   UNL A   1      42.483  29.088  32.943  1.00  0.00     0.074 A 
ATOM     62  C   UNL A   1      43.022  27.995  32.160  1.00  0.00     0.031 C 
ATOM     63  C   UNL A   1      43.017  29.527  34.108  1.00  0.00     0.031 A 
BRANCH  50  64
ATOM     64  C   UNL A   1      40.001  34.296  36.631  1.00  0.00    -0.014 A 
ATOM     65  C   UNL A   1      39.291  34.019  37.809  1.00  0.00     0.009 A 
ATOM     66  C   UNL A   1      40.646  35.535  36.499  1.00  0.00     0.009 A 
ATOM     67  C   UNL A   1      39.202  34.978  38.820  1.00  0.00     0.001 A 
ATOM     68  C   UNL A   1      40.580  36.481  37.522  1.00  0.00     0.001 A 
ATOM     69  C   UNL A   1      39.851  36.205  38.678  1.00  0.00     0.000 A 
ENDBRANCH  50  64
BRANCH  51  70
ATOM     70  C   UNL A   1      40.342  27.972  28.909  1.00  0.00    -0.014 A 
ATOM     71  C   UNL A   1      41.022  28.316  27.729  1.00  0.00     0.009 A 
ATOM     72  C   UNL A   1      39.685  26.731  28.968  1.00  0.00     0.009 A 
ATOM     73  C   UNL A   1      41.019  27.453  26.628  1.00  0.00     0.001 A 
ATOM     74  C   UNL A   1      39.713  25.856  27.879  1.00  0.00     0.001 A 
ATOM     75  C   UNL A   1      40.370  26.222  26.706  1.00  0.00     0.000 A 
ENDBRANCH  51  70
BRANCH  63  76
ATOM     76  C   UNL A   1      44.227  28.799  34.624  1.00  0.00    -0.014 A 
ATOM     77  C   UNL A   1      44.104  27.666  35.444  1.00  0.00     0.009 A 
ATOM     78  C   UNL A   1      45.508  29.235  34.252  1.00  0.00     0.009 A 
ATOM     79  C   UNL A   1      45.244  27.007  35.911  1.00  0.00     0.001 A 
ATOM     80  C   UNL A   1      46.644  28.556  34.696  1.00  0.00     0.001 A 
ATOM     81  C   UNL A   1      46.510  27.449  35.533  1.00  0.00     0.000 A 
ENDBRANCH  63  76
ENDBRANCH  37  38
ENDBRANCH  30  32
ENDBRANCH  29  30
ENDBRANCH  28  29
ENDBRANCH  27  28
ENDBRANCH  26  27
ENDBRANCH  25  26
ENDBRANCH   1  25
TORSDOF 22
ENDMDL
MODEL 2
REMARK VINA RESULT:      -8.9      1.537      5.995
REMARK SMILES CCc1nn(C)c(N[C@@](C)(CC)C(=O)OCCOCCOCCOC(=O)c2ccc(-c3c4nc(c(-c5ccccc5)c5ccc([nH]5)c(-c5ccccc5)c5nc(c(-c6ccccc6)c6ccc3[nH]6)C=C5)C=C4)cc2)c1[N+](=O)[O-]
REMARK SMILES IDX 19 1 18 2 17 3 16 4 15 5 13 6 14 7 9 8 10 9 8 10 7 12 3 13
REMARK SMILES IDX 4 14 75 15 5 16 6 17 2 18 1 19 76 20 77 21 78 22 11 23 12 24
REMARK SMILES IDX 20 25 21 26 22 27 23 28 24 29 25 30 26 31 27 32 28 33 74 34
REMARK SMILES IDX 29 35 73 36 30 37 31 38 32 39 67 40 33 41 72 42 66 43 68 44
REMARK SMILES IDX 34 45 71 46 65 47 64 48 35 50 57 51 42 52 56 53 43 54 46 55
REMARK SMILES IDX 55 56 69 57 44 58 45 59 54 61 70 62 47 63 36 64 37 65 41 66
REMARK SMILES IDX 38 67 40 68 39 69 58 70 59 71 63 72 60 73 62 74 61 75 48 76
REMARK SMILES IDX 49 77 53 78 50 79 52 80 51 81
REMARK H PARENT 8 11 68 49 46 60
REMARK Flexibility Score: inf
ROOT
ATOM      1  C   UNL A   1      31.667  27.375  27.227  1.00  0.00     0.188 C 
ENDROOT
BRANCH   1   2
ATOM      2  O   UNL A   1      32.107  26.567  26.147  1.00  0.00    -0.376 OA
BRANCH   2   3
ATOM      3  C   UNL A   1      32.968  27.174  25.195  1.00  0.00     0.202 C 
BRANCH   3   4
ATOM      4  C   UNL A   1      33.573  26.255  24.127  1.00  0.00     0.261 C 
BRANCH   4   5
ATOM      5  O   UNL A   1      32.573  25.405  23.525  1.00  0.00    -0.462 OA
BRANCH   5   6
ATOM      6  C   UNL A   1      32.991  24.200  23.060  1.00  0.00     0.331 C 
ATOM      7  O   UNL A   1      33.672  24.079  22.047  1.00  0.00    -0.249 OA
BRANCH   6   8
ATOM      8  C   UNL A   1      32.406  23.001  23.862  1.00  0.00     0.134 C 
ATOM      9  C   UNL A   1      31.921  21.972  22.813  1.00  0.00     0.047 C 
BRANCH   8  10
ATOM     10  N   UNL A   1      33.275  22.217  24.770  1.00  0.00    -0.349 N 
ATOM     11  H   UNL A   1      32.887  22.103  25.668  1.00  0.00     0.163 HD
BRANCH  10  12
ATOM     12  C   UNL A   1      34.497  21.619  24.639  1.00  0.00     0.205 A 
ATOM     13  C   UNL A   1      36.590  20.820  24.835  1.00  0.00     0.142 A 
ATOM     14  N   UNL A   1      35.788  19.773  25.014  1.00  0.00    -0.169 NA
ATOM     15  C   UNL A   1      35.834  21.942  24.399  1.00  0.00     0.334 A 
ATOM     16  N   UNL A   1      34.562  20.233  24.744  1.00  0.00    -0.246 N 
ATOM     17  C   UNL A   1      33.525  19.244  24.552  1.00  0.00     0.176 C 
BRANCH  13  18
ATOM     18  C   UNL A   1      38.054  20.637  25.086  1.00  0.00     0.062 C 
ATOM     19  C   UNL A   1      38.639  21.778  25.917  1.00  0.00     0.011 C 
ENDBRANCH  13  18
BRANCH  15  20
ATOM     20  N   UNL A   1      36.389  23.131  23.855  1.00  0.00     0.068 N 
ATOM     21  O   UNL A   1      36.758  23.094  22.675  1.00  0.00    -0.258 OA
ATOM     22  O   UNL A   1      36.386  24.132  24.581  1.00  0.00    -0.258 OA
ENDBRANCH  15  20
ENDBRANCH  10  12
ENDBRANCH   8  10
BRANCH   8  23
ATOM     23  C   UNL A   1      31.115  23.495  24.638  1.00  0.00     0.037 C 
ATOM     24  C   UNL A   1      30.707  22.860  25.978  1.00  0.00     0.007 C 
ENDBRANCH   8  23
ENDBRANCH   6   8
ENDBRANCH   5   6
ENDBRANCH   4   5
ENDBRANCH   3   4
ENDBRANCH   2   3
ENDBRANCH   1   2
BRANCH   1  25
ATOM     25  C   UNL A   1      32.465  28.677  27.363  1.00  0.00     0.188 C 
BRANCH  25  26
ATOM     26  O   UNL A   1      31.841  29.937  27.147  1.00  0.00    -0.376 OA
BRANCH  26  27
ATOM     27  C   UNL A   1      32.635  31.014  26.680  1.00  0.00     0.202 C 
BRANCH  27  28
ATOM     28  C   UNL A   1      33.485  31.778  27.705  1.00  0.00     0.261 C 
BRANCH  28  29
ATOM     29  O   UNL A   1      33.496  33.210  27.568  1.00  0.00    -0.460 OA
BRANCH  29  30
ATOM     30  C   UNL A   1      33.555  33.897  28.734  1.00  0.00     0.338 C 
ATOM     31  O   UNL A   1      32.670  34.578  29.234  1.00  0.00    -0.246 OA
BRANCH  30  32
ATOM     32  C   UNL A   1      34.821  33.607  29.443  1.00  0.00     0.060 A 
ATOM     33  C   UNL A   1      36.022  34.018  28.845  1.00  0.00     0.016 A 
ATOM     34  C   UNL A   1      34.847  32.860  30.622  1.00  0.00     0.016 A 
ATOM     35  C   UNL A   1      37.247  33.649  29.401  1.00  0.00     0.010 A 
ATOM     36  C   UNL A   1      36.079  32.467  31.164  1.00  0.00     0.010 A 
ATOM     37  C   UNL A   1      37.284  32.829  30.537  1.00  0.00    -0.014 A 
BRANCH  37  38
ATOM     38  C   UNL A   1      38.576  32.215  30.947  1.00  0.00     0.031 A 
ATOM     39  C   UNL A   1      39.044  30.976  30.246  1.00  0.00     0.074 A 
ATOM     40  C   UNL A   1      39.357  32.772  31.890  1.00  0.00     0.049 A 
ATOM     41  N   UNL A   1      40.127  30.273  30.453  1.00  0.00    -0.248 NA
ATOM     42  C   UNL A   1      38.173  30.456  29.181  1.00  0.00     0.031 C 
ATOM     43  C   UNL A   1      39.016  33.975  32.625  1.00  0.00     0.029 A 
ATOM     44  N   UNL A   1      40.592  32.423  32.379  1.00  0.00    -0.354 N 
ATOM     45  C   UNL A   1      40.051  29.205  29.572  1.00  0.00     0.074 A 
ATOM     46  C   UNL A   1      38.819  29.356  28.825  1.00  0.00     0.031 C 
ATOM     47  C   UNL A   1      40.037  34.317  33.426  1.00  0.00     0.029 A 
ATOM     48  C   UNL A   1      41.075  33.297  33.327  1.00  0.00     0.049 A 
ATOM     49  H   UNL A   1      41.085  31.625  32.079  1.00  0.00     0.167 HD
ATOM     50  C   UNL A   1      40.922  28.182  29.412  1.00  0.00     0.031 A 
ATOM     51  C   UNL A   1      42.209  33.261  34.054  1.00  0.00     0.031 A 
ATOM     52  C   UNL A   1      42.134  28.023  30.170  1.00  0.00     0.049 A 
ATOM     53  C   UNL A   1      43.138  32.088  33.887  1.00  0.00     0.074 A 
ATOM     54  C   UNL A   1      43.074  27.010  30.087  1.00  0.00     0.029 A 
ATOM     55  N   UNL A   1      42.573  28.897  31.154  1.00  0.00    -0.354 N 
ATOM     56  N   UNL A   1      43.051  31.081  33.051  1.00  0.00    -0.248 NA
ATOM     57  C   UNL A   1      44.305  32.033  34.777  1.00  0.00     0.031 C 
ATOM     58  C   UNL A   1      44.053  27.244  31.057  1.00  0.00     0.029 A 
ATOM     59  C   UNL A   1      43.759  28.435  31.701  1.00  0.00     0.049 A 
ATOM     60  H   UNL A   1      42.110  29.723  31.423  1.00  0.00     0.167 HD
ATOM     61  C   UNL A   1      44.155  30.279  33.310  1.00  0.00     0.074 A 
ATOM     62  C   UNL A   1      44.915  30.934  34.354  1.00  0.00     0.031 C 
ATOM     63  C   UNL A   1      44.502  29.100  32.740  1.00  0.00     0.031 A 
BRANCH  50  64
ATOM     64  C   UNL A   1      40.550  27.120  28.419  1.00  0.00    -0.014 A 
ATOM     65  C   UNL A   1      39.690  26.065  28.762  1.00  0.00     0.009 A 
ATOM     66  C   UNL A   1      41.066  27.184  27.116  1.00  0.00     0.009 A 
ATOM     67  C   UNL A   1      39.380  25.077  27.825  1.00  0.00     0.001 A 
ATOM     68  C   UNL A   1      40.733  26.212  26.174  1.00  0.00     0.001 A 
ATOM     69  C   UNL A   1      39.897  25.154  26.531  1.00  0.00     0.000 A 
ENDBRANCH  50  64
BRANCH  51  70
ATOM     70  C   UNL A   1      42.513  34.326  35.050  1.00  0.00    -0.014 A 
ATOM     71  C   UNL A   1      43.253  35.463  34.685  1.00  0.00     0.009 A 
ATOM     72  C   UNL A   1      42.105  34.191  36.388  1.00  0.00     0.009 A 
ATOM     73  C   UNL A   1      43.599  36.424  35.641  1.00  0.00     0.001 A 
ATOM     74  C   UNL A   1      42.422  35.170  37.333  1.00  0.00     0.001 A 
ATOM     75  C   UNL A   1      43.179  36.280  36.962  1.00  0.00     0.000 A 
ENDBRANCH  51  70
BRANCH  63  76
ATOM     76  C   UNL A   1      45.779  28.462  33.211  1.00  0.00    -0.014 A 
ATOM     77  C   UNL A   1      47.032  28.972  32.839  1.00  0.00     0.009 A 
ATOM     78  C   UNL A   1      45.724  27.354  34.071  1.00  0.00     0.009 A 
ATOM     79  C   UNL A   1      48.205  28.361  33.290  1.00  0.00     0.001 A 
ATOM     80  C   UNL A   1      46.897  26.764  34.544  1.00  0.00     0.001 A 
ATOM     81  C   UNL A   1      48.136  27.262  34.145  1.00  0.00     0.000 A 
ENDBRANCH  63  76
ENDBRANCH  37  38
ENDBRANCH  30  32
ENDBRANCH  29  30
ENDBRANCH  28  29
ENDBRANCH  27  28
ENDBRANCH  26  27
ENDBRANCH  25  26
ENDBRANCH   1  25
TORSDOF 22
ENDMDL
MODEL 3
REMARK VINA RESULT:      -8.8      2.632      8.305
REMARK SMILES CCc1nn(C)c(N[C@@](C)(CC)C(=O)OCCOCCOCCOC(=O)c2ccc(-c3c4nc(c(-c5ccccc5)c5ccc([nH]5)c(-c5ccccc5)c5nc(c(-c6ccccc6)c6ccc3[nH]6)C=C5)C=C4)cc2)c1[N+](=O)[O-]
REMARK SMILES IDX 19 1 18 2 17 3 16 4 15 5 13 6 14 7 9 8 10 9 8 10 7 12 3 13
REMARK SMILES IDX 4 14 75 15 5 16 6 17 2 18 1 19 76 20 77 21 78 22 11 23 12 24
REMARK SMILES IDX 20 25 21 26 22 27 23 28 24 29 25 30 26 31 27 32 28 33 74 34
REMARK SMILES IDX 29 35 73 36 30 37 31 38 32 39 67 40 33 41 72 42 66 43 68 44
REMARK SMILES IDX 34 45 71 46 65 47 64 48 35 50 57 51 42 52 56 53 43 54 46 55
REMARK SMILES IDX 55 56 69 57 44 58 45 59 54 61 70 62 47 63 36 64 37 65 41 66
REMARK SMILES IDX 38 67 40 68 39 69 58 70 59 71 63 72 60 73 62 74 61 75 48 76
REMARK SMILES IDX 49 77 53 78 50 79 52 80 51 81
REMARK H PARENT 8 11 68 49 46 60
REMARK Flexibility Score: inf
ROOT
ATOM      1  C   UNL A   1      36.481  22.858  24.096  1.00  0.00     0.188 C 
ENDROOT
BRANCH   1   2
ATOM      2  O   UNL A   1      35.144  22.785  24.566  1.00  0.00    -0.376 OA
BRANCH   2   3
ATOM      3  C   UNL A   1      34.115  23.079  23.634  1.00  0.00     0.202 C 
BRANCH   3   4
ATOM      4  C   UNL A   1      32.978  23.983  24.125  1.00  0.00     0.261 C 
BRANCH   4   5
ATOM      5  O   UNL A   1      33.283  25.380  23.927  1.00  0.00    -0.462 OA
BRANCH   5   6
ATOM      6  C   UNL A   1      33.594  26.103  25.034  1.00  0.00     0.331 C 
ATOM      7  O   UNL A   1      34.387  25.709  25.883  1.00  0.00    -0.249 OA
BRANCH   6   8
ATOM      8  C   UNL A   1      32.745  27.400  25.173  1.00  0.00     0.134 C 
ATOM      9  C   UNL A   1      33.739  28.534  25.525  1.00  0.00     0.047 C 
BRANCH   8  10
ATOM     10  N   UNL A   1      31.987  27.923  24.013  1.00  0.00    -0.349 N 
ATOM     11  H   UNL A   1      32.532  27.984  23.195  1.00  0.00     0.163 HD
BRANCH  10  12
ATOM     12  C   UNL A   1      30.700  28.340  23.826  1.00  0.00     0.205 A 
ATOM     13  C   UNL A   1      28.747  29.215  23.133  1.00  0.00     0.142 A 
ATOM     14  N   UNL A   1      28.643  27.903  22.935  1.00  0.00    -0.169 NA
ATOM     15  C   UNL A   1      29.927  29.503  23.871  1.00  0.00     0.334 A 
ATOM     16  N   UNL A   1      29.744  27.387  23.490  1.00  0.00    -0.246 N 
ATOM     17  C   UNL A   1      29.754  25.956  23.704  1.00  0.00     0.176 C 
BRANCH  13  18
ATOM     18  C   UNL A   1      27.663  30.096  22.597  1.00  0.00     0.062 C 
ATOM     19  C   UNL A   1      28.036  30.707  21.247  1.00  0.00     0.011 C 
ENDBRANCH  13  18
BRANCH  15  20
ATOM     20  N   UNL A   1      30.212  30.750  24.489  1.00  0.00     0.068 N 
ATOM     21  O   UNL A   1      31.086  30.759  25.364  1.00  0.00    -0.258 OA
ATOM     22  O   UNL A   1      29.620  31.740  24.048  1.00  0.00    -0.258 OA
ENDBRANCH  15  20
ENDBRANCH  10  12
ENDBRANCH   8  10
BRANCH   8  23
ATOM     23  C   UNL A   1      31.784  27.242  26.424  1.00  0.00     0.037 C 
ATOM     24  C   UNL A   1      31.886  28.198  27.625  1.00  0.00     0.007 C 
ENDBRANCH   8  23
ENDBRANCH   6   8
ENDBRANCH   5   6
ENDBRANCH   4   5
ENDBRANCH   3   4
ENDBRANCH   2   3
ENDBRANCH   1   2
BRANCH   1  25
ATOM     25  C   UNL A   1      37.322  21.639  24.490  1.00  0.00     0.188 C 
BRANCH  25  26
ATOM     26  O   UNL A   1      37.926  21.558  25.775  1.00  0.00    -0.376 OA
BRANCH  26  27
ATOM     27  C   UNL A   1      38.782  22.608  26.188  1.00  0.00     0.202 C 
BRANCH  27  28
ATOM     28  C   UNL A   1      40.251  22.269  26.475  1.00  0.00     0.261 C 
BRANCH  28  29
ATOM     29  O   UNL A   1      40.924  23.133  27.408  1.00  0.00    -0.460 OA
BRANCH  29  30
ATOM     30  C   UNL A   1      41.427  24.273  26.875  1.00  0.00     0.338 C 
ATOM     31  O   UNL A   1      42.028  24.388  25.815  1.00  0.00    -0.246 OA
BRANCH  30  32
ATOM     32  C   UNL A   1      41.027  25.444  27.685  1.00  0.00     0.060 A 
ATOM     33  C   UNL A   1      41.907  26.535  27.749  1.00  0.00     0.016 A 
ATOM     34  C   UNL A   1      39.859  25.442  28.451  1.00  0.00     0.016 A 
ATOM     35  C   UNL A   1      41.643  27.604  28.606  1.00  0.00     0.010 A 
ATOM     36  C   UNL A   1      39.609  26.505  29.332  1.00  0.00     0.010 A 
ATOM     37  C   UNL A   1      40.517  27.573  29.441  1.00  0.00    -0.014 A 
BRANCH  37  38
ATOM     38  C   UNL A   1      40.401  28.569  30.540  1.00  0.00     0.031 A 
ATOM     39  C   UNL A   1      39.338  29.621  30.454  1.00  0.00     0.074 A 
ATOM     40  C   UNL A   1      41.187  28.515  31.630  1.00  0.00     0.049 A 
ATOM     41  N   UNL A   1      39.072  30.591  31.290  1.00  0.00    -0.248 NA
ATOM     42  C   UNL A   1      38.471  29.583  29.267  1.00  0.00     0.031 C 
ATOM     43  C   UNL A   1      42.238  27.536  31.830  1.00  0.00     0.029 A 
ATOM     44  N   UNL A   1      41.220  29.275  32.773  1.00  0.00    -0.354 N 
ATOM     45  C   UNL A   1      38.031  31.303  30.713  1.00  0.00     0.074 A 
ATOM     46  C   UNL A   1      37.712  30.652  29.460  1.00  0.00     0.031 C 
ATOM     47  C   UNL A   1      42.777  27.697  33.048  1.00  0.00     0.029 A 
ATOM     48  C   UNL A   1      42.166  28.859  33.683  1.00  0.00     0.049 A 
ATOM     49  H   UNL A   1      40.625  30.044  32.927  1.00  0.00     0.167 HD
ATOM     50  C   UNL A   1      37.410  32.411  31.179  1.00  0.00     0.031 A 
ATOM     51  C   UNL A   1      42.520  29.375  34.876  1.00  0.00     0.031 A 
ATOM     52  C   UNL A   1      37.742  33.069  32.414  1.00  0.00     0.049 A 
ATOM     53  C   UNL A   1      41.841  30.634  35.349  1.00  0.00     0.074 A 
ATOM     54  C   UNL A   1      37.176  34.206  32.963  1.00  0.00     0.029 A 
ATOM     55  N   UNL A   1      38.734  32.652  33.290  1.00  0.00    -0.354 N 
ATOM     56  N   UNL A   1      40.860  31.300  34.790  1.00  0.00    -0.248 NA
ATOM     57  C   UNL A   1      42.334  31.223  36.601  1.00  0.00     0.031 C 
ATOM     58  C   UNL A   1      37.859  34.508  34.145  1.00  0.00     0.029 A 
ATOM     59  C   UNL A   1      38.809  33.523  34.366  1.00  0.00     0.049 A 
ATOM     60  H   UNL A   1      39.299  31.856  33.167  1.00  0.00     0.167 HD
ATOM     61  C   UNL A   1      40.613  32.382  35.626  1.00  0.00     0.074 A 
ATOM     62  C   UNL A   1      41.522  32.262  36.747  1.00  0.00     0.031 C 
ATOM     63  C   UNL A   1      39.720  33.389  35.473  1.00  0.00     0.031 A 
BRANCH  50  64
ATOM     64  C   UNL A   1      36.349  33.015  30.306  1.00  0.00    -0.014 A 
ATOM     65  C   UNL A   1      36.676  33.837  29.217  1.00  0.00     0.009 A 
ATOM     66  C   UNL A   1      34.998  32.747  30.577  1.00  0.00     0.009 A 
ATOM     67  C   UNL A   1      35.668  34.405  28.436  1.00  0.00     0.001 A 
ATOM     68  C   UNL A   1      33.994  33.293  29.779  1.00  0.00     0.001 A 
ATOM     69  C   UNL A   1      34.329  34.129  28.714  1.00  0.00     0.000 A 
ENDBRANCH  50  64
BRANCH  51  70
ATOM     70  C   UNL A   1      43.603  28.754  35.688  1.00  0.00    -0.014 A 
ATOM     71  C   UNL A   1      44.934  29.188  35.567  1.00  0.00     0.009 A 
ATOM     72  C   UNL A   1      43.322  27.688  36.559  1.00  0.00     0.009 A 
ATOM     73  C   UNL A   1      45.958  28.552  36.276  1.00  0.00     0.001 A 
ATOM     74  C   UNL A   1      44.341  27.077  37.293  1.00  0.00     0.001 A 
ATOM     75  C   UNL A   1      45.660  27.502  37.143  1.00  0.00     0.000 A 
ENDBRANCH  51  70
BRANCH  63  76
ATOM     76  C   UNL A   1      39.661  34.422  36.564  1.00  0.00    -0.014 A 
ATOM     77  C   UNL A   1      38.914  34.209  37.733  1.00  0.00     0.009 A 
ATOM     78  C   UNL A   1      40.394  35.612  36.432  1.00  0.00     0.009 A 
ATOM     79  C   UNL A   1      38.873  35.185  38.732  1.00  0.00     0.001 A 
ATOM     80  C   UNL A   1      40.376  36.571  37.445  1.00  0.00     0.001 A 
ATOM     81  C   UNL A   1      39.608  36.361  38.589  1.00  0.00     0.000 A 
ENDBRANCH  63  76
ENDBRANCH  37  38
ENDBRANCH  30  32
ENDBRANCH  29  30
ENDBRANCH  28  29
ENDBRANCH  27  28
ENDBRANCH  26  27
ENDBRANCH  25  26
ENDBRANCH   1  25
TORSDOF 22
ENDMDL
