MODEL 1
REMARK VINA RESULT:     -10.0      0.000      0.000
REMARK SMILES O=C(Cc1ccccc1Nc1c(Cl)cccc1C(F)(F)F)OCCOCCOCCOC(=O)c1ccc(-c2c3nc(c(-c4ccccc4)c4ccc([nH]4)c(-c4ccccc4)c4nc(c(-c5ccccc5)c5ccc2[nH]5)C=C4)C=C3)cc1
REMARK SMILES IDX 26 1 25 2 24 3 23 4 22 5 2 6 1 7 3 8 4 9 5 10 9 11 6 12 8 13
REMARK SMILES IDX 7 14 10 15 11 17 12 18 17 19 13 20 14 21 16 22 15 23 18 24
REMARK SMILES IDX 19 25 20 26 21 27 27 28 28 29 29 30 30 31 31 32 32 33 33 34
REMARK SMILES IDX 34 35 35 36 81 37 36 38 80 39 37 40 38 41 39 42 74 43 40 44
REMARK SMILES IDX 79 45 73 46 75 47 41 48 78 49 72 50 71 51 42 53 64 54 49 55
REMARK SMILES IDX 63 56 50 57 53 58 62 59 76 60 51 61 52 62 61 64 77 65 54 66
REMARK SMILES IDX 43 67 44 68 48 69 45 70 47 71 46 72 65 73 66 74 70 75 67 76
REMARK SMILES IDX 69 77 68 78 55 79 56 80 60 81 57 82 59 83 58 84
REMARK H PARENT 10 16 75 52 53 63
REMARK Flexibility Score: inf
ROOT
ATOM      1  C   UNL A   1      34.806  32.677  28.009  1.00  0.00     0.188 C 
ENDROOT
BRANCH   1   2
ATOM      2  O   UNL A   1      33.617  31.907  28.112  1.00  0.00    -0.376 OA
BRANCH   2   3
ATOM      3  C   UNL A   1      33.531  30.687  27.380  1.00  0.00     0.202 C 
BRANCH   3   4
ATOM      4  C   UNL A   1      32.295  30.418  26.522  1.00  0.00     0.261 C 
BRANCH   4   5
ATOM      5  O   UNL A   1      31.626  29.134  26.557  1.00  0.00    -0.463 OA
BRANCH   5   6
ATOM      6  C   UNL A   1      32.021  27.860  26.711  1.00  0.00     0.310 C 
ATOM      7  O   UNL A   1      31.238  27.057  27.223  1.00  0.00    -0.252 OA
BRANCH   6   8
ATOM      8  C   UNL A   1      33.402  27.416  26.328  1.00  0.00     0.160 C 
BRANCH   8   9
ATOM      9  C   UNL A   1      33.540  26.917  24.910  1.00  0.00    -0.013 A 
ATOM     10  C   UNL A   1      33.190  27.797  23.869  1.00  0.00     0.006 A 
ATOM     11  C   UNL A   1      33.965  25.608  24.601  1.00  0.00     0.042 A 
ATOM     12  C   UNL A   1      33.230  27.379  22.543  1.00  0.00     0.000 A 
ATOM     13  C   UNL A   1      33.999  25.206  23.259  1.00  0.00     0.026 A 
ATOM     14  C   UNL A   1      33.637  26.086  22.238  1.00  0.00     0.002 A 
BRANCH  11  15
ATOM     15  N   UNL A   1      34.096  24.637  25.616  1.00  0.00    -0.354 N 
ATOM     16  H   UNL A   1      33.956  24.986  26.526  1.00  0.00     0.167 HD
BRANCH  15  17
ATOM     17  C   UNL A   1      34.392  23.248  25.567  1.00  0.00     0.070 A 
ATOM     18  C   UNL A   1      35.763  22.866  25.580  1.00  0.00     0.065 A 
ATOM     19  C   UNL A   1      33.432  22.234  25.378  1.00  0.00     0.080 A 
ATOM     20  Cl  UNL A   1      37.009  24.064  25.747  1.00  0.00    -0.082 Cl
ATOM     21  C   UNL A   1      36.172  21.540  25.441  1.00  0.00     0.023 A 
ATOM     22  C   UNL A   1      33.870  20.890  25.256  1.00  0.00     0.015 A 
ATOM     23  C   UNL A   1      35.220  20.546  25.283  1.00  0.00     0.002 A 
BRANCH  19  24
ATOM     24  C   UNL A   1      31.946  22.484  25.251  1.00  0.00     0.418 C 
ATOM     25  F   UNL A   1      31.609  22.988  24.023  1.00  0.00    -0.166 F 
ATOM     26  F   UNL A   1      31.209  21.347  25.376  1.00  0.00    -0.166 F 
ATOM     27  F   UNL A   1      31.452  23.381  26.136  1.00  0.00    -0.166 F 
ENDBRANCH  19  24
ENDBRANCH  15  17
ENDBRANCH  11  15
ENDBRANCH   8   9
ENDBRANCH   6   8
ENDBRANCH   5   6
ENDBRANCH   4   5
ENDBRANCH   3   4
ENDBRANCH   2   3
ENDBRANCH   1   2
BRANCH   1  28
ATOM     28  C   UNL A   1      34.694  34.186  28.251  1.00  0.00     0.188 C 
BRANCH  28  29
ATOM     29  O   UNL A   1      35.112  34.562  29.544  1.00  0.00    -0.376 OA
BRANCH  29  30
ATOM     30  C   UNL A   1      34.204  34.511  30.633  1.00  0.00     0.202 C 
BRANCH  30  31
ATOM     31  C   UNL A   1      34.396  33.717  31.946  1.00  0.00     0.261 C 
BRANCH  31  32
ATOM     32  O   UNL A   1      34.765  32.339  31.872  1.00  0.00    -0.460 OA
BRANCH  32  33
ATOM     33  C   UNL A   1      35.838  31.990  32.621  1.00  0.00     0.338 C 
ATOM     34  O   UNL A   1      36.063  32.302  33.776  1.00  0.00    -0.246 OA
BRANCH  33  35
ATOM     35  C   UNL A   1      36.675  31.030  31.884  1.00  0.00     0.060 A 
ATOM     36  C   UNL A   1      37.690  30.366  32.585  1.00  0.00     0.016 A 
ATOM     37  C   UNL A   1      36.562  30.901  30.498  1.00  0.00     0.016 A 
ATOM     38  C   UNL A   1      38.624  29.600  31.897  1.00  0.00     0.010 A 
ATOM     39  C   UNL A   1      37.522  30.157  29.803  1.00  0.00     0.010 A 
ATOM     40  C   UNL A   1      38.584  29.549  30.497  1.00  0.00    -0.014 A 
BRANCH  40  41
ATOM     41  C   UNL A   1      39.806  29.122  29.777  1.00  0.00     0.031 A 
ATOM     42  C   UNL A   1      40.919  30.126  29.630  1.00  0.00     0.074 A 
ATOM     43  C   UNL A   1      39.963  27.867  29.329  1.00  0.00     0.049 A 
ATOM     44  N   UNL A   1      42.107  29.982  29.102  1.00  0.00    -0.248 NA
ATOM     45  C   UNL A   1      40.654  31.477  30.155  1.00  0.00     0.031 C 
ATOM     46  C   UNL A   1      38.988  26.787  29.462  1.00  0.00     0.029 A 
ATOM     47  N   UNL A   1      41.024  27.289  28.677  1.00  0.00    -0.354 N 
ATOM     48  C   UNL A   1      42.728  31.219  29.232  1.00  0.00     0.074 A 
ATOM     49  C   UNL A   1      41.777  32.110  29.858  1.00  0.00     0.031 C 
ATOM     50  C   UNL A   1      39.499  25.671  28.909  1.00  0.00     0.029 A 
ATOM     51  C   UNL A   1      40.825  25.966  28.369  1.00  0.00     0.049 A 
ATOM     52  H   UNL A   1      41.848  27.776  28.452  1.00  0.00     0.167 HD
ATOM     53  C   UNL A   1      43.979  31.585  28.868  1.00  0.00     0.031 A 
ATOM     54  C   UNL A   1      41.627  25.098  27.722  1.00  0.00     0.031 A 
ATOM     55  C   UNL A   1      44.919  30.709  28.224  1.00  0.00     0.049 A 
ATOM     56  C   UNL A   1      42.985  25.550  27.252  1.00  0.00     0.074 A 
ATOM     57  C   UNL A   1      46.213  30.981  27.819  1.00  0.00     0.029 A 
ATOM     58  N   UNL A   1      44.657  29.393  27.878  1.00  0.00    -0.354 N 
ATOM     59  N   UNL A   1      43.573  26.712  27.409  1.00  0.00    -0.248 NA
ATOM     60  C   UNL A   1      43.796  24.560  26.529  1.00  0.00     0.031 C 
ATOM     61  C   UNL A   1      46.715  29.845  27.175  1.00  0.00     0.029 A 
ATOM     62  C   UNL A   1      45.756  28.846  27.240  1.00  0.00     0.049 A 
ATOM     63  H   UNL A   1      43.813  28.918  28.058  1.00  0.00     0.167 HD
ATOM     64  C   UNL A   1      44.837  26.578  26.844  1.00  0.00     0.074 A 
ATOM     65  C   UNL A   1      44.931  25.221  26.346  1.00  0.00     0.031 C 
ATOM     66  C   UNL A   1      45.836  27.491  26.756  1.00  0.00     0.031 A 
BRANCH  53  67
ATOM     67  C   UNL A   1      44.374  33.013  29.118  1.00  0.00    -0.014 A 
ATOM     68  C   UNL A   1      44.808  33.444  30.382  1.00  0.00     0.009 A 
ATOM     69  C   UNL A   1      44.306  33.942  28.068  1.00  0.00     0.009 A 
ATOM     70  C   UNL A   1      45.126  34.787  30.599  1.00  0.00     0.001 A 
ATOM     71  C   UNL A   1      44.653  35.277  28.281  1.00  0.00     0.001 A 
ATOM     72  C   UNL A   1      45.051  35.700  29.547  1.00  0.00     0.000 A 
ENDBRANCH  53  67
BRANCH  54  73
ATOM     73  C   UNL A   1      41.176  23.701  27.479  1.00  0.00    -0.014 A 
ATOM     74  C   UNL A   1      41.654  22.647  28.274  1.00  0.00     0.009 A 
ATOM     75  C   UNL A   1      40.291  23.411  26.429  1.00  0.00     0.009 A 
ATOM     76  C   UNL A   1      41.277  21.329  28.004  1.00  0.00     0.001 A 
ATOM     77  C   UNL A   1      39.894  22.096  26.179  1.00  0.00     0.001 A 
ATOM     78  C   UNL A   1      40.395  21.055  26.960  1.00  0.00     0.000 A 
ENDBRANCH  54  73
BRANCH  66  79
ATOM     79  C   UNL A   1      47.138  27.039  26.153  1.00  0.00    -0.014 A 
ATOM     80  C   UNL A   1      48.139  26.435  26.929  1.00  0.00     0.009 A 
ATOM     81  C   UNL A   1      47.346  27.188  24.772  1.00  0.00     0.009 A 
ATOM     82  C   UNL A   1      49.339  26.028  26.339  1.00  0.00     0.001 A 
ATOM     83  C   UNL A   1      48.531  26.753  24.181  1.00  0.00     0.001 A 
ATOM     84  C   UNL A   1      49.532  26.184  24.967  1.00  0.00     0.000 A 
ENDBRANCH  66  79
ENDBRANCH  40  41
ENDBRANCH  33  35
ENDBRANCH  32  33
ENDBRANCH  31  32
ENDBRANCH  30  31
ENDBRANCH  29  30
ENDBRANCH  28  29
ENDBRANCH   1  28
TORSDOF 21
ENDMDL
MODEL 2
REMARK VINA RESULT:      -9.9      4.441      9.609
REMARK SMILES O=C(Cc1ccccc1Nc1c(Cl)cccc1C(F)(F)F)OCCOCCOCCOC(=O)c1ccc(-c2c3nc(c(-c4ccccc4)c4ccc([nH]4)c(-c4ccccc4)c4nc(c(-c5ccccc5)c5ccc2[nH]5)C=C4)C=C3)cc1
REMARK SMILES IDX 26 1 25 2 24 3 23 4 22 5 2 6 1 7 3 8 4 9 5 10 9 11 6 12 8 13
REMARK SMILES IDX 7 14 10 15 11 17 12 18 17 19 13 20 14 21 16 22 15 23 18 24
REMARK SMILES IDX 19 25 20 26 21 27 27 28 28 29 29 30 30 31 31 32 32 33 33 34
REMARK SMILES IDX 34 35 35 36 81 37 36 38 80 39 37 40 38 41 39 42 74 43 40 44
REMARK SMILES IDX 79 45 73 46 75 47 41 48 78 49 72 50 71 51 42 53 64 54 49 55
REMARK SMILES IDX 63 56 50 57 53 58 62 59 76 60 51 61 52 62 61 64 77 65 54 66
REMARK SMILES IDX 43 67 44 68 48 69 45 70 47 71 46 72 65 73 66 74 70 75 67 76
REMARK SMILES IDX 69 77 68 78 55 79 56 80 60 81 57 82 59 83 58 84
REMARK H PARENT 10 16 75 52 53 63
REMARK Flexibility Score: inf
ROOT
ATOM      1  C   UNL A   1      40.020  20.674  26.212  1.00  0.00     0.188 C 
ENDROOT
BRANCH   1   2
ATOM      2  O   UNL A   1      38.953  21.497  25.763  1.00  0.00    -0.376 OA
BRANCH   2   3
ATOM      3  C   UNL A   1      37.891  20.892  25.030  1.00  0.00     0.202 C 
BRANCH   3   4
ATOM      4  C   UNL A   1      37.109  21.733  24.020  1.00  0.00     0.261 C 
BRANCH   4   5
ATOM      5  O   UNL A   1      36.932  23.157  24.212  1.00  0.00    -0.463 OA
BRANCH   5   6
ATOM      6  C   UNL A   1      35.985  23.931  24.765  1.00  0.00     0.310 C 
ATOM      7  O   UNL A   1      36.191  24.408  25.884  1.00  0.00    -0.252 OA
BRANCH   6   8
ATOM      8  C   UNL A   1      34.673  24.176  24.079  1.00  0.00     0.160 C 
BRANCH   8   9
ATOM      9  C   UNL A   1      33.467  24.162  24.987  1.00  0.00    -0.013 A 
ATOM     10  C   UNL A   1      33.016  22.916  25.457  1.00  0.00     0.006 A 
ATOM     11  C   UNL A   1      32.769  25.335  25.344  1.00  0.00     0.042 A 
ATOM     12  C   UNL A   1      31.871  22.825  26.243  1.00  0.00     0.000 A 
ATOM     13  C   UNL A   1      31.619  25.223  26.137  1.00  0.00     0.026 A 
ATOM     14  C   UNL A   1      31.175  23.978  26.585  1.00  0.00     0.002 A 
BRANCH  11  15
ATOM     15  N   UNL A   1      33.051  26.561  24.707  1.00  0.00    -0.354 N 
ATOM     16  H   UNL A   1      33.818  26.526  24.090  1.00  0.00     0.167 HD
BRANCH  15  17
ATOM     17  C   UNL A   1      32.433  27.838  24.791  1.00  0.00     0.070 A 
ATOM     18  C   UNL A   1      32.959  28.763  25.736  1.00  0.00     0.065 A 
ATOM     19  C   UNL A   1      31.261  28.204  24.098  1.00  0.00     0.080 A 
ATOM     20  Cl  UNL A   1      34.364  28.361  26.673  1.00  0.00    -0.082 Cl
ATOM     21  C   UNL A   1      32.374  30.008  25.970  1.00  0.00     0.023 A 
ATOM     22  C   UNL A   1      30.694  29.482  24.340  1.00  0.00     0.015 A 
ATOM     23  C   UNL A   1      31.238  30.371  25.265  1.00  0.00     0.002 A 
BRANCH  19  24
ATOM     24  C   UNL A   1      30.530  27.302  23.131  1.00  0.00     0.418 C 
ATOM     25  F   UNL A   1      29.704  28.002  22.293  1.00  0.00    -0.166 F 
ATOM     26  F   UNL A   1      31.371  26.624  22.305  1.00  0.00    -0.166 F 
ATOM     27  F   UNL A   1      29.723  26.387  23.719  1.00  0.00    -0.166 F 
ENDBRANCH  19  24
ENDBRANCH  15  17
ENDBRANCH  11  15
ENDBRANCH   8   9
ENDBRANCH   6   8
ENDBRANCH   5   6
ENDBRANCH   4   5
ENDBRANCH   3   4
ENDBRANCH   2   3
ENDBRANCH   1   2
BRANCH   1  28
ATOM     28  C   UNL A   1      41.170  21.355  26.964  1.00  0.00     0.188 C 
BRANCH  28  29
ATOM     29  O   UNL A   1      42.376  20.631  26.883  1.00  0.00    -0.376 OA
BRANCH  29  30
ATOM     30  C   UNL A   1      43.237  20.796  25.767  1.00  0.00     0.202 C 
BRANCH  30  31
ATOM     31  C   UNL A   1      43.944  22.104  25.344  1.00  0.00     0.261 C 
BRANCH  31  32
ATOM     32  O   UNL A   1      43.148  23.232  24.975  1.00  0.00    -0.460 OA
BRANCH  32  33
ATOM     33  C   UNL A   1      43.760  24.433  25.097  1.00  0.00     0.338 C 
ATOM     34  O   UNL A   1      44.824  24.770  24.610  1.00  0.00    -0.246 OA
BRANCH  33  35
ATOM     35  C   UNL A   1      42.882  25.376  25.808  1.00  0.00     0.060 A 
ATOM     36  C   UNL A   1      43.315  26.701  25.948  1.00  0.00     0.016 A 
ATOM     37  C   UNL A   1      41.729  24.929  26.455  1.00  0.00     0.016 A 
ATOM     38  C   UNL A   1      42.616  27.577  26.773  1.00  0.00     0.010 A 
ATOM     39  C   UNL A   1      41.046  25.801  27.309  1.00  0.00     0.010 A 
ATOM     40  C   UNL A   1      41.520  27.110  27.509  1.00  0.00    -0.014 A 
BRANCH  40  41
ATOM     41  C   UNL A   1      41.080  27.898  28.685  1.00  0.00     0.031 A 
ATOM     42  C   UNL A   1      41.888  27.776  29.950  1.00  0.00     0.074 A 
ATOM     43  C   UNL A   1      40.045  28.750  28.621  1.00  0.00     0.049 A 
ATOM     44  N   UNL A   1      41.751  28.403  31.090  1.00  0.00    -0.248 NA
ATOM     45  C   UNL A   1      43.006  26.817  29.922  1.00  0.00     0.031 C 
ATOM     46  C   UNL A   1      39.223  29.003  27.441  1.00  0.00     0.029 A 
ATOM     47  N   UNL A   1      39.522  29.575  29.585  1.00  0.00    -0.354 N 
ATOM     48  C   UNL A   1      42.762  27.916  31.910  1.00  0.00     0.074 A 
ATOM     49  C   UNL A   1      43.484  26.919  31.151  1.00  0.00     0.031 C 
ATOM     50  C   UNL A   1      38.295  29.928  27.750  1.00  0.00     0.029 A 
ATOM     51  C   UNL A   1      38.448  30.314  29.153  1.00  0.00     0.049 A 
ATOM     52  H   UNL A   1      39.880  29.631  30.500  1.00  0.00     0.167 HD
ATOM     53  C   UNL A   1      43.068  28.266  33.181  1.00  0.00     0.031 A 
ATOM     54  C   UNL A   1      37.681  31.198  29.818  1.00  0.00     0.031 A 
ATOM     55  C   UNL A   1      42.339  29.239  33.947  1.00  0.00     0.049 A 
ATOM     56  C   UNL A   1      37.991  31.512  31.259  1.00  0.00     0.074 A 
ATOM     57  C   UNL A   1      42.572  29.669  35.241  1.00  0.00     0.029 A 
ATOM     58  N   UNL A   1      41.223  29.922  33.490  1.00  0.00    -0.354 N 
ATOM     59  N   UNL A   1      38.967  31.069  32.014  1.00  0.00    -0.248 NA
ATOM     60  C   UNL A   1      37.096  32.464  31.933  1.00  0.00     0.031 C 
ATOM     61  C   UNL A   1      41.560  30.571  35.587  1.00  0.00     0.029 A 
ATOM     62  C   UNL A   1      40.738  30.752  34.486  1.00  0.00     0.049 A 
ATOM     63  H   UNL A   1      40.832  29.830  32.591  1.00  0.00     0.167 HD
ATOM     64  C   UNL A   1      38.831  31.722  33.235  1.00  0.00     0.074 A 
ATOM     65  C   UNL A   1      37.680  32.593  33.116  1.00  0.00     0.031 C 
ATOM     66  C   UNL A   1      39.596  31.619  34.350  1.00  0.00     0.031 A 
BRANCH  53  67
ATOM     67  C   UNL A   1      44.217  27.547  33.830  1.00  0.00    -0.014 A 
ATOM     68  C   UNL A   1      44.018  26.393  34.605  1.00  0.00     0.009 A 
ATOM     69  C   UNL A   1      45.522  28.039  33.665  1.00  0.00     0.009 A 
ATOM     70  C   UNL A   1      45.098  25.771  35.236  1.00  0.00     0.001 A 
ATOM     71  C   UNL A   1      46.603  27.397  34.271  1.00  0.00     0.001 A 
ATOM     72  C   UNL A   1      46.388  26.271  35.065  1.00  0.00     0.000 A 
ENDBRANCH  53  67
BRANCH  54  73
ATOM     73  C   UNL A   1      36.540  31.863  29.134  1.00  0.00    -0.014 A 
ATOM     74  C   UNL A   1      36.631  33.206  28.735  1.00  0.00     0.009 A 
ATOM     75  C   UNL A   1      35.342  31.168  28.907  1.00  0.00     0.009 A 
ATOM     76  C   UNL A   1      35.536  33.846  28.149  1.00  0.00     0.001 A 
ATOM     77  C   UNL A   1      34.259  31.802  28.295  1.00  0.00     0.001 A 
ATOM     78  C   UNL A   1      34.353  33.143  27.925  1.00  0.00     0.000 A 
ENDBRANCH  54  73
BRANCH  66  79
ATOM     79  C   UNL A   1      39.253  32.512  35.510  1.00  0.00    -0.014 A 
ATOM     80  C   UNL A   1      38.375  32.100  36.525  1.00  0.00     0.009 A 
ATOM     81  C   UNL A   1      39.853  33.778  35.605  1.00  0.00     0.009 A 
ATOM     82  C   UNL A   1      38.074  32.955  37.588  1.00  0.00     0.001 A 
ATOM     83  C   UNL A   1      39.575  34.618  36.683  1.00  0.00     0.001 A 
ATOM     84  C   UNL A   1      38.677  34.210  37.668  1.00  0.00     0.000 A 
ENDBRANCH  66  79
ENDBRANCH  40  41
ENDBRANCH  33  35
ENDBRANCH  32  33
ENDBRANCH  31  32
ENDBRANCH  30  31
ENDBRANCH  29  30
ENDBRANCH  28  29
ENDBRANCH   1  28
TORSDOF 21
ENDMDL
MODEL 3
REMARK VINA RESULT:      -9.8      3.442      4.997
REMARK SMILES O=C(Cc1ccccc1Nc1c(Cl)cccc1C(F)(F)F)OCCOCCOCCOC(=O)c1ccc(-c2c3nc(c(-c4ccccc4)c4ccc([nH]4)c(-c4ccccc4)c4nc(c(-c5ccccc5)c5ccc2[nH]5)C=C4)C=C3)cc1
REMARK SMILES IDX 26 1 25 2 24 3 23 4 22 5 2 6 1 7 3 8 4 9 5 10 9 11 6 12 8 13
REMARK SMILES IDX 7 14 10 15 11 17 12 18 17 19 13 20 14 21 16 22 15 23 18 24
REMARK SMILES IDX 19 25 20 26 21 27 27 28 28 29 29 30 30 31 31 32 32 33 33 34
REMARK SMILES IDX 34 35 35 36 81 37 36 38 80 39 37 40 38 41 39 42 74 43 40 44
REMARK SMILES IDX 79 45 73 46 75 47 41 48 78 49 72 50 71 51 42 53 64 54 49 55
REMARK SMILES IDX 63 56 50 57 53 58 62 59 76 60 51 61 52 62 61 64 77 65 54 66
REMARK SMILES IDX 43 67 44 68 48 69 45 70 47 71 46 72 65 73 66 74 70 75 67 76
REMARK SMILES IDX 69 77 68 78 55 79 56 80 60 81 57 82 59 83 58 84
REMARK H PARENT 10 16 75 52 53 63
REMARK Flexibility Score: inf
ROOT
ATOM      1  C   UNL A   1      34.034  28.507  26.005  1.00  0.00     0.188 C 
ENDROOT
BRANCH   1   2
ATOM      2  O   UNL A   1      33.539  28.924  24.741  1.00  0.00    -0.376 OA
BRANCH   2   3
ATOM      3  C   UNL A   1      34.357  28.724  23.591  1.00  0.00     0.202 C 
BRANCH   3   4
ATOM      4  C   UNL A   1      33.691  28.456  22.241  1.00  0.00     0.261 C 
BRANCH   4   5
ATOM      5  O   UNL A   1      33.718  27.137  21.643  1.00  0.00    -0.463 OA
BRANCH   5   6
ATOM      6  C   UNL A   1      33.237  25.930  21.981  1.00  0.00     0.310 C 
ATOM      7  O   UNL A   1      32.503  25.342  21.182  1.00  0.00    -0.252 OA
BRANCH   6   8
ATOM      8  C   UNL A   1      33.526  25.317  23.320  1.00  0.00     0.160 C 
BRANCH   8   9
ATOM      9  C   UNL A   1      32.339  25.221  24.246  1.00  0.00    -0.013 A 
ATOM     10  C   UNL A   1      31.512  26.353  24.369  1.00  0.00     0.006 A 
ATOM     11  C   UNL A   1      32.057  24.067  25.007  1.00  0.00     0.042 A 
ATOM     12  C   UNL A   1      30.439  26.355  25.255  1.00  0.00     0.000 A 
ATOM     13  C   UNL A   1      30.972  24.089  25.893  1.00  0.00     0.026 A 
ATOM     14  C   UNL A   1      30.168  25.223  26.015  1.00  0.00     0.002 A 
BRANCH  11  15
ATOM     15  N   UNL A   1      32.990  23.012  25.083  1.00  0.00    -0.354 N 
ATOM     16  H   UNL A   1      33.907  23.302  25.295  1.00  0.00     0.167 HD
BRANCH  15  17
ATOM     17  C   UNL A   1      32.851  21.609  24.912  1.00  0.00     0.070 A 
ATOM     18  C   UNL A   1      33.221  20.772  26.002  1.00  0.00     0.065 A 
ATOM     19  C   UNL A   1      32.497  20.984  23.699  1.00  0.00     0.080 A 
ATOM     20  Cl  UNL A   1      33.728  21.466  27.511  1.00  0.00    -0.082 Cl
ATOM     21  C   UNL A   1      33.215  19.380  25.913  1.00  0.00     0.023 A 
ATOM     22  C   UNL A   1      32.481  19.567  23.636  1.00  0.00     0.015 A 
ATOM     23  C   UNL A   1      32.838  18.774  24.725  1.00  0.00     0.002 A 
BRANCH  19  24
ATOM     24  C   UNL A   1      32.166  21.729  22.425  1.00  0.00     0.418 C 
ATOM     25  F   UNL A   1      31.820  20.883  21.405  1.00  0.00    -0.166 F 
ATOM     26  F   UNL A   1      31.101  22.562  22.565  1.00  0.00    -0.166 F 
ATOM     27  F   UNL A   1      33.188  22.465  21.926  1.00  0.00    -0.166 F 
ENDBRANCH  19  24
ENDBRANCH  15  17
ENDBRANCH  11  15
ENDBRANCH   8   9
ENDBRANCH   6   8
ENDBRANCH   5   6
ENDBRANCH   4   5
ENDBRANCH   3   4
ENDBRANCH   2   3
ENDBRANCH   1   2
BRANCH   1  28
ATOM     28  C   UNL A   1      33.165  28.793  27.234  1.00  0.00     0.188 C 
BRANCH  28  29
ATOM     29  O   UNL A   1      32.070  29.631  26.942  1.00  0.00    -0.376 OA
BRANCH  29  30
ATOM     30  C   UNL A   1      32.219  31.042  26.975  1.00  0.00     0.202 C 
BRANCH  30  31
ATOM     31  C   UNL A   1      33.341  31.825  27.696  1.00  0.00     0.261 C 
BRANCH  31  32
ATOM     32  O   UNL A   1      33.410  33.242  27.532  1.00  0.00    -0.460 OA
BRANCH  32  33
ATOM     33  C   UNL A   1      33.449  33.954  28.683  1.00  0.00     0.338 C 
ATOM     34  O   UNL A   1      32.543  34.595  29.184  1.00  0.00    -0.246 OA
BRANCH  33  35
ATOM     35  C   UNL A   1      34.736  33.740  29.364  1.00  0.00     0.060 A 
ATOM     36  C   UNL A   1      35.906  34.132  28.700  1.00  0.00     0.016 A 
ATOM     37  C   UNL A   1      34.800  33.029  30.564  1.00  0.00     0.016 A 
ATOM     38  C   UNL A   1      37.149  33.778  29.214  1.00  0.00     0.010 A 
ATOM     39  C   UNL A   1      36.049  32.646  31.062  1.00  0.00     0.010 A 
ATOM     40  C   UNL A   1      37.222  32.975  30.360  1.00  0.00    -0.014 A 
BRANCH  40  41
ATOM     41  C   UNL A   1      38.487  32.251  30.627  1.00  0.00     0.031 A 
ATOM     42  C   UNL A   1      39.425  32.836  31.651  1.00  0.00     0.074 A 
ATOM     43  C   UNL A   1      38.771  31.078  30.041  1.00  0.00     0.049 A 
ATOM     44  N   UNL A   1      40.556  32.366  32.108  1.00  0.00    -0.248 NA
ATOM     45  C   UNL A   1      39.026  34.125  32.241  1.00  0.00     0.031 C 
ATOM     46  C   UNL A   1      37.921  30.379  29.081  1.00  0.00     0.029 A 
ATOM     47  N   UNL A   1      39.863  30.259  30.188  1.00  0.00    -0.354 N 
ATOM     48  C   UNL A   1      41.002  33.299  33.037  1.00  0.00     0.074 A 
ATOM     49  C   UNL A   1      40.038  34.377  33.055  1.00  0.00     0.031 C 
ATOM     50  C   UNL A   1      38.524  29.229  28.725  1.00  0.00     0.029 A 
ATOM     51  C   UNL A   1      39.808  29.125  29.417  1.00  0.00     0.049 A 
ATOM     52  H   UNL A   1      40.614  30.466  30.788  1.00  0.00     0.167 HD
ATOM     53  C   UNL A   1      42.112  33.266  33.811  1.00  0.00     0.031 A 
ATOM     54  C   UNL A   1      40.696  28.121  29.288  1.00  0.00     0.031 A 
ATOM     55  C   UNL A   1      43.085  32.209  33.779  1.00  0.00     0.049 A 
ATOM     56  C   UNL A   1      41.966  28.145  30.100  1.00  0.00     0.074 A 
ATOM     57  C   UNL A   1      44.241  32.078  34.526  1.00  0.00     0.029 A 
ATOM     58  N   UNL A   1      43.019  31.107  32.941  1.00  0.00    -0.354 N 
ATOM     59  N   UNL A   1      42.361  29.017  30.997  1.00  0.00    -0.248 NA
ATOM     60  C   UNL A   1      42.904  27.034  29.889  1.00  0.00     0.031 C 
ATOM     61  C   UNL A   1      44.906  30.924  34.099  1.00  0.00     0.029 A 
ATOM     62  C   UNL A   1      44.129  30.302  33.134  1.00  0.00     0.049 A 
ATOM     63  H   UNL A   1      42.292  30.923  32.303  1.00  0.00     0.167 HD
ATOM     64  C   UNL A   1      43.570  28.535  31.488  1.00  0.00     0.074 A 
ATOM     65  C   UNL A   1      43.839  27.294  30.792  1.00  0.00     0.031 C 
ATOM     66  C   UNL A   1      44.379  29.066  32.439  1.00  0.00     0.031 A 
BRANCH  53  67
ATOM     67  C   UNL A   1      42.348  34.440  34.718  1.00  0.00    -0.014 A 
ATOM     68  C   UNL A   1      41.882  34.450  36.043  1.00  0.00     0.009 A 
ATOM     69  C   UNL A   1      43.048  35.557  34.235  1.00  0.00     0.009 A 
ATOM     70  C   UNL A   1      42.076  35.572  36.851  1.00  0.00     0.001 A 
ATOM     71  C   UNL A   1      43.266  36.665  35.055  1.00  0.00     0.001 A 
ATOM     72  C   UNL A   1      42.771  36.676  36.357  1.00  0.00     0.000 A 
ENDBRANCH  53  67
BRANCH  54  73
ATOM     73  C   UNL A   1      40.423  26.995  28.356  1.00  0.00    -0.014 A 
ATOM     74  C   UNL A   1      40.893  27.031  27.033  1.00  0.00     0.009 A 
ATOM     75  C   UNL A   1      39.660  25.894  28.774  1.00  0.00     0.009 A 
ATOM     76  C   UNL A   1      40.582  26.000  26.143  1.00  0.00     0.001 A 
ATOM     77  C   UNL A   1      39.374  24.851  27.890  1.00  0.00     0.001 A 
ATOM     78  C   UNL A   1      39.827  24.910  26.573  1.00  0.00     0.000 A 
ENDBRANCH  54  73
BRANCH  66  79
ATOM     79  C   UNL A   1      45.600  28.278  32.827  1.00  0.00    -0.014 A 
ATOM     80  C   UNL A   1      45.561  27.309  33.841  1.00  0.00     0.009 A 
ATOM     81  C   UNL A   1      46.804  28.489  32.135  1.00  0.00     0.009 A 
ATOM     82  C   UNL A   1      46.714  26.596  34.181  1.00  0.00     0.001 A 
ATOM     83  C   UNL A   1      47.945  27.754  32.455  1.00  0.00     0.001 A 
ATOM     84  C   UNL A   1      47.902  26.817  33.486  1.00  0.00     0.000 A 
ENDBRANCH  66  79
ENDBRANCH  40  41
ENDBRANCH  33  35
ENDBRANCH  32  33
ENDBRANCH  31  32
ENDBRANCH  30  31
ENDBRANCH  29  30
ENDBRANCH  28  29
ENDBRANCH   1  28
TORSDOF 21
ENDMDL
