MODEL 1
REMARK VINA RESULT:     -10.1      0.000      0.000
REMARK SMILES COc1ccc2[nH]c(C(=O)c3cc(C)ccn3)c(CC(=O)OCCOCCOCCOC(=O)c3ccc(-c4c5nc(c(-c6ccccc6)c6ccc([nH]6)c(-c6ccccc6)c6nc(c(-c7ccccc7)c7ccc4[nH]7)C=C6)C=C5)cc3)c2c1
REMARK SMILES IDX 26 1 25 2 24 3 23 4 22 5 20 6 21 7 19 8 18 9 3 10 4 11 83 12
REMARK SMILES IDX 5 13 82 14 6 15 7 16 8 17 2 19 1 20 9 21 10 22 11 23 12 24
REMARK SMILES IDX 17 25 13 26 16 27 14 28 15 29 27 30 28 31 29 32 30 33 31 34
REMARK SMILES IDX 32 35 33 36 34 37 35 38 81 39 36 40 80 41 37 42 38 43 39 44
REMARK SMILES IDX 74 45 40 46 79 47 73 48 75 49 41 50 78 51 72 52 71 53 42 55
REMARK SMILES IDX 64 56 49 57 63 58 50 59 53 60 62 61 76 62 51 63 52 64 61 66
REMARK SMILES IDX 77 67 54 68 43 69 44 70 48 71 45 72 47 73 46 74 65 75 66 76
REMARK SMILES IDX 70 77 67 78 69 79 68 80 55 81 56 82 60 83 57 84 59 85 58 86
REMARK H PARENT 7 18 75 54 53 65
REMARK Flexibility Score: inf
ROOT
ATOM      1  C   UNL A   1      40.923  20.048  26.693  1.00  0.00     0.188 C 
ENDROOT
BRANCH   1   2
ATOM      2  O   UNL A   1      39.933  20.467  25.755  1.00  0.00    -0.376 OA
BRANCH   2   3
ATOM      3  C   UNL A   1      39.134  21.597  26.085  1.00  0.00     0.202 C 
BRANCH   3   4
ATOM      4  C   UNL A   1      37.864  21.780  25.243  1.00  0.00     0.261 C 
BRANCH   4   5
ATOM      5  O   UNL A   1      36.856  22.545  25.940  1.00  0.00    -0.463 OA
BRANCH   5   6
ATOM      6  C   UNL A   1      36.102  23.397  25.198  1.00  0.00     0.310 C 
ATOM      7  O   UNL A   1      35.858  23.221  24.008  1.00  0.00    -0.252 OA
BRANCH   6   8
ATOM      8  C   UNL A   1      35.413  24.487  26.016  1.00  0.00     0.161 C 
BRANCH   8   9
ATOM      9  C   UNL A   1      33.902  24.507  26.071  1.00  0.00     0.000 A 
ATOM     10  C   UNL A   1      32.284  27.660  24.631  1.00  0.00     0.119 A 
ATOM     11  C   UNL A   1      30.967  27.215  24.749  1.00  0.00     0.048 A 
ATOM     12  C   UNL A   1      33.341  26.872  25.104  1.00  0.00     0.057 A 
ATOM     13  C   UNL A   1      30.671  25.988  25.350  1.00  0.00     0.030 A 
ATOM     14  C   UNL A   1      33.074  25.606  25.662  1.00  0.00     0.008 A 
ATOM     15  C   UNL A   1      31.747  25.205  25.774  1.00  0.00     0.046 A 
ATOM     16  N   UNL A   1      31.759  23.942  26.312  1.00  0.00    -0.352 N 
ATOM     17  C   UNL A   1      33.030  23.418  26.221  1.00  0.00     0.093 A 
ATOM     18  H   UNL A   1      30.981  23.483  26.701  1.00  0.00     0.167 HD
BRANCH  10  19
ATOM     19  O   UNL A   1      32.678  28.814  24.009  1.00  0.00    -0.497 OA
ATOM     20  C   UNL A   1      33.143  28.683  22.673  1.00  0.00     0.278 C 
ENDBRANCH  10  19
BRANCH  17  21
ATOM     21  C   UNL A   1      33.305  21.989  26.179  1.00  0.00     0.227 C 
ATOM     22  O   UNL A   1      33.830  21.381  27.107  1.00  0.00    -0.285 OA
BRANCH  21  23
ATOM     23  C   UNL A   1      33.003  21.225  24.931  1.00  0.00     0.113 A 
ATOM     24  C   UNL A   1      33.134  19.838  24.903  1.00  0.00     0.036 A 
ATOM     25  N   UNL A   1      32.550  21.964  23.886  1.00  0.00    -0.253 NA
ATOM     26  C   UNL A   1      32.748  19.160  23.741  1.00  0.00    -0.047 A 
ATOM     27  C   UNL A   1      32.128  21.275  22.804  1.00  0.00     0.112 A 
ATOM     28  C   UNL A   1      32.898  17.674  23.599  1.00  0.00     0.044 C 
ATOM     29  C   UNL A   1      32.200  19.897  22.689  1.00  0.00     0.023 A 
ENDBRANCH  21  23
ENDBRANCH  17  21
ENDBRANCH   8   9
ENDBRANCH   6   8
ENDBRANCH   5   6
ENDBRANCH   4   5
ENDBRANCH   3   4
ENDBRANCH   2   3
ENDBRANCH   1   2
BRANCH   1  30
ATOM     30  C   UNL A   1      42.416  20.227  26.341  1.00  0.00     0.188 C 
BRANCH  30  31
ATOM     31  O   UNL A   1      42.644  21.214  25.345  1.00  0.00    -0.376 OA
BRANCH  31  32
ATOM     32  C   UNL A   1      43.599  22.200  25.708  1.00  0.00     0.202 C 
BRANCH  32  33
ATOM     33  C   UNL A   1      43.308  23.537  25.028  1.00  0.00     0.261 C 
BRANCH  33  34
ATOM     34  O   UNL A   1      43.509  24.642  25.936  1.00  0.00    -0.460 OA
BRANCH  34  35
ATOM     35  C   UNL A   1      42.750  25.738  25.774  1.00  0.00     0.338 C 
ATOM     36  O   UNL A   1      42.387  26.219  24.700  1.00  0.00    -0.246 OA
BRANCH  35  37
ATOM     37  C   UNL A   1      42.427  26.357  27.082  1.00  0.00     0.060 A 
ATOM     38  C   UNL A   1      41.536  25.776  27.989  1.00  0.00     0.016 A 
ATOM     39  C   UNL A   1      42.952  27.617  27.366  1.00  0.00     0.016 A 
ATOM     40  C   UNL A   1      41.125  26.469  29.136  1.00  0.00     0.010 A 
ATOM     41  C   UNL A   1      42.592  28.280  28.545  1.00  0.00     0.010 A 
ATOM     42  C   UNL A   1      41.652  27.729  29.434  1.00  0.00    -0.014 A 
BRANCH  42  43
ATOM     43  C   UNL A   1      41.219  28.499  30.636  1.00  0.00     0.031 A 
ATOM     44  C   UNL A   1      40.054  29.452  30.541  1.00  0.00     0.074 A 
ATOM     45  C   UNL A   1      41.872  28.393  31.810  1.00  0.00     0.049 A 
ATOM     46  N   UNL A   1      39.685  30.399  31.368  1.00  0.00    -0.248 NA
ATOM     47  C   UNL A   1      39.197  29.324  29.352  1.00  0.00     0.031 C 
ATOM     48  C   UNL A   1      42.958  27.458  32.102  1.00  0.00     0.029 A 
ATOM     49  N   UNL A   1      41.721  29.103  32.979  1.00  0.00    -0.354 N 
ATOM     50  C   UNL A   1      38.588  31.014  30.777  1.00  0.00     0.074 A 
ATOM     51  C   UNL A   1      38.351  30.332  29.521  1.00  0.00     0.031 C 
ATOM     52  C   UNL A   1      43.372  27.647  33.365  1.00  0.00     0.029 A 
ATOM     53  C   UNL A   1      42.644  28.773  33.943  1.00  0.00     0.049 A 
ATOM     54  H   UNL A   1      41.020  29.781  33.112  1.00  0.00     0.167 HD
ATOM     55  C   UNL A   1      37.853  32.058  31.233  1.00  0.00     0.031 A 
ATOM     56  C   UNL A   1      42.919  29.341  35.133  1.00  0.00     0.031 A 
ATOM     57  C   UNL A   1      38.068  32.726  32.491  1.00  0.00     0.049 A 
ATOM     58  C   UNL A   1      42.155  30.558  35.575  1.00  0.00     0.074 A 
ATOM     59  C   UNL A   1      37.368  33.793  33.030  1.00  0.00     0.029 A 
ATOM     60  N   UNL A   1      39.048  32.388  33.410  1.00  0.00    -0.354 N 
ATOM     61  N   UNL A   1      41.163  31.174  34.981  1.00  0.00    -0.248 NA
ATOM     62  C   UNL A   1      42.566  31.169  36.849  1.00  0.00     0.031 C 
ATOM     63  C   UNL A   1      37.959  34.134  34.252  1.00  0.00     0.029 A 
ATOM     64  C   UNL A   1      38.988  33.242  34.500  1.00  0.00     0.049 A 
ATOM     65  H   UNL A   1      39.692  31.651  33.305  1.00  0.00     0.167 HD
ATOM     66  C   UNL A   1      40.817  32.229  35.817  1.00  0.00     0.074 A 
ATOM     67  C   UNL A   1      41.693  32.160  36.968  1.00  0.00     0.031 C 
ATOM     68  C   UNL A   1      39.862  33.174  35.642  1.00  0.00     0.031 A 
BRANCH  55  69
ATOM     69  C   UNL A   1      36.768  32.586  30.335  1.00  0.00    -0.014 A 
ATOM     70  C   UNL A   1      37.042  33.496  29.304  1.00  0.00     0.009 A 
ATOM     71  C   UNL A   1      35.453  32.117  30.498  1.00  0.00     0.009 A 
ATOM     72  C   UNL A   1      36.014  33.950  28.473  1.00  0.00     0.001 A 
ATOM     73  C   UNL A   1      34.434  32.550  29.648  1.00  0.00     0.001 A 
ATOM     74  C   UNL A   1      34.715  33.473  28.642  1.00  0.00     0.000 A 
ENDBRANCH  55  69
BRANCH  56  75
ATOM     75  C   UNL A   1      44.022  28.805  35.974  1.00  0.00    -0.014 A 
ATOM     76  C   UNL A   1      43.778  27.784  36.905  1.00  0.00     0.009 A 
ATOM     77  C   UNL A   1      45.321  29.326  35.864  1.00  0.00     0.009 A 
ATOM     78  C   UNL A   1      44.809  27.309  37.720  1.00  0.00     0.001 A 
ATOM     79  C   UNL A   1      46.357  28.826  36.656  1.00  0.00     0.001 A 
ATOM     80  C   UNL A   1      46.098  27.826  37.589  1.00  0.00     0.000 A 
ENDBRANCH  56  75
BRANCH  68  81
ATOM     81  C   UNL A   1      39.686  34.188  36.737  1.00  0.00    -0.014 A 
ATOM     82  C   UNL A   1      40.226  35.480  36.630  1.00  0.00     0.009 A 
ATOM     83  C   UNL A   1      38.951  33.854  37.885  1.00  0.00     0.009 A 
ATOM     84  C   UNL A   1      40.062  36.403  37.667  1.00  0.00     0.001 A 
ATOM     85  C   UNL A   1      38.765  34.786  38.907  1.00  0.00     0.001 A 
ATOM     86  C   UNL A   1      39.329  36.057  38.801  1.00  0.00     0.000 A 
ENDBRANCH  68  81
ENDBRANCH  42  43
ENDBRANCH  35  37
ENDBRANCH  34  35
ENDBRANCH  33  34
ENDBRANCH  32  33
ENDBRANCH  31  32
ENDBRANCH  30  31
ENDBRANCH   1  30
TORSDOF 21
ENDMDL
MODEL 2
REMARK VINA RESULT:     -10.0      1.633      5.934
REMARK SMILES COc1ccc2[nH]c(C(=O)c3cc(C)ccn3)c(CC(=O)OCCOCCOCCOC(=O)c3ccc(-c4c5nc(c(-c6ccccc6)c6ccc([nH]6)c(-c6ccccc6)c6nc(c(-c7ccccc7)c7ccc4[nH]7)C=C6)C=C5)cc3)c2c1
REMARK SMILES IDX 26 1 25 2 24 3 23 4 22 5 20 6 21 7 19 8 18 9 3 10 4 11 83 12
REMARK SMILES IDX 5 13 82 14 6 15 7 16 8 17 2 19 1 20 9 21 10 22 11 23 12 24
REMARK SMILES IDX 17 25 13 26 16 27 14 28 15 29 27 30 28 31 29 32 30 33 31 34
REMARK SMILES IDX 32 35 33 36 34 37 35 38 81 39 36 40 80 41 37 42 38 43 39 44
REMARK SMILES IDX 74 45 40 46 79 47 73 48 75 49 41 50 78 51 72 52 71 53 42 55
REMARK SMILES IDX 64 56 49 57 63 58 50 59 53 60 62 61 76 62 51 63 52 64 61 66
REMARK SMILES IDX 77 67 54 68 43 69 44 70 48 71 45 72 47 73 46 74 65 75 66 76
REMARK SMILES IDX 70 77 67 78 69 79 68 80 55 81 56 82 60 83 57 84 59 85 58 86
REMARK H PARENT 7 18 75 54 53 65
REMARK Flexibility Score: inf
ROOT
ATOM      1  C   UNL A   1      39.904  22.259  26.759  1.00  0.00     0.188 C 
ENDROOT
BRANCH   1   2
ATOM      2  O   UNL A   1      38.983  21.225  26.421  1.00  0.00    -0.376 OA
BRANCH   2   3
ATOM      3  C   UNL A   1      38.208  21.379  25.238  1.00  0.00     0.202 C 
BRANCH   3   4
ATOM      4  C   UNL A   1      36.969  22.276  25.367  1.00  0.00     0.261 C 
BRANCH   4   5
ATOM      5  O   UNL A   1      36.730  23.047  24.169  1.00  0.00    -0.463 OA
BRANCH   5   6
ATOM      6  C   UNL A   1      35.600  23.801  24.133  1.00  0.00     0.310 C 
ATOM      7  O   UNL A   1      34.840  23.832  23.170  1.00  0.00    -0.252 OA
BRANCH   6   8
ATOM      8  C   UNL A   1      35.247  24.450  25.469  1.00  0.00     0.161 C 
BRANCH   8   9
ATOM      9  C   UNL A   1      33.808  24.417  25.934  1.00  0.00     0.000 A 
ATOM     10  C   UNL A   1      31.591  27.185  24.500  1.00  0.00     0.119 A 
ATOM     11  C   UNL A   1      30.397  26.714  25.047  1.00  0.00     0.048 A 
ATOM     12  C   UNL A   1      32.802  26.541  24.786  1.00  0.00     0.057 A 
ATOM     13  C   UNL A   1      30.382  25.605  25.899  1.00  0.00     0.030 A 
ATOM     14  C   UNL A   1      32.806  25.387  25.595  1.00  0.00     0.008 A 
ATOM     15  C   UNL A   1      31.597  24.958  26.132  1.00  0.00     0.046 A 
ATOM     16  N   UNL A   1      31.864  23.816  26.844  1.00  0.00    -0.352 N 
ATOM     17  C   UNL A   1      33.108  23.337  26.494  1.00  0.00     0.093 A 
ATOM     18  H   UNL A   1      31.260  23.403  27.503  1.00  0.00     0.167 HD
BRANCH  10  19
ATOM     19  O   UNL A   1      31.702  28.222  23.614  1.00  0.00    -0.497 OA
ATOM     20  C   UNL A   1      30.671  29.199  23.656  1.00  0.00     0.278 C 
ENDBRANCH  10  19
BRANCH  17  21
ATOM     21  C   UNL A   1      33.489  21.937  26.612  1.00  0.00     0.227 C 
ATOM     22  O   UNL A   1      34.198  21.511  27.519  1.00  0.00    -0.285 OA
BRANCH  21  23
ATOM     23  C   UNL A   1      33.063  20.974  25.552  1.00  0.00     0.113 A 
ATOM     24  C   UNL A   1      32.655  21.435  24.303  1.00  0.00     0.036 A 
ATOM     25  N   UNL A   1      33.165  19.661  25.880  1.00  0.00    -0.253 NA
ATOM     26  C   UNL A   1      32.358  20.490  23.313  1.00  0.00    -0.047 A 
ATOM     27  C   UNL A   1      32.931  18.777  24.885  1.00  0.00     0.112 A 
ATOM     28  C   UNL A   1      31.862  20.888  21.955  1.00  0.00     0.044 C 
ATOM     29  C   UNL A   1      32.539  19.137  23.607  1.00  0.00     0.023 A 
ENDBRANCH  21  23
ENDBRANCH  17  21
ENDBRANCH   8   9
ENDBRANCH   6   8
ENDBRANCH   5   6
ENDBRANCH   4   5
ENDBRANCH   3   4
ENDBRANCH   2   3
ENDBRANCH   1   2
BRANCH   1  30
ATOM     30  C   UNL A   1      41.329  22.221  26.165  1.00  0.00     0.188 C 
BRANCH  30  31
ATOM     31  O   UNL A   1      41.781  20.905  25.875  1.00  0.00    -0.376 OA
BRANCH  31  32
ATOM     32  C   UNL A   1      43.145  20.829  25.486  1.00  0.00     0.202 C 
BRANCH  32  33
ATOM     33  C   UNL A   1      43.899  22.111  25.840  1.00  0.00     0.261 C 
BRANCH  33  34
ATOM     34  O   UNL A   1      43.713  23.125  24.828  1.00  0.00    -0.460 OA
BRANCH  34  35
ATOM     35  C   UNL A   1      44.466  24.234  24.902  1.00  0.00     0.338 C 
ATOM     36  O   UNL A   1      45.564  24.406  24.369  1.00  0.00    -0.246 OA
BRANCH  35  37
ATOM     37  C   UNL A   1      43.827  25.252  25.771  1.00  0.00     0.060 A 
ATOM     38  C   UNL A   1      43.785  26.608  25.436  1.00  0.00     0.016 A 
ATOM     39  C   UNL A   1      43.347  24.851  27.017  1.00  0.00     0.016 A 
ATOM     40  C   UNL A   1      43.326  27.561  26.355  1.00  0.00     0.010 A 
ATOM     41  C   UNL A   1      42.828  25.796  27.909  1.00  0.00     0.010 A 
ATOM     42  C   UNL A   1      42.835  27.169  27.603  1.00  0.00    -0.014 A 
BRANCH  42  43
ATOM     43  C   UNL A   1      42.360  28.161  28.610  1.00  0.00     0.031 A 
ATOM     44  C   UNL A   1      43.213  28.486  29.810  1.00  0.00     0.074 A 
ATOM     45  C   UNL A   1      41.156  28.756  28.494  1.00  0.00     0.049 A 
ATOM     46  N   UNL A   1      42.887  29.102  30.920  1.00  0.00    -0.248 NA
ATOM     47  C   UNL A   1      44.619  28.054  29.752  1.00  0.00     0.031 C 
ATOM     48  C   UNL A   1      40.244  28.625  27.358  1.00  0.00     0.029 A 
ATOM     49  N   UNL A   1      40.483  29.582  29.366  1.00  0.00    -0.354 N 
ATOM     50  C   UNL A   1      44.028  29.084  31.713  1.00  0.00     0.074 A 
ATOM     51  C   UNL A   1      45.054  28.397  30.957  1.00  0.00     0.031 C 
ATOM     52  C   UNL A   1      39.137  29.347  27.599  1.00  0.00     0.029 A 
ATOM     53  C   UNL A   1      39.221  29.918  28.939  1.00  0.00     0.049 A 
ATOM     54  H   UNL A   1      40.870  29.901  30.213  1.00  0.00     0.167 HD
ATOM     55  C   UNL A   1      44.201  29.583  32.962  1.00  0.00     0.031 A 
ATOM     56  C   UNL A   1      38.218  30.560  29.569  1.00  0.00     0.031 A 
ATOM     57  C   UNL A   1      43.192  30.287  33.711  1.00  0.00     0.049 A 
ATOM     58  C   UNL A   1      38.400  31.020  30.988  1.00  0.00     0.074 A 
ATOM     59  C   UNL A   1      43.284  30.827  34.984  1.00  0.00     0.029 A 
ATOM     60  N   UNL A   1      41.912  30.558  33.256  1.00  0.00    -0.354 N 
ATOM     61  N   UNL A   1      39.459  30.942  31.756  1.00  0.00    -0.248 NA
ATOM     62  C   UNL A   1      37.234  31.644  31.635  1.00  0.00     0.031 C 
ATOM     63  C   UNL A   1      42.042  31.379  35.319  1.00  0.00     0.029 A 
ATOM     64  C   UNL A   1      41.197  31.235  34.232  1.00  0.00     0.049 A 
ATOM     65  H   UNL A   1      41.562  30.308  32.371  1.00  0.00     0.167 HD
ATOM     66  C   UNL A   1      39.095  31.523  32.965  1.00  0.00     0.074 A 
ATOM     67  C   UNL A   1      37.724  31.966  32.824  1.00  0.00     0.031 C 
ATOM     68  C   UNL A   1      39.832  31.671  34.092  1.00  0.00     0.031 A 
BRANCH  55  69
ATOM     69  C   UNL A   1      45.526  29.339  33.629  1.00  0.00    -0.014 A 
ATOM     70  C   UNL A   1      46.558  30.289  33.589  1.00  0.00     0.009 A 
ATOM     71  C   UNL A   1      45.721  28.152  34.355  1.00  0.00     0.009 A 
ATOM     72  C   UNL A   1      47.770  30.040  34.238  1.00  0.00     0.001 A 
ATOM     73  C   UNL A   1      46.923  27.920  35.027  1.00  0.00     0.001 A 
ATOM     74  C   UNL A   1      47.949  28.860  34.960  1.00  0.00     0.000 A 
ENDBRANCH  55  69
BRANCH  56  75
ATOM     75  C   UNL A   1      36.913  30.753  28.882  1.00  0.00    -0.014 A 
ATOM     76  C   UNL A   1      36.065  29.661  28.643  1.00  0.00     0.009 A 
ATOM     77  C   UNL A   1      36.519  32.028  28.444  1.00  0.00     0.009 A 
ATOM     78  C   UNL A   1      34.857  29.841  27.963  1.00  0.00     0.001 A 
ATOM     79  C   UNL A   1      35.296  32.209  27.796  1.00  0.00     0.001 A 
ATOM     80  C   UNL A   1      34.471  31.114  27.547  1.00  0.00     0.000 A 
ENDBRANCH  56  75
BRANCH  68  81
ATOM     81  C   UNL A   1      39.184  32.374  35.252  1.00  0.00    -0.014 A 
ATOM     82  C   UNL A   1      38.504  31.660  36.251  1.00  0.00     0.009 A 
ATOM     83  C   UNL A   1      39.274  33.771  35.358  1.00  0.00     0.009 A 
ATOM     84  C   UNL A   1      37.898  32.335  37.315  1.00  0.00     0.001 A 
ATOM     85  C   UNL A   1      38.690  34.440  36.435  1.00  0.00     0.001 A 
ATOM     86  C   UNL A   1      37.994  33.723  37.407  1.00  0.00     0.000 A 
ENDBRANCH  68  81
ENDBRANCH  42  43
ENDBRANCH  35  37
ENDBRANCH  34  35
ENDBRANCH  33  34
ENDBRANCH  32  33
ENDBRANCH  31  32
ENDBRANCH  30  31
ENDBRANCH   1  30
TORSDOF 21
ENDMDL
MODEL 3
REMARK VINA RESULT:      -9.9      6.545      8.989
REMARK SMILES COc1ccc2[nH]c(C(=O)c3cc(C)ccn3)c(CC(=O)OCCOCCOCCOC(=O)c3ccc(-c4c5nc(c(-c6ccccc6)c6ccc([nH]6)c(-c6ccccc6)c6nc(c(-c7ccccc7)c7ccc4[nH]7)C=C6)C=C5)cc3)c2c1
REMARK SMILES IDX 26 1 25 2 24 3 23 4 22 5 20 6 21 7 19 8 18 9 3 10 4 11 83 12
REMARK SMILES IDX 5 13 82 14 6 15 7 16 8 17 2 19 1 20 9 21 10 22 11 23 12 24
REMARK SMILES IDX 17 25 13 26 16 27 14 28 15 29 27 30 28 31 29 32 30 33 31 34
REMARK SMILES IDX 32 35 33 36 34 37 35 38 81 39 36 40 80 41 37 42 38 43 39 44
REMARK SMILES IDX 74 45 40 46 79 47 73 48 75 49 41 50 78 51 72 52 71 53 42 55
REMARK SMILES IDX 64 56 49 57 63 58 50 59 53 60 62 61 76 62 51 63 52 64 61 66
REMARK SMILES IDX 77 67 54 68 43 69 44 70 48 71 45 72 47 73 46 74 65 75 66 76
REMARK SMILES IDX 70 77 67 78 69 79 68 80 55 81 56 82 60 83 57 84 59 85 58 86
REMARK H PARENT 7 18 75 54 53 65
REMARK Flexibility Score: inf
ROOT
ATOM      1  C   UNL A   1      40.757  20.571  27.089  1.00  0.00     0.188 C 
ENDROOT
BRANCH   1   2
ATOM      2  O   UNL A   1      39.934  21.147  26.077  1.00  0.00    -0.376 OA
BRANCH   2   3
ATOM      3  C   UNL A   1      38.862  21.989  26.485  1.00  0.00     0.202 C 
BRANCH   3   4
ATOM      4  C   UNL A   1      38.243  22.857  25.381  1.00  0.00     0.261 C 
BRANCH   4   5
ATOM      5  O   UNL A   1      36.993  22.315  24.901  1.00  0.00    -0.463 OA
BRANCH   5   6
ATOM      6  C   UNL A   1      36.052  23.202  24.486  1.00  0.00     0.310 C 
ATOM      7  O   UNL A   1      35.529  23.161  23.375  1.00  0.00    -0.252 OA
BRANCH   6   8
ATOM      8  C   UNL A   1      35.549  24.133  25.586  1.00  0.00     0.161 C 
BRANCH   8   9
ATOM      9  C   UNL A   1      34.062  24.212  25.847  1.00  0.00     0.000 A 
ATOM     10  C   UNL A   1      32.320  27.252  24.312  1.00  0.00     0.119 A 
ATOM     11  C   UNL A   1      31.024  26.869  24.658  1.00  0.00     0.048 A 
ATOM     12  C   UNL A   1      33.417  26.481  24.717  1.00  0.00     0.057 A 
ATOM     13  C   UNL A   1      30.791  25.722  25.423  1.00  0.00     0.030 A 
ATOM     14  C   UNL A   1      33.206  25.291  25.440  1.00  0.00     0.008 A 
ATOM     15  C   UNL A   1      31.900  24.950  25.777  1.00  0.00     0.046 A 
ATOM     16  N   UNL A   1      31.963  23.751  26.441  1.00  0.00    -0.352 N 
ATOM     17  C   UNL A   1      33.198  23.175  26.233  1.00  0.00     0.093 A 
ATOM     18  H   UNL A   1      31.238  23.362  26.981  1.00  0.00     0.167 HD
BRANCH  10  19
ATOM     19  O   UNL A   1      32.646  28.321  23.520  1.00  0.00    -0.497 OA
ATOM     20  C   UNL A   1      31.563  28.991  22.892  1.00  0.00     0.278 C 
ENDBRANCH  10  19
BRANCH  17  21
ATOM     21  C   UNL A   1      33.435  21.741  26.308  1.00  0.00     0.227 C 
ATOM     22  O   UNL A   1      33.933  21.196  27.288  1.00  0.00    -0.285 OA
BRANCH  21  23
ATOM     23  C   UNL A   1      33.126  20.888  25.121  1.00  0.00     0.113 A 
ATOM     24  C   UNL A   1      33.371  19.517  25.154  1.00  0.00     0.036 A 
ATOM     25  N   UNL A   1      32.552  21.530  24.071  1.00  0.00    -0.253 NA
ATOM     26  C   UNL A   1      32.976  18.747  24.053  1.00  0.00    -0.047 A 
ATOM     27  C   UNL A   1      32.127  20.750  23.053  1.00  0.00     0.112 A 
ATOM     28  C   UNL A   1      33.243  17.272  23.976  1.00  0.00     0.044 C 
ATOM     29  C   UNL A   1      32.307  19.378  23.003  1.00  0.00     0.023 A 
ENDBRANCH  21  23
ENDBRANCH  17  21
ENDBRANCH   8   9
ENDBRANCH   6   8
ENDBRANCH   5   6
ENDBRANCH   4   5
ENDBRANCH   3   4
ENDBRANCH   2   3
ENDBRANCH   1   2
BRANCH   1  30
ATOM     30  C   UNL A   1      42.062  19.854  26.680  1.00  0.00     0.188 C 
BRANCH  30  31
ATOM     31  O   UNL A   1      42.518  20.215  25.383  1.00  0.00    -0.376 OA
BRANCH  31  32
ATOM     32  C   UNL A   1      43.825  20.768  25.357  1.00  0.00     0.202 C 
BRANCH  32  33
ATOM     33  C   UNL A   1      43.862  22.142  26.025  1.00  0.00     0.261 C 
BRANCH  33  34
ATOM     34  O   UNL A   1      42.891  23.037  25.441  1.00  0.00    -0.460 OA
BRANCH  34  35
ATOM     35  C   UNL A   1      42.495  24.098  26.163  1.00  0.00     0.338 C 
ATOM     36  O   UNL A   1      41.369  24.284  26.625  1.00  0.00    -0.246 OA
BRANCH  35  37
ATOM     37  C   UNL A   1      43.595  25.082  26.305  1.00  0.00     0.060 A 
ATOM     38  C   UNL A   1      44.132  25.435  27.546  1.00  0.00     0.016 A 
ATOM     39  C   UNL A   1      44.034  25.754  25.165  1.00  0.00     0.016 A 
ATOM     40  C   UNL A   1      45.049  26.489  27.658  1.00  0.00     0.010 A 
ATOM     41  C   UNL A   1      45.000  26.762  25.270  1.00  0.00     0.010 A 
ATOM     42  C   UNL A   1      45.502  27.164  26.521  1.00  0.00    -0.014 A 
BRANCH  42  43
ATOM     43  C   UNL A   1      46.462  28.302  26.611  1.00  0.00     0.031 A 
ATOM     44  C   UNL A   1      45.948  29.713  26.749  1.00  0.00     0.074 A 
ATOM     45  C   UNL A   1      47.792  28.104  26.532  1.00  0.00     0.049 A 
ATOM     46  N   UNL A   1      46.579  30.848  26.579  1.00  0.00    -0.248 NA
ATOM     47  C   UNL A   1      44.532  29.862  27.123  1.00  0.00     0.031 C 
ATOM     48  C   UNL A   1      48.463  26.805  26.486  1.00  0.00     0.029 A 
ATOM     49  N   UNL A   1      48.824  29.013  26.459  1.00  0.00    -0.354 N 
ATOM     50  C   UNL A   1      45.629  31.844  26.771  1.00  0.00     0.074 A 
ATOM     51  C   UNL A   1      44.378  31.178  27.071  1.00  0.00     0.031 C 
ATOM     52  C   UNL A   1      49.788  26.999  26.397  1.00  0.00     0.029 A 
ATOM     53  C   UNL A   1      50.057  28.429  26.291  1.00  0.00     0.049 A 
ATOM     54  H   UNL A   1      48.691  29.986  26.521  1.00  0.00     0.167 HD
ATOM     55  C   UNL A   1      45.781  33.189  26.693  1.00  0.00     0.031 A 
ATOM     56  C   UNL A   1      51.261  28.971  26.023  1.00  0.00     0.031 A 
ATOM     57  C   UNL A   1      47.027  33.859  26.417  1.00  0.00     0.049 A 
ATOM     58  C   UNL A   1      51.388  30.458  25.845  1.00  0.00     0.074 A 
ATOM     59  C   UNL A   1      47.269  35.219  26.320  1.00  0.00     0.029 A 
ATOM     60  N   UNL A   1      48.238  33.222  26.203  1.00  0.00    -0.354 N 
ATOM     61  N   UNL A   1      50.474  31.389  25.963  1.00  0.00    -0.248 NA
ATOM     62  C   UNL A   1      52.719  30.967  25.477  1.00  0.00     0.031 C 
ATOM     63  C   UNL A   1      48.619  35.403  25.996  1.00  0.00     0.029 A 
ATOM     64  C   UNL A   1      49.227  34.161  25.950  1.00  0.00     0.049 A 
ATOM     65  H   UNL A   1      48.377  32.248  26.228  1.00  0.00     0.167 HD
ATOM     66  C   UNL A   1      51.120  32.591  25.706  1.00  0.00     0.074 A 
ATOM     67  C   UNL A   1      52.508  32.276  25.443  1.00  0.00     0.031 C 
ATOM     68  C   UNL A   1      50.606  33.844  25.685  1.00  0.00     0.031 A 
BRANCH  55  69
ATOM     69  C   UNL A   1      44.551  34.037  26.857  1.00  0.00    -0.014 A 
ATOM     70  C   UNL A   1      44.101  34.447  28.121  1.00  0.00     0.009 A 
ATOM     71  C   UNL A   1      43.861  34.475  25.714  1.00  0.00     0.009 A 
ATOM     72  C   UNL A   1      42.966  35.254  28.237  1.00  0.00     0.001 A 
ATOM     73  C   UNL A   1      42.744  35.304  25.832  1.00  0.00     0.001 A 
ATOM     74  C   UNL A   1      42.293  35.685  27.095  1.00  0.00     0.000 A 
ENDBRANCH  55  69
BRANCH  56  75
ATOM     75  C   UNL A   1      52.446  28.092  25.838  1.00  0.00    -0.014 A 
ATOM     76  C   UNL A   1      52.763  27.578  24.572  1.00  0.00     0.009 A 
ATOM     77  C   UNL A   1      53.255  27.746  26.932  1.00  0.00     0.009 A 
ATOM     78  C   UNL A   1      53.855  26.721  24.409  1.00  0.00     0.001 A 
ATOM     79  C   UNL A   1      54.366  26.918  26.761  1.00  0.00     0.001 A 
ATOM     80  C   UNL A   1      54.658  26.398  25.502  1.00  0.00     0.000 A 
ENDBRANCH  56  75
BRANCH  68  81
ATOM     81  C   UNL A   1      51.556  34.975  25.404  1.00  0.00    -0.014 A 
ATOM     82  C   UNL A   1      51.784  35.429  24.095  1.00  0.00     0.009 A 
ATOM     83  C   UNL A   1      52.218  35.610  26.467  1.00  0.00     0.009 A 
ATOM     84  C   UNL A   1      52.682  36.474  23.855  1.00  0.00     0.001 A 
ATOM     85  C   UNL A   1      53.093  36.670  26.228  1.00  0.00     0.001 A 
ATOM     86  C   UNL A   1      53.332  37.095  24.922  1.00  0.00     0.000 A 
ENDBRANCH  68  81
ENDBRANCH  42  43
ENDBRANCH  35  37
ENDBRANCH  34  35
ENDBRANCH  33  34
ENDBRANCH  32  33
ENDBRANCH  31  32
ENDBRANCH  30  31
ENDBRANCH   1  30
TORSDOF 21
ENDMDL
