MODEL 1
REMARK VINA RESULT:      -8.9      0.000      0.000
REMARK SMILES C[C@H](CC(=O)NC[C@@]1(C)CCCO1)CC(=O)OCCOCCOCCOC(=O)c1ccc(-c2c3nc(c(-c4ccccc4)c4ccc([nH]4)c(-c4ccccc4)c4nc(c(-c5ccccc5)c5ccc2[nH]5)C=C4)C=C3)cc1
REMARK SMILES IDX 20 1 19 2 18 3 17 4 15 5 16 6 14 7 2 8 1 9 3 10 4 11 5 12
REMARK SMILES IDX 6 13 7 15 8 16 9 17 10 18 13 19 11 20 12 21 21 22 22 23
REMARK SMILES IDX 23 24 24 25 25 26 26 27 27 28 28 29 29 30 30 31 76 32 31 33
REMARK SMILES IDX 75 34 32 35 33 36 34 37 69 38 35 39 74 40 68 41 70 42 36 43
REMARK SMILES IDX 73 44 67 45 66 46 37 48 59 49 44 50 58 51 45 52 48 53 57 54
REMARK SMILES IDX 71 55 46 56 47 57 56 59 72 60 49 61 38 62 39 63 43 64 40 65
REMARK SMILES IDX 42 66 41 67 60 68 61 69 65 70 62 71 64 72 63 73 50 74 51 75
REMARK SMILES IDX 55 76 52 77 54 78 53 79
REMARK H PARENT 6 14 70 47 48 58
REMARK Flexibility Score: inf
ROOT
ATOM      1  O   UNL A   1      34.815  33.082  29.182  1.00  0.00    -0.376 OA
ENDROOT
BRANCH   1   2
ATOM      2  C   UNL A   1      34.430  31.738  28.921  1.00  0.00     0.202 C 
BRANCH   2   3
ATOM      3  C   UNL A   1      33.692  31.377  27.631  1.00  0.00     0.261 C 
BRANCH   3   4
ATOM      4  O   UNL A   1      33.427  29.964  27.516  1.00  0.00    -0.463 OA
BRANCH   4   5
ATOM      5  C   UNL A   1      34.284  29.272  26.735  1.00  0.00     0.306 C 
ATOM      6  O   UNL A   1      35.506  29.292  26.860  1.00  0.00    -0.252 OA
BRANCH   5   7
ATOM      7  C   UNL A   1      33.636  28.383  25.694  1.00  0.00     0.126 C 
BRANCH   7   8
ATOM      8  C   UNL A   1      32.227  28.595  25.148  1.00  0.00     0.006 C 
ATOM      9  C   UNL A   1      31.279  27.675  25.947  1.00  0.00     0.009 C 
BRANCH   8  10
ATOM     10  C   UNL A   1      32.110  28.350  23.634  1.00  0.00     0.104 C 
BRANCH  10  11
ATOM     11  C   UNL A   1      33.351  27.778  22.965  1.00  0.00     0.220 C 
ATOM     12  O   UNL A   1      34.244  28.533  22.572  1.00  0.00    -0.275 OA
ATOM     13  N   UNL A   1      33.497  26.445  22.736  1.00  0.00    -0.353 N 
ATOM     14  H   UNL A   1      34.166  26.225  22.049  1.00  0.00     0.163 HD
BRANCH  13  15
ATOM     15  C   UNL A   1      32.840  25.284  23.322  1.00  0.00     0.151 C 
BRANCH  15  16
ATOM     16  C   UNL A   1      33.778  24.342  24.138  1.00  0.00     0.083 C 
ATOM     17  C   UNL A   1      34.791  23.725  23.159  1.00  0.00     0.044 C 
ATOM     18  C   UNL A   1      34.510  24.934  25.352  1.00  0.00     0.039 C 
ATOM     19  O   UNL A   1      32.982  23.259  24.689  1.00  0.00    -0.373 OA
ATOM     20  C   UNL A   1      34.658  23.762  26.282  1.00  0.00     0.031 C 
ATOM     21  C   UNL A   1      33.308  23.115  26.084  1.00  0.00     0.161 C 
ENDBRANCH  15  16
ENDBRANCH  13  15
ENDBRANCH  10  11
ENDBRANCH   8  10
ENDBRANCH   7   8
ENDBRANCH   5   7
ENDBRANCH   4   5
ENDBRANCH   3   4
ENDBRANCH   2   3
ENDBRANCH   1   2
BRANCH   1  22
ATOM     22  C   UNL A   1      33.954  34.146  28.835  1.00  0.00     0.188 C 
BRANCH  22  23
ATOM     23  C   UNL A   1      33.372  35.037  29.938  1.00  0.00     0.188 C 
BRANCH  23  24
ATOM     24  O   UNL A   1      33.216  34.598  31.264  1.00  0.00    -0.376 OA
BRANCH  24  25
ATOM     25  C   UNL A   1      34.334  34.656  32.129  1.00  0.00     0.202 C 
BRANCH  25  26
ATOM     26  C   UNL A   1      34.579  33.585  33.210  1.00  0.00     0.261 C 
BRANCH  26  27
ATOM     27  O   UNL A   1      35.264  32.394  32.792  1.00  0.00    -0.460 OA
BRANCH  27  28
ATOM     28  C   UNL A   1      36.470  32.179  33.385  1.00  0.00     0.338 C 
ATOM     29  O   UNL A   1      36.741  32.313  34.569  1.00  0.00    -0.246 OA
BRANCH  28  30
ATOM     30  C   UNL A   1      37.371  31.487  32.430  1.00  0.00     0.060 A 
ATOM     31  C   UNL A   1      38.420  30.708  32.951  1.00  0.00     0.016 A 
ATOM     32  C   UNL A   1      37.191  31.587  31.051  1.00  0.00     0.016 A 
ATOM     33  C   UNL A   1      39.316  30.064  32.098  1.00  0.00     0.010 A 
ATOM     34  C   UNL A   1      38.113  30.972  30.195  1.00  0.00     0.010 A 
ATOM     35  C   UNL A   1      39.201  30.245  30.714  1.00  0.00    -0.014 A 
BRANCH  35  36
ATOM     36  C   UNL A   1      40.360  29.928  29.842  1.00  0.00     0.031 A 
ATOM     37  C   UNL A   1      40.350  28.604  29.124  1.00  0.00     0.074 A 
ATOM     38  C   UNL A   1      41.386  30.778  29.661  1.00  0.00     0.049 A 
ATOM     39  N   UNL A   1      41.261  28.061  28.359  1.00  0.00    -0.248 NA
ATOM     40  C   UNL A   1      39.141  27.778  29.299  1.00  0.00     0.031 C 
ATOM     41  C   UNL A   1      41.500  32.115  30.237  1.00  0.00     0.029 A 
ATOM     42  N   UNL A   1      42.541  30.623  28.933  1.00  0.00    -0.354 N 
ATOM     43  C   UNL A   1      40.743  26.830  27.974  1.00  0.00     0.074 A 
ATOM     44  C   UNL A   1      39.452  26.693  28.609  1.00  0.00     0.031 C 
ATOM     45  C   UNL A   1      42.671  32.655  29.851  1.00  0.00     0.029 A 
ATOM     46  C   UNL A   1      43.401  31.690  29.030  1.00  0.00     0.049 A 
ATOM     47  H   UNL A   1      42.735  29.823  28.393  1.00  0.00     0.167 HD
ATOM     48  C   UNL A   1      41.287  25.894  27.161  1.00  0.00     0.031 A 
ATOM     49  C   UNL A   1      44.642  31.855  28.530  1.00  0.00     0.031 A 
ATOM     50  C   UNL A   1      42.577  26.011  26.541  1.00  0.00     0.049 A 
ATOM     51  C   UNL A   1      45.269  30.759  27.705  1.00  0.00     0.074 A 
ATOM     52  C   UNL A   1      43.213  25.115  25.701  1.00  0.00     0.029 A 
ATOM     53  N   UNL A   1      43.432  27.089  26.701  1.00  0.00    -0.354 N 
ATOM     54  N   UNL A   1      44.765  29.606  27.336  1.00  0.00    -0.248 NA
ATOM     55  C   UNL A   1      46.638  30.995  27.220  1.00  0.00     0.031 C 
ATOM     56  C   UNL A   1      44.480  25.626  25.398  1.00  0.00     0.029 A 
ATOM     57  C   UNL A   1      44.603  26.869  25.996  1.00  0.00     0.049 A 
ATOM     58  H   UNL A   1      43.238  27.892  27.237  1.00  0.00     0.167 HD
ATOM     59  C   UNL A   1      45.739  28.998  26.551  1.00  0.00     0.074 A 
ATOM     60  C   UNL A   1      46.857  29.914  26.486  1.00  0.00     0.031 C 
ATOM     61  C   UNL A   1      45.708  27.790  25.934  1.00  0.00     0.031 A 
BRANCH  48  62
ATOM     62  C   UNL A   1      40.495  24.637  26.939  1.00  0.00    -0.014 A 
ATOM     63  C   UNL A   1      39.287  24.652  26.222  1.00  0.00     0.009 A 
ATOM     64  C   UNL A   1      40.971  23.418  27.445  1.00  0.00     0.009 A 
ATOM     65  C   UNL A   1      38.556  23.475  26.048  1.00  0.00     0.001 A 
ATOM     66  C   UNL A   1      40.253  22.240  27.244  1.00  0.00     0.001 A 
ATOM     67  C   UNL A   1      39.041  22.270  26.554  1.00  0.00     0.000 A 
ENDBRANCH  48  62
BRANCH  49  68
ATOM     68  C   UNL A   1      45.405  33.104  28.810  1.00  0.00    -0.014 A 
ATOM     69  C   UNL A   1      45.147  34.278  28.086  1.00  0.00     0.009 A 
ATOM     70  C   UNL A   1      46.427  33.111  29.773  1.00  0.00     0.009 A 
ATOM     71  C   UNL A   1      45.916  35.425  28.301  1.00  0.00     0.001 A 
ATOM     72  C   UNL A   1      47.174  34.269  30.005  1.00  0.00     0.001 A 
ATOM     73  C   UNL A   1      46.925  35.421  29.263  1.00  0.00     0.000 A 
ENDBRANCH  49  68
BRANCH  61  74
ATOM     74  C   UNL A   1      46.896  27.407  25.094  1.00  0.00    -0.014 A 
ATOM     75  C   UNL A   1      47.929  26.605  25.603  1.00  0.00     0.009 A 
ATOM     76  C   UNL A   1      46.958  27.823  23.754  1.00  0.00     0.009 A 
ATOM     77  C   UNL A   1      49.018  26.260  24.797  1.00  0.00     0.001 A 
ATOM     78  C   UNL A   1      48.031  27.451  22.942  1.00  0.00     0.001 A 
ATOM     79  C   UNL A   1      49.065  26.678  23.467  1.00  0.00     0.000 A 
ENDBRANCH  61  74
ENDBRANCH  35  36
ENDBRANCH  28  30
ENDBRANCH  27  28
ENDBRANCH  26  27
ENDBRANCH  25  26
ENDBRANCH  24  25
ENDBRANCH  23  24
ENDBRANCH  22  23
ENDBRANCH   1  22
TORSDOF 22
ENDMDL
MODEL 2
REMARK VINA RESULT:      -8.7      4.729     10.097
REMARK SMILES C[C@H](CC(=O)NC[C@@]1(C)CCCO1)CC(=O)OCCOCCOCCOC(=O)c1ccc(-c2c3nc(c(-c4ccccc4)c4ccc([nH]4)c(-c4ccccc4)c4nc(c(-c5ccccc5)c5ccc2[nH]5)C=C4)C=C3)cc1
REMARK SMILES IDX 20 1 19 2 18 3 17 4 15 5 16 6 14 7 2 8 1 9 3 10 4 11 5 12
REMARK SMILES IDX 6 13 7 15 8 16 9 17 10 18 13 19 11 20 12 21 21 22 22 23
REMARK SMILES IDX 23 24 24 25 25 26 26 27 27 28 28 29 29 30 30 31 76 32 31 33
REMARK SMILES IDX 75 34 32 35 33 36 34 37 69 38 35 39 74 40 68 41 70 42 36 43
REMARK SMILES IDX 73 44 67 45 66 46 37 48 59 49 44 50 58 51 45 52 48 53 57 54
REMARK SMILES IDX 71 55 46 56 47 57 56 59 72 60 49 61 38 62 39 63 43 64 40 65
REMARK SMILES IDX 42 66 41 67 60 68 61 69 65 70 62 71 64 72 63 73 50 74 51 75
REMARK SMILES IDX 55 76 52 77 54 78 53 79
REMARK H PARENT 6 14 70 47 48 58
REMARK Flexibility Score: inf
ROOT
ATOM      1  O   UNL A   1      40.241  21.683  25.630  1.00  0.00    -0.376 OA
ENDROOT
BRANCH   1   2
ATOM      2  C   UNL A   1      38.913  21.890  26.094  1.00  0.00     0.202 C 
BRANCH   2   3
ATOM      3  C   UNL A   1      37.722  21.698  25.154  1.00  0.00     0.261 C 
BRANCH   3   4
ATOM      4  O   UNL A   1      37.023  22.930  24.882  1.00  0.00    -0.463 OA
BRANCH   4   5
ATOM      5  C   UNL A   1      36.327  22.962  23.725  1.00  0.00     0.306 C 
ATOM      6  O   UNL A   1      36.826  22.813  22.612  1.00  0.00    -0.252 OA
BRANCH   5   7
ATOM      7  C   UNL A   1      34.830  23.138  23.876  1.00  0.00     0.126 C 
BRANCH   7   8
ATOM      8  C   UNL A   1      33.888  23.469  22.722  1.00  0.00     0.006 C 
ATOM      9  C   UNL A   1      33.434  24.933  22.901  1.00  0.00     0.009 C 
BRANCH   8  10
ATOM     10  C   UNL A   1      32.687  22.513  22.615  1.00  0.00     0.104 C 
BRANCH  10  11
ATOM     11  C   UNL A   1      32.111  22.035  23.938  1.00  0.00     0.220 C 
ATOM     12  O   UNL A   1      31.568  22.837  24.701  1.00  0.00    -0.275 OA
ATOM     13  N   UNL A   1      32.213  20.740  24.344  1.00  0.00    -0.353 N 
ATOM     14  H   UNL A   1      32.087  20.609  25.311  1.00  0.00     0.163 HD
BRANCH  13  15
ATOM     15  C   UNL A   1      32.479  19.512  23.605  1.00  0.00     0.151 C 
BRANCH  15  16
ATOM     16  C   UNL A   1      33.151  18.378  24.439  1.00  0.00     0.083 C 
ATOM     17  C   UNL A   1      32.486  18.357  25.825  1.00  0.00     0.044 C 
ATOM     18  C   UNL A   1      33.170  16.962  23.841  1.00  0.00     0.039 C 
ATOM     19  O   UNL A   1      34.552  18.708  24.627  1.00  0.00    -0.373 OA
ATOM     20  C   UNL A   1      34.424  16.356  24.407  1.00  0.00     0.031 C 
ATOM     21  C   UNL A   1      35.344  17.549  24.307  1.00  0.00     0.161 C 
ENDBRANCH  15  16
ENDBRANCH  13  15
ENDBRANCH  10  11
ENDBRANCH   8  10
ENDBRANCH   7   8
ENDBRANCH   5   7
ENDBRANCH   4   5
ENDBRANCH   3   4
ENDBRANCH   2   3
ENDBRANCH   1   2
BRANCH   1  22
ATOM     22  C   UNL A   1      41.337  21.909  26.492  1.00  0.00     0.188 C 
BRANCH  22  23
ATOM     23  C   UNL A   1      42.645  21.143  26.268  1.00  0.00     0.188 C 
BRANCH  23  24
ATOM     24  O   UNL A   1      43.282  21.079  25.016  1.00  0.00    -0.376 OA
BRANCH  24  25
ATOM     25  C   UNL A   1      44.554  21.683  24.877  1.00  0.00     0.202 C 
BRANCH  25  26
ATOM     26  C   UNL A   1      44.759  22.953  24.028  1.00  0.00     0.261 C 
BRANCH  26  27
ATOM     27  O   UNL A   1      44.351  24.196  24.620  1.00  0.00    -0.460 OA
BRANCH  27  28
ATOM     28  C   UNL A   1      45.065  24.580  25.713  1.00  0.00     0.338 C 
ATOM     29  O   UNL A   1      46.278  24.538  25.851  1.00  0.00    -0.246 OA
BRANCH  28  30
ATOM     30  C   UNL A   1      44.179  25.324  26.642  1.00  0.00     0.060 A 
ATOM     31  C   UNL A   1      44.292  26.726  26.690  1.00  0.00     0.016 A 
ATOM     32  C   UNL A   1      43.246  24.670  27.445  1.00  0.00     0.016 A 
ATOM     33  C   UNL A   1      43.506  27.471  27.569  1.00  0.00     0.010 A 
ATOM     34  C   UNL A   1      42.485  25.414  28.355  1.00  0.00     0.010 A 
ATOM     35  C   UNL A   1      42.642  26.810  28.450  1.00  0.00    -0.014 A 
BRANCH  35  36
ATOM     36  C   UNL A   1      42.134  27.531  29.645  1.00  0.00     0.031 A 
ATOM     37  C   UNL A   1      40.824  28.263  29.511  1.00  0.00     0.074 A 
ATOM     38  C   UNL A   1      42.782  27.531  30.823  1.00  0.00     0.049 A 
ATOM     39  N   UNL A   1      40.196  29.016  30.377  1.00  0.00    -0.248 NA
ATOM     40  C   UNL A   1      40.132  28.127  28.217  1.00  0.00     0.031 C 
ATOM     41  C   UNL A   1      44.021  26.814  31.117  1.00  0.00     0.029 A 
ATOM     42  N   UNL A   1      42.476  28.174  31.998  1.00  0.00    -0.354 N 
ATOM     43  C   UNL A   1      39.046  29.451  29.729  1.00  0.00     0.074 A 
ATOM     44  C   UNL A   1      39.074  28.902  28.393  1.00  0.00     0.031 C 
ATOM     45  C   UNL A   1      44.377  27.070  32.389  1.00  0.00     0.029 A 
ATOM     46  C   UNL A   1      43.412  27.992  32.986  1.00  0.00     0.049 A 
ATOM     47  H   UNL A   1      41.662  28.714  32.120  1.00  0.00     0.167 HD
ATOM     48  C   UNL A   1      38.049  30.235  30.201  1.00  0.00     0.031 A 
ATOM     49  C   UNL A   1      43.488  28.527  34.221  1.00  0.00     0.031 A 
ATOM     50  C   UNL A   1      38.020  30.803  31.521  1.00  0.00     0.049 A 
ATOM     51  C   UNL A   1      42.414  29.475  34.694  1.00  0.00     0.074 A 
ATOM     52  C   UNL A   1      37.051  31.610  32.090  1.00  0.00     0.029 A 
ATOM     53  N   UNL A   1      39.009  30.628  32.474  1.00  0.00    -0.354 N 
ATOM     54  N   UNL A   1      41.325  29.869  34.079  1.00  0.00    -0.248 NA
ATOM     55  C   UNL A   1      42.580  30.046  36.040  1.00  0.00     0.031 C 
ATOM     56  C   UNL A   1      37.483  31.971  33.371  1.00  0.00     0.029 A 
ATOM     57  C   UNL A   1      38.687  31.334  33.621  1.00  0.00     0.049 A 
ATOM     58  H   UNL A   1      39.821  30.084  32.355  1.00  0.00     0.167 HD
ATOM     59  C   UNL A   1      40.662  30.703  34.974  1.00  0.00     0.074 A 
ATOM     60  C   UNL A   1      41.465  30.748  36.178  1.00  0.00     0.031 C 
ATOM     61  C   UNL A   1      39.491  31.368  34.815  1.00  0.00     0.031 A 
BRANCH  48  62
ATOM     62  C   UNL A   1      36.928  30.560  29.256  1.00  0.00    -0.014 A 
ATOM     63  C   UNL A   1      36.787  31.844  28.703  1.00  0.00     0.009 A 
ATOM     64  C   UNL A   1      36.005  29.564  28.904  1.00  0.00     0.009 A 
ATOM     65  C   UNL A   1      35.724  32.130  27.844  1.00  0.00     0.001 A 
ATOM     66  C   UNL A   1      34.961  29.845  28.022  1.00  0.00     0.001 A 
ATOM     67  C   UNL A   1      34.815  31.130  27.501  1.00  0.00     0.000 A 
ENDBRANCH  48  62
BRANCH  49  68
ATOM     68  C   UNL A   1      44.640  28.206  35.109  1.00  0.00    -0.014 A 
ATOM     69  C   UNL A   1      45.815  28.971  35.062  1.00  0.00     0.009 A 
ATOM     70  C   UNL A   1      44.583  27.103  35.976  1.00  0.00     0.009 A 
ATOM     71  C   UNL A   1      46.920  28.620  35.843  1.00  0.00     0.001 A 
ATOM     72  C   UNL A   1      45.679  26.773  36.777  1.00  0.00     0.001 A 
ATOM     73  C   UNL A   1      46.850  27.525  36.703  1.00  0.00     0.000 A 
ENDBRANCH  49  68
BRANCH  61  74
ATOM     74  C   UNL A   1      38.978  32.164  35.985  1.00  0.00    -0.014 A 
ATOM     75  C   UNL A   1      38.072  31.615  36.907  1.00  0.00     0.009 A 
ATOM     76  C   UNL A   1      39.444  33.472  36.189  1.00  0.00     0.009 A 
ATOM     77  C   UNL A   1      37.617  32.376  37.987  1.00  0.00     0.001 A 
ATOM     78  C   UNL A   1      39.012  34.218  37.287  1.00  0.00     0.001 A 
ATOM     79  C   UNL A   1      38.091  33.673  38.179  1.00  0.00     0.000 A 
ENDBRANCH  61  74
ENDBRANCH  35  36
ENDBRANCH  28  30
ENDBRANCH  27  28
ENDBRANCH  26  27
ENDBRANCH  25  26
ENDBRANCH  24  25
ENDBRANCH  23  24
ENDBRANCH  22  23
ENDBRANCH   1  22
TORSDOF 22
ENDMDL
MODEL 3
REMARK VINA RESULT:      -8.0      1.300      6.088
REMARK SMILES C[C@H](CC(=O)NC[C@@]1(C)CCCO1)CC(=O)OCCOCCOCCOC(=O)c1ccc(-c2c3nc(c(-c4ccccc4)c4ccc([nH]4)c(-c4ccccc4)c4nc(c(-c5ccccc5)c5ccc2[nH]5)C=C4)C=C3)cc1
REMARK SMILES IDX 20 1 19 2 18 3 17 4 15 5 16 6 14 7 2 8 1 9 3 10 4 11 5 12
REMARK SMILES IDX 6 13 7 15 8 16 9 17 10 18 13 19 11 20 12 21 21 22 22 23
REMARK SMILES IDX 23 24 24 25 25 26 26 27 27 28 28 29 29 30 30 31 76 32 31 33
REMARK SMILES IDX 75 34 32 35 33 36 34 37 69 38 35 39 74 40 68 41 70 42 36 43
REMARK SMILES IDX 73 44 67 45 66 46 37 48 59 49 44 50 58 51 45 52 48 53 57 54
REMARK SMILES IDX 71 55 46 56 47 57 56 59 72 60 49 61 38 62 39 63 43 64 40 65
REMARK SMILES IDX 42 66 41 67 60 68 61 69 65 70 62 71 64 72 63 73 50 74 51 75
REMARK SMILES IDX 55 76 52 77 54 78 53 79
REMARK H PARENT 6 14 70 47 48 58
REMARK Flexibility Score: inf
ROOT
ATOM      1  O   UNL A   1      35.485  32.954  29.459  1.00  0.00    -0.376 OA
ENDROOT
BRANCH   1   2
ATOM      2  C   UNL A   1      34.824  31.764  29.048  1.00  0.00     0.202 C 
BRANCH   2   3
ATOM      3  C   UNL A   1      34.240  31.647  27.639  1.00  0.00     0.261 C 
BRANCH   3   4
ATOM      4  O   UNL A   1      33.265  30.591  27.526  1.00  0.00    -0.463 OA
BRANCH   4   5
ATOM      5  C   UNL A   1      33.662  29.502  26.833  1.00  0.00     0.306 C 
ATOM      6  O   UNL A   1      34.767  28.978  26.941  1.00  0.00    -0.252 OA
BRANCH   5   7
ATOM      7  C   UNL A   1      32.613  28.897  25.923  1.00  0.00     0.126 C 
BRANCH   7   8
ATOM      8  C   UNL A   1      31.795  27.657  26.268  1.00  0.00     0.006 C 
ATOM      9  C   UNL A   1      31.370  27.780  27.747  1.00  0.00     0.009 C 
BRANCH   8  10
ATOM     10  C   UNL A   1      32.536  26.336  26.000  1.00  0.00     0.104 C 
BRANCH  10  11
ATOM     11  C   UNL A   1      31.670  25.086  26.011  1.00  0.00     0.220 C 
ATOM     12  O   UNL A   1      30.550  25.106  25.495  1.00  0.00    -0.275 OA
ATOM     13  N   UNL A   1      32.070  23.937  26.620  1.00  0.00    -0.353 N 
ATOM     14  H   UNL A   1      31.337  23.315  26.828  1.00  0.00     0.163 HD
BRANCH  13  15
ATOM     15  C   UNL A   1      33.388  23.463  27.024  1.00  0.00     0.151 C 
BRANCH  15  16
ATOM     16  C   UNL A   1      34.152  22.647  25.936  1.00  0.00     0.083 C 
ATOM     17  C   UNL A   1      33.923  21.153  26.221  1.00  0.00     0.044 C 
ATOM     18  C   UNL A   1      33.847  22.956  24.462  1.00  0.00     0.039 C 
ATOM     19  O   UNL A   1      35.573  22.910  26.072  1.00  0.00    -0.373 OA
ATOM     20  C   UNL A   1      35.141  22.649  23.761  1.00  0.00     0.031 C 
ATOM     21  C   UNL A   1      36.111  23.212  24.772  1.00  0.00     0.161 C 
ENDBRANCH  15  16
ENDBRANCH  13  15
ENDBRANCH  10  11
ENDBRANCH   8  10
ENDBRANCH   7   8
ENDBRANCH   5   7
ENDBRANCH   4   5
ENDBRANCH   3   4
ENDBRANCH   2   3
ENDBRANCH   1   2
BRANCH   1  22
ATOM     22  C   UNL A   1      34.951  34.217  29.118  1.00  0.00     0.188 C 
BRANCH  22  23
ATOM     23  C   UNL A   1      33.994  34.919  30.087  1.00  0.00     0.188 C 
BRANCH  23  24
ATOM     24  O   UNL A   1      33.603  34.350  31.311  1.00  0.00    -0.376 OA
BRANCH  24  25
ATOM     25  C   UNL A   1      34.304  34.724  32.482  1.00  0.00     0.202 C 
BRANCH  25  26
ATOM     26  C   UNL A   1      34.869  33.673  33.458  1.00  0.00     0.261 C 
BRANCH  26  27
ATOM     27  O   UNL A   1      35.773  32.703  32.907  1.00  0.00    -0.460 OA
BRANCH  27  28
ATOM     28  C   UNL A   1      37.085  32.893  33.213  1.00  0.00     0.338 C 
ATOM     29  O   UNL A   1      37.537  33.507  34.167  1.00  0.00    -0.246 OA
BRANCH  28  30
ATOM     30  C   UNL A   1      37.921  32.010  32.361  1.00  0.00     0.060 A 
ATOM     31  C   UNL A   1      38.726  31.044  32.993  1.00  0.00     0.016 A 
ATOM     32  C   UNL A   1      37.913  32.113  30.971  1.00  0.00     0.016 A 
ATOM     33  C   UNL A   1      39.555  30.212  32.242  1.00  0.00     0.010 A 
ATOM     34  C   UNL A   1      38.773  31.303  30.220  1.00  0.00     0.010 A 
ATOM     35  C   UNL A   1      39.627  30.380  30.854  1.00  0.00    -0.014 A 
BRANCH  35  36
ATOM     36  C   UNL A   1      40.782  29.813  30.112  1.00  0.00     0.031 A 
ATOM     37  C   UNL A   1      41.956  30.722  29.852  1.00  0.00     0.074 A 
ATOM     38  C   UNL A   1      40.820  28.536  29.694  1.00  0.00     0.049 A 
ATOM     39  N   UNL A   1      43.053  30.495  29.178  1.00  0.00    -0.248 NA
ATOM     40  C   UNL A   1      41.873  32.074  30.432  1.00  0.00     0.031 C 
ATOM     41  C   UNL A   1      39.789  27.528  29.932  1.00  0.00     0.029 A 
ATOM     42  N   UNL A   1      41.780  27.875  28.967  1.00  0.00    -0.354 N 
ATOM     43  C   UNL A   1      43.783  31.677  29.243  1.00  0.00     0.074 A 
ATOM     44  C   UNL A   1      42.994  32.624  29.996  1.00  0.00     0.031 C 
ATOM     45  C   UNL A   1      40.168  26.377  29.346  1.00  0.00     0.029 A 
ATOM     46  C   UNL A   1      41.448  26.576  28.667  1.00  0.00     0.049 A 
ATOM     47  H   UNL A   1      42.627  28.292  28.687  1.00  0.00     0.167 HD
ATOM     48  C   UNL A   1      45.002  31.953  28.725  1.00  0.00     0.031 A 
ATOM     49  C   UNL A   1      42.094  25.665  27.913  1.00  0.00     0.031 A 
ATOM     50  C   UNL A   1      45.786  31.026  27.957  1.00  0.00     0.049 A 
ATOM     51  C   UNL A   1      43.408  26.025  27.265  1.00  0.00     0.074 A 
ATOM     52  C   UNL A   1      47.034  31.215  27.391  1.00  0.00     0.029 A 
ATOM     53  N   UNL A   1      45.392  29.736  27.640  1.00  0.00    -0.354 N 
ATOM     54  N   UNL A   1      44.094  27.139  27.344  1.00  0.00    -0.248 NA
ATOM     55  C   UNL A   1      44.039  24.992  26.430  1.00  0.00     0.031 C 
ATOM     56  C   UNL A   1      47.371  30.056  26.683  1.00  0.00     0.029 A 
ATOM     57  C   UNL A   1      46.361  29.125  26.864  1.00  0.00     0.049 A 
ATOM     58  H   UNL A   1      44.548  29.316  27.924  1.00  0.00     0.167 HD
ATOM     59  C   UNL A   1      45.250  26.928  26.600  1.00  0.00     0.074 A 
ATOM     60  C   UNL A   1      45.178  25.577  26.088  1.00  0.00     0.031 C 
ATOM     61  C   UNL A   1      46.281  27.777  26.365  1.00  0.00     0.031 A 
BRANCH  48  62
ATOM     62  C   UNL A   1      45.539  33.340  28.939  1.00  0.00    -0.014 A 
ATOM     63  C   UNL A   1      45.212  34.393  28.068  1.00  0.00     0.009 A 
ATOM     64  C   UNL A   1      46.374  33.600  30.037  1.00  0.00     0.009 A 
ATOM     65  C   UNL A   1      45.741  35.668  28.274  1.00  0.00     0.001 A 
ATOM     66  C   UNL A   1      46.876  34.882  30.256  1.00  0.00     0.001 A 
ATOM     67  C   UNL A   1      46.568  35.913  29.369  1.00  0.00     0.000 A 
ENDBRANCH  48  62
BRANCH  49  68
ATOM     68  C   UNL A   1      41.503  24.315  27.696  1.00  0.00    -0.014 A 
ATOM     69  C   UNL A   1      41.885  23.229  28.498  1.00  0.00     0.009 A 
ATOM     70  C   UNL A   1      40.588  24.098  26.654  1.00  0.00     0.009 A 
ATOM     71  C   UNL A   1      41.385  21.949  28.243  1.00  0.00     0.001 A 
ATOM     72  C   UNL A   1      40.067  22.823  26.420  1.00  0.00     0.001 A 
ATOM     73  C   UNL A   1      40.473  21.748  27.208  1.00  0.00     0.000 A 
ENDBRANCH  49  68
BRANCH  61  74
ATOM     74  C   UNL A   1      47.441  27.257  25.559  1.00  0.00    -0.014 A 
ATOM     75  C   UNL A   1      47.541  27.489  24.178  1.00  0.00     0.009 A 
ATOM     76  C   UNL A   1      48.474  26.558  26.205  1.00  0.00     0.009 A 
ATOM     77  C   UNL A   1      48.633  26.998  23.457  1.00  0.00     0.001 A 
ATOM     78  C   UNL A   1      49.579  26.097  25.488  1.00  0.00     0.001 A 
ATOM     79  C   UNL A   1      49.652  26.308  24.112  1.00  0.00     0.000 A 
ENDBRANCH  61  74
ENDBRANCH  35  36
ENDBRANCH  28  30
ENDBRANCH  27  28
ENDBRANCH  26  27
ENDBRANCH  25  26
ENDBRANCH  24  25
ENDBRANCH  23  24
ENDBRANCH  22  23
ENDBRANCH   1  22
TORSDOF 22
ENDMDL
