MODEL 1
REMARK VINA RESULT:     -10.3      0.000      0.000
REMARK SMILES CC1(C)CCN(C(=O)N[C@](C)(C(=O)OCCOCCOCCOC(=O)c2ccc(-c3c4nc(c(-c5ccccc5)c5ccc([nH]5)c(-c5ccccc5)c5nc(c(-c6ccccc6)c6ccc3[nH]6)C=C5)C=C4)cc2)c2ccccc2)C1
REMARK SMILES IDX 18 1 17 2 16 3 15 4 14 5 12 6 13 7 10 8 11 9 9 10 7 11 8 12
REMARK SMILES IDX 6 14 1 15 2 16 3 17 4 18 80 19 5 20 74 21 75 22 79 23 76 24
REMARK SMILES IDX 78 25 77 26 19 27 20 28 21 29 22 30 23 31 24 32 25 33 26 34
REMARK SMILES IDX 27 35 73 36 28 37 72 38 29 39 30 40 31 41 66 42 32 43 71 44
REMARK SMILES IDX 65 45 67 46 33 47 70 48 64 49 63 50 34 52 56 53 41 54 55 55
REMARK SMILES IDX 42 56 45 57 54 58 68 59 43 60 44 61 53 63 69 64 46 65 35 66
REMARK SMILES IDX 36 67 40 68 37 69 39 70 38 71 57 72 58 73 62 74 59 75 61 76
REMARK SMILES IDX 60 77 47 78 48 79 52 80 49 81 51 82 50 83
REMARK H PARENT 9 13 67 51 45 62
REMARK Flexibility Score: inf
ROOT
ATOM      1  C   UNL A   1      34.803  31.471  27.697  1.00  0.00     0.188 C 
ENDROOT
BRANCH   1   2
ATOM      2  O   UNL A   1      34.157  30.471  26.930  1.00  0.00    -0.376 OA
BRANCH   2   3
ATOM      3  C   UNL A   1      32.746  30.316  27.032  1.00  0.00     0.202 C 
BRANCH   3   4
ATOM      4  C   UNL A   1      32.132  28.916  26.930  1.00  0.00     0.261 C 
BRANCH   4   5
ATOM      5  O   UNL A   1      32.624  28.170  25.804  1.00  0.00    -0.461 OA
BRANCH   5   6
ATOM      6  C   UNL A   1      31.650  27.675  24.975  1.00  0.00     0.336 C 
ATOM      7  O   UNL A   1      30.741  26.956  25.372  1.00  0.00    -0.249 OA
BRANCH   6   8
ATOM      8  C   UNL A   1      31.786  28.236  23.509  1.00  0.00     0.162 C 
ATOM      9  C   UNL A   1      33.181  28.922  23.454  1.00  0.00     0.053 C 
BRANCH   8  10
ATOM     10  N   UNL A   1      31.881  27.111  22.526  1.00  0.00    -0.318 N 
ATOM     11  C   UNL A   1      32.900  26.261  22.276  1.00  0.00     0.318 C 
ATOM     12  O   UNL A   1      33.417  26.365  21.159  1.00  0.00    -0.249 OA
ATOM     13  H   UNL A   1      31.076  26.969  21.977  1.00  0.00     0.166 HD
BRANCH  11  14
ATOM     14  N   UNL A   1      33.219  25.229  23.109  1.00  0.00    -0.324 N 
ATOM     15  C   UNL A   1      34.206  23.845  26.280  1.00  0.00     0.013 C 
ATOM     16  C   UNL A   1      34.149  23.738  24.753  1.00  0.00    -0.016 C 
ATOM     17  C   UNL A   1      35.275  22.791  24.306  1.00  0.00     0.013 C 
ATOM     18  C   UNL A   1      32.808  23.179  24.245  1.00  0.00     0.030 C 
ATOM     19  C   UNL A   1      34.251  25.146  24.124  1.00  0.00     0.127 C 
ATOM     20  C   UNL A   1      32.168  24.288  23.430  1.00  0.00     0.122 C 
ENDBRANCH  11  14
ENDBRANCH   8  10
BRANCH   8  21
ATOM     21  C   UNL A   1      30.654  29.207  23.173  1.00  0.00    -0.012 A 
ATOM     22  C   UNL A   1      30.273  30.193  24.106  1.00  0.00     0.007 A 
ATOM     23  C   UNL A   1      29.905  29.096  21.983  1.00  0.00     0.007 A 
ATOM     24  C   UNL A   1      29.187  31.031  23.863  1.00  0.00     0.000 A 
ATOM     25  C   UNL A   1      28.788  29.902  21.767  1.00  0.00     0.000 A 
ATOM     26  C   UNL A   1      28.425  30.854  22.715  1.00  0.00     0.000 A 
ENDBRANCH   8  21
ENDBRANCH   6   8
ENDBRANCH   5   6
ENDBRANCH   4   5
ENDBRANCH   3   4
ENDBRANCH   2   3
ENDBRANCH   1   2
BRANCH   1  27
ATOM     27  C   UNL A   1      34.013  32.327  28.705  1.00  0.00     0.188 C 
BRANCH  27  28
ATOM     28  O   UNL A   1      34.406  33.654  29.005  1.00  0.00    -0.376 OA
BRANCH  28  29
ATOM     29  C   UNL A   1      34.009  34.213  30.248  1.00  0.00     0.202 C 
BRANCH  29  30
ATOM     30  C   UNL A   1      34.915  34.006  31.463  1.00  0.00     0.261 C 
BRANCH  30  31
ATOM     31  O   UNL A   1      34.796  32.702  32.057  1.00  0.00    -0.460 OA
BRANCH  31  32
ATOM     32  C   UNL A   1      35.872  32.318  32.788  1.00  0.00     0.338 C 
ATOM     33  O   UNL A   1      36.028  32.434  33.992  1.00  0.00    -0.246 OA
BRANCH  32  34
ATOM     34  C   UNL A   1      36.817  31.552  31.952  1.00  0.00     0.060 A 
ATOM     35  C   UNL A   1      37.731  30.731  32.619  1.00  0.00     0.016 A 
ATOM     36  C   UNL A   1      36.887  31.702  30.565  1.00  0.00     0.016 A 
ATOM     37  C   UNL A   1      38.734  30.083  31.905  1.00  0.00     0.010 A 
ATOM     38  C   UNL A   1      37.902  31.048  29.849  1.00  0.00     0.010 A 
ATOM     39  C   UNL A   1      38.839  30.243  30.517  1.00  0.00    -0.014 A 
BRANCH  39  40
ATOM     40  C   UNL A   1      40.050  29.719  29.835  1.00  0.00     0.031 A 
ATOM     41  C   UNL A   1      41.242  30.628  29.714  1.00  0.00     0.074 A 
ATOM     42  C   UNL A   1      40.141  28.442  29.416  1.00  0.00     0.049 A 
ATOM     43  N   UNL A   1      42.409  30.399  29.170  1.00  0.00    -0.248 NA
ATOM     44  C   UNL A   1      41.101  31.970  30.303  1.00  0.00     0.031 C 
ATOM     45  C   UNL A   1      39.104  27.424  29.559  1.00  0.00     0.029 A 
ATOM     46  N   UNL A   1      41.180  27.777  28.808  1.00  0.00    -0.354 N 
ATOM     47  C   UNL A   1      43.138  31.567  29.347  1.00  0.00     0.074 A 
ATOM     48  C   UNL A   1      42.288  32.499  30.053  1.00  0.00     0.031 C 
ATOM     49  C   UNL A   1      39.571  26.253  29.088  1.00  0.00     0.029 A 
ATOM     50  C   UNL A   1      40.914  26.454  28.546  1.00  0.00     0.049 A 
ATOM     51  H   UNL A   1      42.036  28.208  28.582  1.00  0.00     0.167 HD
ATOM     52  C   UNL A   1      44.398  31.851  28.943  1.00  0.00     0.031 A 
ATOM     53  C   UNL A   1      41.659  25.524  27.912  1.00  0.00     0.031 A 
ATOM     54  C   UNL A   1      45.229  30.958  28.186  1.00  0.00     0.049 A 
ATOM     55  C   UNL A   1      43.004  25.913  27.348  1.00  0.00     0.074 A 
ATOM     56  C   UNL A   1      46.484  31.192  27.652  1.00  0.00     0.029 A 
ATOM     57  N   UNL A   1      44.883  29.661  27.849  1.00  0.00    -0.354 N 
ATOM     58  N   UNL A   1      43.665  27.038  27.477  1.00  0.00    -0.248 NA
ATOM     59  C   UNL A   1      43.698  24.904  26.531  1.00  0.00     0.031 C 
ATOM     60  C   UNL A   1      46.879  30.048  26.952  1.00  0.00     0.029 A 
ATOM     61  C   UNL A   1      45.895  29.085  27.100  1.00  0.00     0.049 A 
ATOM     62  H   UNL A   1      44.043  29.214  28.103  1.00  0.00     0.167 HD
ATOM     63  C   UNL A   1      44.856  26.862  26.780  1.00  0.00     0.074 A 
ATOM     64  C   UNL A   1      44.838  25.516  26.248  1.00  0.00     0.031 C 
ATOM     65  C   UNL A   1      45.871  27.739  26.590  1.00  0.00     0.031 A 
BRANCH  52  66
ATOM     66  C   UNL A   1      44.911  33.225  29.252  1.00  0.00    -0.014 A 
ATOM     67  C   UNL A   1      44.710  34.292  28.362  1.00  0.00     0.009 A 
ATOM     68  C   UNL A   1      45.611  33.452  30.446  1.00  0.00     0.009 A 
ATOM     69  C   UNL A   1      45.229  35.556  28.653  1.00  0.00     0.001 A 
ATOM     70  C   UNL A   1      46.107  34.721  30.744  1.00  0.00     0.001 A 
ATOM     71  C   UNL A   1      45.924  35.769  29.844  1.00  0.00     0.000 A 
ENDBRANCH  52  66
BRANCH  53  72
ATOM     72  C   UNL A   1      41.147  24.140  27.702  1.00  0.00    -0.014 A 
ATOM     73  C   UNL A   1      41.729  23.052  28.374  1.00  0.00     0.009 A 
ATOM     74  C   UNL A   1      40.140  23.888  26.758  1.00  0.00     0.009 A 
ATOM     75  C   UNL A   1      41.337  21.742  28.079  1.00  0.00     0.001 A 
ATOM     76  C   UNL A   1      39.727  22.581  26.489  1.00  0.00     0.001 A 
ATOM     77  C   UNL A   1      40.335  21.509  27.137  1.00  0.00     0.000 A 
ENDBRANCH  53  72
BRANCH  65  78
ATOM     78  C   UNL A   1      47.070  27.263  25.820  1.00  0.00    -0.014 A 
ATOM     79  C   UNL A   1      48.112  26.563  26.448  1.00  0.00     0.009 A 
ATOM     80  C   UNL A   1      47.129  27.469  24.433  1.00  0.00     0.009 A 
ATOM     81  C   UNL A   1      49.202  26.104  25.705  1.00  0.00     0.001 A 
ATOM     82  C   UNL A   1      48.206  26.985  23.689  1.00  0.00     0.001 A 
ATOM     83  C   UNL A   1      49.245  26.311  24.327  1.00  0.00     0.000 A 
ENDBRANCH  65  78
ENDBRANCH  39  40
ENDBRANCH  32  34
ENDBRANCH  31  32
ENDBRANCH  30  31
ENDBRANCH  29  30
ENDBRANCH  28  29
ENDBRANCH  27  28
ENDBRANCH   1  27
TORSDOF 20
ENDMDL
MODEL 2
REMARK VINA RESULT:     -10.2      4.461      9.704
REMARK SMILES CC1(C)CCN(C(=O)N[C@](C)(C(=O)OCCOCCOCCOC(=O)c2ccc(-c3c4nc(c(-c5ccccc5)c5ccc([nH]5)c(-c5ccccc5)c5nc(c(-c6ccccc6)c6ccc3[nH]6)C=C5)C=C4)cc2)c2ccccc2)C1
REMARK SMILES IDX 18 1 17 2 16 3 15 4 14 5 12 6 13 7 10 8 11 9 9 10 7 11 8 12
REMARK SMILES IDX 6 14 1 15 2 16 3 17 4 18 80 19 5 20 74 21 75 22 79 23 76 24
REMARK SMILES IDX 78 25 77 26 19 27 20 28 21 29 22 30 23 31 24 32 25 33 26 34
REMARK SMILES IDX 27 35 73 36 28 37 72 38 29 39 30 40 31 41 66 42 32 43 71 44
REMARK SMILES IDX 65 45 67 46 33 47 70 48 64 49 63 50 34 52 56 53 41 54 55 55
REMARK SMILES IDX 42 56 45 57 54 58 68 59 43 60 44 61 53 63 69 64 46 65 35 66
REMARK SMILES IDX 36 67 40 68 37 69 39 70 38 71 57 72 58 73 62 74 59 75 61 76
REMARK SMILES IDX 60 77 47 78 48 79 52 80 49 81 51 82 50 83
REMARK H PARENT 9 13 67 51 45 62
REMARK Flexibility Score: inf
ROOT
ATOM      1  C   UNL A   1      37.896  19.760  24.824  1.00  0.00     0.188 C 
ENDROOT
BRANCH   1   2
ATOM      2  O   UNL A   1      37.136  20.817  25.383  1.00  0.00    -0.376 OA
BRANCH   2   3
ATOM      3  C   UNL A   1      37.236  22.122  24.822  1.00  0.00     0.202 C 
BRANCH   3   4
ATOM      4  C   UNL A   1      36.184  22.590  23.810  1.00  0.00     0.261 C 
BRANCH   4   5
ATOM      5  O   UNL A   1      34.951  22.991  24.430  1.00  0.00    -0.461 OA
BRANCH   5   6
ATOM      6  C   UNL A   1      33.820  22.545  23.796  1.00  0.00     0.336 C 
ATOM      7  O   UNL A   1      33.565  22.811  22.627  1.00  0.00    -0.249 OA
BRANCH   6   8
ATOM      8  C   UNL A   1      32.977  21.577  24.709  1.00  0.00     0.162 C 
ATOM      9  C   UNL A   1      33.565  21.739  26.140  1.00  0.00     0.053 C 
BRANCH   8  10
ATOM     10  N   UNL A   1      31.566  22.064  24.824  1.00  0.00    -0.318 N 
ATOM     11  C   UNL A   1      31.022  22.949  25.686  1.00  0.00     0.318 C 
ATOM     12  O   UNL A   1      30.196  22.482  26.477  1.00  0.00    -0.249 OA
ATOM     13  H   UNL A   1      30.939  21.679  24.171  1.00  0.00     0.166 HD
BRANCH  11  14
ATOM     14  N   UNL A   1      31.214  24.295  25.578  1.00  0.00    -0.324 N 
ATOM     15  C   UNL A   1      33.248  27.225  25.109  1.00  0.00     0.013 C 
ATOM     16  C   UNL A   1      31.981  26.574  25.670  1.00  0.00    -0.016 C 
ATOM     17  C   UNL A   1      31.471  27.456  26.822  1.00  0.00     0.013 C 
ATOM     18  C   UNL A   1      30.863  26.445  24.619  1.00  0.00     0.030 C 
ATOM     19  C   UNL A   1      32.283  25.122  26.102  1.00  0.00     0.127 C 
ATOM     20  C   UNL A   1      30.626  24.957  24.433  1.00  0.00     0.122 C 
ENDBRANCH  11  14
ENDBRANCH   8  10
BRANCH   8  21
ATOM     21  C   UNL A   1      33.055  20.132  24.216  1.00  0.00    -0.012 A 
ATOM     22  C   UNL A   1      34.045  19.267  24.725  1.00  0.00     0.007 A 
ATOM     23  C   UNL A   1      32.218  19.649  23.188  1.00  0.00     0.007 A 
ATOM     24  C   UNL A   1      34.194  17.975  24.228  1.00  0.00     0.000 A 
ATOM     25  C   UNL A   1      32.405  18.374  22.657  1.00  0.00     0.000 A 
ATOM     26  C   UNL A   1      33.403  17.548  23.169  1.00  0.00     0.000 A 
ENDBRANCH   8  21
ENDBRANCH   6   8
ENDBRANCH   5   6
ENDBRANCH   4   5
ENDBRANCH   3   4
ENDBRANCH   2   3
ENDBRANCH   1   2
BRANCH   1  27
ATOM     27  C   UNL A   1      39.283  19.400  25.389  1.00  0.00     0.188 C 
BRANCH  27  28
ATOM     28  O   UNL A   1      39.976  20.288  26.248  1.00  0.00    -0.376 OA
BRANCH  28  29
ATOM     29  C   UNL A   1      41.385  20.162  26.355  1.00  0.00     0.202 C 
BRANCH  29  30
ATOM     30  C   UNL A   1      42.252  21.384  26.044  1.00  0.00     0.261 C 
BRANCH  30  31
ATOM     31  O   UNL A   1      41.517  22.619  26.005  1.00  0.00    -0.460 OA
BRANCH  31  32
ATOM     32  C   UNL A   1      42.284  23.723  25.822  1.00  0.00     0.338 C 
ATOM     33  O   UNL A   1      43.200  23.865  25.031  1.00  0.00    -0.246 OA
BRANCH  32  34
ATOM     34  C   UNL A   1      41.757  24.854  26.612  1.00  0.00     0.060 A 
ATOM     35  C   UNL A   1      42.408  26.083  26.471  1.00  0.00     0.016 A 
ATOM     36  C   UNL A   1      40.726  24.706  27.542  1.00  0.00     0.016 A 
ATOM     37  C   UNL A   1      42.049  27.157  27.280  1.00  0.00     0.010 A 
ATOM     38  C   UNL A   1      40.369  25.791  28.358  1.00  0.00     0.010 A 
ATOM     39  C   UNL A   1      41.038  27.020  28.239  1.00  0.00    -0.014 A 
BRANCH  39  40
ATOM     40  C   UNL A   1      40.847  28.116  29.225  1.00  0.00     0.031 A 
ATOM     41  C   UNL A   1      41.884  28.286  30.300  1.00  0.00     0.074 A 
ATOM     42  C   UNL A   1      39.839  29.004  29.124  1.00  0.00     0.049 A 
ATOM     43  N   UNL A   1      41.942  29.167  31.265  1.00  0.00    -0.248 NA
ATOM     44  C   UNL A   1      43.017  27.346  30.269  1.00  0.00     0.031 C 
ATOM     45  C   UNL A   1      38.821  29.020  28.078  1.00  0.00     0.029 A 
ATOM     46  N   UNL A   1      39.529  30.090  29.909  1.00  0.00    -0.354 N 
ATOM     47  C   UNL A   1      43.112  28.885  31.957  1.00  0.00     0.074 A 
ATOM     48  C   UNL A   1      43.737  27.759  31.300  1.00  0.00     0.031 C 
ATOM     49  C   UNL A   1      38.021  30.086  28.261  1.00  0.00     0.029 A 
ATOM     50  C   UNL A   1      38.426  30.788  29.478  1.00  0.00     0.049 A 
ATOM     51  H   UNL A   1      40.049  30.345  30.704  1.00  0.00     0.167 HD
ATOM     52  C   UNL A   1      43.617  29.494  33.055  1.00  0.00     0.031 A 
ATOM     53  C   UNL A   1      37.799  31.851  30.024  1.00  0.00     0.031 A 
ATOM     54  C   UNL A   1      42.975  30.570  33.754  1.00  0.00     0.049 A 
ATOM     55  C   UNL A   1      38.307  32.419  31.327  1.00  0.00     0.074 A 
ATOM     56  C   UNL A   1      43.365  31.189  34.929  1.00  0.00     0.029 A 
ATOM     57  N   UNL A   1      41.803  31.183  33.346  1.00  0.00    -0.354 N 
ATOM     58  N   UNL A   1      39.388  32.112  32.003  1.00  0.00    -0.248 NA
ATOM     59  C   UNL A   1      37.491  33.473  31.954  1.00  0.00     0.031 C 
ATOM     60  C   UNL A   1      42.401  32.148  35.256  1.00  0.00     0.029 A 
ATOM     61  C   UNL A   1      41.445  32.164  34.254  1.00  0.00     0.049 A 
ATOM     62  H   UNL A   1      41.299  30.954  32.532  1.00  0.00     0.167 HD
ATOM     63  C   UNL A   1      39.392  32.946  33.115  1.00  0.00     0.074 A 
ATOM     64  C   UNL A   1      38.219  33.789  33.016  1.00  0.00     0.031 C 
ATOM     65  C   UNL A   1      40.284  33.005  34.134  1.00  0.00     0.031 A 
BRANCH  52  66
ATOM     66  C   UNL A   1      44.897  28.939  33.605  1.00  0.00    -0.014 A 
ATOM     67  C   UNL A   1      46.142  29.412  33.163  1.00  0.00     0.009 A 
ATOM     68  C   UNL A   1      44.854  27.926  34.574  1.00  0.00     0.009 A 
ATOM     69  C   UNL A   1      47.322  28.855  33.661  1.00  0.00     0.001 A 
ATOM     70  C   UNL A   1      46.034  27.389  35.088  1.00  0.00     0.001 A 
ATOM     71  C   UNL A   1      47.266  27.848  34.625  1.00  0.00     0.000 A 
ENDBRANCH  52  66
BRANCH  53  72
ATOM     72  C   UNL A   1      36.577  32.431  29.397  1.00  0.00    -0.014 A 
ATOM     73  C   UNL A   1      36.657  33.593  28.612  1.00  0.00     0.009 A 
ATOM     74  C   UNL A   1      35.313  31.880  29.658  1.00  0.00     0.009 A 
ATOM     75  C   UNL A   1      35.496  34.209  28.134  1.00  0.00     0.001 A 
ATOM     76  C   UNL A   1      34.157  32.479  29.151  1.00  0.00     0.001 A 
ATOM     77  C   UNL A   1      34.248  33.650  28.403  1.00  0.00     0.000 A 
ENDBRANCH  53  72
BRANCH  65  78
ATOM     78  C   UNL A   1      40.060  34.044  35.197  1.00  0.00    -0.014 A 
ATOM     79  C   UNL A   1      39.398  33.734  36.396  1.00  0.00     0.009 A 
ATOM     80  C   UNL A   1      40.571  35.339  35.018  1.00  0.00     0.009 A 
ATOM     81  C   UNL A   1      39.230  34.708  37.381  1.00  0.00     0.001 A 
ATOM     82  C   UNL A   1      40.424  36.304  36.016  1.00  0.00     0.001 A 
ATOM     83  C   UNL A   1      39.746  35.990  37.193  1.00  0.00     0.000 A 
ENDBRANCH  65  78
ENDBRANCH  39  40
ENDBRANCH  32  34
ENDBRANCH  31  32
ENDBRANCH  30  31
ENDBRANCH  29  30
ENDBRANCH  28  29
ENDBRANCH  27  28
ENDBRANCH   1  27
TORSDOF 20
ENDMDL
MODEL 3
REMARK VINA RESULT:     -10.2      4.613      9.645
REMARK SMILES CC1(C)CCN(C(=O)N[C@](C)(C(=O)OCCOCCOCCOC(=O)c2ccc(-c3c4nc(c(-c5ccccc5)c5ccc([nH]5)c(-c5ccccc5)c5nc(c(-c6ccccc6)c6ccc3[nH]6)C=C5)C=C4)cc2)c2ccccc2)C1
REMARK SMILES IDX 18 1 17 2 16 3 15 4 14 5 12 6 13 7 10 8 11 9 9 10 7 11 8 12
REMARK SMILES IDX 6 14 1 15 2 16 3 17 4 18 80 19 5 20 74 21 75 22 79 23 76 24
REMARK SMILES IDX 78 25 77 26 19 27 20 28 21 29 22 30 23 31 24 32 25 33 26 34
REMARK SMILES IDX 27 35 73 36 28 37 72 38 29 39 30 40 31 41 66 42 32 43 71 44
REMARK SMILES IDX 65 45 67 46 33 47 70 48 64 49 63 50 34 52 56 53 41 54 55 55
REMARK SMILES IDX 42 56 45 57 54 58 68 59 43 60 44 61 53 63 69 64 46 65 35 66
REMARK SMILES IDX 36 67 40 68 37 69 39 70 38 71 57 72 58 73 62 74 59 75 61 76
REMARK SMILES IDX 60 77 47 78 48 79 52 80 49 81 51 82 50 83
REMARK H PARENT 9 13 67 51 45 62
REMARK Flexibility Score: inf
ROOT
ATOM      1  C   UNL A   1      39.729  21.020  26.328  1.00  0.00     0.188 C 
ENDROOT
BRANCH   1   2
ATOM      2  O   UNL A   1      39.081  20.012  25.574  1.00  0.00    -0.376 OA
BRANCH   2   3
ATOM      3  C   UNL A   1      37.856  20.311  24.914  1.00  0.00     0.202 C 
BRANCH   3   4
ATOM      4  C   UNL A   1      37.148  21.639  25.204  1.00  0.00     0.261 C 
BRANCH   4   5
ATOM      5  O   UNL A   1      35.771  21.641  24.792  1.00  0.00    -0.461 OA
BRANCH   5   6
ATOM      6  C   UNL A   1      35.438  22.638  23.912  1.00  0.00     0.336 C 
ATOM      7  O   UNL A   1      36.218  23.070  23.071  1.00  0.00    -0.249 OA
BRANCH   6   8
ATOM      8  C   UNL A   1      33.925  23.058  24.044  1.00  0.00     0.162 C 
ATOM      9  C   UNL A   1      33.247  22.587  22.726  1.00  0.00     0.053 C 
BRANCH   8  10
ATOM     10  N   UNL A   1      33.254  22.261  25.119  1.00  0.00    -0.318 N 
ATOM     11  C   UNL A   1      32.375  21.241  25.022  1.00  0.00     0.318 C 
ATOM     12  O   UNL A   1      31.239  21.476  25.443  1.00  0.00    -0.249 OA
ATOM     13  H   UNL A   1      33.490  22.521  26.038  1.00  0.00     0.166 HD
BRANCH  11  14
ATOM     14  N   UNL A   1      32.750  19.978  24.665  1.00  0.00    -0.324 N 
ATOM     15  C   UNL A   1      32.852  16.409  25.107  1.00  0.00     0.013 C 
ATOM     16  C   UNL A   1      33.483  17.689  24.551  1.00  0.00    -0.016 C 
ATOM     17  C   UNL A   1      34.985  17.426  24.358  1.00  0.00     0.013 C 
ATOM     18  C   UNL A   1      32.881  18.109  23.198  1.00  0.00     0.030 C 
ATOM     19  C   UNL A   1      33.188  18.875  25.497  1.00  0.00     0.127 C 
ATOM     20  C   UNL A   1      32.210  19.451  23.431  1.00  0.00     0.122 C 
ENDBRANCH  11  14
ENDBRANCH   8  10
BRANCH   8  21
ATOM     21  C   UNL A   1      33.779  24.565  24.260  1.00  0.00    -0.012 A 
ATOM     22  C   UNL A   1      33.564  25.416  23.157  1.00  0.00     0.007 A 
ATOM     23  C   UNL A   1      33.943  25.155  25.530  1.00  0.00     0.007 A 
ATOM     24  C   UNL A   1      33.517  26.798  23.315  1.00  0.00     0.000 A 
ATOM     25  C   UNL A   1      33.947  26.541  25.676  1.00  0.00     0.000 A 
ATOM     26  C   UNL A   1      33.750  27.356  24.566  1.00  0.00     0.000 A 
ENDBRANCH   8  21
ENDBRANCH   6   8
ENDBRANCH   5   6
ENDBRANCH   4   5
ENDBRANCH   3   4
ENDBRANCH   2   3
ENDBRANCH   1   2
BRANCH   1  27
ATOM     27  C   UNL A   1      41.117  21.547  25.914  1.00  0.00     0.188 C 
BRANCH  27  28
ATOM     28  O   UNL A   1      42.283  21.177  26.627  1.00  0.00    -0.376 OA
BRANCH  28  29
ATOM     29  C   UNL A   1      43.540  21.621  26.145  1.00  0.00     0.202 C 
BRANCH  29  30
ATOM     30  C   UNL A   1      43.616  22.203  24.732  1.00  0.00     0.261 C 
BRANCH  30  31
ATOM     31  O   UNL A   1      43.113  23.546  24.632  1.00  0.00    -0.460 OA
BRANCH  31  32
ATOM     32  C   UNL A   1      43.900  24.485  25.215  1.00  0.00     0.338 C 
ATOM     33  O   UNL A   1      45.065  24.735  24.959  1.00  0.00    -0.246 OA
BRANCH  32  34
ATOM     34  C   UNL A   1      43.105  25.331  26.126  1.00  0.00     0.060 A 
ATOM     35  C   UNL A   1      43.474  26.676  26.225  1.00  0.00     0.016 A 
ATOM     36  C   UNL A   1      42.094  24.817  26.942  1.00  0.00     0.016 A 
ATOM     37  C   UNL A   1      42.855  27.500  27.160  1.00  0.00     0.010 A 
ATOM     38  C   UNL A   1      41.474  25.651  27.885  1.00  0.00     0.010 A 
ATOM     39  C   UNL A   1      41.860  26.996  28.007  1.00  0.00    -0.014 A 
BRANCH  39  40
ATOM     40  C   UNL A   1      41.392  27.846  29.132  1.00  0.00     0.031 A 
ATOM     41  C   UNL A   1      42.189  27.832  30.407  1.00  0.00     0.074 A 
ATOM     42  C   UNL A   1      40.349  28.689  29.009  1.00  0.00     0.049 A 
ATOM     43  N   UNL A   1      41.987  28.488  31.520  1.00  0.00    -0.248 NA
ATOM     44  C   UNL A   1      43.385  26.972  30.420  1.00  0.00     0.031 C 
ATOM     45  C   UNL A   1      39.549  28.882  27.803  1.00  0.00     0.029 A 
ATOM     46  N   UNL A   1      39.803  29.568  29.915  1.00  0.00    -0.354 N 
ATOM     47  C   UNL A   1      43.026  28.119  32.364  1.00  0.00     0.074 A 
ATOM     48  C   UNL A   1      43.859  27.188  31.636  1.00  0.00     0.031 C 
ATOM     49  C   UNL A   1      38.639  29.847  28.029  1.00  0.00     0.029 A 
ATOM     50  C   UNL A   1      38.744  30.291  29.417  1.00  0.00     0.049 A 
ATOM     51  H   UNL A   1      40.140  29.671  30.834  1.00  0.00     0.167 HD
ATOM     52  C   UNL A   1      43.259  28.503  33.641  1.00  0.00     0.031 A 
ATOM     53  C   UNL A   1      37.937  31.185  30.026  1.00  0.00     0.031 A 
ATOM     54  C   UNL A   1      42.407  29.376  34.396  1.00  0.00     0.049 A 
ATOM     55  C   UNL A   1      38.138  31.485  31.492  1.00  0.00     0.074 A 
ATOM     56  C   UNL A   1      42.512  29.748  35.725  1.00  0.00     0.029 A 
ATOM     57  N   UNL A   1      41.284  30.007  33.889  1.00  0.00    -0.354 N 
ATOM     58  N   UNL A   1      39.095  31.090  32.297  1.00  0.00    -0.248 NA
ATOM     59  C   UNL A   1      37.130  32.342  32.138  1.00  0.00     0.031 C 
ATOM     60  C   UNL A   1      41.425  30.571  36.034  1.00  0.00     0.029 A 
ATOM     61  C   UNL A   1      40.678  30.756  34.883  1.00  0.00     0.049 A 
ATOM     62  H   UNL A   1      40.965  29.935  32.960  1.00  0.00     0.167 HD
ATOM     63  C   UNL A   1      38.816  31.668  33.531  1.00  0.00     0.074 A 
ATOM     64  C   UNL A   1      37.615  32.458  33.366  1.00  0.00     0.031 C 
ATOM     65  C   UNL A   1      39.491  31.549  34.700  1.00  0.00     0.031 A 
BRANCH  52  66
ATOM     66  C   UNL A   1      44.456  27.902  34.316  1.00  0.00    -0.014 A 
ATOM     67  C   UNL A   1      45.676  28.593  34.381  1.00  0.00     0.009 A 
ATOM     68  C   UNL A   1      44.360  26.626  34.891  1.00  0.00     0.009 A 
ATOM     69  C   UNL A   1      46.788  28.000  34.982  1.00  0.00     0.001 A 
ATOM     70  C   UNL A   1      45.466  26.046  35.512  1.00  0.00     0.001 A 
ATOM     71  C   UNL A   1      46.681  26.730  35.550  1.00  0.00     0.000 A 
ENDBRANCH  52  66
BRANCH  53  72
ATOM     72  C   UNL A   1      36.809  31.828  29.294  1.00  0.00    -0.014 A 
ATOM     73  C   UNL A   1      36.972  33.087  28.693  1.00  0.00     0.009 A 
ATOM     74  C   UNL A   1      35.540  31.230  29.272  1.00  0.00     0.009 A 
ATOM     75  C   UNL A   1      35.880  33.747  28.119  1.00  0.00     0.001 A 
ATOM     76  C   UNL A   1      34.458  31.877  28.670  1.00  0.00     0.001 A 
ATOM     77  C   UNL A   1      34.625  33.140  28.108  1.00  0.00     0.000 A 
ENDBRANCH  53  72
BRANCH  65  78
ATOM     78  C   UNL A   1      38.982  32.327  35.882  1.00  0.00    -0.014 A 
ATOM     79  C   UNL A   1      38.085  31.759  36.800  1.00  0.00     0.009 A 
ATOM     80  C   UNL A   1      39.452  33.630  36.108  1.00  0.00     0.009 A 
ATOM     81  C   UNL A   1      37.650  32.491  37.906  1.00  0.00     0.001 A 
ATOM     82  C   UNL A   1      39.037  34.350  37.229  1.00  0.00     0.001 A 
ATOM     83  C   UNL A   1      38.129  33.783  38.122  1.00  0.00     0.000 A 
ENDBRANCH  65  78
ENDBRANCH  39  40
ENDBRANCH  32  34
ENDBRANCH  31  32
ENDBRANCH  30  31
ENDBRANCH  29  30
ENDBRANCH  28  29
ENDBRANCH  27  28
ENDBRANCH   1  27
TORSDOF 20
ENDMDL
