MODEL 1
REMARK VINA RESULT:     -10.5      0.000      0.000
REMARK SMILES CC(C)(C)c1cc2c(cc1Cl)C=C(C(=O)OCCOCCOCCOC(=O)c1ccc(-c3c4nc(c(-c5ccccc5)c5ccc([nH]5)c(-c5ccccc5)c5nc(c(-c6ccccc6)c6ccc3[nH]6)C=C5)C=C4)cc1)[C@H](C(F)(F)F)O2
REMARK SMILES IDX 21 1 20 2 19 3 18 4 17 5 16 6 14 7 15 8 13 9 5 10 6 11 10 12
REMARK SMILES IDX 7 13 9 14 11 15 8 16 81 17 12 18 76 19 2 20 1 21 3 22 4 23
REMARK SMILES IDX 77 24 78 25 79 26 80 27 22 28 23 29 24 30 25 31 26 32 27 33
REMARK SMILES IDX 28 34 29 35 75 36 30 37 74 38 31 39 32 40 33 41 68 42 34 43
REMARK SMILES IDX 73 44 67 45 69 46 35 47 72 48 66 49 65 50 36 52 58 53 43 54
REMARK SMILES IDX 57 55 44 56 47 57 56 58 70 59 45 60 46 61 55 63 71 64 48 65
REMARK SMILES IDX 37 66 38 67 42 68 39 69 41 70 40 71 59 72 60 73 64 74 61 75
REMARK SMILES IDX 63 76 62 77 49 78 50 79 54 80 51 81 53 82 52 83
REMARK H PARENT 69 51 47 62
REMARK Flexibility Score: inf
ROOT
ATOM      1  C   UNL A   1      44.777  18.701  25.227  1.00  0.00     0.188 C 
ENDROOT
BRANCH   1   2
ATOM      2  C   UNL A   1      43.350  18.634  25.801  1.00  0.00     0.188 C 
BRANCH   2   3
ATOM      3  O   UNL A   1      42.347  19.504  25.315  1.00  0.00    -0.376 OA
BRANCH   3   4
ATOM      4  C   UNL A   1      41.325  19.962  26.191  1.00  0.00     0.202 C 
BRANCH   4   5
ATOM      5  C   UNL A   1      39.841  19.699  25.892  1.00  0.00     0.261 C 
BRANCH   5   6
ATOM      6  O   UNL A   1      39.091  20.868  25.514  1.00  0.00    -0.460 OA
BRANCH   6   7
ATOM      7  C   UNL A   1      37.783  20.664  25.255  1.00  0.00     0.338 C 
ATOM      8  O   UNL A   1      37.261  19.600  24.959  1.00  0.00    -0.246 OA
BRANCH   7   9
ATOM      9  C   UNL A   1      36.993  21.874  25.547  1.00  0.00     0.087 C 
ATOM     10  C   UNL A   1      33.000  24.990  25.804  1.00  0.00    -0.020 A 
ATOM     11  C   UNL A   1      34.379  25.115  25.495  1.00  0.00     0.053 A 
ATOM     12  C   UNL A   1      32.572  23.699  26.188  1.00  0.00     0.045 A 
ATOM     13  C   UNL A   1      35.265  24.034  25.540  1.00  0.00     0.128 A 
ATOM     14  C   UNL A   1      33.473  22.622  26.271  1.00  0.00     0.032 A 
ATOM     15  Cl  UNL A   1      30.927  23.264  26.499  1.00  0.00    -0.084 Cl
ATOM     16  C   UNL A   1      34.814  22.783  25.933  1.00  0.00     0.019 A 
ATOM     17  O   UNL A   1      36.535  24.269  25.088  1.00  0.00    -0.475 OA
ATOM     18  C   UNL A   1      35.707  21.642  25.850  1.00  0.00     0.027 C 
ATOM     19  C   UNL A   1      37.557  23.253  25.327  1.00  0.00     0.316 C 
BRANCH  10  20
ATOM     20  C   UNL A   1      32.064  26.211  25.598  1.00  0.00    -0.012 C 
ATOM     21  C   UNL A   1      32.739  27.450  26.222  1.00  0.00     0.016 C 
ATOM     22  C   UNL A   1      30.687  26.049  26.300  1.00  0.00     0.016 C 
ATOM     23  C   UNL A   1      31.719  26.495  24.118  1.00  0.00     0.016 C 
ENDBRANCH  10  20
BRANCH  19  24
ATOM     24  C   UNL A   1      38.504  23.788  26.415  1.00  0.00     0.430 C 
ATOM     25  F   UNL A   1      39.095  22.795  27.112  1.00  0.00    -0.167 F 
ATOM     26  F   UNL A   1      39.512  24.508  25.858  1.00  0.00    -0.167 F 
ATOM     27  F   UNL A   1      37.874  24.607  27.287  1.00  0.00    -0.167 F 
ENDBRANCH  19  24
ENDBRANCH   7   9
ENDBRANCH   6   7
ENDBRANCH   5   6
ENDBRANCH   4   5
ENDBRANCH   3   4
ENDBRANCH   2   3
ENDBRANCH   1   2
BRANCH   1  28
ATOM     28  O   UNL A   1      45.128  19.798  24.424  1.00  0.00    -0.376 OA
BRANCH  28  29
ATOM     29  C   UNL A   1      46.094  20.742  24.850  1.00  0.00     0.202 C 
BRANCH  29  30
ATOM     30  C   UNL A   1      45.821  22.009  25.683  1.00  0.00     0.261 C 
BRANCH  30  31
ATOM     31  O   UNL A   1      44.536  22.154  26.284  1.00  0.00    -0.460 OA
BRANCH  31  32
ATOM     32  C   UNL A   1      43.637  22.890  25.575  1.00  0.00     0.338 C 
ATOM     33  O   UNL A   1      43.184  22.652  24.477  1.00  0.00    -0.246 OA
BRANCH  32  34
ATOM     34  C   UNL A   1      43.129  23.944  26.475  1.00  0.00     0.060 A 
ATOM     35  C   UNL A   1      42.236  23.621  27.495  1.00  0.00     0.016 A 
ATOM     36  C   UNL A   1      43.532  25.271  26.268  1.00  0.00     0.016 A 
ATOM     37  C   UNL A   1      41.751  24.635  28.321  1.00  0.00     0.010 A 
ATOM     38  C   UNL A   1      43.032  26.286  27.085  1.00  0.00     0.010 A 
ATOM     39  C   UNL A   1      42.152  25.971  28.129  1.00  0.00    -0.014 A 
BRANCH  39  40
ATOM     40  C   UNL A   1      41.784  26.995  29.136  1.00  0.00     0.031 A 
ATOM     41  C   UNL A   1      40.586  27.877  28.974  1.00  0.00     0.074 A 
ATOM     42  C   UNL A   1      42.566  27.106  30.227  1.00  0.00     0.049 A 
ATOM     43  N   UNL A   1      40.085  28.733  29.828  1.00  0.00    -0.248 NA
ATOM     44  C   UNL A   1      39.858  27.798  27.700  1.00  0.00     0.031 C 
ATOM     45  C   UNL A   1      43.769  26.309  30.473  1.00  0.00     0.029 A 
ATOM     46  N   UNL A   1      42.461  27.908  31.334  1.00  0.00    -0.354 N 
ATOM     47  C   UNL A   1      38.969  29.279  29.209  1.00  0.00     0.074 A 
ATOM     48  C   UNL A   1      38.894  28.693  27.887  1.00  0.00     0.031 C 
ATOM     49  C   UNL A   1      44.268  26.635  31.675  1.00  0.00     0.029 A 
ATOM     50  C   UNL A   1      43.443  27.684  32.266  1.00  0.00     0.049 A 
ATOM     51  H   UNL A   1      41.749  28.579  31.448  1.00  0.00     0.167 HD
ATOM     52  C   UNL A   1      38.083  30.171  29.714  1.00  0.00     0.031 A 
ATOM     53  C   UNL A   1      43.658  28.250  33.470  1.00  0.00     0.031 A 
ATOM     54  C   UNL A   1      38.184  30.763  31.026  1.00  0.00     0.049 A 
ATOM     55  C   UNL A   1      42.688  29.276  33.981  1.00  0.00     0.074 A 
ATOM     56  C   UNL A   1      37.306  31.642  31.637  1.00  0.00     0.029 A 
ATOM     57  N   UNL A   1      39.222  30.551  31.921  1.00  0.00    -0.354 N 
ATOM     58  N   UNL A   1      41.585  29.715  33.425  1.00  0.00    -0.248 NA
ATOM     59  C   UNL A   1      42.978  29.875  35.292  1.00  0.00     0.031 C 
ATOM     60  C   UNL A   1      37.853  32.029  32.861  1.00  0.00     0.029 A 
ATOM     61  C   UNL A   1      39.026  31.319  33.059  1.00  0.00     0.049 A 
ATOM     62  H   UNL A   1      39.984  29.947  31.772  1.00  0.00     0.167 HD
ATOM     63  C   UNL A   1      41.037  30.619  34.324  1.00  0.00     0.074 A 
ATOM     64  C   UNL A   1      41.919  30.653  35.473  1.00  0.00     0.031 C 
ATOM     65  C   UNL A   1      39.904  31.353  34.203  1.00  0.00     0.031 A 
BRANCH  52  66
ATOM     66  C   UNL A   1      36.904  30.571  28.868  1.00  0.00    -0.014 A 
ATOM     67  C   UNL A   1      36.751  31.909  28.464  1.00  0.00     0.009 A 
ATOM     68  C   UNL A   1      35.869  29.661  28.598  1.00  0.00     0.009 A 
ATOM     69  C   UNL A   1      35.579  32.332  27.835  1.00  0.00     0.001 A 
ATOM     70  C   UNL A   1      34.711  30.081  27.940  1.00  0.00     0.001 A 
ATOM     71  C   UNL A   1      34.560  31.418  27.572  1.00  0.00     0.000 A 
ENDBRANCH  52  66
BRANCH  53  72
ATOM     72  C   UNL A   1      44.825  27.809  34.279  1.00  0.00    -0.014 A 
ATOM     73  C   UNL A   1      46.081  28.418  34.111  1.00  0.00     0.009 A 
ATOM     74  C   UNL A   1      44.710  26.736  35.175  1.00  0.00     0.009 A 
ATOM     75  C   UNL A   1      47.200  27.942  34.796  1.00  0.00     0.001 A 
ATOM     76  C   UNL A   1      45.824  26.285  35.886  1.00  0.00     0.001 A 
ATOM     77  C   UNL A   1      47.070  26.878  35.687  1.00  0.00     0.000 A 
ENDBRANCH  53  72
BRANCH  65  78
ATOM     78  C   UNL A   1      39.519  32.264  35.338  1.00  0.00    -0.014 A 
ATOM     79  C   UNL A   1      40.064  33.558  35.409  1.00  0.00     0.009 A 
ATOM     80  C   UNL A   1      38.726  31.806  36.401  1.00  0.00     0.009 A 
ATOM     81  C   UNL A   1      39.851  34.361  36.531  1.00  0.00     0.001 A 
ATOM     82  C   UNL A   1      38.485  32.625  37.507  1.00  0.00     0.001 A 
ATOM     83  C   UNL A   1      39.059  33.895  37.578  1.00  0.00     0.000 A 
ENDBRANCH  65  78
ENDBRANCH  39  40
ENDBRANCH  32  34
ENDBRANCH  31  32
ENDBRANCH  30  31
ENDBRANCH  29  30
ENDBRANCH  28  29
ENDBRANCH   1  28
TORSDOF 19
ENDMDL
MODEL 2
REMARK VINA RESULT:     -10.5      1.814      2.245
REMARK SMILES CC(C)(C)c1cc2c(cc1Cl)C=C(C(=O)OCCOCCOCCOC(=O)c1ccc(-c3c4nc(c(-c5ccccc5)c5ccc([nH]5)c(-c5ccccc5)c5nc(c(-c6ccccc6)c6ccc3[nH]6)C=C5)C=C4)cc1)[C@H](C(F)(F)F)O2
REMARK SMILES IDX 21 1 20 2 19 3 18 4 17 5 16 6 14 7 15 8 13 9 5 10 6 11 10 12
REMARK SMILES IDX 7 13 9 14 11 15 8 16 81 17 12 18 76 19 2 20 1 21 3 22 4 23
REMARK SMILES IDX 77 24 78 25 79 26 80 27 22 28 23 29 24 30 25 31 26 32 27 33
REMARK SMILES IDX 28 34 29 35 75 36 30 37 74 38 31 39 32 40 33 41 68 42 34 43
REMARK SMILES IDX 73 44 67 45 69 46 35 47 72 48 66 49 65 50 36 52 58 53 43 54
REMARK SMILES IDX 57 55 44 56 47 57 56 58 70 59 45 60 46 61 55 63 71 64 48 65
REMARK SMILES IDX 37 66 38 67 42 68 39 69 41 70 40 71 59 72 60 73 64 74 61 75
REMARK SMILES IDX 63 76 62 77 49 78 50 79 54 80 51 81 53 82 52 83
REMARK H PARENT 69 51 47 62
REMARK Flexibility Score: inf
ROOT
ATOM      1  C   UNL A   1      43.044  19.048  25.588  1.00  0.00     0.188 C 
ENDROOT
BRANCH   1   2
ATOM      2  C   UNL A   1      41.901  19.848  26.238  1.00  0.00     0.188 C 
BRANCH   2   3
ATOM      3  O   UNL A   1      41.206  20.829  25.493  1.00  0.00    -0.376 OA
BRANCH   3   4
ATOM      4  C   UNL A   1      40.092  21.496  26.071  1.00  0.00     0.202 C 
BRANCH   4   5
ATOM      5  C   UNL A   1      38.706  20.836  26.125  1.00  0.00     0.261 C 
BRANCH   5   6
ATOM      6  O   UNL A   1      37.737  21.405  25.224  1.00  0.00    -0.460 OA
BRANCH   6   7
ATOM      7  C   UNL A   1      36.654  20.641  24.973  1.00  0.00     0.338 C 
ATOM      8  O   UNL A   1      36.623  19.420  24.925  1.00  0.00    -0.246 OA
BRANCH   7   9
ATOM      9  C   UNL A   1      35.429  21.460  24.933  1.00  0.00     0.087 C 
ATOM     10  C   UNL A   1      32.473  25.580  24.861  1.00  0.00    -0.020 A 
ATOM     11  C   UNL A   1      32.440  24.306  25.484  1.00  0.00     0.053 A 
ATOM     12  C   UNL A   1      33.563  25.809  23.990  1.00  0.00     0.045 A 
ATOM     13  C   UNL A   1      33.427  23.337  25.277  1.00  0.00     0.128 A 
ATOM     14  C   UNL A   1      34.532  24.818  23.753  1.00  0.00     0.032 A 
ATOM     15  Cl  UNL A   1      33.890  27.315  23.205  1.00  0.00    -0.084 Cl
ATOM     16  C   UNL A   1      34.476  23.590  24.406  1.00  0.00     0.019 A 
ATOM     17  O   UNL A   1      33.341  22.208  26.045  1.00  0.00    -0.475 OA
ATOM     18  C   UNL A   1      35.563  22.635  24.300  1.00  0.00     0.027 C 
ATOM     19  C   UNL A   1      34.199  21.074  25.712  1.00  0.00     0.316 C 
BRANCH  10  20
ATOM     20  C   UNL A   1      31.410  26.642  25.250  1.00  0.00    -0.012 C 
ATOM     21  C   UNL A   1      30.326  25.952  26.105  1.00  0.00     0.016 C 
ATOM     22  C   UNL A   1      30.685  27.259  24.021  1.00  0.00     0.016 C 
ATOM     23  C   UNL A   1      31.984  27.855  26.016  1.00  0.00     0.016 C 
ENDBRANCH  10  20
BRANCH  19  24
ATOM     24  C   UNL A   1      33.311  19.980  25.093  1.00  0.00     0.430 C 
ATOM     25  F   UNL A   1      33.374  18.821  25.779  1.00  0.00    -0.167 F 
ATOM     26  F   UNL A   1      32.006  20.359  25.112  1.00  0.00    -0.167 F 
ATOM     27  F   UNL A   1      33.626  19.732  23.801  1.00  0.00    -0.167 F 
ENDBRANCH  19  24
ENDBRANCH   7   9
ENDBRANCH   6   7
ENDBRANCH   5   6
ENDBRANCH   4   5
ENDBRANCH   3   4
ENDBRANCH   2   3
ENDBRANCH   1   2
BRANCH   1  28
ATOM     28  O   UNL A   1      43.847  19.684  24.627  1.00  0.00    -0.376 OA
BRANCH  28  29
ATOM     29  C   UNL A   1      45.128  20.190  24.957  1.00  0.00     0.202 C 
BRANCH  29  30
ATOM     30  C   UNL A   1      45.429  21.573  25.566  1.00  0.00     0.261 C 
BRANCH  30  31
ATOM     31  O   UNL A   1      44.373  22.255  26.240  1.00  0.00    -0.460 OA
BRANCH  31  32
ATOM     32  C   UNL A   1      43.703  23.178  25.497  1.00  0.00     0.338 C 
ATOM     33  O   UNL A   1      43.431  23.126  24.318  1.00  0.00    -0.246 OA
BRANCH  32  34
ATOM     34  C   UNL A   1      43.163  24.183  26.434  1.00  0.00     0.060 A 
ATOM     35  C   UNL A   1      42.163  23.829  27.338  1.00  0.00     0.016 A 
ATOM     36  C   UNL A   1      43.644  25.498  26.376  1.00  0.00     0.016 A 
ATOM     37  C   UNL A   1      41.649  24.798  28.199  1.00  0.00     0.010 A 
ATOM     38  C   UNL A   1      43.118  26.470  27.228  1.00  0.00     0.010 A 
ATOM     39  C   UNL A   1      42.129  26.121  28.158  1.00  0.00    -0.014 A 
BRANCH  39  40
ATOM     40  C   UNL A   1      41.716  27.080  29.210  1.00  0.00     0.031 A 
ATOM     41  C   UNL A   1      40.528  27.976  29.049  1.00  0.00     0.074 A 
ATOM     42  C   UNL A   1      42.446  27.118  30.341  1.00  0.00     0.049 A 
ATOM     43  N   UNL A   1      39.988  28.778  29.932  1.00  0.00    -0.248 NA
ATOM     44  C   UNL A   1      39.859  27.981  27.740  1.00  0.00     0.031 C 
ATOM     45  C   UNL A   1      43.635  26.302  30.591  1.00  0.00     0.029 A 
ATOM     46  N   UNL A   1      42.290  27.848  31.491  1.00  0.00    -0.354 N 
ATOM     47  C   UNL A   1      38.902  29.366  29.299  1.00  0.00     0.074 A 
ATOM     48  C   UNL A   1      38.889  28.867  27.940  1.00  0.00     0.031 C 
ATOM     49  C   UNL A   1      44.078  26.548  31.833  1.00  0.00     0.029 A 
ATOM     50  C   UNL A   1      43.228  27.561  32.451  1.00  0.00     0.049 A 
ATOM     51  H   UNL A   1      41.575  28.514  31.615  1.00  0.00     0.167 HD
ATOM     52  C   UNL A   1      37.995  30.228  29.818  1.00  0.00     0.031 A 
ATOM     53  C   UNL A   1      43.387  28.047  33.698  1.00  0.00     0.031 A 
ATOM     54  C   UNL A   1      38.035  30.734  31.169  1.00  0.00     0.049 A 
ATOM     55  C   UNL A   1      42.395  29.043  34.228  1.00  0.00     0.074 A 
ATOM     56  C   UNL A   1      37.131  31.576  31.793  1.00  0.00     0.029 A 
ATOM     57  N   UNL A   1      39.030  30.461  32.096  1.00  0.00    -0.354 N 
ATOM     58  N   UNL A   1      41.320  29.521  33.650  1.00  0.00    -0.248 NA
ATOM     59  C   UNL A   1      42.624  29.555  35.587  1.00  0.00     0.031 C 
ATOM     60  C   UNL A   1      37.620  31.881  33.064  1.00  0.00     0.029 A 
ATOM     61  C   UNL A   1      38.782  31.156  33.270  1.00  0.00     0.049 A 
ATOM     62  H   UNL A   1      39.798  29.865  31.943  1.00  0.00     0.167 HD
ATOM     63  C   UNL A   1      40.731  30.367  34.580  1.00  0.00     0.074 A 
ATOM     64  C   UNL A   1      41.559  30.324  35.768  1.00  0.00     0.031 C 
ATOM     65  C   UNL A   1      39.606  31.112  34.453  1.00  0.00     0.031 A 
BRANCH  52  66
ATOM     66  C   UNL A   1      36.857  30.686  28.946  1.00  0.00    -0.014 A 
ATOM     67  C   UNL A   1      36.770  32.033  28.555  1.00  0.00     0.009 A 
ATOM     68  C   UNL A   1      35.794  29.823  28.636  1.00  0.00     0.009 A 
ATOM     69  C   UNL A   1      35.634  32.512  27.900  1.00  0.00     0.001 A 
ATOM     70  C   UNL A   1      34.672  30.298  27.952  1.00  0.00     0.001 A 
ATOM     71  C   UNL A   1      34.587  31.644  27.597  1.00  0.00     0.000 A 
ENDBRANCH  52  66
BRANCH  53  72
ATOM     72  C   UNL A   1      44.514  27.551  34.530  1.00  0.00    -0.014 A 
ATOM     73  C   UNL A   1      45.759  28.205  34.510  1.00  0.00     0.009 A 
ATOM     74  C   UNL A   1      44.377  26.385  35.298  1.00  0.00     0.009 A 
ATOM     75  C   UNL A   1      46.847  27.685  35.212  1.00  0.00     0.001 A 
ATOM     76  C   UNL A   1      45.458  25.888  36.029  1.00  0.00     0.001 A 
ATOM     77  C   UNL A   1      46.695  26.530  35.976  1.00  0.00     0.000 A 
ENDBRANCH  53  72
BRANCH  65  78
ATOM     78  C   UNL A   1      39.170  31.951  35.626  1.00  0.00    -0.014 A 
ATOM     79  C   UNL A   1      38.323  31.397  36.601  1.00  0.00     0.009 A 
ATOM     80  C   UNL A   1      39.486  33.315  35.701  1.00  0.00     0.009 A 
ATOM     81  C   UNL A   1      37.776  32.197  37.607  1.00  0.00     0.001 A 
ATOM     82  C   UNL A   1      38.967  34.106  36.729  1.00  0.00     0.001 A 
ATOM     83  C   UNL A   1      38.101  33.550  37.671  1.00  0.00     0.000 A 
ENDBRANCH  65  78
ENDBRANCH  39  40
ENDBRANCH  32  34
ENDBRANCH  31  32
ENDBRANCH  30  31
ENDBRANCH  29  30
ENDBRANCH  28  29
ENDBRANCH   1  28
TORSDOF 19
ENDMDL
MODEL 3
REMARK VINA RESULT:     -10.1      1.890      6.187
REMARK SMILES CC(C)(C)c1cc2c(cc1Cl)C=C(C(=O)OCCOCCOCCOC(=O)c1ccc(-c3c4nc(c(-c5ccccc5)c5ccc([nH]5)c(-c5ccccc5)c5nc(c(-c6ccccc6)c6ccc3[nH]6)C=C5)C=C4)cc1)[C@H](C(F)(F)F)O2
REMARK SMILES IDX 21 1 20 2 19 3 18 4 17 5 16 6 14 7 15 8 13 9 5 10 6 11 10 12
REMARK SMILES IDX 7 13 9 14 11 15 8 16 81 17 12 18 76 19 2 20 1 21 3 22 4 23
REMARK SMILES IDX 77 24 78 25 79 26 80 27 22 28 23 29 24 30 25 31 26 32 27 33
REMARK SMILES IDX 28 34 29 35 75 36 30 37 74 38 31 39 32 40 33 41 68 42 34 43
REMARK SMILES IDX 73 44 67 45 69 46 35 47 72 48 66 49 65 50 36 52 58 53 43 54
REMARK SMILES IDX 57 55 44 56 47 57 56 58 70 59 45 60 46 61 55 63 71 64 48 65
REMARK SMILES IDX 37 66 38 67 42 68 39 69 41 70 40 71 59 72 60 73 64 74 61 75
REMARK SMILES IDX 63 76 62 77 49 78 50 79 54 80 51 81 53 82 52 83
REMARK H PARENT 69 51 47 62
REMARK Flexibility Score: inf
ROOT
ATOM      1  C   UNL A   1      41.542  22.049  25.828  1.00  0.00     0.188 C 
ENDROOT
BRANCH   1   2
ATOM      2  C   UNL A   1      40.333  21.965  26.776  1.00  0.00     0.188 C 
BRANCH   2   3
ATOM      3  O   UNL A   1      39.438  23.055  26.887  1.00  0.00    -0.376 OA
BRANCH   3   4
ATOM      4  C   UNL A   1      38.324  23.146  26.008  1.00  0.00     0.202 C 
BRANCH   4   5
ATOM      5  C   UNL A   1      37.815  21.919  25.236  1.00  0.00     0.261 C 
BRANCH   5   6
ATOM      6  O   UNL A   1      36.756  21.197  25.892  1.00  0.00    -0.460 OA
BRANCH   6   7
ATOM      7  C   UNL A   1      35.692  20.893  25.121  1.00  0.00     0.338 C 
ATOM      8  O   UNL A   1      35.439  19.801  24.634  1.00  0.00    -0.246 OA
BRANCH   7   9
ATOM      9  C   UNL A   1      34.739  22.017  25.068  1.00  0.00     0.087 C 
ATOM     10  C   UNL A   1      32.430  26.209  23.394  1.00  0.00    -0.020 A 
ATOM     11  C   UNL A   1      32.836  25.697  24.653  1.00  0.00     0.053 A 
ATOM     12  C   UNL A   1      32.662  25.366  22.284  1.00  0.00     0.045 A 
ATOM     13  C   UNL A   1      33.449  24.448  24.799  1.00  0.00     0.128 A 
ATOM     14  C   UNL A   1      33.241  24.094  22.439  1.00  0.00     0.032 A 
ATOM     15  Cl  UNL A   1      32.365  25.807  20.638  1.00  0.00    -0.084 Cl
ATOM     16  C   UNL A   1      33.650  23.640  23.690  1.00  0.00     0.019 A 
ATOM     17  O   UNL A   1      33.910  24.139  26.050  1.00  0.00    -0.475 OA
ATOM     18  C   UNL A   1      34.404  22.408  23.830  1.00  0.00     0.027 C 
ATOM     19  C   UNL A   1      34.344  22.770  26.312  1.00  0.00     0.316 C 
BRANCH  10  20
ATOM     20  C   UNL A   1      31.881  27.659  23.308  1.00  0.00    -0.012 C 
ATOM     21  C   UNL A   1      31.574  28.147  24.739  1.00  0.00     0.016 C 
ATOM     22  C   UNL A   1      30.554  27.762  22.505  1.00  0.00     0.016 C 
ATOM     23  C   UNL A   1      32.838  28.653  22.612  1.00  0.00     0.016 C 
ENDBRANCH  10  20
BRANCH  19  24
ATOM     24  C   UNL A   1      33.283  22.105  27.207  1.00  0.00     0.430 C 
ATOM     25  F   UNL A   1      32.710  22.982  28.057  1.00  0.00    -0.167 F 
ATOM     26  F   UNL A   1      32.273  21.597  26.452  1.00  0.00    -0.167 F 
ATOM     27  F   UNL A   1      33.788  21.077  27.926  1.00  0.00    -0.167 F 
ENDBRANCH  19  24
ENDBRANCH   7   9
ENDBRANCH   6   7
ENDBRANCH   5   6
ENDBRANCH   4   5
ENDBRANCH   3   4
ENDBRANCH   2   3
ENDBRANCH   1   2
BRANCH   1  28
ATOM     28  O   UNL A   1      42.697  21.316  26.145  1.00  0.00    -0.376 OA
BRANCH  28  29
ATOM     29  C   UNL A   1      43.913  21.524  25.450  1.00  0.00     0.202 C 
BRANCH  29  30
ATOM     30  C   UNL A   1      44.191  22.632  24.416  1.00  0.00     0.261 C 
BRANCH  30  31
ATOM     31  O   UNL A   1      43.654  23.930  24.661  1.00  0.00    -0.460 OA
BRANCH  31  32
ATOM     32  C   UNL A   1      44.534  24.846  25.151  1.00  0.00     0.338 C 
ATOM     33  O   UNL A   1      45.617  25.150  24.702  1.00  0.00    -0.246 OA
BRANCH  32  34
ATOM     34  C   UNL A   1      43.843  25.580  26.230  1.00  0.00     0.060 A 
ATOM     35  C   UNL A   1      42.958  24.912  27.074  1.00  0.00     0.016 A 
ATOM     36  C   UNL A   1      44.066  26.957  26.370  1.00  0.00     0.016 A 
ATOM     37  C   UNL A   1      42.299  25.627  28.073  1.00  0.00     0.010 A 
ATOM     38  C   UNL A   1      43.393  27.674  27.360  1.00  0.00     0.010 A 
ATOM     39  C   UNL A   1      42.518  27.009  28.230  1.00  0.00    -0.014 A 
BRANCH  39  40
ATOM     40  C   UNL A   1      41.965  27.706  29.416  1.00  0.00     0.031 A 
ATOM     41  C   UNL A   1      42.626  27.643  30.757  1.00  0.00     0.074 A 
ATOM     42  C   UNL A   1      40.835  28.418  29.249  1.00  0.00     0.049 A 
ATOM     43  N   UNL A   1      42.314  28.295  31.849  1.00  0.00    -0.248 NA
ATOM     44  C   UNL A   1      43.776  26.740  30.900  1.00  0.00     0.031 C 
ATOM     45  C   UNL A   1      40.098  28.528  27.989  1.00  0.00     0.029 A 
ATOM     46  N   UNL A   1      40.121  29.195  30.125  1.00  0.00    -0.354 N 
ATOM     47  C   UNL A   1      43.241  27.903  32.805  1.00  0.00     0.074 A 
ATOM     48  C   UNL A   1      44.097  26.918  32.177  1.00  0.00     0.031 C 
ATOM     49  C   UNL A   1      39.059  29.358  28.163  1.00  0.00     0.029 A 
ATOM     50  C   UNL A   1      39.035  29.810  29.551  1.00  0.00     0.049 A 
ATOM     51  H   UNL A   1      40.364  29.302  31.073  1.00  0.00     0.167 HD
ATOM     52  C   UNL A   1      43.369  28.344  34.079  1.00  0.00     0.031 A 
ATOM     53  C   UNL A   1      38.123  30.652  30.074  1.00  0.00     0.031 A 
ATOM     54  C   UNL A   1      42.492  29.310  34.696  1.00  0.00     0.049 A 
ATOM     55  C   UNL A   1      38.260  31.082  31.507  1.00  0.00     0.074 A 
ATOM     56  C   UNL A   1      42.575  29.848  35.969  1.00  0.00     0.029 A 
ATOM     57  N   UNL A   1      41.373  29.870  34.100  1.00  0.00    -0.354 N 
ATOM     58  N   UNL A   1      39.195  30.775  32.372  1.00  0.00    -0.248 NA
ATOM     59  C   UNL A   1      37.229  31.988  32.033  1.00  0.00     0.031 C 
ATOM     60  C   UNL A   1      41.462  30.665  36.174  1.00  0.00     0.029 A 
ATOM     61  C   UNL A   1      40.734  30.713  34.996  1.00  0.00     0.049 A 
ATOM     62  H   UNL A   1      41.075  29.695  33.178  1.00  0.00     0.167 HD
ATOM     63  C   UNL A   1      38.882  31.467  33.534  1.00  0.00     0.074 A 
ATOM     64  C   UNL A   1      37.680  32.226  33.258  1.00  0.00     0.031 C 
ATOM     65  C   UNL A   1      39.536  31.468  34.721  1.00  0.00     0.031 A 
BRANCH  52  66
ATOM     66  C   UNL A   1      44.502  27.811  34.914  1.00  0.00    -0.014 A 
ATOM     67  C   UNL A   1      45.780  28.387  34.813  1.00  0.00     0.009 A 
ATOM     68  C   UNL A   1      44.344  26.648  35.684  1.00  0.00     0.009 A 
ATOM     69  C   UNL A   1      46.878  27.796  35.441  1.00  0.00     0.001 A 
ATOM     70  C   UNL A   1      45.439  26.077  36.338  1.00  0.00     0.001 A 
ATOM     71  C   UNL A   1      46.706  26.643  36.205  1.00  0.00     0.000 A 
ENDBRANCH  52  66
BRANCH  53  72
ATOM     72  C   UNL A   1      37.032  31.167  29.206  1.00  0.00    -0.014 A 
ATOM     73  C   UNL A   1      37.024  32.511  28.791  1.00  0.00     0.009 A 
ATOM     74  C   UNL A   1      35.958  30.342  28.841  1.00  0.00     0.009 A 
ATOM     75  C   UNL A   1      35.952  33.023  28.059  1.00  0.00     0.001 A 
ATOM     76  C   UNL A   1      34.904  30.848  28.078  1.00  0.00     0.001 A 
ATOM     77  C   UNL A   1      34.894  32.190  27.698  1.00  0.00     0.000 A 
ENDBRANCH  53  72
BRANCH  65  78
ATOM     78  C   UNL A   1      38.990  32.321  35.836  1.00  0.00    -0.014 A 
ATOM     79  C   UNL A   1      39.418  33.653  35.968  1.00  0.00     0.009 A 
ATOM     80  C   UNL A   1      38.159  31.776  36.826  1.00  0.00     0.009 A 
ATOM     81  C   UNL A   1      39.052  34.412  37.082  1.00  0.00     0.001 A 
ATOM     82  C   UNL A   1      37.765  32.549  37.922  1.00  0.00     0.001 A 
ATOM     83  C   UNL A   1      38.224  33.860  38.057  1.00  0.00     0.000 A 
ENDBRANCH  65  78
ENDBRANCH  39  40
ENDBRANCH  32  34
ENDBRANCH  31  32
ENDBRANCH  30  31
ENDBRANCH  29  30
ENDBRANCH  28  29
ENDBRANCH   1  28
TORSDOF 19
ENDMDL
