MODEL 1
REMARK VINA RESULT:     -11.2      0.000      0.000
REMARK SMILES O=C(Cc1c(C(=O)c2cc3c(cn2)CCCC3)[nH]c2cc(Cl)ccc12)OCCOCCOCCOC(=O)c1ccc(-c2c3nc(c(-c4ccccc4)c4ccc([nH]4)c(-c4ccccc4)c4nc(c(-c5ccccc5)c5ccc2[nH]5)C=C4)C=C3)cc1
REMARK SMILES IDX 30 1 29 2 28 3 27 4 26 5 2 6 1 7 3 8 4 9 5 10 25 11 18 12
REMARK SMILES IDX 19 13 24 14 20 16 23 17 21 18 22 19 6 20 7 21 8 22 9 23
REMARK SMILES IDX 13 24 10 25 12 26 11 27 17 28 14 29 16 30 15 31 31 32 32 33
REMARK SMILES IDX 33 34 34 35 35 36 36 37 37 38 38 39 39 40 85 41 40 42 84 43
REMARK SMILES IDX 41 44 42 45 43 46 78 47 44 48 83 49 77 50 79 51 45 52 82 53
REMARK SMILES IDX 76 54 75 55 46 57 68 58 53 59 67 60 54 61 57 62 66 63 80 64
REMARK SMILES IDX 55 65 56 66 65 68 81 69 58 70 47 71 48 72 52 73 49 74 51 75
REMARK SMILES IDX 50 76 69 77 70 78 74 79 71 80 73 81 72 82 59 83 60 84 64 85
REMARK SMILES IDX 61 86 63 87 62 88
REMARK H PARENT 18 15 79 56 57 67
REMARK Flexibility Score: inf
ROOT
ATOM      1  C   UNL A   1      33.955  29.614  27.083  1.00  0.00     0.188 C 
ENDROOT
BRANCH   1   2
ATOM      2  O   UNL A   1      33.036  29.526  26.016  1.00  0.00    -0.376 OA
BRANCH   2   3
ATOM      3  C   UNL A   1      31.755  29.006  26.313  1.00  0.00     0.202 C 
BRANCH   3   4
ATOM      4  C   UNL A   1      31.744  27.605  26.899  1.00  0.00     0.261 C 
BRANCH   4   5
ATOM      5  O   UNL A   1      30.642  26.738  26.549  1.00  0.00    -0.463 OA
BRANCH   5   6
ATOM      6  C   UNL A   1      30.596  25.570  25.873  1.00  0.00     0.310 C 
ATOM      7  O   UNL A   1      30.758  24.518  26.496  1.00  0.00    -0.252 OA
BRANCH   6   8
ATOM      8  C   UNL A   1      30.615  25.549  24.370  1.00  0.00     0.161 C 
BRANCH   8   9
ATOM      9  C   UNL A   1      30.924  26.766  23.560  1.00  0.00     0.000 A 
ATOM     10  C   UNL A   1      32.131  27.312  23.144  1.00  0.00     0.093 A 
ATOM     11  C   UNL A   1      29.897  27.689  23.152  1.00  0.00     0.004 A 
ATOM     12  N   UNL A   1      31.828  28.350  22.286  1.00  0.00    -0.351 N 
ATOM     13  C   UNL A   1      30.503  28.695  22.410  1.00  0.00     0.048 A 
ATOM     14  C   UNL A   1      28.512  27.780  23.415  1.00  0.00     0.012 A 
ATOM     15  H   UNL A   1      32.468  28.781  21.674  1.00  0.00     0.167 HD
ATOM     16  C   UNL A   1      29.808  29.818  21.945  1.00  0.00     0.047 A 
ATOM     17  C   UNL A   1      27.804  28.910  22.990  1.00  0.00     0.021 A 
ATOM     18  C   UNL A   1      28.452  29.915  22.277  1.00  0.00     0.043 A 
ATOM     19  Cl  UNL A   1      27.572  31.322  21.816  1.00  0.00    -0.084 Cl
BRANCH  10  20
ATOM     20  C   UNL A   1      33.473  26.992  23.575  1.00  0.00     0.227 C 
ATOM     21  O   UNL A   1      34.344  27.841  23.741  1.00  0.00    -0.285 OA
BRANCH  20  22
ATOM     22  C   UNL A   1      33.866  25.584  23.756  1.00  0.00     0.113 A 
ATOM     23  C   UNL A   1      34.134  25.181  25.049  1.00  0.00     0.036 A 
ATOM     24  N   UNL A   1      33.867  24.772  22.669  1.00  0.00    -0.252 NA
ATOM     25  C   UNL A   1      34.414  23.841  25.269  1.00  0.00    -0.041 A 
ATOM     26  C   UNL A   1      34.088  23.462  22.920  1.00  0.00     0.115 A 
ATOM     27  C   UNL A   1      34.385  22.951  24.184  1.00  0.00    -0.026 A 
ATOM     28  C   UNL A   1      34.793  23.412  26.658  1.00  0.00     0.036 C 
ATOM     29  C   UNL A   1      34.595  21.474  24.386  1.00  0.00     0.037 C 
ATOM     30  C   UNL A   1      34.736  21.904  26.854  1.00  0.00     0.005 C 
ATOM     31  C   UNL A   1      35.371  21.180  25.670  1.00  0.00     0.005 C 
ENDBRANCH  20  22
ENDBRANCH  10  20
ENDBRANCH   8   9
ENDBRANCH   6   8
ENDBRANCH   5   6
ENDBRANCH   4   5
ENDBRANCH   3   4
ENDBRANCH   2   3
ENDBRANCH   1   2
BRANCH   1  32
ATOM     32  C   UNL A   1      34.529  31.012  27.374  1.00  0.00     0.188 C 
BRANCH  32  33
ATOM     33  O   UNL A   1      34.030  31.812  28.436  1.00  0.00    -0.376 OA
BRANCH  33  34
ATOM     34  C   UNL A   1      34.020  33.226  28.338  1.00  0.00     0.202 C 
BRANCH  34  35
ATOM     35  C   UNL A   1      33.931  34.041  29.634  1.00  0.00     0.261 C 
BRANCH  35  36
ATOM     36  O   UNL A   1      35.113  34.001  30.454  1.00  0.00    -0.460 OA
BRANCH  36  37
ATOM     37  C   UNL A   1      35.303  32.871  31.181  1.00  0.00     0.338 C 
ATOM     38  O   UNL A   1      34.470  32.268  31.835  1.00  0.00    -0.246 OA
BRANCH  37  39
ATOM     39  C   UNL A   1      36.668  32.345  30.935  1.00  0.00     0.060 A 
ATOM     40  C   UNL A   1      37.290  31.480  31.838  1.00  0.00     0.016 A 
ATOM     41  C   UNL A   1      37.351  32.760  29.779  1.00  0.00     0.016 A 
ATOM     42  C   UNL A   1      38.566  30.983  31.551  1.00  0.00     0.010 A 
ATOM     43  C   UNL A   1      38.630  32.270  29.498  1.00  0.00     0.010 A 
ATOM     44  C   UNL A   1      39.229  31.344  30.361  1.00  0.00    -0.014 A 
BRANCH  44  45
ATOM     45  C   UNL A   1      40.407  30.550  29.923  1.00  0.00     0.031 A 
ATOM     46  C   UNL A   1      40.298  29.166  29.363  1.00  0.00     0.074 A 
ATOM     47  C   UNL A   1      41.614  31.143  30.025  1.00  0.00     0.049 A 
ATOM     48  N   UNL A   1      41.226  28.453  28.775  1.00  0.00    -0.248 NA
ATOM     49  C   UNL A   1      39.000  28.488  29.479  1.00  0.00     0.031 C 
ATOM     50  C   UNL A   1      41.841  32.474  30.593  1.00  0.00     0.029 A 
ATOM     51  N   UNL A   1      42.862  30.731  29.631  1.00  0.00    -0.354 N 
ATOM     52  C   UNL A   1      40.624  27.253  28.424  1.00  0.00     0.074 A 
ATOM     53  C   UNL A   1      39.259  27.315  28.909  1.00  0.00     0.031 C 
ATOM     54  C   UNL A   1      43.134  32.795  30.455  1.00  0.00     0.029 A 
ATOM     55  C   UNL A   1      43.834  31.685  29.818  1.00  0.00     0.049 A 
ATOM     56  H   UNL A   1      43.042  29.841  29.251  1.00  0.00     0.167 HD
ATOM     57  C   UNL A   1      41.163  26.210  27.748  1.00  0.00     0.031 A 
ATOM     58  C   UNL A   1      45.141  31.686  29.491  1.00  0.00     0.031 A 
ATOM     59  C   UNL A   1      42.533  26.152  27.298  1.00  0.00     0.049 A 
ATOM     60  C   UNL A   1      45.714  30.503  28.763  1.00  0.00     0.074 A 
ATOM     61  C   UNL A   1      43.150  25.154  26.561  1.00  0.00     0.029 A 
ATOM     62  N   UNL A   1      43.499  27.115  27.549  1.00  0.00    -0.354 N 
ATOM     63  N   UNL A   1      45.104  29.424  28.338  1.00  0.00    -0.248 NA
ATOM     64  C   UNL A   1      47.150  30.546  28.449  1.00  0.00     0.031 C 
ATOM     65  C   UNL A   1      44.503  25.474  26.434  1.00  0.00     0.029 A 
ATOM     66  C   UNL A   1      44.714  26.714  27.013  1.00  0.00     0.049 A 
ATOM     67  H   UNL A   1      43.344  27.957  28.035  1.00  0.00     0.167 HD
ATOM     68  C   UNL A   1      46.070  28.675  27.680  1.00  0.00     0.074 A 
ATOM     69  C   UNL A   1      47.304  29.431  27.748  1.00  0.00     0.031 C 
ATOM     70  C   UNL A   1      45.940  27.470  27.075  1.00  0.00     0.031 A 
BRANCH  57  71
ATOM     71  C   UNL A   1      40.286  25.029  27.422  1.00  0.00    -0.014 A 
ATOM     72  C   UNL A   1      40.690  23.733  27.783  1.00  0.00     0.009 A 
ATOM     73  C   UNL A   1      39.147  25.182  26.616  1.00  0.00     0.009 A 
ATOM     74  C   UNL A   1      39.991  22.614  27.322  1.00  0.00     0.001 A 
ATOM     75  C   UNL A   1      38.432  24.062  26.179  1.00  0.00     0.001 A 
ATOM     76  C   UNL A   1      38.862  22.781  26.521  1.00  0.00     0.000 A 
ENDBRANCH  57  71
BRANCH  58  77
ATOM     77  C   UNL A   1      45.970  32.882  29.796  1.00  0.00    -0.014 A 
ATOM     78  C   UNL A   1      46.122  33.910  28.851  1.00  0.00     0.009 A 
ATOM     79  C   UNL A   1      46.654  32.981  31.018  1.00  0.00     0.009 A 
ATOM     80  C   UNL A   1      46.958  34.997  29.111  1.00  0.00     0.001 A 
ATOM     81  C   UNL A   1      47.461  34.088  31.291  1.00  0.00     0.001 A 
ATOM     82  C   UNL A   1      47.620  35.090  30.333  1.00  0.00     0.000 A 
ENDBRANCH  58  77
BRANCH  70  83
ATOM     83  C   UNL A   1      47.151  26.878  26.405  1.00  0.00    -0.014 A 
ATOM     84  C   UNL A   1      48.198  26.364  27.189  1.00  0.00     0.009 A 
ATOM     85  C   UNL A   1      47.311  26.929  25.011  1.00  0.00     0.009 A 
ATOM     86  C   UNL A   1      49.388  25.939  26.596  1.00  0.00     0.001 A 
ATOM     87  C   UNL A   1      48.489  26.470  24.418  1.00  0.00     0.001 A 
ATOM     88  C   UNL A   1      49.530  25.988  25.210  1.00  0.00     0.000 A 
ENDBRANCH  70  83
ENDBRANCH  44  45
ENDBRANCH  37  39
ENDBRANCH  36  37
ENDBRANCH  35  36
ENDBRANCH  34  35
ENDBRANCH  33  34
ENDBRANCH  32  33
ENDBRANCH   1  32
TORSDOF 20
ENDMDL
MODEL 2
REMARK VINA RESULT:     -10.7      3.693      7.474
REMARK SMILES O=C(Cc1c(C(=O)c2cc3c(cn2)CCCC3)[nH]c2cc(Cl)ccc12)OCCOCCOCCOC(=O)c1ccc(-c2c3nc(c(-c4ccccc4)c4ccc([nH]4)c(-c4ccccc4)c4nc(c(-c5ccccc5)c5ccc2[nH]5)C=C4)C=C3)cc1
REMARK SMILES IDX 30 1 29 2 28 3 27 4 26 5 2 6 1 7 3 8 4 9 5 10 25 11 18 12
REMARK SMILES IDX 19 13 24 14 20 16 23 17 21 18 22 19 6 20 7 21 8 22 9 23
REMARK SMILES IDX 13 24 10 25 12 26 11 27 17 28 14 29 16 30 15 31 31 32 32 33
REMARK SMILES IDX 33 34 34 35 35 36 36 37 37 38 38 39 39 40 85 41 40 42 84 43
REMARK SMILES IDX 41 44 42 45 43 46 78 47 44 48 83 49 77 50 79 51 45 52 82 53
REMARK SMILES IDX 76 54 75 55 46 57 68 58 53 59 67 60 54 61 57 62 66 63 80 64
REMARK SMILES IDX 55 65 56 66 65 68 81 69 58 70 47 71 48 72 52 73 49 74 51 75
REMARK SMILES IDX 50 76 69 77 70 78 74 79 71 80 73 81 72 82 59 83 60 84 64 85
REMARK SMILES IDX 61 86 63 87 62 88
REMARK H PARENT 18 15 79 56 57 67
REMARK Flexibility Score: inf
ROOT
ATOM      1  C   UNL A   1      33.415  28.306  26.245  1.00  0.00     0.188 C 
ENDROOT
BRANCH   1   2
ATOM      2  O   UNL A   1      33.052  28.254  27.608  1.00  0.00    -0.376 OA
BRANCH   2   3
ATOM      3  C   UNL A   1      31.767  27.748  27.911  1.00  0.00     0.202 C 
BRANCH   3   4
ATOM      4  C   UNL A   1      30.966  27.258  26.718  1.00  0.00     0.261 C 
BRANCH   4   5
ATOM      5  O   UNL A   1      30.829  25.831  26.540  1.00  0.00    -0.463 OA
BRANCH   5   6
ATOM      6  C   UNL A   1      31.733  24.829  26.573  1.00  0.00     0.310 C 
ATOM      7  O   UNL A   1      31.715  24.046  27.525  1.00  0.00    -0.252 OA
BRANCH   6   8
ATOM      8  C   UNL A   1      32.902  24.815  25.627  1.00  0.00     0.161 C 
BRANCH   8   9
ATOM      9  C   UNL A   1      32.834  24.158  24.287  1.00  0.00     0.000 A 
ATOM     10  C   UNL A   1      32.758  24.687  23.005  1.00  0.00     0.093 A 
ATOM     11  C   UNL A   1      32.720  22.730  24.146  1.00  0.00     0.004 A 
ATOM     12  N   UNL A   1      32.883  23.630  22.127  1.00  0.00    -0.351 N 
ATOM     13  C   UNL A   1      32.695  22.441  22.787  1.00  0.00     0.048 A 
ATOM     14  C   UNL A   1      32.570  21.671  25.068  1.00  0.00     0.012 A 
ATOM     15  H   UNL A   1      33.079  23.717  21.165  1.00  0.00     0.167 HD
ATOM     16  C   UNL A   1      32.483  21.148  22.291  1.00  0.00     0.047 A 
ATOM     17  C   UNL A   1      32.324  20.376  24.596  1.00  0.00     0.021 A 
ATOM     18  C   UNL A   1      32.271  20.129  23.227  1.00  0.00     0.043 A 
ATOM     19  Cl  UNL A   1      31.909  18.539  22.672  1.00  0.00    -0.084 Cl
BRANCH  10  20
ATOM     20  C   UNL A   1      32.479  26.045  22.595  1.00  0.00     0.227 C 
ATOM     21  O   UNL A   1      33.314  26.767  22.057  1.00  0.00    -0.285 OA
BRANCH  20  22
ATOM     22  C   UNL A   1      31.168  26.644  22.894  1.00  0.00     0.113 A 
ATOM     23  C   UNL A   1      30.989  27.958  22.510  1.00  0.00     0.036 A 
ATOM     24  N   UNL A   1      30.213  25.858  23.454  1.00  0.00    -0.252 NA
ATOM     25  C   UNL A   1      29.736  28.525  22.690  1.00  0.00    -0.041 A 
ATOM     26  C   UNL A   1      28.988  26.417  23.566  1.00  0.00     0.115 A 
ATOM     27  C   UNL A   1      28.702  27.739  23.223  1.00  0.00    -0.026 A 
ATOM     28  C   UNL A   1      29.558  29.978  22.354  1.00  0.00     0.036 C 
ATOM     29  C   UNL A   1      27.304  28.282  23.355  1.00  0.00     0.037 C 
ATOM     30  C   UNL A   1      28.098  30.395  22.258  1.00  0.00     0.005 C 
ATOM     31  C   UNL A   1      27.291  29.810  23.413  1.00  0.00     0.005 C 
ENDBRANCH  20  22
ENDBRANCH  10  20
ENDBRANCH   8   9
ENDBRANCH   6   8
ENDBRANCH   5   6
ENDBRANCH   4   5
ENDBRANCH   3   4
ENDBRANCH   2   3
ENDBRANCH   1   2
BRANCH   1  32
ATOM     32  C   UNL A   1      33.533  29.709  25.624  1.00  0.00     0.188 C 
BRANCH  32  33
ATOM     33  O   UNL A   1      32.387  30.421  25.181  1.00  0.00    -0.376 OA
BRANCH  33  34
ATOM     34  C   UNL A   1      31.337  30.740  26.079  1.00  0.00     0.202 C 
BRANCH  34  35
ATOM     35  C   UNL A   1      31.396  32.086  26.813  1.00  0.00     0.261 C 
BRANCH  35  36
ATOM     36  O   UNL A   1      32.605  32.835  26.603  1.00  0.00    -0.460 OA
BRANCH  36  37
ATOM     37  C   UNL A   1      33.090  33.509  27.677  1.00  0.00     0.338 C 
ATOM     38  O   UNL A   1      32.530  34.388  28.309  1.00  0.00    -0.246 OA
BRANCH  37  39
ATOM     39  C   UNL A   1      34.373  32.900  28.109  1.00  0.00     0.060 A 
ATOM     40  C   UNL A   1      35.561  33.633  28.119  1.00  0.00     0.016 A 
ATOM     41  C   UNL A   1      34.381  31.545  28.483  1.00  0.00     0.016 A 
ATOM     42  C   UNL A   1      36.741  33.027  28.564  1.00  0.00     0.010 A 
ATOM     43  C   UNL A   1      35.564  30.939  28.918  1.00  0.00     0.010 A 
ATOM     44  C   UNL A   1      36.744  31.688  29.002  1.00  0.00    -0.014 A 
BRANCH  44  45
ATOM     45  C   UNL A   1      37.908  31.186  29.779  1.00  0.00     0.031 A 
ATOM     46  C   UNL A   1      38.134  31.517  31.222  1.00  0.00     0.074 A 
ATOM     47  C   UNL A   1      38.770  30.378  29.130  1.00  0.00     0.049 A 
ATOM     48  N   UNL A   1      39.001  30.989  32.049  1.00  0.00    -0.248 NA
ATOM     49  C   UNL A   1      37.297  32.569  31.815  1.00  0.00     0.031 C 
ATOM     50  C   UNL A   1      38.670  30.021  27.712  1.00  0.00     0.029 A 
ATOM     51  N   UNL A   1      39.869  29.685  29.571  1.00  0.00    -0.354 N 
ATOM     52  C   UNL A   1      38.801  31.621  33.269  1.00  0.00     0.074 A 
ATOM     53  C   UNL A   1      37.760  32.608  33.061  1.00  0.00     0.031 C 
ATOM     54  C   UNL A   1      39.625  29.131  27.415  1.00  0.00     0.029 A 
ATOM     55  C   UNL A   1      40.424  28.875  28.609  1.00  0.00     0.049 A 
ATOM     56  H   UNL A   1      40.224  29.760  30.486  1.00  0.00     0.167 HD
ATOM     57  C   UNL A   1      39.423  31.383  34.448  1.00  0.00     0.031 A 
ATOM     58  C   UNL A   1      41.446  27.999  28.677  1.00  0.00     0.031 A 
ATOM     59  C   UNL A   1      40.479  30.417  34.632  1.00  0.00     0.049 A 
ATOM     60  C   UNL A   1      42.131  27.775  29.996  1.00  0.00     0.074 A 
ATOM     61  C   UNL A   1      41.132  30.074  35.805  1.00  0.00     0.029 A 
ATOM     62  N   UNL A   1      41.047  29.651  33.624  1.00  0.00    -0.354 N 
ATOM     63  N   UNL A   1      41.855  28.298  31.165  1.00  0.00    -0.248 NA
ATOM     64  C   UNL A   1      43.252  26.825  30.010  1.00  0.00     0.031 C 
ATOM     65  C   UNL A   1      42.143  29.162  35.496  1.00  0.00     0.029 A 
ATOM     66  C   UNL A   1      42.065  28.867  34.145  1.00  0.00     0.049 A 
ATOM     67  H   UNL A   1      40.768  29.663  32.680  1.00  0.00     0.167 HD
ATOM     68  C   UNL A   1      42.745  27.719  32.059  1.00  0.00     0.074 A 
ATOM     69  C   UNL A   1      43.559  26.793  31.300  1.00  0.00     0.031 C 
ATOM     70  C   UNL A   1      42.871  27.940  33.390  1.00  0.00     0.031 A 
BRANCH  57  71
ATOM     71  C   UNL A   1      38.988  32.158  35.665  1.00  0.00    -0.014 A 
ATOM     72  C   UNL A   1      39.565  33.407  35.946  1.00  0.00     0.009 A 
ATOM     73  C   UNL A   1      38.131  31.580  36.615  1.00  0.00     0.009 A 
ATOM     74  C   UNL A   1      39.319  34.048  37.163  1.00  0.00     0.001 A 
ATOM     75  C   UNL A   1      37.863  32.236  37.820  1.00  0.00     0.001 A 
ATOM     76  C   UNL A   1      38.467  33.462  38.098  1.00  0.00     0.000 A 
ENDBRANCH  57  71
BRANCH  58  77
ATOM     77  C   UNL A   1      41.827  27.225  27.466  1.00  0.00    -0.014 A 
ATOM     78  C   UNL A   1      41.251  25.972  27.205  1.00  0.00     0.009 A 
ATOM     79  C   UNL A   1      42.807  27.714  26.588  1.00  0.00     0.009 A 
ATOM     80  C   UNL A   1      41.663  25.214  26.107  1.00  0.00     0.001 A 
ATOM     81  C   UNL A   1      43.191  26.971  25.469  1.00  0.00     0.001 A 
ATOM     82  C   UNL A   1      42.626  25.718  25.236  1.00  0.00     0.000 A 
ENDBRANCH  58  77
BRANCH  70  83
ATOM     83  C   UNL A   1      43.911  27.155  34.145  1.00  0.00    -0.014 A 
ATOM     84  C   UNL A   1      45.244  27.598  34.154  1.00  0.00     0.009 A 
ATOM     85  C   UNL A   1      43.602  25.926  34.747  1.00  0.00     0.009 A 
ATOM     86  C   UNL A   1      46.249  26.817  34.726  1.00  0.00     0.001 A 
ATOM     87  C   UNL A   1      44.604  25.162  35.350  1.00  0.00     0.001 A 
ATOM     88  C   UNL A   1      45.927  25.602  35.328  1.00  0.00     0.000 A 
ENDBRANCH  70  83
ENDBRANCH  44  45
ENDBRANCH  37  39
ENDBRANCH  36  37
ENDBRANCH  35  36
ENDBRANCH  34  35
ENDBRANCH  33  34
ENDBRANCH  32  33
ENDBRANCH   1  32
TORSDOF 20
ENDMDL
MODEL 3
REMARK VINA RESULT:     -10.6      3.335      6.327
REMARK SMILES O=C(Cc1c(C(=O)c2cc3c(cn2)CCCC3)[nH]c2cc(Cl)ccc12)OCCOCCOCCOC(=O)c1ccc(-c2c3nc(c(-c4ccccc4)c4ccc([nH]4)c(-c4ccccc4)c4nc(c(-c5ccccc5)c5ccc2[nH]5)C=C4)C=C3)cc1
REMARK SMILES IDX 30 1 29 2 28 3 27 4 26 5 2 6 1 7 3 8 4 9 5 10 25 11 18 12
REMARK SMILES IDX 19 13 24 14 20 16 23 17 21 18 22 19 6 20 7 21 8 22 9 23
REMARK SMILES IDX 13 24 10 25 12 26 11 27 17 28 14 29 16 30 15 31 31 32 32 33
REMARK SMILES IDX 33 34 34 35 35 36 36 37 37 38 38 39 39 40 85 41 40 42 84 43
REMARK SMILES IDX 41 44 42 45 43 46 78 47 44 48 83 49 77 50 79 51 45 52 82 53
REMARK SMILES IDX 76 54 75 55 46 57 68 58 53 59 67 60 54 61 57 62 66 63 80 64
REMARK SMILES IDX 55 65 56 66 65 68 81 69 58 70 47 71 48 72 52 73 49 74 51 75
REMARK SMILES IDX 50 76 69 77 70 78 74 79 71 80 73 81 72 82 59 83 60 84 64 85
REMARK SMILES IDX 61 86 63 87 62 88
REMARK H PARENT 18 15 79 56 57 67
REMARK Flexibility Score: inf
ROOT
ATOM      1  C   UNL A   1      34.051  30.485  27.922  1.00  0.00     0.188 C 
ENDROOT
BRANCH   1   2
ATOM      2  O   UNL A   1      34.089  29.631  26.799  1.00  0.00    -0.376 OA
BRANCH   2   3
ATOM      3  C   UNL A   1      32.852  29.137  26.326  1.00  0.00     0.202 C 
BRANCH   3   4
ATOM      4  C   UNL A   1      32.388  27.838  26.962  1.00  0.00     0.261 C 
BRANCH   4   5
ATOM      5  O   UNL A   1      31.071  27.353  26.618  1.00  0.00    -0.463 OA
BRANCH   5   6
ATOM      6  C   UNL A   1      30.657  26.200  26.051  1.00  0.00     0.310 C 
ATOM      7  O   UNL A   1      30.916  25.135  26.616  1.00  0.00    -0.252 OA
BRANCH   6   8
ATOM      8  C   UNL A   1      30.130  26.180  24.643  1.00  0.00     0.161 C 
BRANCH   8   9
ATOM      9  C   UNL A   1      30.539  27.195  23.624  1.00  0.00     0.000 A 
ATOM     10  C   UNL A   1      31.767  27.460  23.032  1.00  0.00     0.093 A 
ATOM     11  C   UNL A   1      29.631  28.208  23.154  1.00  0.00     0.004 A 
ATOM     12  N   UNL A   1      31.541  28.396  22.044  1.00  0.00    -0.351 N 
ATOM     13  C   UNL A   1      30.306  28.975  22.213  1.00  0.00     0.048 A 
ATOM     14  C   UNL A   1      28.312  28.570  23.505  1.00  0.00     0.012 A 
ATOM     15  H   UNL A   1      32.173  28.617  21.322  1.00  0.00     0.167 HD
ATOM     16  C   UNL A   1      29.750  30.119  21.628  1.00  0.00     0.047 A 
ATOM     17  C   UNL A   1      27.748  29.729  22.959  1.00  0.00     0.021 A 
ATOM     18  C   UNL A   1      28.468  30.493  22.045  1.00  0.00     0.043 A 
ATOM     19  Cl  UNL A   1      27.774  31.946  21.431  1.00  0.00    -0.084 Cl
BRANCH  10  20
ATOM     20  C   UNL A   1      33.080  26.983  23.404  1.00  0.00     0.227 C 
ATOM     21  O   UNL A   1      34.047  27.726  23.545  1.00  0.00    -0.285 OA
BRANCH  20  22
ATOM     22  C   UNL A   1      33.318  25.538  23.550  1.00  0.00     0.113 A 
ATOM     23  C   UNL A   1      33.959  25.133  24.704  1.00  0.00     0.036 A 
ATOM     24  N   UNL A   1      32.835  24.706  22.593  1.00  0.00    -0.252 NA
ATOM     25  C   UNL A   1      34.115  23.772  24.920  1.00  0.00    -0.041 A 
ATOM     26  C   UNL A   1      32.951  23.385  22.855  1.00  0.00     0.115 A 
ATOM     27  C   UNL A   1      33.594  22.868  23.981  1.00  0.00    -0.026 A 
ATOM     28  C   UNL A   1      34.888  23.328  26.129  1.00  0.00     0.036 C 
ATOM     29  C   UNL A   1      33.661  21.383  24.214  1.00  0.00     0.037 C 
ATOM     30  C   UNL A   1      34.701  21.852  26.449  1.00  0.00     0.005 C 
ATOM     31  C   UNL A   1      34.785  21.008  25.180  1.00  0.00     0.005 C 
ENDBRANCH  20  22
ENDBRANCH  10  20
ENDBRANCH   8   9
ENDBRANCH   6   8
ENDBRANCH   5   6
ENDBRANCH   4   5
ENDBRANCH   3   4
ENDBRANCH   2   3
ENDBRANCH   1   2
BRANCH   1  32
ATOM     32  C   UNL A   1      33.619  31.939  27.658  1.00  0.00     0.188 C 
BRANCH  32  33
ATOM     33  O   UNL A   1      34.057  33.004  28.489  1.00  0.00    -0.376 OA
BRANCH  33  34
ATOM     34  C   UNL A   1      33.505  34.303  28.356  1.00  0.00     0.202 C 
BRANCH  34  35
ATOM     35  C   UNL A   1      33.020  35.017  29.623  1.00  0.00     0.261 C 
BRANCH  35  36
ATOM     36  O   UNL A   1      34.050  35.309  30.584  1.00  0.00    -0.460 OA
BRANCH  36  37
ATOM     37  C   UNL A   1      34.123  34.483  31.658  1.00  0.00     0.338 C 
ATOM     38  O   UNL A   1      33.273  34.314  32.516  1.00  0.00    -0.246 OA
BRANCH  37  39
ATOM     39  C   UNL A   1      35.347  33.650  31.563  1.00  0.00     0.060 A 
ATOM     40  C   UNL A   1      36.456  34.064  30.823  1.00  0.00     0.016 A 
ATOM     41  C   UNL A   1      35.364  32.404  32.214  1.00  0.00     0.016 A 
ATOM     42  C   UNL A   1      37.600  33.261  30.787  1.00  0.00     0.010 A 
ATOM     43  C   UNL A   1      36.506  31.598  32.169  1.00  0.00     0.010 A 
ATOM     44  C   UNL A   1      37.648  32.041  31.490  1.00  0.00    -0.014 A 
BRANCH  44  45
ATOM     45  C   UNL A   1      38.965  31.389  31.716  1.00  0.00     0.031 A 
ATOM     46  C   UNL A   1      39.849  31.712  32.880  1.00  0.00     0.074 A 
ATOM     47  C   UNL A   1      39.341  30.450  30.825  1.00  0.00     0.049 A 
ATOM     48  N   UNL A   1      40.923  31.080  33.284  1.00  0.00    -0.248 NA
ATOM     49  C   UNL A   1      39.501  32.887  33.691  1.00  0.00     0.031 C 
ATOM     50  C   UNL A   1      38.576  30.084  29.630  1.00  0.00     0.029 A 
ATOM     51  N   UNL A   1      40.428  29.613  30.794  1.00  0.00    -0.354 N 
ATOM     52  C   UNL A   1      41.367  31.759  34.410  1.00  0.00     0.074 A 
ATOM     53  C   UNL A   1      40.472  32.883  34.599  1.00  0.00     0.031 C 
ATOM     54  C   UNL A   1      39.182  29.058  29.019  1.00  0.00     0.029 A 
ATOM     55  C   UNL A   1      40.392  28.711  29.757  1.00  0.00     0.049 A 
ATOM     56  H   UNL A   1      41.160  29.654  31.451  1.00  0.00     0.167 HD
ATOM     57  C   UNL A   1      42.416  31.456  35.212  1.00  0.00     0.031 A 
ATOM     58  C   UNL A   1      41.220  27.697  29.443  1.00  0.00     0.031 A 
ATOM     59  C   UNL A   1      43.316  30.349  34.994  1.00  0.00     0.049 A 
ATOM     60  C   UNL A   1      42.389  27.401  30.340  1.00  0.00     0.074 A 
ATOM     61  C   UNL A   1      44.376  29.938  35.785  1.00  0.00     0.029 A 
ATOM     62  N   UNL A   1      43.276  29.489  33.907  1.00  0.00    -0.354 N 
ATOM     63  N   UNL A   1      42.730  27.983  31.464  1.00  0.00    -0.248 NA
ATOM     64  C   UNL A   1      43.274  26.298  29.940  1.00  0.00     0.031 C 
ATOM     65  C   UNL A   1      45.024  28.882  35.141  1.00  0.00     0.029 A 
ATOM     66  C   UNL A   1      44.316  28.575  33.991  1.00  0.00     0.049 A 
ATOM     67  H   UNL A   1      42.609  29.522  33.183  1.00  0.00     0.167 HD
ATOM     68  C   UNL A   1      43.847  27.298  31.921  1.00  0.00     0.074 A 
ATOM     69  C   UNL A   1      44.117  26.247  30.963  1.00  0.00     0.031 C 
ATOM     70  C   UNL A   1      44.580  27.524  33.039  1.00  0.00     0.031 A 
BRANCH  57  71
ATOM     71  C   UNL A   1      42.667  32.311  36.428  1.00  0.00    -0.014 A 
ATOM     72  C   UNL A   1      43.573  33.382  36.358  1.00  0.00     0.009 A 
ATOM     73  C   UNL A   1      42.135  31.955  37.677  1.00  0.00     0.009 A 
ATOM     74  C   UNL A   1      43.964  34.060  37.515  1.00  0.00     0.001 A 
ATOM     75  C   UNL A   1      42.506  32.654  38.830  1.00  0.00     0.001 A 
ATOM     76  C   UNL A   1      43.429  33.696  38.750  1.00  0.00     0.000 A 
ENDBRANCH  57  71
BRANCH  58  77
ATOM     77  C   UNL A   1      40.924  26.851  28.256  1.00  0.00    -0.014 A 
ATOM     78  C   UNL A   1      40.122  25.705  28.375  1.00  0.00     0.009 A 
ATOM     79  C   UNL A   1      41.481  27.159  27.005  1.00  0.00     0.009 A 
ATOM     80  C   UNL A   1      39.904  24.872  27.275  1.00  0.00     0.001 A 
ATOM     81  C   UNL A   1      41.231  26.346  25.898  1.00  0.00     0.001 A 
ATOM     82  C   UNL A   1      40.451  25.198  26.037  1.00  0.00     0.000 A 
ENDBRANCH  58  77
BRANCH  70  83
ATOM     83  C   UNL A   1      45.742  26.611  33.323  1.00  0.00    -0.014 A 
ATOM     84  C   UNL A   1      47.002  26.897  32.769  1.00  0.00     0.009 A 
ATOM     85  C   UNL A   1      45.573  25.415  34.037  1.00  0.00     0.009 A 
ATOM     86  C   UNL A   1      48.058  25.994  32.901  1.00  0.00     0.001 A 
ATOM     87  C   UNL A   1      46.642  24.530  34.198  1.00  0.00     0.001 A 
ATOM     88  C   UNL A   1      47.878  24.814  33.620  1.00  0.00     0.000 A 
ENDBRANCH  70  83
ENDBRANCH  44  45
ENDBRANCH  37  39
ENDBRANCH  36  37
ENDBRANCH  35  36
ENDBRANCH  34  35
ENDBRANCH  33  34
ENDBRANCH  32  33
ENDBRANCH   1  32
TORSDOF 20
ENDMDL
