MODEL 1
REMARK VINA RESULT:     -10.5      0.000      0.000
REMARK SMILES C[N@H+]1CCO[C@H](c2noc(-c3ccccc3C(=O)OCCOCCOCCOC(=O)c3ccc(-c4c5nc(c(-c6ccccc6)c6ccc([nH]6)c(-c6ccccc6)c6nc(c(-c7ccccc7)c7ccc4[nH]7)C=C6)C=C5)cc3)n2)C1
REMARK SMILES IDX 23 1 22 2 21 3 20 4 19 5 17 6 18 7 16 8 11 9 12 10 13 11
REMARK SMILES IDX 15 12 14 13 10 14 7 15 8 16 79 17 9 18 6 19 1 20 2 21 3 22
REMARK SMILES IDX 80 23 4 25 5 26 24 27 25 28 26 29 27 30 28 31 29 32 30 33
REMARK SMILES IDX 31 34 32 35 78 36 33 37 77 38 34 39 35 40 36 41 71 42 37 43
REMARK SMILES IDX 76 44 70 45 72 46 38 47 75 48 69 49 68 50 39 52 61 53 46 54
REMARK SMILES IDX 60 55 47 56 50 57 59 58 73 59 48 60 49 61 58 63 74 64 51 65
REMARK SMILES IDX 40 66 41 67 45 68 42 69 44 70 43 71 62 72 63 73 67 74 64 75
REMARK SMILES IDX 66 76 65 77 52 78 53 79 57 80 54 81 56 82 55 83
REMARK H PARENT 2 24 72 51 50 62
REMARK Flexibility Score: inf
ROOT
ATOM      1  C   UNL A   1      32.855  28.960  26.002  1.00  0.00     0.188 C 
ENDROOT
BRANCH   1   2
ATOM      2  O   UNL A   1      32.494  28.551  24.693  1.00  0.00    -0.376 OA
BRANCH   2   3
ATOM      3  C   UNL A   1      33.304  28.959  23.595  1.00  0.00     0.202 C 
BRANCH   3   4
ATOM      4  C   UNL A   1      33.478  28.057  22.368  1.00  0.00     0.261 C 
BRANCH   4   5
ATOM      5  O   UNL A   1      33.825  26.710  22.710  1.00  0.00    -0.460 OA
BRANCH   5   6
ATOM      6  C   UNL A   1      33.296  25.739  21.932  1.00  0.00     0.339 C 
ATOM      7  O   UNL A   1      33.235  25.737  20.713  1.00  0.00    -0.246 OA
BRANCH   6   8
ATOM      8  C   UNL A   1      33.025  24.520  22.733  1.00  0.00     0.072 A 
ATOM      9  C   UNL A   1      31.817  24.244  23.402  1.00  0.00     0.054 A 
ATOM     10  C   UNL A   1      31.719  23.010  24.084  1.00  0.00     0.015 A 
ATOM     11  C   UNL A   1      32.796  22.121  24.157  1.00  0.00     0.001 A 
ATOM     12  C   UNL A   1      34.110  23.621  22.820  1.00  0.00     0.016 A 
ATOM     13  C   UNL A   1      34.001  22.437  23.545  1.00  0.00     0.001 A 
BRANCH   9  14
ATOM     14  C   UNL A   1      30.725  25.212  23.500  1.00  0.00     0.258 A 
ATOM     15  C   UNL A   1      29.594  26.975  23.504  1.00  0.00     0.206 A 
ATOM     16  N   UNL A   1      29.286  26.421  24.687  1.00  0.00    -0.059 NA
ATOM     17  N   UNL A   1      30.368  26.181  22.691  1.00  0.00    -0.189 NA
ATOM     18  O   UNL A   1      30.051  25.253  24.694  1.00  0.00    -0.334 OA
BRANCH  15  19
ATOM     19  C   UNL A   1      29.322  28.423  23.202  1.00  0.00     0.245 C 
ATOM     20  C   UNL A   1      27.571  31.095  23.517  1.00  0.00     0.332 C 
ATOM     21  N   UNL A   1      27.423  30.037  22.521  1.00  0.00    -0.333 N 
ATOM     22  C   UNL A   1      28.242  30.297  21.323  1.00  0.00     0.290 C 
ATOM     23  C   UNL A   1      27.796  28.707  23.075  1.00  0.00     0.303 C 
ATOM     24  H   UNL A   1      26.438  30.031  22.259  1.00  0.00     0.348 HD
ATOM     25  C   UNL A   1      29.741  30.123  21.576  1.00  0.00     0.222 C 
ATOM     26  O   UNL A   1      30.028  28.792  21.992  1.00  0.00    -0.358 OA
ENDBRANCH  15  19
ENDBRANCH   9  14
ENDBRANCH   6   8
ENDBRANCH   5   6
ENDBRANCH   4   5
ENDBRANCH   3   4
ENDBRANCH   2   3
ENDBRANCH   1   2
BRANCH   1  27
ATOM     27  C   UNL A   1      31.852  29.760  26.861  1.00  0.00     0.188 C 
BRANCH  27  28
ATOM     28  O   UNL A   1      31.736  31.145  26.675  1.00  0.00    -0.376 OA
BRANCH  28  29
ATOM     29  C   UNL A   1      32.587  32.056  27.346  1.00  0.00     0.202 C 
BRANCH  29  30
ATOM     30  C   UNL A   1      32.437  33.588  27.375  1.00  0.00     0.261 C 
BRANCH  30  31
ATOM     31  O   UNL A   1      32.425  34.236  28.646  1.00  0.00    -0.460 OA
BRANCH  31  32
ATOM     32  C   UNL A   1      33.499  35.017  28.916  1.00  0.00     0.338 C 
ATOM     33  O   UNL A   1      33.552  36.235  28.947  1.00  0.00    -0.246 OA
BRANCH  32  34
ATOM     34  C   UNL A   1      34.582  34.133  29.376  1.00  0.00     0.060 A 
ATOM     35  C   UNL A   1      34.304  33.177  30.362  1.00  0.00     0.016 A 
ATOM     36  C   UNL A   1      35.852  34.227  28.805  1.00  0.00     0.016 A 
ATOM     37  C   UNL A   1      35.299  32.291  30.769  1.00  0.00     0.010 A 
ATOM     38  C   UNL A   1      36.855  33.364  29.240  1.00  0.00     0.010 A 
ATOM     39  C   UNL A   1      36.586  32.401  30.230  1.00  0.00    -0.014 A 
BRANCH  39  40
ATOM     40  C   UNL A   1      37.701  31.619  30.805  1.00  0.00     0.031 A 
ATOM     41  C   UNL A   1      38.222  32.015  32.156  1.00  0.00     0.074 A 
ATOM     42  C   UNL A   1      38.245  30.591  30.132  1.00  0.00     0.049 A 
ATOM     43  N   UNL A   1      39.258  31.559  32.809  1.00  0.00    -0.248 NA
ATOM     44  C   UNL A   1      37.473  33.067  32.865  1.00  0.00     0.031 C 
ATOM     45  C   UNL A   1      37.785  30.080  28.842  1.00  0.00     0.029 A 
ATOM     46  N   UNL A   1      39.323  29.801  30.444  1.00  0.00    -0.354 N 
ATOM     47  C   UNL A   1      39.290  32.271  34.001  1.00  0.00     0.074 A 
ATOM     48  C   UNL A   1      38.186  33.205  33.972  1.00  0.00     0.031 C 
ATOM     49  C   UNL A   1      38.590  29.071  28.462  1.00  0.00     0.029 A 
ATOM     50  C   UNL A   1      39.645  28.898  29.459  1.00  0.00     0.049 A 
ATOM     51  H   UNL A   1      39.818  29.873  31.292  1.00  0.00     0.167 HD
ATOM     52  C   UNL A   1      40.160  32.153  35.029  1.00  0.00     0.031 A 
ATOM     53  C   UNL A   1      40.695  28.060  29.362  1.00  0.00     0.031 A 
ATOM     54  C   UNL A   1      41.270  31.241  35.041  1.00  0.00     0.049 A 
ATOM     55  C   UNL A   1      41.720  28.038  30.469  1.00  0.00     0.074 A 
ATOM     56  C   UNL A   1      42.215  31.048  36.034  1.00  0.00     0.029 A 
ATOM     57  N   UNL A   1      41.590  30.376  34.006  1.00  0.00    -0.354 N 
ATOM     58  N   UNL A   1      41.731  28.698  31.602  1.00  0.00    -0.248 NA
ATOM     59  C   UNL A   1      42.881  27.155  30.280  1.00  0.00     0.031 C 
ATOM     60  C   UNL A   1      43.141  30.107  35.573  1.00  0.00     0.029 A 
ATOM     61  C   UNL A   1      42.736  29.669  34.323  1.00  0.00     0.049 A 
ATOM     62  H   UNL A   1      41.078  30.280  33.171  1.00  0.00     0.167 HD
ATOM     63  C   UNL A   1      42.878  28.287  32.270  1.00  0.00     0.074 A 
ATOM     64  C   UNL A   1      43.526  27.305  31.427  1.00  0.00     0.031 C 
ATOM     65  C   UNL A   1      43.358  28.688  33.474  1.00  0.00     0.031 A 
BRANCH  52  66
ATOM     66  C   UNL A   1      39.962  33.050  36.216  1.00  0.00    -0.014 A 
ATOM     67  C   UNL A   1      40.548  34.325  36.267  1.00  0.00     0.009 A 
ATOM     68  C   UNL A   1      39.136  32.639  37.273  1.00  0.00     0.009 A 
ATOM     69  C   UNL A   1      40.326  35.161  37.364  1.00  0.00     0.001 A 
ATOM     70  C   UNL A   1      38.892  33.487  38.354  1.00  0.00     0.001 A 
ATOM     71  C   UNL A   1      39.491  34.745  38.401  1.00  0.00     0.000 A 
ENDBRANCH  52  66
BRANCH  53  72
ATOM     72  C   UNL A   1      40.875  27.202  28.159  1.00  0.00    -0.014 A 
ATOM     73  C   UNL A   1      41.533  27.695  27.021  1.00  0.00     0.009 A 
ATOM     74  C   UNL A   1      40.332  25.908  28.116  1.00  0.00     0.009 A 
ATOM     75  C   UNL A   1      41.608  26.926  25.856  1.00  0.00     0.001 A 
ATOM     76  C   UNL A   1      40.439  25.129  26.963  1.00  0.00     0.001 A 
ATOM     77  C   UNL A   1      41.062  25.644  25.829  1.00  0.00     0.000 A 
ENDBRANCH  53  72
BRANCH  65  78
ATOM     78  C   UNL A   1      44.621  28.038  33.968  1.00  0.00    -0.014 A 
ATOM     79  C   UNL A   1      44.588  26.839  34.694  1.00  0.00     0.009 A 
ATOM     80  C   UNL A   1      45.864  28.607  33.650  1.00  0.00     0.009 A 
ATOM     81  C   UNL A   1      45.775  26.237  35.117  1.00  0.00     0.001 A 
ATOM     82  C   UNL A   1      47.050  27.986  34.044  1.00  0.00     0.001 A 
ATOM     83  C   UNL A   1      47.005  26.807  34.785  1.00  0.00     0.000 A 
ENDBRANCH  65  78
ENDBRANCH  39  40
ENDBRANCH  32  34
ENDBRANCH  31  32
ENDBRANCH  30  31
ENDBRANCH  29  30
ENDBRANCH  28  29
ENDBRANCH  27  28
ENDBRANCH   1  27
TORSDOF 19
ENDMDL
MODEL 2
REMARK VINA RESULT:     -10.5      3.490      5.292
REMARK SMILES C[N@H+]1CCO[C@H](c2noc(-c3ccccc3C(=O)OCCOCCOCCOC(=O)c3ccc(-c4c5nc(c(-c6ccccc6)c6ccc([nH]6)c(-c6ccccc6)c6nc(c(-c7ccccc7)c7ccc4[nH]7)C=C6)C=C5)cc3)n2)C1
REMARK SMILES IDX 23 1 22 2 21 3 20 4 19 5 17 6 18 7 16 8 11 9 12 10 13 11
REMARK SMILES IDX 15 12 14 13 10 14 7 15 8 16 79 17 9 18 6 19 1 20 2 21 3 22
REMARK SMILES IDX 80 23 4 25 5 26 24 27 25 28 26 29 27 30 28 31 29 32 30 33
REMARK SMILES IDX 31 34 32 35 78 36 33 37 77 38 34 39 35 40 36 41 71 42 37 43
REMARK SMILES IDX 76 44 70 45 72 46 38 47 75 48 69 49 68 50 39 52 61 53 46 54
REMARK SMILES IDX 60 55 47 56 50 57 59 58 73 59 48 60 49 61 58 63 74 64 51 65
REMARK SMILES IDX 40 66 41 67 45 68 42 69 44 70 43 71 62 72 63 73 67 74 64 75
REMARK SMILES IDX 66 76 65 77 52 78 53 79 57 80 54 81 56 82 55 83
REMARK H PARENT 2 24 72 51 50 62
REMARK Flexibility Score: inf
ROOT
ATOM      1  C   UNL A   1      33.986  31.806  28.131  1.00  0.00     0.188 C 
ENDROOT
BRANCH   1   2
ATOM      2  O   UNL A   1      33.503  31.083  27.011  1.00  0.00    -0.376 OA
BRANCH   2   3
ATOM      3  C   UNL A   1      32.102  30.865  26.882  1.00  0.00     0.202 C 
BRANCH   3   4
ATOM      4  C   UNL A   1      31.513  29.453  26.983  1.00  0.00     0.261 C 
BRANCH   4   5
ATOM      5  O   UNL A   1      32.101  28.534  26.055  1.00  0.00    -0.460 OA
BRANCH   5   6
ATOM      6  C   UNL A   1      31.708  27.245  26.157  1.00  0.00     0.339 C 
ATOM      7  O   UNL A   1      30.782  26.819  26.827  1.00  0.00    -0.246 OA
BRANCH   6   8
ATOM      8  C   UNL A   1      32.382  26.412  25.130  1.00  0.00     0.072 A 
ATOM      9  C   UNL A   1      31.954  26.274  23.795  1.00  0.00     0.054 A 
ATOM     10  C   UNL A   1      32.743  25.473  22.940  1.00  0.00     0.015 A 
ATOM     11  C   UNL A   1      33.867  24.784  23.406  1.00  0.00     0.001 A 
ATOM     12  C   UNL A   1      33.512  25.706  25.594  1.00  0.00     0.016 A 
ATOM     13  C   UNL A   1      34.239  24.880  24.740  1.00  0.00     0.001 A 
BRANCH   9  14
ATOM     14  C   UNL A   1      30.696  26.833  23.302  1.00  0.00     0.258 A 
ATOM     15  C   UNL A   1      29.147  28.139  22.767  1.00  0.00     0.206 A 
ATOM     16  N   UNL A   1      28.514  27.213  23.503  1.00  0.00    -0.059 NA
ATOM     17  N   UNL A   1      30.467  27.852  22.508  1.00  0.00    -0.189 NA
ATOM     18  O   UNL A   1      29.547  26.349  23.875  1.00  0.00    -0.334 OA
BRANCH  15  19
ATOM     19  C   UNL A   1      28.535  29.479  22.466  1.00  0.00     0.245 C 
ATOM     20  C   UNL A   1      28.042  31.988  20.526  1.00  0.00     0.332 C 
ATOM     21  N   UNL A   1      29.109  31.809  21.508  1.00  0.00    -0.333 N 
ATOM     22  C   UNL A   1      28.719  32.314  22.837  1.00  0.00     0.290 C 
ATOM     23  C   UNL A   1      29.499  30.379  21.636  1.00  0.00     0.303 C 
ATOM     24  H   UNL A   1      29.904  32.347  21.164  1.00  0.00     0.348 HD
ATOM     25  C   UNL A   1      27.668  31.439  23.523  1.00  0.00     0.222 C 
ATOM     26  O   UNL A   1      28.163  30.118  23.712  1.00  0.00    -0.358 OA
ENDBRANCH  15  19
ENDBRANCH   9  14
ENDBRANCH   6   8
ENDBRANCH   5   6
ENDBRANCH   4   5
ENDBRANCH   3   4
ENDBRANCH   2   3
ENDBRANCH   1   2
BRANCH   1  27
ATOM     27  C   UNL A   1      33.902  33.348  28.144  1.00  0.00     0.188 C 
BRANCH  27  28
ATOM     28  O   UNL A   1      33.238  33.992  29.197  1.00  0.00    -0.376 OA
BRANCH  28  29
ATOM     29  C   UNL A   1      33.859  35.021  29.945  1.00  0.00     0.202 C 
BRANCH  29  30
ATOM     30  C   UNL A   1      34.292  34.940  31.421  1.00  0.00     0.261 C 
BRANCH  30  31
ATOM     31  O   UNL A   1      35.479  34.212  31.731  1.00  0.00    -0.460 OA
BRANCH  31  32
ATOM     32  C   UNL A   1      35.299  32.908  32.053  1.00  0.00     0.338 C 
ATOM     33  O   UNL A   1      34.322  32.389  32.564  1.00  0.00    -0.246 OA
BRANCH  32  34
ATOM     34  C   UNL A   1      36.433  32.155  31.490  1.00  0.00     0.060 A 
ATOM     35  C   UNL A   1      37.025  31.146  32.261  1.00  0.00     0.016 A 
ATOM     36  C   UNL A   1      36.876  32.423  30.195  1.00  0.00     0.016 A 
ATOM     37  C   UNL A   1      38.059  30.381  31.726  1.00  0.00     0.010 A 
ATOM     38  C   UNL A   1      37.935  31.682  29.675  1.00  0.00     0.010 A 
ATOM     39  C   UNL A   1      38.537  30.666  30.442  1.00  0.00    -0.014 A 
BRANCH  39  40
ATOM     40  C   UNL A   1      39.768  30.016  29.946  1.00  0.00     0.031 A 
ATOM     41  C   UNL A   1      41.040  30.813  29.946  1.00  0.00     0.074 A 
ATOM     42  C   UNL A   1      39.749  28.750  29.495  1.00  0.00     0.049 A 
ATOM     43  N   UNL A   1      42.211  30.502  29.456  1.00  0.00    -0.248 NA
ATOM     44  C   UNL A   1      40.982  32.141  30.582  1.00  0.00     0.031 C 
ATOM     45  C   UNL A   1      38.588  27.861  29.503  1.00  0.00     0.029 A 
ATOM     46  N   UNL A   1      40.747  27.999  28.925  1.00  0.00    -0.354 N 
ATOM     47  C   UNL A   1      43.027  31.594  29.719  1.00  0.00     0.074 A 
ATOM     48  C   UNL A   1      42.214  32.586  30.388  1.00  0.00     0.031 C 
ATOM     49  C   UNL A   1      38.935  26.688  28.943  1.00  0.00     0.029 A 
ATOM     50  C   UNL A   1      40.327  26.762  28.499  1.00  0.00     0.049 A 
ATOM     51  H   UNL A   1      41.674  28.316  28.831  1.00  0.00     0.167 HD
ATOM     52  C   UNL A   1      44.339  31.754  29.432  1.00  0.00     0.031 A 
ATOM     53  C   UNL A   1      40.984  25.819  27.797  1.00  0.00     0.031 A 
ATOM     54  C   UNL A   1      45.136  30.775  28.744  1.00  0.00     0.049 A 
ATOM     55  C   UNL A   1      42.411  26.076  27.380  1.00  0.00     0.074 A 
ATOM     56  C   UNL A   1      46.474  30.843  28.399  1.00  0.00     0.029 A 
ATOM     57  N   UNL A   1      44.663  29.555  28.288  1.00  0.00    -0.354 N 
ATOM     58  N   UNL A   1      43.181  27.102  27.651  1.00  0.00    -0.248 NA
ATOM     59  C   UNL A   1      43.057  25.043  26.557  1.00  0.00     0.031 C 
ATOM     60  C   UNL A   1      46.796  29.687  27.681  1.00  0.00     0.029 A 
ATOM     61  C   UNL A   1      45.675  28.873  27.637  1.00  0.00     0.049 A 
ATOM     62  H   UNL A   1      43.744  29.223  28.409  1.00  0.00     0.167 HD
ATOM     63  C   UNL A   1      44.407  26.823  27.060  1.00  0.00     0.074 A 
ATOM     64  C   UNL A   1      44.286  25.523  26.435  1.00  0.00     0.031 C 
ATOM     65  C   UNL A   1      45.536  27.575  27.031  1.00  0.00     0.031 A 
BRANCH  52  66
ATOM     66  C   UNL A   1      44.989  33.045  29.836  1.00  0.00    -0.014 A 
ATOM     67  C   UNL A   1      44.962  34.167  28.993  1.00  0.00     0.009 A 
ATOM     68  C   UNL A   1      45.590  33.158  31.100  1.00  0.00     0.009 A 
ATOM     69  C   UNL A   1      45.542  35.370  29.399  1.00  0.00     0.001 A 
ATOM     70  C   UNL A   1      46.143  34.370  31.515  1.00  0.00     0.001 A 
ATOM     71  C   UNL A   1      46.123  35.473  30.662  1.00  0.00     0.000 A 
ENDBRANCH  52  66
BRANCH  53  72
ATOM     72  C   UNL A   1      40.301  24.561  27.388  1.00  0.00    -0.014 A 
ATOM     73  C   UNL A   1      40.806  23.311  27.781  1.00  0.00     0.009 A 
ATOM     74  C   UNL A   1      39.177  24.599  26.547  1.00  0.00     0.009 A 
ATOM     75  C   UNL A   1      40.226  22.131  27.309  1.00  0.00     0.001 A 
ATOM     76  C   UNL A   1      38.577  23.418  26.106  1.00  0.00     0.001 A 
ATOM     77  C   UNL A   1      39.111  22.185  26.474  1.00  0.00     0.000 A 
ENDBRANCH  53  72
BRANCH  65  78
ATOM     78  C   UNL A   1      46.738  26.997  26.337  1.00  0.00    -0.014 A 
ATOM     79  C   UNL A   1      47.049  27.337  25.013  1.00  0.00     0.009 A 
ATOM     80  C   UNL A   1      47.602  26.144  27.042  1.00  0.00     0.009 A 
ATOM     81  C   UNL A   1      48.188  26.811  24.398  1.00  0.00     0.001 A 
ATOM     82  C   UNL A   1      48.757  25.648  26.437  1.00  0.00     0.001 A 
ATOM     83  C   UNL A   1      49.045  25.974  25.113  1.00  0.00     0.000 A 
ENDBRANCH  65  78
ENDBRANCH  39  40
ENDBRANCH  32  34
ENDBRANCH  31  32
ENDBRANCH  30  31
ENDBRANCH  29  30
ENDBRANCH  28  29
ENDBRANCH  27  28
ENDBRANCH   1  27
TORSDOF 19
ENDMDL
MODEL 3
REMARK VINA RESULT:     -10.5      0.803      5.772
REMARK SMILES C[N@H+]1CCO[C@H](c2noc(-c3ccccc3C(=O)OCCOCCOCCOC(=O)c3ccc(-c4c5nc(c(-c6ccccc6)c6ccc([nH]6)c(-c6ccccc6)c6nc(c(-c7ccccc7)c7ccc4[nH]7)C=C6)C=C5)cc3)n2)C1
REMARK SMILES IDX 23 1 22 2 21 3 20 4 19 5 17 6 18 7 16 8 11 9 12 10 13 11
REMARK SMILES IDX 15 12 14 13 10 14 7 15 8 16 79 17 9 18 6 19 1 20 2 21 3 22
REMARK SMILES IDX 80 23 4 25 5 26 24 27 25 28 26 29 27 30 28 31 29 32 30 33
REMARK SMILES IDX 31 34 32 35 78 36 33 37 77 38 34 39 35 40 36 41 71 42 37 43
REMARK SMILES IDX 76 44 70 45 72 46 38 47 75 48 69 49 68 50 39 52 61 53 46 54
REMARK SMILES IDX 60 55 47 56 50 57 59 58 73 59 48 60 49 61 58 63 74 64 51 65
REMARK SMILES IDX 40 66 41 67 45 68 42 69 44 70 43 71 62 72 63 73 67 74 64 75
REMARK SMILES IDX 66 76 65 77 52 78 53 79 57 80 54 81 56 82 55 83
REMARK H PARENT 2 24 72 51 50 62
REMARK Flexibility Score: inf
ROOT
ATOM      1  C   UNL A   1      33.274  29.115  25.752  1.00  0.00     0.188 C 
ENDROOT
BRANCH   1   2
ATOM      2  O   UNL A   1      33.072  29.464  24.393  1.00  0.00    -0.376 OA
BRANCH   2   3
ATOM      3  C   UNL A   1      33.940  28.920  23.404  1.00  0.00     0.202 C 
BRANCH   3   4
ATOM      4  C   UNL A   1      33.410  27.960  22.333  1.00  0.00     0.261 C 
BRANCH   4   5
ATOM      5  O   UNL A   1      33.532  26.583  22.707  1.00  0.00    -0.460 OA
BRANCH   5   6
ATOM      6  C   UNL A   1      33.069  25.677  21.818  1.00  0.00     0.339 C 
ATOM      7  O   UNL A   1      33.153  25.743  20.603  1.00  0.00    -0.246 OA
BRANCH   6   8
ATOM      8  C   UNL A   1      32.668  24.427  22.509  1.00  0.00     0.072 A 
ATOM      9  C   UNL A   1      31.535  24.288  23.334  1.00  0.00     0.054 A 
ATOM     10  C   UNL A   1      31.281  23.009  23.878  1.00  0.00     0.015 A 
ATOM     11  C   UNL A   1      32.150  21.934  23.671  1.00  0.00     0.001 A 
ATOM     12  C   UNL A   1      33.546  23.339  22.313  1.00  0.00     0.016 A 
ATOM     13  C   UNL A   1      33.298  22.104  22.907  1.00  0.00     0.001 A 
BRANCH   9  14
ATOM     14  C   UNL A   1      30.691  25.417  23.720  1.00  0.00     0.258 A 
ATOM     15  C   UNL A   1      29.784  27.302  23.843  1.00  0.00     0.206 A 
ATOM     16  N   UNL A   1      30.143  27.062  25.113  1.00  0.00    -0.059 NA
ATOM     17  N   UNL A   1      29.982  26.243  22.989  1.00  0.00    -0.189 NA
ATOM     18  O   UNL A   1      30.762  25.813  25.032  1.00  0.00    -0.334 OA
BRANCH  15  19
ATOM     19  C   UNL A   1      29.431  28.681  23.357  1.00  0.00     0.245 C 
ATOM     20  C   UNL A   1      27.534  31.270  23.340  1.00  0.00     0.332 C 
ATOM     21  N   UNL A   1      27.442  30.085  22.492  1.00  0.00    -0.333 N 
ATOM     22  C   UNL A   1      28.240  30.229  21.261  1.00  0.00     0.290 C 
ATOM     23  C   UNL A   1      27.890  28.861  23.211  1.00  0.00     0.303 C 
ATOM     24  H   UNL A   1      26.457  29.990  22.243  1.00  0.00     0.348 HD
ATOM     25  C   UNL A   1      29.747  30.173  21.518  1.00  0.00     0.222 C 
ATOM     26  O   UNL A   1      30.110  28.926  22.101  1.00  0.00    -0.358 OA
ENDBRANCH  15  19
ENDBRANCH   9  14
ENDBRANCH   6   8
ENDBRANCH   5   6
ENDBRANCH   4   5
ENDBRANCH   3   4
ENDBRANCH   2   3
ENDBRANCH   1   2
BRANCH   1  27
ATOM     27  C   UNL A   1      32.194  29.454  26.801  1.00  0.00     0.188 C 
BRANCH  27  28
ATOM     28  O   UNL A   1      31.813  30.790  26.990  1.00  0.00    -0.376 OA
BRANCH  28  29
ATOM     29  C   UNL A   1      32.760  31.792  27.310  1.00  0.00     0.202 C 
BRANCH  29  30
ATOM     30  C   UNL A   1      32.518  33.313  27.293  1.00  0.00     0.261 C 
BRANCH  30  31
ATOM     31  O   UNL A   1      32.310  33.972  28.540  1.00  0.00    -0.460 OA
BRANCH  31  32
ATOM     32  C   UNL A   1      33.194  34.955  28.839  1.00  0.00     0.338 C 
ATOM     33  O   UNL A   1      32.992  36.156  28.890  1.00  0.00    -0.246 OA
BRANCH  32  34
ATOM     34  C   UNL A   1      34.433  34.307  29.300  1.00  0.00     0.060 A 
ATOM     35  C   UNL A   1      34.375  33.439  30.399  1.00  0.00     0.016 A 
ATOM     36  C   UNL A   1      35.633  34.530  28.624  1.00  0.00     0.016 A 
ATOM     37  C   UNL A   1      35.523  32.770  30.815  1.00  0.00     0.010 A 
ATOM     38  C   UNL A   1      36.788  33.889  29.066  1.00  0.00     0.010 A 
ATOM     39  C   UNL A   1      36.740  33.015  30.167  1.00  0.00    -0.014 A 
BRANCH  39  40
ATOM     40  C   UNL A   1      38.001  32.487  30.730  1.00  0.00     0.031 A 
ATOM     41  C   UNL A   1      38.603  31.265  30.099  1.00  0.00     0.074 A 
ATOM     42  C   UNL A   1      38.587  33.074  31.788  1.00  0.00     0.049 A 
ATOM     43  N   UNL A   1      39.630  30.556  30.484  1.00  0.00    -0.248 NA
ATOM     44  C   UNL A   1      37.957  30.778  28.867  1.00  0.00     0.031 C 
ATOM     45  C   UNL A   1      38.127  34.296  32.445  1.00  0.00     0.029 A 
ATOM     46  N   UNL A   1      39.697  32.702  32.504  1.00  0.00    -0.354 N 
ATOM     47  C   UNL A   1      39.751  29.537  29.548  1.00  0.00     0.074 A 
ATOM     48  C   UNL A   1      38.679  29.704  28.591  1.00  0.00     0.031 C 
ATOM     49  C   UNL A   1      38.939  34.563  33.484  1.00  0.00     0.029 A 
ATOM     50  C   UNL A   1      39.945  33.507  33.590  1.00  0.00     0.049 A 
ATOM     51  H   UNL A   1      40.261  31.931  32.263  1.00  0.00     0.167 HD
ATOM     52  C   UNL A   1      40.676  28.552  29.490  1.00  0.00     0.031 A 
ATOM     53  C   UNL A   1      40.856  33.378  34.573  1.00  0.00     0.031 A 
ATOM     54  C   UNL A   1      41.724  28.376  30.459  1.00  0.00     0.049 A 
ATOM     55  C   UNL A   1      41.797  32.199  34.551  1.00  0.00     0.074 A 
ATOM     56  C   UNL A   1      42.709  27.405  30.494  1.00  0.00     0.029 A 
ATOM     57  N   UNL A   1      41.914  29.184  31.568  1.00  0.00    -0.354 N 
ATOM     58  N   UNL A   1      41.919  31.252  33.652  1.00  0.00    -0.248 NA
ATOM     59  C   UNL A   1      42.725  32.070  35.685  1.00  0.00     0.031 C 
ATOM     60  C   UNL A   1      43.460  27.592  31.659  1.00  0.00     0.029 A 
ATOM     61  C   UNL A   1      42.982  28.716  32.312  1.00  0.00     0.049 A 
ATOM     62  H   UNL A   1      41.370  29.973  31.794  1.00  0.00     0.167 HD
ATOM     63  C   UNL A   1      42.954  30.438  34.095  1.00  0.00     0.074 A 
ATOM     64  C   UNL A   1      43.440  31.012  35.332  1.00  0.00     0.031 C 
ATOM     65  C   UNL A   1      43.457  29.310  33.534  1.00  0.00     0.031 A 
BRANCH  52  66
ATOM     66  C   UNL A   1      40.582  27.573  28.357  1.00  0.00    -0.014 A 
ATOM     67  C   UNL A   1      41.259  27.793  27.148  1.00  0.00     0.009 A 
ATOM     68  C   UNL A   1      39.849  26.386  28.519  1.00  0.00     0.009 A 
ATOM     69  C   UNL A   1      41.187  26.855  26.116  1.00  0.00     0.001 A 
ATOM     70  C   UNL A   1      39.803  25.437  27.498  1.00  0.00     0.001 A 
ATOM     71  C   UNL A   1      40.467  25.674  26.296  1.00  0.00     0.000 A 
ENDBRANCH  52  66
BRANCH  53  72
ATOM     72  C   UNL A   1      40.905  34.353  35.697  1.00  0.00    -0.014 A 
ATOM     73  C   UNL A   1      40.087  34.186  36.826  1.00  0.00     0.009 A 
ATOM     74  C   UNL A   1      41.722  35.492  35.619  1.00  0.00     0.009 A 
ATOM     75  C   UNL A   1      40.057  35.158  37.830  1.00  0.00     0.001 A 
ATOM     76  C   UNL A   1      41.716  36.444  36.640  1.00  0.00     0.001 A 
ATOM     77  C   UNL A   1      40.873  36.284  37.737  1.00  0.00     0.000 A 
ENDBRANCH  53  72
BRANCH  65  78
ATOM     78  C   UNL A   1      44.615  28.647  34.227  1.00  0.00    -0.014 A 
ATOM     79  C   UNL A   1      45.936  29.057  33.995  1.00  0.00     0.009 A 
ATOM     80  C   UNL A   1      44.372  27.636  35.171  1.00  0.00     0.009 A 
ATOM     81  C   UNL A   1      46.993  28.448  34.674  1.00  0.00     0.001 A 
ATOM     82  C   UNL A   1      45.427  27.052  35.873  1.00  0.00     0.001 A 
ATOM     83  C   UNL A   1      46.738  27.452  35.617  1.00  0.00     0.000 A 
ENDBRANCH  65  78
ENDBRANCH  39  40
ENDBRANCH  32  34
ENDBRANCH  31  32
ENDBRANCH  30  31
ENDBRANCH  29  30
ENDBRANCH  28  29
ENDBRANCH  27  28
ENDBRANCH   1  27
TORSDOF 19
ENDMDL
