MODEL 1
REMARK VINA RESULT:     -10.0      0.000      0.000
REMARK SMILES CSc1nc(N)cc(Nc2cccc(C(=O)OCCOCCOCCOC(=O)c3ccc(-c4c5nc(c(-c6ccccc6)c6ccc([nH]6)c(-c6ccccc6)c6nc(c(-c7ccccc7)c7ccc4[nH]7)C=C6)C=C5)cc3)c2)n1
REMARK SMILES IDX 21 1 20 2 19 3 18 4 17 5 15 6 16 7 14 8 10 9 11 10 77 11
REMARK SMILES IDX 12 12 13 13 9 14 8 16 3 17 4 18 78 19 5 20 7 21 2 22 1 23
REMARK SMILES IDX 6 24 22 27 23 28 24 29 25 30 26 31 27 32 28 33 29 34 30 35
REMARK SMILES IDX 76 36 31 37 75 38 32 39 33 40 34 41 69 42 35 43 74 44 68 45
REMARK SMILES IDX 70 46 36 47 73 48 67 49 66 50 37 52 59 53 44 54 58 55 45 56
REMARK SMILES IDX 48 57 57 58 71 59 46 60 47 61 56 63 72 64 49 65 38 66 39 67
REMARK SMILES IDX 43 68 40 69 42 70 41 71 60 72 61 73 65 74 62 75 64 76 63 77
REMARK SMILES IDX 50 78 51 79 55 80 52 81 54 82 53 83
REMARK H PARENT 9 15 6 25 6 26 70 51 48 62
REMARK Flexibility Score: inf
ROOT
ATOM      1  C   UNL A   1      33.656  35.360  29.779  1.00  0.00     0.188 C 
ENDROOT
BRANCH   1   2
ATOM      2  O   UNL A   1      32.666  34.577  29.138  1.00  0.00    -0.376 OA
BRANCH   2   3
ATOM      3  C   UNL A   1      32.993  33.819  27.984  1.00  0.00     0.202 C 
BRANCH   3   4
ATOM      4  C   UNL A   1      33.966  32.633  28.042  1.00  0.00     0.261 C 
BRANCH   4   5
ATOM      5  O   UNL A   1      33.499  31.450  27.385  1.00  0.00    -0.460 OA
BRANCH   5   6
ATOM      6  C   UNL A   1      34.323  30.374  27.458  1.00  0.00     0.338 C 
ATOM      7  O   UNL A   1      35.200  30.173  28.278  1.00  0.00    -0.246 OA
BRANCH   6   8
ATOM      8  C   UNL A   1      33.849  29.339  26.512  1.00  0.00     0.062 A 
ATOM      9  C   UNL A   1      32.521  28.674  24.586  1.00  0.00     0.040 A 
ATOM     10  C   UNL A   1      32.949  27.353  24.777  1.00  0.00     0.026 A 
ATOM     11  C   UNL A   1      32.939  29.649  25.503  1.00  0.00     0.041 A 
ATOM     12  C   UNL A   1      33.832  27.029  25.812  1.00  0.00     0.003 A 
ATOM     13  C   UNL A   1      34.306  28.028  26.663  1.00  0.00     0.016 A 
BRANCH   9  14
ATOM     14  N   UNL A   1      31.818  29.025  23.414  1.00  0.00    -0.340 N 
ATOM     15  H   UNL A   1      32.340  29.401  22.669  1.00  0.00     0.168 HD
BRANCH  14  16
ATOM     16  C   UNL A   1      30.429  28.880  23.222  1.00  0.00     0.137 A 
ATOM     17  C   UNL A   1      28.413  29.791  22.599  1.00  0.00     0.191 A 
ATOM     18  N   UNL A   1      27.717  28.697  22.917  1.00  0.00    -0.206 NA
ATOM     19  N   UNL A   1      29.737  29.903  22.703  1.00  0.00    -0.205 NA
ATOM     20  C   UNL A   1      28.423  27.673  23.407  1.00  0.00     0.130 A 
ATOM     21  C   UNL A   1      29.787  27.726  23.614  1.00  0.00     0.093 A 
BRANCH  17  22
ATOM     22  S   UNL A   1      27.554  31.268  22.125  1.00  0.00    -0.090 SA
ATOM     23  C   UNL A   1      28.880  32.459  22.371  1.00  0.00     0.094 C 
ENDBRANCH  17  22
BRANCH  20  24
ATOM     24  N   UNL A   1      27.698  26.558  23.781  1.00  0.00    -0.383 N 
ATOM     25  H   UNL A   1      28.143  25.814  24.248  1.00  0.00     0.158 HD
ATOM     26  H   UNL A   1      26.735  26.506  23.580  1.00  0.00     0.158 HD
ENDBRANCH  20  24
ENDBRANCH  14  16
ENDBRANCH   9  14
ENDBRANCH   6   8
ENDBRANCH   5   6
ENDBRANCH   4   5
ENDBRANCH   3   4
ENDBRANCH   2   3
ENDBRANCH   1   2
BRANCH   1  27
ATOM     27  C   UNL A   1      33.268  36.513  30.728  1.00  0.00     0.188 C 
BRANCH  27  28
ATOM     28  O   UNL A   1      33.354  36.339  32.122  1.00  0.00    -0.376 OA
BRANCH  28  29
ATOM     29  C   UNL A   1      33.794  35.117  32.681  1.00  0.00     0.202 C 
BRANCH  29  30
ATOM     30  C   UNL A   1      35.260  34.662  32.780  1.00  0.00     0.261 C 
BRANCH  30  31
ATOM     31  O   UNL A   1      35.507  33.283  33.065  1.00  0.00    -0.460 OA
BRANCH  31  32
ATOM     32  C   UNL A   1      35.373  32.445  32.006  1.00  0.00     0.338 C 
ATOM     33  O   UNL A   1      34.348  32.128  31.431  1.00  0.00    -0.246 OA
BRANCH  32  34
ATOM     34  C   UNL A   1      36.711  32.073  31.517  1.00  0.00     0.060 A 
ATOM     35  C   UNL A   1      37.031  32.330  30.177  1.00  0.00     0.016 A 
ATOM     36  C   UNL A   1      37.619  31.430  32.357  1.00  0.00     0.016 A 
ATOM     37  C   UNL A   1      38.260  31.920  29.664  1.00  0.00     0.010 A 
ATOM     38  C   UNL A   1      38.843  31.000  31.835  1.00  0.00     0.010 A 
ATOM     39  C   UNL A   1      39.155  31.217  30.481  1.00  0.00    -0.014 A 
BRANCH  39  40
ATOM     40  C   UNL A   1      40.340  30.556  29.882  1.00  0.00     0.031 A 
ATOM     41  C   UNL A   1      41.622  31.334  29.776  1.00  0.00     0.074 A 
ATOM     42  C   UNL A   1      40.284  29.287  29.445  1.00  0.00     0.049 A 
ATOM     43  N   UNL A   1      42.764  30.985  29.243  1.00  0.00    -0.248 NA
ATOM     44  C   UNL A   1      41.611  32.691  30.348  1.00  0.00     0.031 C 
ATOM     45  C   UNL A   1      39.119  28.410  29.531  1.00  0.00     0.029 A 
ATOM     46  N   UNL A   1      41.241  28.520  28.827  1.00  0.00    -0.354 N 
ATOM     47  C   UNL A   1      43.604  32.079  29.405  1.00  0.00     0.074 A 
ATOM     48  C   UNL A   1      42.833  33.114  30.061  1.00  0.00     0.031 C 
ATOM     49  C   UNL A   1      39.425  27.225  28.974  1.00  0.00     0.029 A 
ATOM     50  C   UNL A   1      40.794  27.274  28.462  1.00  0.00     0.049 A 
ATOM     51  H   UNL A   1      42.159  28.833  28.662  1.00  0.00     0.167 HD
ATOM     52  C   UNL A   1      44.901  32.213  29.042  1.00  0.00     0.031 A 
ATOM     53  C   UNL A   1      41.411  26.298  27.770  1.00  0.00     0.031 A 
ATOM     54  C   UNL A   1      45.664  31.196  28.369  1.00  0.00     0.049 A 
ATOM     55  C   UNL A   1      42.826  26.503  27.296  1.00  0.00     0.074 A 
ATOM     56  C   UNL A   1      46.989  31.232  27.971  1.00  0.00     0.029 A 
ATOM     57  N   UNL A   1      45.162  29.963  27.981  1.00  0.00    -0.354 N 
ATOM     58  N   UNL A   1      43.622  27.529  27.480  1.00  0.00    -0.248 NA
ATOM     59  C   UNL A   1      43.432  25.407  26.525  1.00  0.00     0.031 C 
ATOM     60  C   UNL A   1      47.272  30.046  27.288  1.00  0.00     0.029 A 
ATOM     61  C   UNL A   1      46.143  29.242  27.321  1.00  0.00     0.049 A 
ATOM     62  H   UNL A   1      44.245  29.647  28.149  1.00  0.00     0.167 HD
ATOM     63  C   UNL A   1      44.827  27.191  26.876  1.00  0.00     0.074 A 
ATOM     64  C   UNL A   1      44.663  25.859  26.332  1.00  0.00     0.031 C 
ATOM     65  C   UNL A   1      45.968  27.917  26.784  1.00  0.00     0.031 A 
BRANCH  52  66
ATOM     66  C   UNL A   1      45.563  33.532  29.331  1.00  0.00    -0.014 A 
ATOM     67  C   UNL A   1      46.257  33.756  30.531  1.00  0.00     0.009 A 
ATOM     68  C   UNL A   1      45.507  34.560  28.378  1.00  0.00     0.009 A 
ATOM     69  C   UNL A   1      46.847  34.996  30.787  1.00  0.00     0.001 A 
ATOM     70  C   UNL A   1      46.123  35.789  28.624  1.00  0.00     0.001 A 
ATOM     71  C   UNL A   1      46.782  36.010  29.831  1.00  0.00     0.000 A 
ENDBRANCH  52  66
BRANCH  53  72
ATOM     72  C   UNL A   1      40.689  25.035  27.458  1.00  0.00    -0.014 A 
ATOM     73  C   UNL A   1      41.115  23.813  28.000  1.00  0.00     0.009 A 
ATOM     74  C   UNL A   1      39.580  25.044  26.596  1.00  0.00     0.009 A 
ATOM     75  C   UNL A   1      40.461  22.624  27.667  1.00  0.00     0.001 A 
ATOM     76  C   UNL A   1      38.911  23.858  26.289  1.00  0.00     0.001 A 
ATOM     77  C   UNL A   1      39.357  22.648  26.816  1.00  0.00     0.000 A 
ENDBRANCH  53  72
BRANCH  65  78
ATOM     78  C   UNL A   1      47.148  27.272  26.108  1.00  0.00    -0.014 A 
ATOM     79  C   UNL A   1      47.392  27.441  24.736  1.00  0.00     0.009 A 
ATOM     80  C   UNL A   1      48.057  26.521  26.871  1.00  0.00     0.009 A 
ATOM     81  C   UNL A   1      48.502  26.841  24.137  1.00  0.00     0.001 A 
ATOM     82  C   UNL A   1      49.183  25.949  26.275  1.00  0.00     0.001 A 
ATOM     83  C   UNL A   1      49.400  26.102  24.907  1.00  0.00     0.000 A 
ENDBRANCH  65  78
ENDBRANCH  39  40
ENDBRANCH  32  34
ENDBRANCH  31  32
ENDBRANCH  30  31
ENDBRANCH  29  30
ENDBRANCH  28  29
ENDBRANCH  27  28
ENDBRANCH   1  27
TORSDOF 21
ENDMDL
MODEL 2
REMARK VINA RESULT:      -9.6      4.565      9.496
REMARK SMILES CSc1nc(N)cc(Nc2cccc(C(=O)OCCOCCOCCOC(=O)c3ccc(-c4c5nc(c(-c6ccccc6)c6ccc([nH]6)c(-c6ccccc6)c6nc(c(-c7ccccc7)c7ccc4[nH]7)C=C6)C=C5)cc3)c2)n1
REMARK SMILES IDX 21 1 20 2 19 3 18 4 17 5 15 6 16 7 14 8 10 9 11 10 77 11
REMARK SMILES IDX 12 12 13 13 9 14 8 16 3 17 4 18 78 19 5 20 7 21 2 22 1 23
REMARK SMILES IDX 6 24 22 27 23 28 24 29 25 30 26 31 27 32 28 33 29 34 30 35
REMARK SMILES IDX 76 36 31 37 75 38 32 39 33 40 34 41 69 42 35 43 74 44 68 45
REMARK SMILES IDX 70 46 36 47 73 48 67 49 66 50 37 52 59 53 44 54 58 55 45 56
REMARK SMILES IDX 48 57 57 58 71 59 46 60 47 61 56 63 72 64 49 65 38 66 39 67
REMARK SMILES IDX 43 68 40 69 42 70 41 71 60 72 61 73 65 74 62 75 64 76 63 77
REMARK SMILES IDX 50 78 51 79 55 80 52 81 54 82 53 83
REMARK H PARENT 9 15 6 25 6 26 70 51 48 62
REMARK Flexibility Score: inf
ROOT
ATOM      1  C   UNL A   1      36.221  20.362  24.977  1.00  0.00     0.188 C 
ENDROOT
BRANCH   1   2
ATOM      2  O   UNL A   1      34.855  20.203  25.308  1.00  0.00    -0.376 OA
BRANCH   2   3
ATOM      3  C   UNL A   1      34.058  19.255  24.615  1.00  0.00     0.202 C 
BRANCH   3   4
ATOM      4  C   UNL A   1      32.527  19.359  24.573  1.00  0.00     0.261 C 
BRANCH   4   5
ATOM      5  O   UNL A   1      32.024  20.699  24.565  1.00  0.00    -0.460 OA
BRANCH   5   6
ATOM      6  C   UNL A   1      32.274  21.413  23.438  1.00  0.00     0.338 C 
ATOM      7  O   UNL A   1      31.882  21.170  22.310  1.00  0.00    -0.246 OA
BRANCH   6   8
ATOM      8  C   UNL A   1      32.921  22.691  23.809  1.00  0.00     0.062 A 
ATOM      9  C   UNL A   1      32.920  24.790  25.038  1.00  0.00     0.040 A 
ATOM     10  C   UNL A   1      34.153  25.106  24.452  1.00  0.00     0.026 A 
ATOM     11  C   UNL A   1      32.288  23.597  24.659  1.00  0.00     0.041 A 
ATOM     12  C   UNL A   1      34.774  24.217  23.569  1.00  0.00     0.003 A 
ATOM     13  C   UNL A   1      34.172  22.996  23.269  1.00  0.00     0.016 A 
BRANCH   9  14
ATOM     14  N   UNL A   1      32.416  25.582  26.092  1.00  0.00    -0.340 N 
ATOM     15  H   UNL A   1      32.204  25.127  26.938  1.00  0.00     0.168 HD
BRANCH  14  16
ATOM     16  C   UNL A   1      32.191  26.973  26.031  1.00  0.00     0.137 A 
ATOM     17  C   UNL A   1      31.266  28.781  24.956  1.00  0.00     0.191 A 
ATOM     18  N   UNL A   1      31.795  29.669  25.801  1.00  0.00    -0.206 NA
ATOM     19  N   UNL A   1      31.411  27.460  25.057  1.00  0.00    -0.205 NA
ATOM     20  C   UNL A   1      32.548  29.168  26.785  1.00  0.00     0.130 A 
ATOM     21  C   UNL A   1      32.808  27.818  26.925  1.00  0.00     0.093 A 
BRANCH  17  22
ATOM     22  S   UNL A   1      30.415  29.350  23.509  1.00  0.00    -0.090 SA
ATOM     23  C   UNL A   1      29.909  27.760  22.833  1.00  0.00     0.094 C 
ENDBRANCH  17  22
BRANCH  20  24
ATOM     24  N   UNL A   1      33.135  30.089  27.632  1.00  0.00    -0.383 N 
ATOM     25  H   UNL A   1      33.932  29.841  28.154  1.00  0.00     0.158 HD
ATOM     26  H   UNL A   1      32.755  30.993  27.714  1.00  0.00     0.158 HD
ENDBRANCH  20  24
ENDBRANCH  14  16
ENDBRANCH   9  14
ENDBRANCH   6   8
ENDBRANCH   5   6
ENDBRANCH   4   5
ENDBRANCH   3   4
ENDBRANCH   2   3
ENDBRANCH   1   2
BRANCH   1  27
ATOM     27  C   UNL A   1      37.028  21.576  25.486  1.00  0.00     0.188 C 
BRANCH  27  28
ATOM     28  O   UNL A   1      38.428  21.602  25.345  1.00  0.00    -0.376 OA
BRANCH  28  29
ATOM     29  C   UNL A   1      39.259  20.779  26.141  1.00  0.00     0.202 C 
BRANCH  29  30
ATOM     30  C   UNL A   1      39.983  19.513  25.654  1.00  0.00     0.261 C 
BRANCH  30  31
ATOM     31  O   UNL A   1      41.192  19.144  26.321  1.00  0.00    -0.460 OA
BRANCH  31  32
ATOM     32  C   UNL A   1      42.315  19.740  25.846  1.00  0.00     0.338 C 
ATOM     33  O   UNL A   1      43.087  19.313  25.007  1.00  0.00    -0.246 OA
BRANCH  32  34
ATOM     34  C   UNL A   1      42.399  21.106  26.388  1.00  0.00     0.060 A 
ATOM     35  C   UNL A   1      42.620  22.168  25.500  1.00  0.00     0.016 A 
ATOM     36  C   UNL A   1      42.314  21.330  27.762  1.00  0.00     0.016 A 
ATOM     37  C   UNL A   1      42.781  23.463  25.990  1.00  0.00     0.010 A 
ATOM     38  C   UNL A   1      42.498  22.626  28.253  1.00  0.00     0.010 A 
ATOM     39  C   UNL A   1      42.761  23.691  27.372  1.00  0.00    -0.014 A 
BRANCH  39  40
ATOM     40  C   UNL A   1      43.186  25.006  27.910  1.00  0.00     0.031 A 
ATOM     41  C   UNL A   1      42.130  26.025  28.238  1.00  0.00     0.074 A 
ATOM     42  C   UNL A   1      44.484  25.291  28.110  1.00  0.00     0.049 A 
ATOM     43  N   UNL A   1      42.267  27.253  28.665  1.00  0.00    -0.248 NA
ATOM     44  C   UNL A   1      40.733  25.598  28.057  1.00  0.00     0.031 C 
ATOM     45  C   UNL A   1      45.600  24.378  27.877  1.00  0.00     0.029 A 
ATOM     46  N   UNL A   1      45.078  26.449  28.550  1.00  0.00    -0.354 N 
ATOM     47  C   UNL A   1      40.976  27.751  28.795  1.00  0.00     0.074 A 
ATOM     48  C   UNL A   1      40.072  26.702  28.374  1.00  0.00     0.031 C 
ATOM     49  C   UNL A   1      46.749  25.014  28.165  1.00  0.00     0.029 A 
ATOM     50  C   UNL A   1      46.450  26.387  28.567  1.00  0.00     0.049 A 
ATOM     51  H   UNL A   1      44.570  27.244  28.826  1.00  0.00     0.167 HD
ATOM     52  C   UNL A   1      40.576  28.970  29.225  1.00  0.00     0.031 A 
ATOM     53  C   UNL A   1      47.358  27.340  28.849  1.00  0.00     0.031 A 
ATOM     54  C   UNL A   1      41.472  30.024  29.621  1.00  0.00     0.049 A 
ATOM     55  C   UNL A   1      46.893  28.719  29.239  1.00  0.00     0.074 A 
ATOM     56  C   UNL A   1      41.164  31.290  30.084  1.00  0.00     0.029 A 
ATOM     57  N   UNL A   1      42.856  29.935  29.586  1.00  0.00    -0.354 N 
ATOM     58  N   UNL A   1      45.670  29.171  29.387  1.00  0.00    -0.248 NA
ATOM     59  C   UNL A   1      47.937  29.719  29.510  1.00  0.00     0.031 C 
ATOM     60  C   UNL A   1      42.360  31.991  30.271  1.00  0.00     0.029 A 
ATOM     61  C   UNL A   1      43.415  31.137  29.990  1.00  0.00     0.049 A 
ATOM     62  H   UNL A   1      43.365  29.138  29.314  1.00  0.00     0.167 HD
ATOM     63  C   UNL A   1      45.799  30.493  29.796  1.00  0.00     0.074 A 
ATOM     64  C   UNL A   1      47.218  30.767  29.887  1.00  0.00     0.031 C 
ATOM     65  C   UNL A   1      44.829  31.398  30.076  1.00  0.00     0.031 A 
BRANCH  52  66
ATOM     66  C   UNL A   1      39.098  29.241  29.247  1.00  0.00    -0.014 A 
ATOM     67  C   UNL A   1      38.337  29.063  30.413  1.00  0.00     0.009 A 
ATOM     68  C   UNL A   1      38.459  29.701  28.084  1.00  0.00     0.009 A 
ATOM     69  C   UNL A   1      36.960  29.302  30.404  1.00  0.00     0.001 A 
ATOM     70  C   UNL A   1      37.089  29.967  28.085  1.00  0.00     0.001 A 
ATOM     71  C   UNL A   1      36.339  29.757  29.240  1.00  0.00     0.000 A 
ENDBRANCH  52  66
BRANCH  53  72
ATOM     72  C   UNL A   1      48.811  27.037  28.754  1.00  0.00    -0.014 A 
ATOM     73  C   UNL A   1      49.495  27.180  27.538  1.00  0.00     0.009 A 
ATOM     74  C   UNL A   1      49.517  26.580  29.879  1.00  0.00     0.009 A 
ATOM     75  C   UNL A   1      50.850  26.850  27.443  1.00  0.00     0.001 A 
ATOM     76  C   UNL A   1      50.878  26.280  29.788  1.00  0.00     0.001 A 
ATOM     77  C   UNL A   1      51.541  26.405  28.569  1.00  0.00     0.000 A 
ENDBRANCH  53  72
BRANCH  65  78
ATOM     78  C   UNL A   1      45.264  32.758  30.550  1.00  0.00    -0.014 A 
ATOM     79  C   UNL A   1      45.476  33.816  29.653  1.00  0.00     0.009 A 
ATOM     80  C   UNL A   1      45.417  32.994  31.926  1.00  0.00     0.009 A 
ATOM     81  C   UNL A   1      45.867  35.072  30.122  1.00  0.00     0.001 A 
ATOM     82  C   UNL A   1      45.777  34.259  32.394  1.00  0.00     0.001 A 
ATOM     83  C   UNL A   1      46.012  35.294  31.492  1.00  0.00     0.000 A 
ENDBRANCH  65  78
ENDBRANCH  39  40
ENDBRANCH  32  34
ENDBRANCH  31  32
ENDBRANCH  30  31
ENDBRANCH  29  30
ENDBRANCH  28  29
ENDBRANCH  27  28
ENDBRANCH   1  27
TORSDOF 21
ENDMDL
MODEL 3
REMARK VINA RESULT:      -9.5      4.572      9.035
REMARK SMILES CSc1nc(N)cc(Nc2cccc(C(=O)OCCOCCOCCOC(=O)c3ccc(-c4c5nc(c(-c6ccccc6)c6ccc([nH]6)c(-c6ccccc6)c6nc(c(-c7ccccc7)c7ccc4[nH]7)C=C6)C=C5)cc3)c2)n1
REMARK SMILES IDX 21 1 20 2 19 3 18 4 17 5 15 6 16 7 14 8 10 9 11 10 77 11
REMARK SMILES IDX 12 12 13 13 9 14 8 16 3 17 4 18 78 19 5 20 7 21 2 22 1 23
REMARK SMILES IDX 6 24 22 27 23 28 24 29 25 30 26 31 27 32 28 33 29 34 30 35
REMARK SMILES IDX 76 36 31 37 75 38 32 39 33 40 34 41 69 42 35 43 74 44 68 45
REMARK SMILES IDX 70 46 36 47 73 48 67 49 66 50 37 52 59 53 44 54 58 55 45 56
REMARK SMILES IDX 48 57 57 58 71 59 46 60 47 61 56 63 72 64 49 65 38 66 39 67
REMARK SMILES IDX 43 68 40 69 42 70 41 71 60 72 61 73 65 74 62 75 64 76 63 77
REMARK SMILES IDX 50 78 51 79 55 80 52 81 54 82 53 83
REMARK H PARENT 9 15 6 25 6 26 70 51 48 62
REMARK Flexibility Score: inf
ROOT
ATOM      1  C   UNL A   1      35.665  19.157  24.662  1.00  0.00     0.188 C 
ENDROOT
BRANCH   1   2
ATOM      2  O   UNL A   1      34.417  18.530  24.890  1.00  0.00    -0.376 OA
BRANCH   2   3
ATOM      3  C   UNL A   1      33.535  18.281  23.807  1.00  0.00     0.202 C 
BRANCH   3   4
ATOM      4  C   UNL A   1      32.236  19.077  23.619  1.00  0.00     0.261 C 
BRANCH   4   5
ATOM      5  O   UNL A   1      32.159  20.277  24.396  1.00  0.00    -0.460 OA
BRANCH   5   6
ATOM      6  C   UNL A   1      32.249  21.436  23.695  1.00  0.00     0.338 C 
ATOM      7  O   UNL A   1      32.477  21.561  22.505  1.00  0.00    -0.246 OA
BRANCH   6   8
ATOM      8  C   UNL A   1      31.795  22.554  24.552  1.00  0.00     0.062 A 
ATOM      9  C   UNL A   1      30.613  24.659  24.843  1.00  0.00     0.040 A 
ATOM     10  C   UNL A   1      30.996  24.661  26.191  1.00  0.00     0.026 A 
ATOM     11  C   UNL A   1      31.071  23.620  24.021  1.00  0.00     0.041 A 
ATOM     12  C   UNL A   1      31.756  23.613  26.721  1.00  0.00     0.003 A 
ATOM     13  C   UNL A   1      32.131  22.544  25.908  1.00  0.00     0.016 A 
BRANCH   9  14
ATOM     14  N   UNL A   1      29.665  25.596  24.378  1.00  0.00    -0.340 N 
ATOM     15  H   UNL A   1      28.733  25.292  24.294  1.00  0.00     0.168 HD
BRANCH  14  16
ATOM     16  C   UNL A   1      29.945  26.932  24.025  1.00  0.00     0.137 A 
ATOM     17  C   UNL A   1      29.265  28.909  23.072  1.00  0.00     0.191 A 
ATOM     18  N   UNL A   1      30.452  29.499  23.230  1.00  0.00    -0.206 NA
ATOM     19  N   UNL A   1      28.973  27.674  23.477  1.00  0.00    -0.205 NA
ATOM     20  C   UNL A   1      31.405  28.758  23.804  1.00  0.00     0.130 A 
ATOM     21  C   UNL A   1      31.211  27.446  24.192  1.00  0.00     0.093 A 
BRANCH  17  22
ATOM     22  S   UNL A   1      27.995  29.733  22.150  1.00  0.00    -0.090 SA
ATOM     23  C   UNL A   1      27.685  31.113  23.263  1.00  0.00     0.094 C 
ENDBRANCH  17  22
BRANCH  20  24
ATOM     24  N   UNL A   1      32.647  29.351  23.925  1.00  0.00    -0.383 N 
ATOM     25  H   UNL A   1      33.400  29.035  23.374  1.00  0.00     0.158 HD
ATOM     26  H   UNL A   1      32.781  30.088  24.563  1.00  0.00     0.158 HD
ENDBRANCH  20  24
ENDBRANCH  14  16
ENDBRANCH   9  14
ENDBRANCH   6   8
ENDBRANCH   5   6
ENDBRANCH   4   5
ENDBRANCH   3   4
ENDBRANCH   2   3
ENDBRANCH   1   2
BRANCH   1  27
ATOM     27  C   UNL A   1      35.876  20.652  24.981  1.00  0.00     0.188 C 
BRANCH  27  28
ATOM     28  O   UNL A   1      37.061  21.298  24.583  1.00  0.00    -0.376 OA
BRANCH  28  29
ATOM     29  C   UNL A   1      38.259  21.149  25.321  1.00  0.00     0.202 C 
BRANCH  29  30
ATOM     30  C   UNL A   1      39.189  19.926  25.267  1.00  0.00     0.261 C 
BRANCH  30  31
ATOM     31  O   UNL A   1      40.026  19.681  26.400  1.00  0.00    -0.460 OA
BRANCH  31  32
ATOM     32  C   UNL A   1      41.357  19.674  26.140  1.00  0.00     0.338 C 
ATOM     33  O   UNL A   1      41.996  18.828  25.542  1.00  0.00    -0.246 OA
BRANCH  32  34
ATOM     34  C   UNL A   1      41.933  20.964  26.559  1.00  0.00     0.060 A 
ATOM     35  C   UNL A   1      41.972  21.268  27.927  1.00  0.00     0.016 A 
ATOM     36  C   UNL A   1      42.380  21.882  25.611  1.00  0.00     0.016 A 
ATOM     37  C   UNL A   1      42.439  22.511  28.351  1.00  0.00     0.010 A 
ATOM     38  C   UNL A   1      42.827  23.137  26.035  1.00  0.00     0.010 A 
ATOM     39  C   UNL A   1      42.831  23.466  27.404  1.00  0.00    -0.014 A 
BRANCH  39  40
ATOM     40  C   UNL A   1      43.080  24.865  27.825  1.00  0.00     0.031 A 
ATOM     41  C   UNL A   1      44.499  25.308  28.052  1.00  0.00     0.074 A 
ATOM     42  C   UNL A   1      42.068  25.732  27.998  1.00  0.00     0.049 A 
ATOM     43  N   UNL A   1      44.952  26.460  28.474  1.00  0.00    -0.248 NA
ATOM     44  C   UNL A   1      45.546  24.313  27.767  1.00  0.00     0.031 C 
ATOM     45  C   UNL A   1      40.654  25.444  27.766  1.00  0.00     0.029 A 
ATOM     46  N   UNL A   1      42.083  27.038  28.423  1.00  0.00    -0.354 N 
ATOM     47  C   UNL A   1      46.334  26.327  28.514  1.00  0.00     0.074 A 
ATOM     48  C   UNL A   1      46.644  24.975  28.102  1.00  0.00     0.031 C 
ATOM     49  C   UNL A   1      39.934  26.540  28.064  1.00  0.00     0.029 A 
ATOM     50  C   UNL A   1      40.832  27.591  28.539  1.00  0.00     0.049 A 
ATOM     51  H   UNL A   1      42.911  27.530  28.623  1.00  0.00     0.167 HD
ATOM     52  C   UNL A   1      47.265  27.247  28.862  1.00  0.00     0.031 A 
ATOM     53  C   UNL A   1      40.455  28.798  29.003  1.00  0.00     0.031 A 
ATOM     54  C   UNL A   1      46.960  28.584  29.296  1.00  0.00     0.049 A 
ATOM     55  C   UNL A   1      41.503  29.775  29.471  1.00  0.00     0.074 A 
ATOM     56  C   UNL A   1      47.834  29.594  29.657  1.00  0.00     0.029 A 
ATOM     57  N   UNL A   1      45.678  29.092  29.439  1.00  0.00    -0.354 N 
ATOM     58  N   UNL A   1      42.808  29.650  29.478  1.00  0.00    -0.248 NA
ATOM     59  C   UNL A   1      41.022  31.065  29.988  1.00  0.00     0.031 C 
ATOM     60  C   UNL A   1      47.080  30.694  30.079  1.00  0.00     0.029 A 
ATOM     61  C   UNL A   1      45.737  30.392  29.914  1.00  0.00     0.049 A 
ATOM     62  H   UNL A   1      44.849  28.602  29.234  1.00  0.00     0.167 HD
ATOM     63  C   UNL A   1      43.304  30.853  29.969  1.00  0.00     0.074 A 
ATOM     64  C   UNL A   1      42.159  31.699  30.236  1.00  0.00     0.031 C 
ATOM     65  C   UNL A   1      44.591  31.224  30.176  1.00  0.00     0.031 A 
BRANCH  52  66
ATOM     66  C   UNL A   1      48.704  26.815  28.828  1.00  0.00    -0.014 A 
ATOM     67  C   UNL A   1      49.484  26.954  27.669  1.00  0.00     0.009 A 
ATOM     68  C   UNL A   1      49.295  26.277  29.982  1.00  0.00     0.009 A 
ATOM     69  C   UNL A   1      50.814  26.527  27.655  1.00  0.00     0.001 A 
ATOM     70  C   UNL A   1      50.633  25.878  29.974  1.00  0.00     0.001 A 
ATOM     71  C   UNL A   1      51.388  25.993  28.809  1.00  0.00     0.000 A 
ENDBRANCH  52  66
BRANCH  53  72
ATOM     72  C   UNL A   1      39.013  29.153  29.073  1.00  0.00    -0.014 A 
ATOM     73  C   UNL A   1      38.250  28.833  30.205  1.00  0.00     0.009 A 
ATOM     74  C   UNL A   1      38.386  29.796  27.993  1.00  0.00     0.009 A 
ATOM     75  C   UNL A   1      36.884  29.128  30.246  1.00  0.00     0.001 A 
ATOM     76  C   UNL A   1      37.028  30.117  28.049  1.00  0.00     0.001 A 
ATOM     77  C   UNL A   1      36.276  29.774  29.171  1.00  0.00     0.000 A 
ENDBRANCH  53  72
BRANCH  65  78
ATOM     78  C   UNL A   1      44.838  32.622  30.676  1.00  0.00    -0.014 A 
ATOM     79  C   UNL A   1      44.978  33.705  29.795  1.00  0.00     0.009 A 
ATOM     80  C   UNL A   1      44.883  32.863  32.060  1.00  0.00     0.009 A 
ATOM     81  C   UNL A   1      45.193  34.994  30.288  1.00  0.00     0.001 A 
ATOM     82  C   UNL A   1      45.067  34.157  32.550  1.00  0.00     0.001 A 
ATOM     83  C   UNL A   1      45.232  35.220  31.664  1.00  0.00     0.000 A 
ENDBRANCH  65  78
ENDBRANCH  39  40
ENDBRANCH  32  34
ENDBRANCH  31  32
ENDBRANCH  30  31
ENDBRANCH  29  30
ENDBRANCH  28  29
ENDBRANCH  27  28
ENDBRANCH   1  27
TORSDOF 21
ENDMDL
