MODEL 1
REMARK VINA RESULT:     -11.1      0.000      0.000
REMARK SMILES O=C(OCCOCCOCCOC(=O)c1ccc([C@H]2CCCN(C(=O)c3ccc4[nH]ccc4c3)C2)cc1)c1ccc(-c2c3nc(c(-c4ccccc4)c4ccc([nH]4)c(-c4ccccc4)c4nc(c(-c5ccccc5)c5ccc2[nH]5)C=C4)C=C3)cc1
REMARK SMILES IDX 8 1 7 2 6 3 5 4 4 5 3 6 2 7 1 8 38 9 39 10 85 11 40 12 84 13
REMARK SMILES IDX 41 14 42 15 43 16 78 17 44 18 83 19 77 20 79 21 45 22 82 23
REMARK SMILES IDX 76 24 75 25 46 27 68 28 53 29 67 30 54 31 57 32 66 33 80 34
REMARK SMILES IDX 55 35 56 36 65 38 81 39 58 40 47 41 48 42 52 43 49 44 51 45
REMARK SMILES IDX 50 46 69 47 70 48 74 49 71 50 73 51 72 52 59 53 60 54 64 55
REMARK SMILES IDX 61 56 63 57 62 58 9 59 10 60 11 61 12 62 13 63 14 64 15 65
REMARK SMILES IDX 16 66 37 67 17 68 36 69 18 70 19 71 20 72 35 73 21 74 23 75
REMARK SMILES IDX 22 76 24 77 25 78 26 79 27 80 34 81 28 82 33 83 29 84 32 85
REMARK SMILES IDX 30 86 31 87
REMARK H PARENT 79 26 57 37 30 88
REMARK Flexibility Score: inf
ROOT
ATOM      1  C   UNL A   1      29.999  25.521  24.977  1.00  0.00     0.188 C 
ENDROOT
BRANCH   1   2
ATOM      2  C   UNL A   1      30.390  26.993  24.828  1.00  0.00     0.188 C 
BRANCH   2   3
ATOM      3  O   UNL A   1      31.805  27.175  24.961  1.00  0.00    -0.376 OA
BRANCH   3   4
ATOM      4  C   UNL A   1      32.182  27.881  26.148  1.00  0.00     0.202 C 
BRANCH   4   5
ATOM      5  C   UNL A   1      31.703  29.340  26.203  1.00  0.00     0.261 C 
BRANCH   5   6
ATOM      6  O   UNL A   1      32.765  30.286  25.997  1.00  0.00    -0.460 OA
BRANCH   6   7
ATOM      7  C   UNL A   1      33.322  31.127  26.904  1.00  0.00     0.338 C 
ATOM      8  O   UNL A   1      32.752  32.190  27.150  1.00  0.00    -0.246 OA
BRANCH   7   9
ATOM      9  C   UNL A   1      34.585  30.829  27.649  1.00  0.00     0.060 A 
ATOM     10  C   UNL A   1      35.027  29.551  27.986  1.00  0.00     0.016 A 
ATOM     11  C   UNL A   1      35.421  31.912  27.969  1.00  0.00     0.016 A 
ATOM     12  C   UNL A   1      36.195  29.351  28.710  1.00  0.00     0.010 A 
ATOM     13  C   UNL A   1      36.637  31.714  28.639  1.00  0.00     0.010 A 
ATOM     14  C   UNL A   1      37.016  30.425  29.038  1.00  0.00    -0.014 A 
BRANCH  14  15
ATOM     15  C   UNL A   1      38.200  30.181  29.890  1.00  0.00     0.031 A 
ATOM     16  C   UNL A   1      39.369  29.447  29.302  1.00  0.00     0.074 A 
ATOM     17  C   UNL A   1      38.299  30.745  31.111  1.00  0.00     0.049 A 
ATOM     18  N   UNL A   1      40.468  29.046  29.881  1.00  0.00    -0.248 NA
ATOM     19  C   UNL A   1      39.310  29.162  27.857  1.00  0.00     0.031 C 
ATOM     20  C   UNL A   1      37.323  31.660  31.704  1.00  0.00     0.029 A 
ATOM     21  N   UNL A   1      39.286  30.661  32.060  1.00  0.00    -0.354 N 
ATOM     22  C   UNL A   1      41.233  28.470  28.875  1.00  0.00     0.074 A 
ATOM     23  C   UNL A   1      40.464  28.543  27.654  1.00  0.00     0.031 C 
ATOM     24  C   UNL A   1      37.772  32.073  32.901  1.00  0.00     0.029 A 
ATOM     25  C   UNL A   1      39.011  31.373  33.205  1.00  0.00     0.049 A 
ATOM     26  H   UNL A   1      40.112  30.140  31.934  1.00  0.00     0.167 HD
ATOM     27  C   UNL A   1      42.473  27.939  28.967  1.00  0.00     0.031 A 
ATOM     28  C   UNL A   1      39.652  31.393  34.390  1.00  0.00     0.031 A 
ATOM     29  C   UNL A   1      43.220  27.875  30.192  1.00  0.00     0.049 A 
ATOM     30  C   UNL A   1      40.832  30.482  34.550  1.00  0.00     0.074 A 
ATOM     31  C   UNL A   1      44.479  27.347  30.416  1.00  0.00     0.029 A 
ATOM     32  N   UNL A   1      42.763  28.357  31.408  1.00  0.00    -0.354 N 
ATOM     33  N   UNL A   1      41.502  29.836  33.628  1.00  0.00    -0.248 NA
ATOM     34  C   UNL A   1      41.305  30.253  35.921  1.00  0.00     0.031 C 
ATOM     35  C   UNL A   1      44.755  27.453  31.785  1.00  0.00     0.029 A 
ATOM     36  C   UNL A   1      43.689  28.092  32.399  1.00  0.00     0.049 A 
ATOM     37  H   UNL A   1      41.905  28.820  31.545  1.00  0.00     0.167 HD
ATOM     38  C   UNL A   1      42.515  29.171  34.299  1.00  0.00     0.074 A 
ATOM     39  C   UNL A   1      42.350  29.465  35.709  1.00  0.00     0.031 C 
ATOM     40  C   UNL A   1      43.509  28.406  33.790  1.00  0.00     0.031 A 
BRANCH  27  41
ATOM     41  C   UNL A   1      43.065  27.345  27.725  1.00  0.00    -0.014 A 
ATOM     42  C   UNL A   1      42.859  25.999  27.386  1.00  0.00     0.009 A 
ATOM     43  C   UNL A   1      43.829  28.154  26.869  1.00  0.00     0.009 A 
ATOM     44  C   UNL A   1      43.424  25.471  26.223  1.00  0.00     0.001 A 
ATOM     45  C   UNL A   1      44.376  27.628  25.699  1.00  0.00     0.001 A 
ATOM     46  C   UNL A   1      44.178  26.286  25.379  1.00  0.00     0.000 A 
ENDBRANCH  27  41
BRANCH  28  47
ATOM     47  C   UNL A   1      39.109  32.127  35.566  1.00  0.00    -0.014 A 
ATOM     48  C   UNL A   1      38.263  31.526  36.505  1.00  0.00     0.009 A 
ATOM     49  C   UNL A   1      39.362  33.500  35.685  1.00  0.00     0.009 A 
ATOM     50  C   UNL A   1      37.681  32.291  37.525  1.00  0.00     0.001 A 
ATOM     51  C   UNL A   1      38.816  34.257  36.722  1.00  0.00     0.001 A 
ATOM     52  C   UNL A   1      37.964  33.652  37.637  1.00  0.00     0.000 A 
ENDBRANCH  28  47
BRANCH  40  53
ATOM     53  C   UNL A   1      44.547  27.936  34.759  1.00  0.00    -0.014 A 
ATOM     54  C   UNL A   1      45.793  28.568  34.866  1.00  0.00     0.009 A 
ATOM     55  C   UNL A   1      44.260  26.829  35.575  1.00  0.00     0.009 A 
ATOM     56  C   UNL A   1      46.750  28.077  35.755  1.00  0.00     0.001 A 
ATOM     57  C   UNL A   1      45.208  26.360  36.480  1.00  0.00     0.001 A 
ATOM     58  C   UNL A   1      46.455  26.978  36.563  1.00  0.00     0.000 A 
ENDBRANCH  40  53
ENDBRANCH  14  15
ENDBRANCH   7   9
ENDBRANCH   6   7
ENDBRANCH   5   6
ENDBRANCH   4   5
ENDBRANCH   3   4
ENDBRANCH   2   3
ENDBRANCH   1   2
BRANCH   1  59
ATOM     59  O   UNL A   1      30.018  25.001  26.307  1.00  0.00    -0.376 OA
BRANCH  59  60
ATOM     60  C   UNL A   1      30.901  23.917  26.573  1.00  0.00     0.202 C 
BRANCH  60  61
ATOM     61  C   UNL A   1      30.658  22.601  25.824  1.00  0.00     0.261 C 
BRANCH  61  62
ATOM     62  O   UNL A   1      31.550  22.332  24.730  1.00  0.00    -0.460 OA
BRANCH  62  63
ATOM     63  C   UNL A   1      32.322  21.236  24.910  1.00  0.00     0.338 C 
ATOM     64  O   UNL A   1      31.940  20.101  25.193  1.00  0.00    -0.246 OA
BRANCH  63  65
ATOM     65  C   UNL A   1      33.749  21.581  24.910  1.00  0.00     0.060 A 
ATOM     66  C   UNL A   1      34.779  20.650  25.067  1.00  0.00     0.016 A 
ATOM     67  C   UNL A   1      34.039  22.940  24.885  1.00  0.00     0.016 A 
ATOM     68  C   UNL A   1      36.107  21.098  25.222  1.00  0.00     0.005 A 
ATOM     69  C   UNL A   1      35.351  23.373  25.039  1.00  0.00     0.005 A 
ATOM     70  C   UNL A   1      36.419  22.472  25.218  1.00  0.00    -0.043 A 
BRANCH  70  71
ATOM     71  C   UNL A   1      37.869  22.950  25.442  1.00  0.00     0.039 C 
ATOM     72  C   UNL A   1      37.941  24.233  26.288  1.00  0.00     0.012 C 
ATOM     73  C   UNL A   1      38.776  21.841  26.014  1.00  0.00     0.128 C 
ATOM     74  C   UNL A   1      39.379  24.592  26.659  1.00  0.00     0.022 C 
ATOM     75  N   UNL A   1      40.020  22.209  26.671  1.00  0.00    -0.338 N 
ATOM     76  C   UNL A   1      40.054  23.459  27.421  1.00  0.00     0.120 C 
BRANCH  75  77
ATOM     77  C   UNL A   1      40.884  21.134  26.914  1.00  0.00     0.253 C 
ATOM     78  O   UNL A   1      40.604  20.194  27.656  1.00  0.00    -0.269 OA
BRANCH  77  79
ATOM     79  C   UNL A   1      42.208  21.090  26.279  1.00  0.00     0.040 A 
ATOM     80  C   UNL A   1      42.654  22.246  25.638  1.00  0.00     0.016 A 
ATOM     81  C   UNL A   1      42.885  19.867  26.155  1.00  0.00     0.024 A 
ATOM     82  C   UNL A   1      43.812  22.222  24.861  1.00  0.00     0.027 A 
ATOM     83  C   UNL A   1      44.048  19.825  25.360  1.00  0.00     0.000 A 
ATOM     84  C   UNL A   1      44.481  20.997  24.735  1.00  0.00     0.045 A 
ATOM     85  C   UNL A   1      44.947  18.792  24.972  1.00  0.00     0.028 A 
ATOM     86  N   UNL A   1      45.604  20.678  24.006  1.00  0.00    -0.361 N 
ATOM     87  C   UNL A   1      45.891  19.346  24.137  1.00  0.00     0.083 A 
ATOM     88  H   UNL A   1      46.127  21.316  23.468  1.00  0.00     0.166 HD
ENDBRANCH  77  79
ENDBRANCH  75  77
ENDBRANCH  70  71
ENDBRANCH  63  65
ENDBRANCH  62  63
ENDBRANCH  61  62
ENDBRANCH  60  61
ENDBRANCH  59  60
ENDBRANCH   1  59
TORSDOF 20
ENDMDL
MODEL 2
REMARK VINA RESULT:     -10.8      4.517      8.385
REMARK SMILES O=C(OCCOCCOCCOC(=O)c1ccc([C@H]2CCCN(C(=O)c3ccc4[nH]ccc4c3)C2)cc1)c1ccc(-c2c3nc(c(-c4ccccc4)c4ccc([nH]4)c(-c4ccccc4)c4nc(c(-c5ccccc5)c5ccc2[nH]5)C=C4)C=C3)cc1
REMARK SMILES IDX 8 1 7 2 6 3 5 4 4 5 3 6 2 7 1 8 38 9 39 10 85 11 40 12 84 13
REMARK SMILES IDX 41 14 42 15 43 16 78 17 44 18 83 19 77 20 79 21 45 22 82 23
REMARK SMILES IDX 76 24 75 25 46 27 68 28 53 29 67 30 54 31 57 32 66 33 80 34
REMARK SMILES IDX 55 35 56 36 65 38 81 39 58 40 47 41 48 42 52 43 49 44 51 45
REMARK SMILES IDX 50 46 69 47 70 48 74 49 71 50 73 51 72 52 59 53 60 54 64 55
REMARK SMILES IDX 61 56 63 57 62 58 9 59 10 60 11 61 12 62 13 63 14 64 15 65
REMARK SMILES IDX 16 66 37 67 17 68 36 69 18 70 19 71 20 72 35 73 21 74 23 75
REMARK SMILES IDX 22 76 24 77 25 78 26 79 27 80 34 81 28 82 33 83 29 84 32 85
REMARK SMILES IDX 30 86 31 87
REMARK H PARENT 79 26 57 37 30 88
REMARK Flexibility Score: inf
ROOT
ATOM      1  C   UNL A   1      34.371  33.834  32.367  1.00  0.00     0.188 C 
ENDROOT
BRANCH   1   2
ATOM      2  C   UNL A   1      35.693  34.605  32.365  1.00  0.00     0.188 C 
BRANCH   2   3
ATOM      3  O   UNL A   1      35.975  35.165  33.653  1.00  0.00    -0.376 OA
BRANCH   3   4
ATOM      4  C   UNL A   1      35.839  34.228  34.727  1.00  0.00     0.202 C 
BRANCH   4   5
ATOM      5  C   UNL A   1      37.170  33.704  35.289  1.00  0.00     0.261 C 
BRANCH   5   6
ATOM      6  O   UNL A   1      37.015  32.505  36.066  1.00  0.00    -0.460 OA
BRANCH   6   7
ATOM      7  C   UNL A   1      37.916  31.507  36.249  1.00  0.00     0.338 C 
ATOM      8  O   UNL A   1      37.876  30.861  37.295  1.00  0.00    -0.246 OA
BRANCH   7   9
ATOM      9  C   UNL A   1      38.948  31.122  35.236  1.00  0.00     0.060 A 
ATOM     10  C   UNL A   1      38.674  30.519  34.010  1.00  0.00     0.016 A 
ATOM     11  C   UNL A   1      40.285  31.459  35.511  1.00  0.00     0.016 A 
ATOM     12  C   UNL A   1      39.688  30.158  33.132  1.00  0.00     0.010 A 
ATOM     13  C   UNL A   1      41.308  31.161  34.599  1.00  0.00     0.010 A 
ATOM     14  C   UNL A   1      41.012  30.481  33.411  1.00  0.00    -0.014 A 
BRANCH  14  15
ATOM     15  C   UNL A   1      42.069  29.995  32.497  1.00  0.00     0.031 A 
ATOM     16  C   UNL A   1      42.562  30.913  31.417  1.00  0.00     0.074 A 
ATOM     17  C   UNL A   1      42.694  28.823  32.728  1.00  0.00     0.049 A 
ATOM     18  N   UNL A   1      43.412  30.674  30.455  1.00  0.00    -0.248 NA
ATOM     19  C   UNL A   1      42.061  32.298  31.449  1.00  0.00     0.031 C 
ATOM     20  C   UNL A   1      42.456  27.945  33.874  1.00  0.00     0.029 A 
ATOM     21  N   UNL A   1      43.686  28.183  32.029  1.00  0.00    -0.354 N 
ATOM     22  C   UNL A   1      43.552  31.875  29.773  1.00  0.00     0.074 A 
ATOM     23  C   UNL A   1      42.680  32.836  30.408  1.00  0.00     0.031 C 
ATOM     24  C   UNL A   1      43.296  26.898  33.814  1.00  0.00     0.029 A 
ATOM     25  C   UNL A   1      44.054  26.976  32.575  1.00  0.00     0.049 A 
ATOM     26  H   UNL A   1      44.096  28.553  31.213  1.00  0.00     0.167 HD
ATOM     27  C   UNL A   1      44.352  32.149  28.717  1.00  0.00     0.031 A 
ATOM     28  C   UNL A   1      44.858  26.010  32.086  1.00  0.00     0.031 A 
ATOM     29  C   UNL A   1      45.211  31.179  28.099  1.00  0.00     0.049 A 
ATOM     30  C   UNL A   1      45.433  26.220  30.718  1.00  0.00     0.074 A 
ATOM     31  C   UNL A   1      46.055  31.330  27.014  1.00  0.00     0.029 A 
ATOM     32  N   UNL A   1      45.326  29.863  28.519  1.00  0.00    -0.354 N 
ATOM     33  N   UNL A   1      45.477  27.318  30.005  1.00  0.00    -0.248 NA
ATOM     34  C   UNL A   1      46.011  25.042  30.060  1.00  0.00     0.031 C 
ATOM     35  C   UNL A   1      46.634  30.085  26.739  1.00  0.00     0.029 A 
ATOM     36  C   UNL A   1      46.186  29.175  27.684  1.00  0.00     0.049 A 
ATOM     37  H   UNL A   1      44.864  29.476  29.298  1.00  0.00     0.167 HD
ATOM     38  C   UNL A   1      46.142  26.979  28.838  1.00  0.00     0.074 A 
ATOM     39  C   UNL A   1      46.452  25.566  28.925  1.00  0.00     0.031 C 
ATOM     40  C   UNL A   1      46.490  27.774  27.799  1.00  0.00     0.031 A 
BRANCH  27  41
ATOM     41  C   UNL A   1      44.287  33.531  28.141  1.00  0.00    -0.014 A 
ATOM     42  C   UNL A   1      45.213  34.521  28.506  1.00  0.00     0.009 A 
ATOM     43  C   UNL A   1      43.291  33.842  27.203  1.00  0.00     0.009 A 
ATOM     44  C   UNL A   1      45.128  35.802  27.955  1.00  0.00     0.001 A 
ATOM     45  C   UNL A   1      43.221  35.116  26.640  1.00  0.00     0.001 A 
ATOM     46  C   UNL A   1      44.135  36.097  27.020  1.00  0.00     0.000 A 
ENDBRANCH  27  41
BRANCH  28  47
ATOM     47  C   UNL A   1      45.018  24.698  32.773  1.00  0.00    -0.014 A 
ATOM     48  C   UNL A   1      44.078  23.669  32.659  1.00  0.00     0.009 A 
ATOM     49  C   UNL A   1      46.094  24.519  33.652  1.00  0.00     0.009 A 
ATOM     50  C   UNL A   1      44.212  22.500  33.420  1.00  0.00     0.001 A 
ATOM     51  C   UNL A   1      46.253  23.341  34.382  1.00  0.00     0.001 A 
ATOM     52  C   UNL A   1      45.302  22.335  34.274  1.00  0.00     0.000 A 
ENDBRANCH  28  47
BRANCH  40  53
ATOM     53  C   UNL A   1      47.337  27.147  26.737  1.00  0.00    -0.014 A 
ATOM     54  C   UNL A   1      48.736  27.216  26.778  1.00  0.00     0.009 A 
ATOM     55  C   UNL A   1      46.707  26.480  25.675  1.00  0.00     0.009 A 
ATOM     56  C   UNL A   1      49.491  26.651  25.750  1.00  0.00     0.001 A 
ATOM     57  C   UNL A   1      47.466  25.894  24.665  1.00  0.00     0.001 A 
ATOM     58  C   UNL A   1      48.856  25.988  24.698  1.00  0.00     0.000 A 
ENDBRANCH  40  53
ENDBRANCH  14  15
ENDBRANCH   7   9
ENDBRANCH   6   7
ENDBRANCH   5   6
ENDBRANCH   4   5
ENDBRANCH   3   4
ENDBRANCH   2   3
ENDBRANCH   1   2
BRANCH   1  59
ATOM     59  O   UNL A   1      33.696  33.748  31.110  1.00  0.00    -0.376 OA
BRANCH  59  60
ATOM     60  C   UNL A   1      34.503  33.662  29.940  1.00  0.00     0.202 C 
BRANCH  60  61
ATOM     61  C   UNL A   1      34.866  32.263  29.427  1.00  0.00     0.261 C 
BRANCH  61  62
ATOM     62  O   UNL A   1      35.891  31.576  30.164  1.00  0.00    -0.460 OA
BRANCH  62  63
ATOM     63  C   UNL A   1      37.141  32.027  29.913  1.00  0.00     0.338 C 
ATOM     64  O   UNL A   1      37.546  33.183  30.027  1.00  0.00    -0.246 OA
BRANCH  63  65
ATOM     65  C   UNL A   1      37.970  30.987  29.291  1.00  0.00     0.060 A 
ATOM     66  C   UNL A   1      39.276  30.687  29.687  1.00  0.00     0.016 A 
ATOM     67  C   UNL A   1      37.431  30.385  28.161  1.00  0.00     0.016 A 
ATOM     68  C   UNL A   1      40.048  29.791  28.920  1.00  0.00     0.005 A 
ATOM     69  C   UNL A   1      38.200  29.503  27.410  1.00  0.00     0.005 A 
ATOM     70  C   UNL A   1      39.527  29.184  27.761  1.00  0.00    -0.043 A 
BRANCH  70  71
ATOM     71  C   UNL A   1      40.401  28.247  26.902  1.00  0.00     0.039 C 
ATOM     72  C   UNL A   1      41.430  29.014  26.054  1.00  0.00     0.012 C 
ATOM     73  C   UNL A   1      41.069  27.133  27.735  1.00  0.00     0.128 C 
ATOM     74  C   UNL A   1      42.408  28.073  25.353  1.00  0.00     0.022 C 
ATOM     75  N   UNL A   1      42.227  26.439  27.194  1.00  0.00    -0.338 N 
ATOM     76  C   UNL A   1      43.148  27.197  26.355  1.00  0.00     0.120 C 
BRANCH  75  77
ATOM     77  C   UNL A   1      42.589  25.285  27.898  1.00  0.00     0.253 C 
ATOM     78  O   UNL A   1      42.599  25.217  29.127  1.00  0.00    -0.269 OA
BRANCH  77  79
ATOM     79  C   UNL A   1      42.996  24.072  27.176  1.00  0.00     0.040 A 
ATOM     80  C   UNL A   1      42.221  22.926  27.356  1.00  0.00     0.016 A 
ATOM     81  C   UNL A   1      44.229  24.034  26.509  1.00  0.00     0.024 A 
ATOM     82  C   UNL A   1      42.648  21.697  26.852  1.00  0.00     0.027 A 
ATOM     83  C   UNL A   1      44.680  22.796  26.008  1.00  0.00     0.000 A 
ATOM     84  C   UNL A   1      43.883  21.664  26.192  1.00  0.00     0.045 A 
ATOM     85  C   UNL A   1      45.860  22.368  25.338  1.00  0.00     0.028 A 
ATOM     86  N   UNL A   1      44.560  20.598  25.643  1.00  0.00    -0.361 N 
ATOM     87  C   UNL A   1      45.759  21.011  25.130  1.00  0.00     0.083 A 
ATOM     88  H   UNL A   1      44.228  19.670  25.623  1.00  0.00     0.166 HD
ENDBRANCH  77  79
ENDBRANCH  75  77
ENDBRANCH  70  71
ENDBRANCH  63  65
ENDBRANCH  62  63
ENDBRANCH  61  62
ENDBRANCH  60  61
ENDBRANCH  59  60
ENDBRANCH   1  59
TORSDOF 20
ENDMDL
MODEL 3
REMARK VINA RESULT:     -10.5      5.036     11.645
REMARK SMILES O=C(OCCOCCOCCOC(=O)c1ccc([C@H]2CCCN(C(=O)c3ccc4[nH]ccc4c3)C2)cc1)c1ccc(-c2c3nc(c(-c4ccccc4)c4ccc([nH]4)c(-c4ccccc4)c4nc(c(-c5ccccc5)c5ccc2[nH]5)C=C4)C=C3)cc1
REMARK SMILES IDX 8 1 7 2 6 3 5 4 4 5 3 6 2 7 1 8 38 9 39 10 85 11 40 12 84 13
REMARK SMILES IDX 41 14 42 15 43 16 78 17 44 18 83 19 77 20 79 21 45 22 82 23
REMARK SMILES IDX 76 24 75 25 46 27 68 28 53 29 67 30 54 31 57 32 66 33 80 34
REMARK SMILES IDX 55 35 56 36 65 38 81 39 58 40 47 41 48 42 52 43 49 44 51 45
REMARK SMILES IDX 50 46 69 47 70 48 74 49 71 50 73 51 72 52 59 53 60 54 64 55
REMARK SMILES IDX 61 56 63 57 62 58 9 59 10 60 11 61 12 62 13 63 14 64 15 65
REMARK SMILES IDX 16 66 37 67 17 68 36 69 18 70 19 71 20 72 35 73 21 74 23 75
REMARK SMILES IDX 22 76 24 77 25 78 26 79 27 80 34 81 28 82 33 83 29 84 32 85
REMARK SMILES IDX 30 86 31 87
REMARK H PARENT 79 26 57 37 30 88
REMARK Flexibility Score: inf
ROOT
ATOM      1  C   UNL A   1      46.337  22.261  24.322  1.00  0.00     0.188 C 
ENDROOT
BRANCH   1   2
ATOM      2  C   UNL A   1      45.630  21.574  25.492  1.00  0.00     0.188 C 
BRANCH   2   3
ATOM      3  O   UNL A   1      45.550  20.157  25.297  1.00  0.00    -0.376 OA
BRANCH   3   4
ATOM      4  C   UNL A   1      44.304  19.725  24.742  1.00  0.00     0.202 C 
BRANCH   4   5
ATOM      5  C   UNL A   1      43.722  18.458  25.387  1.00  0.00     0.261 C 
BRANCH   5   6
ATOM      6  O   UNL A   1      42.649  18.739  26.302  1.00  0.00    -0.460 OA
BRANCH   6   7
ATOM      7  C   UNL A   1      41.786  19.785  26.282  1.00  0.00     0.338 C 
ATOM      8  O   UNL A   1      40.678  19.625  25.773  1.00  0.00    -0.246 OA
BRANCH   7   9
ATOM      9  C   UNL A   1      42.093  21.128  26.868  1.00  0.00     0.060 A 
ATOM     10  C   UNL A   1      42.285  21.379  28.225  1.00  0.00     0.016 A 
ATOM     11  C   UNL A   1      42.270  22.200  25.976  1.00  0.00     0.016 A 
ATOM     12  C   UNL A   1      42.534  22.660  28.701  1.00  0.00     0.010 A 
ATOM     13  C   UNL A   1      42.590  23.484  26.443  1.00  0.00     0.010 A 
ATOM     14  C   UNL A   1      42.696  23.722  27.818  1.00  0.00    -0.014 A 
BRANCH  14  15
ATOM     15  C   UNL A   1      42.865  25.085  28.370  1.00  0.00     0.031 A 
ATOM     16  C   UNL A   1      44.243  25.540  28.753  1.00  0.00     0.074 A 
ATOM     17  C   UNL A   1      41.838  25.958  28.376  1.00  0.00     0.049 A 
ATOM     18  N   UNL A   1      44.615  26.649  29.332  1.00  0.00    -0.248 NA
ATOM     19  C   UNL A   1      45.356  24.641  28.399  1.00  0.00     0.031 C 
ATOM     20  C   UNL A   1      40.505  25.705  27.826  1.00  0.00     0.029 A 
ATOM     21  N   UNL A   1      41.762  27.251  28.829  1.00  0.00    -0.354 N 
ATOM     22  C   UNL A   1      46.000  26.586  29.406  1.00  0.00     0.074 A 
ATOM     23  C   UNL A   1      46.405  25.319  28.841  1.00  0.00     0.031 C 
ATOM     24  C   UNL A   1      39.756  26.813  27.949  1.00  0.00     0.029 A 
ATOM     25  C   UNL A   1      40.517  27.815  28.679  1.00  0.00     0.049 A 
ATOM     26  H   UNL A   1      42.526  27.729  29.224  1.00  0.00     0.167 HD
ATOM     27  C   UNL A   1      46.855  27.515  29.892  1.00  0.00     0.031 A 
ATOM     28  C   UNL A   1      40.029  28.981  29.147  1.00  0.00     0.031 A 
ATOM     29  C   UNL A   1      46.432  28.768  30.450  1.00  0.00     0.049 A 
ATOM     30  C   UNL A   1      40.935  29.810  30.007  1.00  0.00     0.074 A 
ATOM     31  C   UNL A   1      47.201  29.784  30.990  1.00  0.00     0.029 A 
ATOM     32  N   UNL A   1      45.109  29.171  30.544  1.00  0.00    -0.354 N 
ATOM     33  N   UNL A   1      42.229  29.700  30.183  1.00  0.00    -0.248 NA
ATOM     34  C   UNL A   1      40.303  30.884  30.784  1.00  0.00     0.031 C 
ATOM     35  C   UNL A   1      46.334  30.774  31.468  1.00  0.00     0.029 A 
ATOM     36  C   UNL A   1      45.032  30.395  31.180  1.00  0.00     0.049 A 
ATOM     37  H   UNL A   1      44.338  28.660  30.206  1.00  0.00     0.167 HD
ATOM     38  C   UNL A   1      42.578  30.729  31.042  1.00  0.00     0.074 A 
ATOM     39  C   UNL A   1      41.354  31.430  31.379  1.00  0.00     0.031 C 
ATOM     40  C   UNL A   1      43.806  31.078  31.491  1.00  0.00     0.031 A 
BRANCH  27  41
ATOM     41  C   UNL A   1      48.316  27.180  29.886  1.00  0.00    -0.014 A 
ATOM     42  C   UNL A   1      48.916  26.496  30.954  1.00  0.00     0.009 A 
ATOM     43  C   UNL A   1      49.102  27.543  28.781  1.00  0.00     0.009 A 
ATOM     44  C   UNL A   1      50.280  26.199  30.923  1.00  0.00     0.001 A 
ATOM     45  C   UNL A   1      50.460  27.228  28.744  1.00  0.00     0.001 A 
ATOM     46  C   UNL A   1      51.050  26.561  29.818  1.00  0.00     0.000 A 
ENDBRANCH  27  41
BRANCH  28  47
ATOM     47  C   UNL A   1      38.595  29.351  28.997  1.00  0.00    -0.014 A 
ATOM     48  C   UNL A   1      37.655  29.151  30.014  1.00  0.00     0.009 A 
ATOM     49  C   UNL A   1      38.140  29.818  27.757  1.00  0.00     0.009 A 
ATOM     50  C   UNL A   1      36.296  29.402  29.780  1.00  0.00     0.001 A 
ATOM     51  C   UNL A   1      36.794  30.107  27.532  1.00  0.00     0.001 A 
ATOM     52  C   UNL A   1      35.869  29.886  28.544  1.00  0.00     0.000 A 
ENDBRANCH  28  47
BRANCH  40  53
ATOM     53  C   UNL A   1      43.884  32.334  32.301  1.00  0.00    -0.014 A 
ATOM     54  C   UNL A   1      43.985  33.594  31.695  1.00  0.00     0.009 A 
ATOM     55  C   UNL A   1      43.863  32.239  33.702  1.00  0.00     0.009 A 
ATOM     56  C   UNL A   1      44.093  34.739  32.484  1.00  0.00     0.001 A 
ATOM     57  C   UNL A   1      43.944  33.387  34.485  1.00  0.00     0.001 A 
ATOM     58  C   UNL A   1      44.069  34.635  33.876  1.00  0.00     0.000 A 
ENDBRANCH  40  53
ENDBRANCH  14  15
ENDBRANCH   7   9
ENDBRANCH   6   7
ENDBRANCH   5   6
ENDBRANCH   4   5
ENDBRANCH   3   4
ENDBRANCH   2   3
ENDBRANCH   1   2
BRANCH   1  59
ATOM     59  O   UNL A   1      46.101  23.664  24.186  1.00  0.00    -0.376 OA
BRANCH  59  60
ATOM     60  C   UNL A   1      46.786  24.531  25.081  1.00  0.00     0.202 C 
BRANCH  60  61
ATOM     61  C   UNL A   1      46.799  26.029  24.751  1.00  0.00     0.261 C 
BRANCH  61  62
ATOM     62  O   UNL A   1      46.454  26.909  25.834  1.00  0.00    -0.460 OA
BRANCH  62  63
ATOM     63  C   UNL A   1      45.196  27.399  25.760  1.00  0.00     0.338 C 
ATOM     64  O   UNL A   1      44.280  26.981  25.053  1.00  0.00    -0.246 OA
BRANCH  63  65
ATOM     65  C   UNL A   1      45.066  28.654  26.512  1.00  0.00     0.060 A 
ATOM     66  C   UNL A   1      43.844  29.233  26.863  1.00  0.00     0.016 A 
ATOM     67  C   UNL A   1      46.252  29.338  26.749  1.00  0.00     0.016 A 
ATOM     68  C   UNL A   1      43.821  30.521  27.435  1.00  0.00     0.005 A 
ATOM     69  C   UNL A   1      46.221  30.609  27.313  1.00  0.00     0.005 A 
ATOM     70  C   UNL A   1      45.011  31.239  27.667  1.00  0.00    -0.043 A 
BRANCH  70  71
ATOM     71  C   UNL A   1      44.968  32.669  28.244  1.00  0.00     0.039 C 
ATOM     72  C   UNL A   1      46.372  33.249  28.484  1.00  0.00     0.012 C 
ATOM     73  C   UNL A   1      44.097  33.622  27.399  1.00  0.00     0.128 C 
ATOM     74  C   UNL A   1      46.321  34.725  28.877  1.00  0.00     0.022 C 
ATOM     75  N   UNL A   1      44.275  35.059  27.537  1.00  0.00    -0.338 N 
ATOM     76  C   UNL A   1      45.618  35.557  27.814  1.00  0.00     0.120 C 
BRANCH  75  77
ATOM     77  C   UNL A   1      43.271  35.826  26.937  1.00  0.00     0.253 C 
ATOM     78  O   UNL A   1      42.679  35.485  25.913  1.00  0.00    -0.269 OA
BRANCH  77  79
ATOM     79  C   UNL A   1      42.876  37.116  27.516  1.00  0.00     0.040 A 
ATOM     80  C   UNL A   1      42.163  37.997  26.702  1.00  0.00     0.016 A 
ATOM     81  C   UNL A   1      43.384  37.509  28.763  1.00  0.00     0.024 A 
ATOM     82  C   UNL A   1      41.916  39.304  27.120  1.00  0.00     0.027 A 
ATOM     83  C   UNL A   1      43.155  38.832  29.191  1.00  0.00     0.000 A 
ATOM     84  C   UNL A   1      42.432  39.693  28.364  1.00  0.00     0.045 A 
ATOM     85  C   UNL A   1      43.541  39.584  30.337  1.00  0.00     0.028 A 
ATOM     86  N   UNL A   1      42.379  40.915  28.996  1.00  0.00    -0.361 N 
ATOM     87  C   UNL A   1      43.053  40.863  30.186  1.00  0.00     0.083 A 
ATOM     88  H   UNL A   1      41.923  41.713  28.642  1.00  0.00     0.166 HD
ENDBRANCH  77  79
ENDBRANCH  75  77
ENDBRANCH  70  71
ENDBRANCH  63  65
ENDBRANCH  62  63
ENDBRANCH  61  62
ENDBRANCH  60  61
ENDBRANCH  59  60
ENDBRANCH   1  59
TORSDOF 20
ENDMDL
