MODEL 1
REMARK VINA RESULT:     -10.5      0.000      0.000
REMARK SMILES COc1ccc(-c2cnc(N)c(C(=O)OCCOCCOCCOC(=O)c3ccc(-c4c5nc(c(-c6ccccc6)c6ccc([nH]6)c(-c6ccccc6)c6nc(c(-c7ccccc7)c7ccc4[nH]7)C=C6)C=C5)cc3)c2)c(C)c1
REMARK SMILES IDX 19 1 18 2 17 3 16 4 15 5 13 6 14 7 12 8 7 9 8 10 75 11 9 12
REMARK SMILES IDX 10 13 6 14 3 15 4 16 78 17 5 18 76 19 77 20 2 21 1 22 11 23
REMARK SMILES IDX 20 26 21 27 22 28 23 29 24 30 25 31 26 32 27 33 28 34 74 35
REMARK SMILES IDX 29 36 73 37 30 38 31 39 32 40 67 41 33 42 72 43 66 44 68 45
REMARK SMILES IDX 34 46 71 47 65 48 64 49 35 51 57 52 42 53 56 54 43 55 46 56
REMARK SMILES IDX 55 57 69 58 44 59 45 60 54 62 70 63 47 64 36 65 37 66 41 67
REMARK SMILES IDX 38 68 40 69 39 70 58 71 59 72 63 73 60 74 62 75 61 76 48 77
REMARK SMILES IDX 49 78 53 79 50 80 52 81 51 82
REMARK H PARENT 11 24 11 25 68 50 46 61
REMARK Flexibility Score: inf
ROOT
ATOM      1  C   UNL A   1      38.412  21.749  25.422  1.00  0.00     0.188 C 
ENDROOT
BRANCH   1   2
ATOM      2  O   UNL A   1      37.164  22.167  26.024  1.00  0.00    -0.376 OA
BRANCH   2   3
ATOM      3  C   UNL A   1      36.209  23.048  25.398  1.00  0.00     0.202 C 
BRANCH   3   4
ATOM      4  C   UNL A   1      35.272  22.501  24.145  1.00  0.00     0.261 C 
BRANCH   4   5
ATOM      5  O   UNL A   1      33.820  21.574  24.214  1.00  0.00    -0.460 OA
BRANCH   5   6
ATOM      6  C   UNL A   1      32.567  21.502  24.911  1.00  0.00     0.342 C 
ATOM      7  O   UNL A   1      31.895  20.512  25.181  1.00  0.00    -0.246 OA
BRANCH   6   8
ATOM      8  C   UNL A   1      31.810  22.681  25.440  1.00  0.00     0.102 A 
ATOM      9  C   UNL A   1      31.147  25.086  25.144  1.00  0.00     0.001 A 
ATOM     10  C   UNL A   1      31.241  25.139  26.530  1.00  0.00     0.122 A 
ATOM     11  C   UNL A   1      31.482  23.820  24.607  1.00  0.00     0.030 A 
ATOM     12  N   UNL A   1      31.614  24.110  27.349  1.00  0.00    -0.238 NA
ATOM     13  C   UNL A   1      31.918  22.911  26.800  1.00  0.00     0.138 A 
BRANCH   9  14
ATOM     14  C   UNL A   1      30.718  26.307  24.372  1.00  0.00    -0.014 A 
ATOM     15  C   UNL A   1      29.838  28.391  22.575  1.00  0.00     0.119 A 
ATOM     16  C   UNL A   1      28.911  27.600  23.239  1.00  0.00     0.047 A 
ATOM     17  C   UNL A   1      31.189  28.164  22.821  1.00  0.00     0.050 A 
ATOM     18  C   UNL A   1      29.348  26.573  24.119  1.00  0.00     0.013 A 
ATOM     19  C   UNL A   1      31.639  27.157  23.714  1.00  0.00    -0.040 A 
ATOM     20  C   UNL A   1      33.128  26.992  23.810  1.00  0.00     0.045 C 
BRANCH  15  21
ATOM     21  O   UNL A   1      29.581  29.329  21.614  1.00  0.00    -0.497 OA
ATOM     22  C   UNL A   1      28.709  30.399  21.955  1.00  0.00     0.278 C 
ENDBRANCH  15  21
ENDBRANCH   9  14
BRANCH  13  23
ATOM     23  N   UNL A   1      32.522  22.007  27.648  1.00  0.00    -0.383 N 
ATOM     24  H   UNL A   1      32.699  21.088  27.342  1.00  0.00     0.158 HD
ATOM     25  H   UNL A   1      32.777  22.280  28.558  1.00  0.00     0.158 HD
ENDBRANCH  13  23
ENDBRANCH   6   8
ENDBRANCH   5   6
ENDBRANCH   4   5
ENDBRANCH   3   4
ENDBRANCH   2   3
ENDBRANCH   1   2
BRANCH   1  26
ATOM     26  C   UNL A   1      39.668  21.444  26.240  1.00  0.00     0.188 C 
BRANCH  26  27
ATOM     27  O   UNL A   1      39.770  22.388  27.286  1.00  0.00    -0.376 OA
BRANCH  27  28
ATOM     28  C   UNL A   1      41.074  22.836  27.603  1.00  0.00     0.202 C 
BRANCH  28  29
ATOM     29  C   UNL A   1      41.252  24.324  27.255  1.00  0.00     0.261 C 
BRANCH  29  30
ATOM     30  O   UNL A   1      40.581  25.151  28.239  1.00  0.00    -0.460 OA
BRANCH  30  31
ATOM     31  C   UNL A   1      39.366  25.690  27.896  1.00  0.00     0.338 C 
ATOM     32  O   UNL A   1      38.595  25.205  27.078  1.00  0.00    -0.246 OA
BRANCH  31  33
ATOM     33  C   UNL A   1      39.224  27.073  28.471  1.00  0.00     0.060 A 
ATOM     34  C   UNL A   1      39.705  28.263  27.907  1.00  0.00     0.016 A 
ATOM     35  C   UNL A   1      38.950  27.143  29.792  1.00  0.00     0.016 A 
ATOM     36  C   UNL A   1      40.054  29.436  28.718  1.00  0.00     0.010 A 
ATOM     37  C   UNL A   1      39.600  28.166  30.488  1.00  0.00     0.010 A 
ATOM     38  C   UNL A   1      40.108  29.422  30.120  1.00  0.00    -0.014 A 
BRANCH  38  39
ATOM     39  C   UNL A   1      40.914  30.483  31.083  1.00  0.00     0.031 A 
ATOM     40  C   UNL A   1      41.925  30.390  32.414  1.00  0.00     0.074 A 
ATOM     41  C   UNL A   1      40.639  31.786  30.814  1.00  0.00     0.049 A 
ATOM     42  N   UNL A   1      41.775  31.125  33.509  1.00  0.00    -0.248 NA
ATOM     43  C   UNL A   1      43.176  29.585  32.636  1.00  0.00     0.031 C 
ATOM     44  C   UNL A   1      41.214  32.983  31.425  1.00  0.00     0.029 A 
ATOM     45  N   UNL A   1      39.607  32.290  30.014  1.00  0.00    -0.354 N 
ATOM     46  C   UNL A   1      42.860  30.900  34.380  1.00  0.00     0.074 A 
ATOM     47  C   UNL A   1      43.656  29.884  33.823  1.00  0.00     0.031 C 
ATOM     48  C   UNL A   1      40.357  34.003  31.255  1.00  0.00     0.029 A 
ATOM     49  C   UNL A   1      39.174  33.489  30.590  1.00  0.00     0.049 A 
ATOM     50  H   UNL A   1      39.252  31.876  29.194  1.00  0.00     0.167 HD
ATOM     51  C   UNL A   1      43.203  31.604  35.491  1.00  0.00     0.031 A 
ATOM     52  C   UNL A   1      37.876  33.655  30.966  1.00  0.00     0.031 A 
ATOM     53  C   UNL A   1      42.424  32.794  35.589  1.00  0.00     0.049 A 
ATOM     54  C   UNL A   1      37.717  33.911  32.448  1.00  0.00     0.074 A 
ATOM     55  C   UNL A   1      42.622  34.066  35.088  1.00  0.00     0.029 A 
ATOM     56  N   UNL A   1      41.085  32.663  35.881  1.00  0.00    -0.354 N 
ATOM     57  N   UNL A   1      38.700  33.910  33.306  1.00  0.00    -0.248 NA
ATOM     58  C   UNL A   1      36.422  34.118  33.096  1.00  0.00     0.031 C 
ATOM     59  C   UNL A   1      41.344  34.669  34.969  1.00  0.00     0.029 A 
ATOM     60  C   UNL A   1      40.404  33.789  35.474  1.00  0.00     0.049 A 
ATOM     61  H   UNL A   1      40.676  31.880  36.315  1.00  0.00     0.167 HD
ATOM     62  C   UNL A   1      38.194  33.985  34.576  1.00  0.00     0.074 A 
ATOM     63  C   UNL A   1      36.770  34.167  34.393  1.00  0.00     0.031 C 
ATOM     64  C   UNL A   1      38.973  33.835  35.684  1.00  0.00     0.031 A 
BRANCH  51  65
ATOM     65  C   UNL A   1      44.495  31.295  36.223  1.00  0.00    -0.014 A 
ATOM     66  C   UNL A   1      44.544  30.278  37.185  1.00  0.00     0.009 A 
ATOM     67  C   UNL A   1      45.656  32.092  36.082  1.00  0.00     0.009 A 
ATOM     68  C   UNL A   1      45.643  30.141  38.050  1.00  0.00     0.001 A 
ATOM     69  C   UNL A   1      46.735  31.989  36.976  1.00  0.00     0.001 A 
ATOM     70  C   UNL A   1      46.719  31.020  37.973  1.00  0.00     0.000 A 
ENDBRANCH  51  65
BRANCH  52  71
ATOM     71  C   UNL A   1      36.887  32.975  30.074  1.00  0.00    -0.014 A 
ATOM     72  C   UNL A   1      36.438  33.678  28.932  1.00  0.00     0.009 A 
ATOM     73  C   UNL A   1      36.605  31.604  30.149  1.00  0.00     0.009 A 
ATOM     74  C   UNL A   1      35.838  33.018  27.854  1.00  0.00     0.001 A 
ATOM     75  C   UNL A   1      35.983  30.946  29.074  1.00  0.00     0.001 A 
ATOM     76  C   UNL A   1      35.628  31.647  27.919  1.00  0.00     0.000 A 
ENDBRANCH  52  71
BRANCH  64  77
ATOM     77  C   UNL A   1      38.483  33.689  37.099  1.00  0.00    -0.014 A 
ATOM     78  C   UNL A   1      37.762  32.585  37.563  1.00  0.00     0.009 A 
ATOM     79  C   UNL A   1      38.931  34.622  38.064  1.00  0.00     0.009 A 
ATOM     80  C   UNL A   1      37.467  32.442  38.926  1.00  0.00     0.001 A 
ATOM     81  C   UNL A   1      38.684  34.455  39.425  1.00  0.00     0.001 A 
ATOM     82  C   UNL A   1      37.938  33.368  39.855  1.00  0.00     0.000 A 
ENDBRANCH  64  77
ENDBRANCH  38  39
ENDBRANCH  31  33
ENDBRANCH  30  31
ENDBRANCH  29  30
ENDBRANCH  28  29
ENDBRANCH  27  28
ENDBRANCH  26  27
ENDBRANCH   1  26
TORSDOF 20
ENDMDL
MODEL 2
REMARK VINA RESULT:     -10.2      9.829     15.268
REMARK SMILES COc1ccc(-c2cnc(N)c(C(=O)OCCOCCOCCOC(=O)c3ccc(-c4c5nc(c(-c6ccccc6)c6ccc([nH]6)c(-c6ccccc6)c6nc(c(-c7ccccc7)c7ccc4[nH]7)C=C6)C=C5)cc3)c2)c(C)c1
REMARK SMILES IDX 19 1 18 2 17 3 16 4 15 5 13 6 14 7 12 8 7 9 8 10 75 11 9 12
REMARK SMILES IDX 10 13 6 14 3 15 4 16 78 17 5 18 76 19 77 20 2 21 1 22 11 23
REMARK SMILES IDX 20 26 21 27 22 28 23 29 24 30 25 31 26 32 27 33 28 34 74 35
REMARK SMILES IDX 29 36 73 37 30 38 31 39 32 40 67 41 33 42 72 43 66 44 68 45
REMARK SMILES IDX 34 46 71 47 65 48 64 49 35 51 57 52 42 53 56 54 43 55 46 56
REMARK SMILES IDX 55 57 69 58 44 59 45 60 54 62 70 63 47 64 36 65 37 66 41 67
REMARK SMILES IDX 38 68 40 69 39 70 58 71 59 72 63 73 60 74 62 75 61 76 48 77
REMARK SMILES IDX 49 78 53 79 50 80 52 81 51 82
REMARK H PARENT 11 24 11 25 68 50 46 61
REMARK Flexibility Score: inf
ROOT
ATOM      1  C   UNL A   1      46.072  42.072  27.491  1.00  0.00     0.188 C 
ENDROOT
BRANCH   1   2
ATOM      2  O   UNL A   1      45.522  42.960  28.491  1.00  0.00    -0.376 OA
BRANCH   2   3
ATOM      3  C   UNL A   1      45.228  44.355  28.275  1.00  0.00     0.202 C 
BRANCH   3   4
ATOM      4  C   UNL A   1      45.903  45.156  26.989  1.00  0.00     0.261 C 
BRANCH   4   5
ATOM      5  O   UNL A   1      45.510  45.025  25.316  1.00  0.00    -0.460 OA
BRANCH   5   6
ATOM      6  C   UNL A   1      44.757  44.215  24.400  1.00  0.00     0.342 C 
ATOM      7  O   UNL A   1      43.720  43.592  24.602  1.00  0.00    -0.246 OA
BRANCH   6   8
ATOM      8  C   UNL A   1      45.131  43.958  22.973  1.00  0.00     0.102 A 
ATOM      9  C   UNL A   1      44.458  44.029  20.554  1.00  0.00     0.001 A 
ATOM     10  C   UNL A   1      45.206  42.861  20.454  1.00  0.00     0.122 A 
ATOM     11  C   UNL A   1      44.405  44.550  21.869  1.00  0.00     0.030 A 
ATOM     12  N   UNL A   1      45.849  42.230  21.481  1.00  0.00    -0.238 NA
ATOM     13  C   UNL A   1      45.784  42.764  22.723  1.00  0.00     0.138 A 
BRANCH   9  14
ATOM     14  C   UNL A   1      43.806  44.612  19.327  1.00  0.00    -0.014 A 
ATOM     15  C   UNL A   1      42.495  46.067  17.202  1.00  0.00     0.119 A 
ATOM     16  C   UNL A   1      43.843  46.269  17.463  1.00  0.00     0.047 A 
ATOM     17  C   UNL A   1      41.811  45.134  17.976  1.00  0.00     0.050 A 
ATOM     18  C   UNL A   1      44.483  45.553  18.511  1.00  0.00     0.013 A 
ATOM     19  C   UNL A   1      42.443  44.397  19.011  1.00  0.00    -0.040 A 
ATOM     20  C   UNL A   1      41.548  43.485  19.799  1.00  0.00     0.045 C 
BRANCH  15  21
ATOM     21  O   UNL A   1      41.715  46.759  16.318  1.00  0.00    -0.497 OA
ATOM     22  C   UNL A   1      41.940  48.158  16.197  1.00  0.00     0.278 C 
ENDBRANCH  15  21
ENDBRANCH   9  14
BRANCH  13  23
ATOM     23  N   UNL A   1      46.235  41.951  23.742  1.00  0.00    -0.383 N 
ATOM     24  H   UNL A   1      46.049  40.985  23.720  1.00  0.00     0.158 HD
ATOM     25  H   UNL A   1      46.743  42.337  24.492  1.00  0.00     0.158 HD
ENDBRANCH  13  23
ENDBRANCH   6   8
ENDBRANCH   5   6
ENDBRANCH   4   5
ENDBRANCH   3   4
ENDBRANCH   2   3
ENDBRANCH   1   2
BRANCH   1  26
ATOM     26  C   UNL A   1      47.106  40.992  27.815  1.00  0.00     0.188 C 
BRANCH  26  27
ATOM     27  O   UNL A   1      46.521  39.724  27.602  1.00  0.00    -0.376 OA
BRANCH  27  28
ATOM     28  C   UNL A   1      46.078  39.449  26.287  1.00  0.00     0.202 C 
BRANCH  28  29
ATOM     29  C   UNL A   1      46.845  38.263  25.678  1.00  0.00     0.261 C 
BRANCH  29  30
ATOM     30  O   UNL A   1      46.220  37.012  26.065  1.00  0.00    -0.460 OA
BRANCH  30  31
ATOM     31  C   UNL A   1      47.025  35.906  26.172  1.00  0.00     0.338 C 
ATOM     32  O   UNL A   1      48.248  35.937  26.229  1.00  0.00    -0.246 OA
BRANCH  31  33
ATOM     33  C   UNL A   1      46.224  34.650  25.959  1.00  0.00     0.060 A 
ATOM     34  C   UNL A   1      44.834  34.568  25.788  1.00  0.00     0.016 A 
ATOM     35  C   UNL A   1      46.818  33.496  26.330  1.00  0.00     0.016 A 
ATOM     36  C   UNL A   1      44.064  33.374  26.157  1.00  0.00     0.010 A 
ATOM     37  C   UNL A   1      45.980  32.556  26.937  1.00  0.00     0.010 A 
ATOM     38  C   UNL A   1      44.604  32.289  26.864  1.00  0.00    -0.014 A 
BRANCH  38  39
ATOM     39  C   UNL A   1      43.769  31.159  27.717  1.00  0.00     0.031 A 
ATOM     40  C   UNL A   1      43.062  29.675  27.402  1.00  0.00     0.074 A 
ATOM     41  C   UNL A   1      43.482  31.535  28.991  1.00  0.00     0.049 A 
ATOM     42  N   UNL A   1      41.831  29.349  27.772  1.00  0.00    -0.248 NA
ATOM     43  C   UNL A   1      43.628  28.441  26.753  1.00  0.00     0.031 C 
ATOM     44  C   UNL A   1      42.814  30.765  30.040  1.00  0.00     0.029 A 
ATOM     45  N   UNL A   1      43.595  32.814  29.547  1.00  0.00    -0.354 N 
ATOM     46  C   UNL A   1      41.590  27.994  27.470  1.00  0.00     0.074 A 
ATOM     47  C   UNL A   1      42.708  27.503  26.774  1.00  0.00     0.031 C 
ATOM     48  C   UNL A   1      42.295  31.622  30.934  1.00  0.00     0.029 A 
ATOM     49  C   UNL A   1      42.550  32.971  30.463  1.00  0.00     0.049 A 
ATOM     50  H   UNL A   1      44.286  33.482  29.332  1.00  0.00     0.167 HD
ATOM     51  C   UNL A   1      40.553  27.215  27.877  1.00  0.00     0.031 A 
ATOM     52  C   UNL A   1      41.651  33.985  30.332  1.00  0.00     0.031 A 
ATOM     53  C   UNL A   1      39.781  27.889  28.869  1.00  0.00     0.049 A 
ATOM     54  C   UNL A   1      40.233  33.497  30.138  1.00  0.00     0.074 A 
ATOM     55  C   UNL A   1      39.894  27.936  30.245  1.00  0.00     0.029 A 
ATOM     56  N   UNL A   1      39.032  28.972  28.473  1.00  0.00    -0.354 N 
ATOM     57  N   UNL A   1      39.892  32.242  30.038  1.00  0.00    -0.248 NA
ATOM     58  C   UNL A   1      39.088  34.393  29.970  1.00  0.00     0.031 C 
ATOM     59  C   UNL A   1      39.292  29.147  30.670  1.00  0.00     0.029 A 
ATOM     60  C   UNL A   1      38.754  29.773  29.560  1.00  0.00     0.049 A 
ATOM     61  H   UNL A   1      38.738  29.149  27.550  1.00  0.00     0.167 HD
ATOM     62  C   UNL A   1      38.572  32.157  29.682  1.00  0.00     0.074 A 
ATOM     63  C   UNL A   1      38.098  33.524  29.705  1.00  0.00     0.031 C 
ATOM     64  C   UNL A   1      37.982  30.977  29.341  1.00  0.00     0.031 A 
BRANCH  51  65
ATOM     65  C   UNL A   1      40.541  25.731  27.563  1.00  0.00    -0.014 A 
ATOM     66  C   UNL A   1      39.514  25.174  26.790  1.00  0.00     0.009 A 
ATOM     67  C   UNL A   1      41.466  24.826  28.138  1.00  0.00     0.009 A 
ATOM     68  C   UNL A   1      39.341  23.782  26.698  1.00  0.00     0.001 A 
ATOM     69  C   UNL A   1      41.267  23.437  28.088  1.00  0.00     0.001 A 
ATOM     70  C   UNL A   1      40.191  22.915  27.379  1.00  0.00     0.000 A 
ENDBRANCH  51  65
BRANCH  52  71
ATOM     71  C   UNL A   1      42.231  35.254  29.794  1.00  0.00    -0.014 A 
ATOM     72  C   UNL A   1      43.262  35.873  30.538  1.00  0.00     0.009 A 
ATOM     73  C   UNL A   1      42.016  35.698  28.482  1.00  0.00     0.009 A 
ATOM     74  C   UNL A   1      44.120  36.815  29.960  1.00  0.00     0.001 A 
ATOM     75  C   UNL A   1      42.866  36.660  27.909  1.00  0.00     0.001 A 
ATOM     76  C   UNL A   1      43.932  37.193  28.637  1.00  0.00     0.000 A 
ENDBRANCH  52  71
BRANCH  64  77
ATOM     77  C   UNL A   1      36.613  30.813  28.738  1.00  0.00    -0.014 A 
ATOM     78  C   UNL A   1      35.773  31.882  28.412  1.00  0.00     0.009 A 
ATOM     79  C   UNL A   1      36.222  29.525  28.301  1.00  0.00     0.009 A 
ATOM     80  C   UNL A   1      34.576  31.667  27.715  1.00  0.00     0.001 A 
ATOM     81  C   UNL A   1      35.059  29.316  27.562  1.00  0.00     0.001 A 
ATOM     82  C   UNL A   1      34.227  30.389  27.281  1.00  0.00     0.000 A 
ENDBRANCH  64  77
ENDBRANCH  38  39
ENDBRANCH  31  33
ENDBRANCH  30  31
ENDBRANCH  29  30
ENDBRANCH  28  29
ENDBRANCH  27  28
ENDBRANCH  26  27
ENDBRANCH   1  26
TORSDOF 20
ENDMDL
MODEL 3
REMARK VINA RESULT:     -10.2      3.633      8.798
REMARK SMILES COc1ccc(-c2cnc(N)c(C(=O)OCCOCCOCCOC(=O)c3ccc(-c4c5nc(c(-c6ccccc6)c6ccc([nH]6)c(-c6ccccc6)c6nc(c(-c7ccccc7)c7ccc4[nH]7)C=C6)C=C5)cc3)c2)c(C)c1
REMARK SMILES IDX 19 1 18 2 17 3 16 4 15 5 13 6 14 7 12 8 7 9 8 10 75 11 9 12
REMARK SMILES IDX 10 13 6 14 3 15 4 16 78 17 5 18 76 19 77 20 2 21 1 22 11 23
REMARK SMILES IDX 20 26 21 27 22 28 23 29 24 30 25 31 26 32 27 33 28 34 74 35
REMARK SMILES IDX 29 36 73 37 30 38 31 39 32 40 67 41 33 42 72 43 66 44 68 45
REMARK SMILES IDX 34 46 71 47 65 48 64 49 35 51 57 52 42 53 56 54 43 55 46 56
REMARK SMILES IDX 55 57 69 58 44 59 45 60 54 62 70 63 47 64 36 65 37 66 41 67
REMARK SMILES IDX 38 68 40 69 39 70 58 71 59 72 63 73 60 74 62 75 61 76 48 77
REMARK SMILES IDX 49 78 53 79 50 80 52 81 51 82
REMARK H PARENT 11 24 11 25 68 50 46 61
REMARK Flexibility Score: inf
ROOT
ATOM      1  C   UNL A   1      34.625  34.131  27.654  1.00  0.00     0.188 C 
ENDROOT
BRANCH   1   2
ATOM      2  O   UNL A   1      35.504  32.992  27.497  1.00  0.00    -0.376 OA
BRANCH   2   3
ATOM      3  C   UNL A   1      35.740  31.995  28.511  1.00  0.00     0.202 C 
BRANCH   3   4
ATOM      4  C   UNL A   1      35.496  30.390  28.171  1.00  0.00     0.261 C 
BRANCH   4   5
ATOM      5  O   UNL A   1      34.416  29.686  27.027  1.00  0.00    -0.460 OA
BRANCH   5   6
ATOM      6  C   UNL A   1      33.370  28.708  26.926  1.00  0.00     0.342 C 
ATOM      7  O   UNL A   1      32.437  28.501  27.696  1.00  0.00    -0.246 OA
BRANCH   6   8
ATOM      8  C   UNL A   1      33.236  27.705  25.823  1.00  0.00     0.102 A 
ATOM      9  C   UNL A   1      33.795  25.415  24.954  1.00  0.00     0.001 A 
ATOM     10  C   UNL A   1      33.846  26.048  23.716  1.00  0.00     0.122 A 
ATOM     11  C   UNL A   1      33.518  26.299  26.024  1.00  0.00     0.030 A 
ATOM     12  N   UNL A   1      33.656  27.382  23.489  1.00  0.00    -0.238 NA
ATOM     13  C   UNL A   1      33.382  28.194  24.537  1.00  0.00     0.138 A 
BRANCH   9  14
ATOM     14  C   UNL A   1      34.025  23.929  25.048  1.00  0.00    -0.014 A 
ATOM     15  C   UNL A   1      34.538  21.094  24.824  1.00  0.00     0.119 A 
ATOM     16  C   UNL A   1      35.591  21.991  24.932  1.00  0.00     0.047 A 
ATOM     17  C   UNL A   1      33.242  21.600  24.851  1.00  0.00     0.050 A 
ATOM     18  C   UNL A   1      35.335  23.386  25.038  1.00  0.00     0.013 A 
ATOM     19  C   UNL A   1      32.971  22.987  24.979  1.00  0.00    -0.040 A 
ATOM     20  C   UNL A   1      31.521  23.374  24.917  1.00  0.00     0.045 C 
BRANCH  15  21
ATOM     21  O   UNL A   1      34.623  19.749  24.595  1.00  0.00    -0.497 OA
ATOM     22  C   UNL A   1      33.475  18.960  24.879  1.00  0.00     0.278 C 
ENDBRANCH  15  21
ENDBRANCH   9  14
BRANCH  13  23
ATOM     23  N   UNL A   1      33.454  29.546  24.273  1.00  0.00    -0.383 N 
ATOM     24  H   UNL A   1      33.305  29.878  23.359  1.00  0.00     0.158 HD
ATOM     25  H   UNL A   1      33.654  30.179  25.000  1.00  0.00     0.158 HD
ENDBRANCH  13  23
ENDBRANCH   6   8
ENDBRANCH   5   6
ENDBRANCH   4   5
ENDBRANCH   3   4
ENDBRANCH   2   3
ENDBRANCH   1   2
BRANCH   1  26
ATOM     26  C   UNL A   1      33.216  34.019  28.237  1.00  0.00     0.188 C 
BRANCH  26  27
ATOM     27  O   UNL A   1      32.807  35.294  28.687  1.00  0.00    -0.376 OA
BRANCH  27  28
ATOM     28  C   UNL A   1      33.334  35.721  29.929  1.00  0.00     0.202 C 
BRANCH  28  29
ATOM     29  C   UNL A   1      33.585  34.528  30.867  1.00  0.00     0.261 C 
BRANCH  29  30
ATOM     30  O   UNL A   1      34.118  34.992  32.134  1.00  0.00    -0.460 OA
BRANCH  30  31
ATOM     31  C   UNL A   1      34.531  34.044  33.036  1.00  0.00     0.338 C 
ATOM     32  O   UNL A   1      33.799  33.480  33.839  1.00  0.00    -0.246 OA
BRANCH  31  33
ATOM     33  C   UNL A   1      36.034  33.975  33.073  1.00  0.00     0.060 A 
ATOM     34  C   UNL A   1      36.920  34.620  32.198  1.00  0.00     0.016 A 
ATOM     35  C   UNL A   1      36.565  32.933  33.749  1.00  0.00     0.016 A 
ATOM     36  C   UNL A   1      38.259  34.096  31.904  1.00  0.00     0.010 A 
ATOM     37  C   UNL A   1      37.699  32.355  33.171  1.00  0.00     0.010 A 
ATOM     38  C   UNL A   1      38.709  32.835  32.323  1.00  0.00    -0.014 A 
BRANCH  38  39
ATOM     39  C   UNL A   1      39.954  31.973  31.683  1.00  0.00     0.031 A 
ATOM     40  C   UNL A   1      40.123  30.659  30.660  1.00  0.00     0.074 A 
ATOM     41  C   UNL A   1      41.174  32.338  32.156  1.00  0.00     0.049 A 
ATOM     42  N   UNL A   1      40.911  29.622  30.913  1.00  0.00    -0.248 NA
ATOM     43  C   UNL A   1      39.538  30.398  29.299  1.00  0.00     0.031 C 
ATOM     44  C   UNL A   1      42.490  31.834  31.767  1.00  0.00     0.029 A 
ATOM     45  N   UNL A   1      41.450  33.155  33.258  1.00  0.00    -0.354 N 
ATOM     46  C   UNL A   1      40.925  28.757  29.800  1.00  0.00     0.074 A 
ATOM     47  C   UNL A   1      40.001  29.248  28.862  1.00  0.00     0.031 C 
ATOM     48  C   UNL A   1      43.351  32.066  32.771  1.00  0.00     0.029 A 
ATOM     49  C   UNL A   1      42.611  32.666  33.866  1.00  0.00     0.049 A 
ATOM     50  H   UNL A   1      40.923  33.933  33.551  1.00  0.00     0.167 HD
ATOM     51  C   UNL A   1      41.759  27.711  29.561  1.00  0.00     0.031 A 
ATOM     52  C   UNL A   1      42.608  32.279  35.172  1.00  0.00     0.031 A 
ATOM     53  C   UNL A   1      42.821  27.691  30.513  1.00  0.00     0.049 A 
ATOM     54  C   UNL A   1      42.954  30.819  35.357  1.00  0.00     0.074 A 
ATOM     55  C   UNL A   1      44.064  28.294  30.515  1.00  0.00     0.029 A 
ATOM     56  N   UNL A   1      42.511  27.365  31.813  1.00  0.00    -0.354 N 
ATOM     57  N   UNL A   1      43.171  29.983  34.380  1.00  0.00    -0.248 NA
ATOM     58  C   UNL A   1      43.012  30.165  36.664  1.00  0.00     0.031 C 
ATOM     59  C   UNL A   1      44.455  28.434  31.871  1.00  0.00     0.029 A 
ATOM     60  C   UNL A   1      43.485  27.845  32.661  1.00  0.00     0.049 A 
ATOM     61  H   UNL A   1      41.713  26.862  32.095  1.00  0.00     0.167 HD
ATOM     62  C   UNL A   1      43.270  28.712  34.883  1.00  0.00     0.074 A 
ATOM     63  C   UNL A   1      43.218  28.882  36.319  1.00  0.00     0.031 C 
ATOM     64  C   UNL A   1      43.329  27.612  34.082  1.00  0.00     0.031 A 
BRANCH  51  65
ATOM     65  C   UNL A   1      41.710  26.982  28.232  1.00  0.00    -0.014 A 
ATOM     66  C   UNL A   1      42.536  27.376  27.171  1.00  0.00     0.009 A 
ATOM     67  C   UNL A   1      40.750  25.981  27.951  1.00  0.00     0.009 A 
ATOM     68  C   UNL A   1      42.334  26.892  25.868  1.00  0.00     0.001 A 
ATOM     69  C   UNL A   1      40.514  25.533  26.641  1.00  0.00     0.001 A 
ATOM     70  C   UNL A   1      41.298  26.003  25.595  1.00  0.00     0.000 A 
ENDBRANCH  51  65
BRANCH  52  71
ATOM     71  C   UNL A   1      41.716  33.096  36.051  1.00  0.00    -0.014 A 
ATOM     72  C   UNL A   1      40.571  32.467  36.593  1.00  0.00     0.009 A 
ATOM     73  C   UNL A   1      42.095  34.335  36.587  1.00  0.00     0.009 A 
ATOM     74  C   UNL A   1      39.901  32.994  37.702  1.00  0.00     0.001 A 
ATOM     75  C   UNL A   1      41.408  34.872  37.689  1.00  0.00     0.001 A 
ATOM     76  C   UNL A   1      40.333  34.189  38.262  1.00  0.00     0.000 A 
ENDBRANCH  52  71
BRANCH  64  77
ATOM     77  C   UNL A   1      43.224  26.181  34.533  1.00  0.00    -0.014 A 
ATOM     78  C   UNL A   1      42.107  25.650  35.186  1.00  0.00     0.009 A 
ATOM     79  C   UNL A   1      44.223  25.270  34.115  1.00  0.00     0.009 A 
ATOM     80  C   UNL A   1      42.013  24.276  35.444  1.00  0.00     0.001 A 
ATOM     81  C   UNL A   1      44.106  23.896  34.324  1.00  0.00     0.001 A 
ATOM     82  C   UNL A   1      43.003  23.401  35.003  1.00  0.00     0.000 A 
ENDBRANCH  64  77
ENDBRANCH  38  39
ENDBRANCH  31  33
ENDBRANCH  30  31
ENDBRANCH  29  30
ENDBRANCH  28  29
ENDBRANCH  27  28
ENDBRANCH  26  27
ENDBRANCH   1  26
TORSDOF 20
ENDMDL
