MODEL 1
REMARK VINA RESULT:     -13.1      0.000      0.000
REMARK SMILES Cc1ccc(NC(=O)C[C@@H](C(=O)OCCOCCOCCOC(=O)c2ccc(-c3c4nc(c(-c5ccccc5)c5ccc([nH]5)c(-c5ccccc5)c5nc(c(-c6ccccc6)c6ccc3[nH]6)C=C5)C=C4)cc2)[NH+]2CCOCC2)cc1
REMARK SMILES IDX 17 1 16 2 15 3 14 4 13 5 11 6 12 7 10 8 9 9 7 10 6 11 8 13
REMARK SMILES IDX 5 14 1 15 2 16 3 17 80 18 4 19 79 20 73 21 74 22 78 23 75 25
REMARK SMILES IDX 77 26 76 27 18 28 19 29 20 30 21 31 22 32 23 33 24 34 25 35
REMARK SMILES IDX 26 36 72 37 27 38 71 39 28 40 29 41 30 42 65 43 31 44 70 45
REMARK SMILES IDX 64 46 66 47 32 48 69 49 63 50 62 51 33 53 55 54 40 55 54 56
REMARK SMILES IDX 41 57 44 58 53 59 67 60 42 61 43 62 52 64 68 65 45 66 34 67
REMARK SMILES IDX 35 68 39 69 36 70 38 71 37 72 56 73 57 74 61 75 58 76 60 77
REMARK SMILES IDX 59 78 46 79 47 80 51 81 48 82 50 83 49 84
REMARK H PARENT 6 12 73 24 66 52 44 63
REMARK Flexibility Score: inf
ROOT
ATOM      1  C   UNL A   1      32.628  29.920  25.392  1.00  0.00     0.188 C 
ENDROOT
BRANCH   1   2
ATOM      2  O   UNL A   1      31.187  30.042  25.150  1.00  0.00    -0.376 OA
BRANCH   2   3
ATOM      3  C   UNL A   1      30.326  29.590  23.719  1.00  0.00     0.202 C 
BRANCH   3   4
ATOM      4  C   UNL A   1      30.326  27.656  22.605  1.00  0.00     0.261 C 
BRANCH   4   5
ATOM      5  O   UNL A   1      31.449  26.170  22.213  1.00  0.00    -0.459 OA
BRANCH   5   6
ATOM      6  C   UNL A   1      32.527  24.833  22.293  1.00  0.00     0.365 C 
ATOM      7  O   UNL A   1      33.211  24.466  21.337  1.00  0.00    -0.245 OA
BRANCH   6   8
ATOM      8  C   UNL A   1      32.761  23.644  23.769  1.00  0.00     0.304 C 
BRANCH   8   9
ATOM      9  C   UNL A   1      32.701  21.780  23.657  1.00  0.00     0.177 C 
BRANCH   9  10
ATOM     10  C   UNL A   1      33.818  20.438  24.400  1.00  0.00     0.231 C 
ATOM     11  N   UNL A   1      35.112  20.492  25.202  1.00  0.00    -0.326 N 
ATOM     12  H   UNL A   1      35.257  19.637  25.670  1.00  0.00     0.169 HD
ATOM     13  O   UNL A   1      33.356  19.282  24.294  1.00  0.00    -0.274 OA
BRANCH  11  14
ATOM     14  C   UNL A   1      36.273  21.473  25.511  1.00  0.00     0.041 A 
ATOM     15  C   UNL A   1      39.839  25.009  26.452  1.00  0.00     0.044 C 
ATOM     16  C   UNL A   1      38.957  23.785  26.605  1.00  0.00    -0.051 A 
ATOM     17  C   UNL A   1      37.303  24.305  26.601  1.00  0.00     0.005 A 
ATOM     18  C   UNL A   1      39.301  22.105  26.141  1.00  0.00     0.005 A 
ATOM     19  C   UNL A   1      36.015  23.199  25.929  1.00  0.00     0.026 A 
ATOM     20  C   UNL A   1      37.992  20.984  25.552  1.00  0.00     0.026 A 
ENDBRANCH  11  14
ENDBRANCH   9  10
ENDBRANCH   8   9
BRANCH   8  21
ATOM     21  N   UNL A   1      31.979  24.249  24.948  1.00  0.00    -0.319 N 
ATOM     22  C   UNL A   1      32.688  24.450  26.229  1.00  0.00     0.291 C 
ATOM     23  C   UNL A   1      30.585  23.902  25.250  1.00  0.00     0.291 C 
ATOM     24  H   UNL A   1      31.910  25.114  24.411  1.00  0.00     0.348 HD
ATOM     25  C   UNL A   1      32.508  23.279  27.191  1.00  0.00     0.221 C 
ATOM     26  C   UNL A   1      30.284  23.016  26.488  1.00  0.00     0.221 C 
ATOM     27  O   UNL A   1      31.142  23.239  27.610  1.00  0.00    -0.370 OA
ENDBRANCH   8  21
ENDBRANCH   6   8
ENDBRANCH   5   6
ENDBRANCH   4   5
ENDBRANCH   3   4
ENDBRANCH   2   3
ENDBRANCH   1   2
BRANCH   1  28
ATOM     28  C   UNL A   1      33.100  28.841  26.324  1.00  0.00     0.188 C 
BRANCH  28  29
ATOM     29  O   UNL A   1      33.632  29.423  27.490  1.00  0.00    -0.376 OA
BRANCH  29  30
ATOM     30  C   UNL A   1      35.027  29.239  27.606  1.00  0.00     0.202 C 
BRANCH  30  31
ATOM     31  C   UNL A   1      35.707  30.596  27.866  1.00  0.00     0.261 C 
BRANCH  31  32
ATOM     32  O   UNL A   1      37.093  30.396  28.274  1.00  0.00    -0.460 OA
BRANCH  32  33
ATOM     33  C   UNL A   1      37.370  29.398  29.185  1.00  0.00     0.338 C 
ATOM     34  O   UNL A   1      37.052  29.421  30.363  1.00  0.00    -0.246 OA
BRANCH  33  35
ATOM     35  C   UNL A   1      38.401  28.431  28.632  1.00  0.00     0.060 A 
ATOM     36  C   UNL A   1      39.144  27.556  29.461  1.00  0.00     0.016 A 
ATOM     37  C   UNL A   1      39.002  28.845  27.489  1.00  0.00     0.016 A 
ATOM     38  C   UNL A   1      40.570  27.362  29.286  1.00  0.00     0.010 A 
ATOM     39  C   UNL A   1      40.386  28.858  27.548  1.00  0.00     0.010 A 
ATOM     40  C   UNL A   1      41.288  28.099  28.333  1.00  0.00    -0.014 A 
BRANCH  40  41
ATOM     41  C   UNL A   1      43.026  28.283  28.117  1.00  0.00     0.031 A 
ATOM     42  C   UNL A   1      44.009  30.035  28.326  1.00  0.00     0.074 A 
ATOM     43  C   UNL A   1      43.639  26.878  27.891  1.00  0.00     0.049 A 
ATOM     44  N   UNL A   1      45.201  30.297  28.934  1.00  0.00    -0.248 NA
ATOM     45  C   UNL A   1      43.895  31.467  27.599  1.00  0.00     0.031 C 
ATOM     46  C   UNL A   1      45.155  26.342  28.023  1.00  0.00     0.029 A 
ATOM     47  N   UNL A   1      43.109  25.601  27.767  1.00  0.00    -0.354 N 
ATOM     48  C   UNL A   1      45.970  31.287  28.366  1.00  0.00     0.074 A 
ATOM     49  C   UNL A   1      44.989  32.171  27.865  1.00  0.00     0.031 C 
ATOM     50  C   UNL A   1      45.304  25.040  28.204  1.00  0.00     0.029 A 
ATOM     51  C   UNL A   1      44.090  24.568  27.683  1.00  0.00     0.049 A 
ATOM     52  H   UNL A   1      42.141  25.423  27.739  1.00  0.00     0.167 HD
ATOM     53  C   UNL A   1      47.269  31.205  27.905  1.00  0.00     0.031 A 
ATOM     54  C   UNL A   1      44.238  23.764  26.604  1.00  0.00     0.031 A 
ATOM     55  C   UNL A   1      47.868  29.849  27.679  1.00  0.00     0.049 A 
ATOM     56  C   UNL A   1      45.399  24.331  25.685  1.00  0.00     0.074 A 
ATOM     57  C   UNL A   1      48.490  28.894  28.467  1.00  0.00     0.029 A 
ATOM     58  N   UNL A   1      47.837  29.230  26.407  1.00  0.00    -0.354 N 
ATOM     59  N   UNL A   1      45.867  25.575  25.780  1.00  0.00    -0.248 NA
ATOM     60  C   UNL A   1      46.288  23.548  24.833  1.00  0.00     0.031 C 
ATOM     61  C   UNL A   1      48.612  27.658  27.717  1.00  0.00     0.029 A 
ATOM     62  C   UNL A   1      48.084  27.816  26.437  1.00  0.00     0.049 A 
ATOM     63  H   UNL A   1      47.662  29.726  25.574  1.00  0.00     0.167 HD
ATOM     64  C   UNL A   1      47.103  25.745  25.201  1.00  0.00     0.074 A 
ATOM     65  C   UNL A   1      47.279  24.431  24.562  1.00  0.00     0.031 C 
ATOM     66  C   UNL A   1      47.900  26.896  25.209  1.00  0.00     0.031 A 
BRANCH  53  67
ATOM     67  C   UNL A   1      48.103  32.507  27.923  1.00  0.00    -0.014 A 
ATOM     68  C   UNL A   1      48.045  33.332  29.058  1.00  0.00     0.009 A 
ATOM     69  C   UNL A   1      48.814  33.063  26.833  1.00  0.00     0.009 A 
ATOM     70  C   UNL A   1      48.569  34.641  29.063  1.00  0.00     0.001 A 
ATOM     71  C   UNL A   1      49.311  34.377  26.814  1.00  0.00     0.001 A 
ATOM     72  C   UNL A   1      49.173  35.176  27.930  1.00  0.00     0.000 A 
ENDBRANCH  53  67
BRANCH  54  73
ATOM     73  C   UNL A   1      42.966  22.969  26.623  1.00  0.00    -0.014 A 
ATOM     74  C   UNL A   1      42.864  22.033  25.528  1.00  0.00     0.009 A 
ATOM     75  C   UNL A   1      42.508  22.518  27.871  1.00  0.00     0.009 A 
ATOM     76  C   UNL A   1      42.611  20.664  25.747  1.00  0.00     0.001 A 
ATOM     77  C   UNL A   1      42.219  21.147  28.069  1.00  0.00     0.001 A 
ATOM     78  C   UNL A   1      42.330  20.217  27.030  1.00  0.00     0.000 A 
ENDBRANCH  54  73
BRANCH  66  79
ATOM     79  C   UNL A   1      48.587  27.291  23.890  1.00  0.00    -0.014 A 
ATOM     80  C   UNL A   1      49.960  27.105  23.631  1.00  0.00     0.009 A 
ATOM     81  C   UNL A   1      47.824  27.717  22.784  1.00  0.00     0.009 A 
ATOM     82  C   UNL A   1      50.544  27.405  22.394  1.00  0.00     0.001 A 
ATOM     83  C   UNL A   1      48.387  27.937  21.519  1.00  0.00     0.001 A 
ATOM     84  C   UNL A   1      49.754  27.809  21.330  1.00  0.00     0.000 A 
ENDBRANCH  66  79
ENDBRANCH  40  41
ENDBRANCH  33  35
ENDBRANCH  32  33
ENDBRANCH  31  32
ENDBRANCH  30  31
ENDBRANCH  29  30
ENDBRANCH  28  29
ENDBRANCH   1  28
TORSDOF 21
ENDMDL
MODEL 2
REMARK VINA RESULT:     -12.4      3.428      9.035
REMARK SMILES Cc1ccc(NC(=O)C[C@@H](C(=O)OCCOCCOCCOC(=O)c2ccc(-c3c4nc(c(-c5ccccc5)c5ccc([nH]5)c(-c5ccccc5)c5nc(c(-c6ccccc6)c6ccc3[nH]6)C=C5)C=C4)cc2)[NH+]2CCOCC2)cc1
REMARK SMILES IDX 17 1 16 2 15 3 14 4 13 5 11 6 12 7 10 8 9 9 7 10 6 11 8 13
REMARK SMILES IDX 5 14 1 15 2 16 3 17 80 18 4 19 79 20 73 21 74 22 78 23 75 25
REMARK SMILES IDX 77 26 76 27 18 28 19 29 20 30 21 31 22 32 23 33 24 34 25 35
REMARK SMILES IDX 26 36 72 37 27 38 71 39 28 40 29 41 30 42 65 43 31 44 70 45
REMARK SMILES IDX 64 46 66 47 32 48 69 49 63 50 62 51 33 53 55 54 40 55 54 56
REMARK SMILES IDX 41 57 44 58 53 59 67 60 42 61 43 62 52 64 68 65 45 66 34 67
REMARK SMILES IDX 35 68 39 69 36 70 38 71 37 72 56 73 57 74 61 75 58 76 60 77
REMARK SMILES IDX 59 78 46 79 47 80 51 81 48 82 50 83 49 84
REMARK H PARENT 6 12 73 24 66 52 44 63
REMARK Flexibility Score: inf
ROOT
ATOM      1  C   UNL A   1      41.104  19.863  26.821  1.00  0.00     0.188 C 
ENDROOT
BRANCH   1   2
ATOM      2  O   UNL A   1      40.730  21.187  26.314  1.00  0.00    -0.376 OA
BRANCH   2   3
ATOM      3  C   UNL A   1      39.130  21.818  26.121  1.00  0.00     0.202 C 
BRANCH   3   4
ATOM      4  C   UNL A   1      37.531  21.235  24.677  1.00  0.00     0.261 C 
BRANCH   4   5
ATOM      5  O   UNL A   1      35.645  21.008  24.565  1.00  0.00    -0.459 OA
BRANCH   5   6
ATOM      6  C   UNL A   1      33.960  20.909  24.888  1.00  0.00     0.365 C 
ATOM      7  O   UNL A   1      33.270  19.942  24.561  1.00  0.00    -0.245 OA
BRANCH   6   8
ATOM      8  C   UNL A   1      32.866  22.269  25.664  1.00  0.00     0.304 C 
BRANCH   8   9
ATOM      9  C   UNL A   1      31.164  21.988  26.384  1.00  0.00     0.177 C 
BRANCH   9  10
ATOM     10  C   UNL A   1      29.860  23.199  27.040  1.00  0.00     0.231 C 
ATOM     11  N   UNL A   1      29.382  24.566  26.568  1.00  0.00    -0.326 N 
ATOM     12  H   UNL A   1      28.504  24.774  26.964  1.00  0.00     0.169 HD
ATOM     13  O   UNL A   1      29.192  22.751  27.997  1.00  0.00    -0.274 OA
BRANCH  11  14
ATOM     14  C   UNL A   1      29.847  25.734  25.658  1.00  0.00     0.041 A 
ATOM     15  C   UNL A   1      31.144  29.422  22.370  1.00  0.00     0.044 C 
ATOM     16  C   UNL A   1      30.692  28.725  23.639  1.00  0.00    -0.051 A 
ATOM     17  C   UNL A   1      29.277  27.793  23.270  1.00  0.00     0.005 A 
ATOM     18  C   UNL A   1      31.665  28.240  25.043  1.00  0.00     0.005 A 
ATOM     19  C   UNL A   1      28.955  26.248  24.188  1.00  0.00     0.026 A 
ATOM     20  C   UNL A   1      31.283  26.740  26.004  1.00  0.00     0.026 A 
ENDBRANCH  11  14
ENDBRANCH   9  10
ENDBRANCH   8   9
BRANCH   8  21
ATOM     21  N   UNL A   1      32.992  23.504  24.757  1.00  0.00    -0.319 N 
ATOM     22  C   UNL A   1      32.214  23.531  23.500  1.00  0.00     0.291 C 
ATOM     23  C   UNL A   1      34.261  24.202  24.520  1.00  0.00     0.291 C 
ATOM     24  H   UNL A   1      32.542  24.046  25.494  1.00  0.00     0.348 HD
ATOM     25  C   UNL A   1      33.015  23.027  22.301  1.00  0.00     0.221 C 
ATOM     26  C   UNL A   1      34.953  24.054  23.138  1.00  0.00     0.221 C 
ATOM     27  O   UNL A   1      34.059  23.963  22.026  1.00  0.00    -0.370 OA
ENDBRANCH   8  21
ENDBRANCH   6   8
ENDBRANCH   5   6
ENDBRANCH   4   5
ENDBRANCH   3   4
ENDBRANCH   2   3
ENDBRANCH   1   2
BRANCH   1  28
ATOM     28  C   UNL A   1      42.246  19.147  26.158  1.00  0.00     0.188 C 
BRANCH  28  29
ATOM     29  O   UNL A   1      42.802  19.968  25.159  1.00  0.00    -0.376 OA
BRANCH  29  30
ATOM     30  C   UNL A   1      44.212  20.010  25.207  1.00  0.00     0.202 C 
BRANCH  30  31
ATOM     31  C   UNL A   1      44.682  21.476  25.254  1.00  0.00     0.261 C 
BRANCH  31  32
ATOM     32  O   UNL A   1      43.549  22.363  25.492  1.00  0.00    -0.460 OA
BRANCH  32  33
ATOM     33  C   UNL A   1      43.642  23.285  26.513  1.00  0.00     0.338 C 
ATOM     34  O   UNL A   1      44.415  23.208  27.454  1.00  0.00    -0.246 OA
BRANCH  33  35
ATOM     35  C   UNL A   1      42.448  24.222  26.507  1.00  0.00     0.060 A 
ATOM     36  C   UNL A   1      42.357  25.332  25.631  1.00  0.00     0.016 A 
ATOM     37  C   UNL A   1      41.817  24.336  27.702  1.00  0.00     0.016 A 
ATOM     38  C   UNL A   1      41.906  26.632  26.087  1.00  0.00     0.010 A 
ATOM     39  C   UNL A   1      41.682  25.639  28.151  1.00  0.00     0.010 A 
ATOM     40  C   UNL A   1      41.615  26.863  27.440  1.00  0.00    -0.014 A 
BRANCH  40  41
ATOM     41  C   UNL A   1      41.347  28.377  28.298  1.00  0.00     0.031 A 
ATOM     42  C   UNL A   1      39.523  29.185  28.616  1.00  0.00     0.074 A 
ATOM     43  C   UNL A   1      42.707  28.865  28.859  1.00  0.00     0.049 A 
ATOM     44  N   UNL A   1      39.016  29.773  29.736  1.00  0.00    -0.248 NA
ATOM     45  C   UNL A   1      38.340  29.675  27.641  1.00  0.00     0.031 C 
ATOM     46  C   UNL A   1      43.062  29.925  30.022  1.00  0.00     0.029 A 
ATOM     47  N   UNL A   1      44.013  28.405  28.762  1.00  0.00    -0.354 N 
ATOM     48  C   UNL A   1      38.143  30.818  29.533  1.00  0.00     0.074 A 
ATOM     49  C   UNL A   1      37.501  30.437  28.334  1.00  0.00     0.031 C 
ATOM     50  C   UNL A   1      44.257  29.809  30.577  1.00  0.00     0.029 A 
ATOM     51  C   UNL A   1      44.947  29.130  29.561  1.00  0.00     0.049 A 
ATOM     52  H   UNL A   1      44.273  27.645  28.193  1.00  0.00     0.167 HD
ATOM     53  C   UNL A   1      38.231  32.112  30.006  1.00  0.00     0.031 A 
ATOM     54  C   UNL A   1      45.985  29.831  29.046  1.00  0.00     0.031 A 
ATOM     55  C   UNL A   1      39.544  32.595  30.546  1.00  0.00     0.049 A 
ATOM     56  C   UNL A   1      45.575  31.359  28.928  1.00  0.00     0.074 A 
ATOM     57  C   UNL A   1      40.210  32.511  31.757  1.00  0.00     0.029 A 
ATOM     58  N   UNL A   1      40.468  33.291  29.730  1.00  0.00    -0.354 N 
ATOM     59  N   UNL A   1      44.314  31.785  28.973  1.00  0.00    -0.248 NA
ATOM     60  C   UNL A   1      46.472  32.505  29.033  1.00  0.00     0.031 C 
ATOM     61  C   UNL A   1      41.583  32.950  31.582  1.00  0.00     0.029 A 
ATOM     62  C   UNL A   1      41.801  33.334  30.260  1.00  0.00     0.049 A 
ATOM     63  H   UNL A   1      40.217  33.709  28.874  1.00  0.00     0.167 HD
ATOM     64  C   UNL A   1      44.194  33.126  29.254  1.00  0.00     0.074 A 
ATOM     65  C   UNL A   1      45.608  33.531  29.215  1.00  0.00     0.031 C 
ATOM     66  C   UNL A   1      43.016  33.854  29.459  1.00  0.00     0.031 A 
BRANCH  53  67
ATOM     67  C   UNL A   1      36.902  32.879  30.203  1.00  0.00    -0.014 A 
ATOM     68  C   UNL A   1      36.077  32.535  31.287  1.00  0.00     0.009 A 
ATOM     69  C   UNL A   1      36.324  33.803  29.301  1.00  0.00     0.009 A 
ATOM     70  C   UNL A   1      34.751  33.002  31.400  1.00  0.00     0.001 A 
ATOM     71  C   UNL A   1      34.995  34.249  29.384  1.00  0.00     0.001 A 
ATOM     72  C   UNL A   1      34.199  33.833  30.432  1.00  0.00     0.000 A 
ENDBRANCH  53  67
BRANCH  54  73
ATOM     73  C   UNL A   1      46.852  28.746  28.480  1.00  0.00    -0.014 A 
ATOM     74  C   UNL A   1      46.662  28.548  27.063  1.00  0.00     0.009 A 
ATOM     75  C   UNL A   1      48.174  28.670  28.948  1.00  0.00     0.009 A 
ATOM     76  C   UNL A   1      47.744  28.581  26.160  1.00  0.00     0.001 A 
ATOM     77  C   UNL A   1      49.252  28.664  28.031  1.00  0.00     0.001 A 
ATOM     78  C   UNL A   1      49.039  28.682  26.648  1.00  0.00     0.000 A 
ENDBRANCH  54  73
BRANCH  66  79
ATOM     79  C   UNL A   1      42.915  35.238  28.794  1.00  0.00    -0.014 A 
ATOM     80  C   UNL A   1      43.311  36.440  29.413  1.00  0.00     0.009 A 
ATOM     81  C   UNL A   1      42.565  35.356  27.433  1.00  0.00     0.009 A 
ATOM     82  C   UNL A   1      43.278  37.677  28.756  1.00  0.00     0.001 A 
ATOM     83  C   UNL A   1      42.611  36.575  26.745  1.00  0.00     0.001 A 
ATOM     84  C   UNL A   1      42.940  37.743  27.414  1.00  0.00     0.000 A 
ENDBRANCH  66  79
ENDBRANCH  40  41
ENDBRANCH  33  35
ENDBRANCH  32  33
ENDBRANCH  31  32
ENDBRANCH  30  31
ENDBRANCH  29  30
ENDBRANCH  28  29
ENDBRANCH   1  28
TORSDOF 21
ENDMDL
MODEL 3
REMARK VINA RESULT:     -12.2      3.297      8.695
REMARK SMILES Cc1ccc(NC(=O)C[C@@H](C(=O)OCCOCCOCCOC(=O)c2ccc(-c3c4nc(c(-c5ccccc5)c5ccc([nH]5)c(-c5ccccc5)c5nc(c(-c6ccccc6)c6ccc3[nH]6)C=C5)C=C4)cc2)[NH+]2CCOCC2)cc1
REMARK SMILES IDX 17 1 16 2 15 3 14 4 13 5 11 6 12 7 10 8 9 9 7 10 6 11 8 13
REMARK SMILES IDX 5 14 1 15 2 16 3 17 80 18 4 19 79 20 73 21 74 22 78 23 75 25
REMARK SMILES IDX 77 26 76 27 18 28 19 29 20 30 21 31 22 32 23 33 24 34 25 35
REMARK SMILES IDX 26 36 72 37 27 38 71 39 28 40 29 41 30 42 65 43 31 44 70 45
REMARK SMILES IDX 64 46 66 47 32 48 69 49 63 50 62 51 33 53 55 54 40 55 54 56
REMARK SMILES IDX 41 57 44 58 53 59 67 60 42 61 43 62 52 64 68 65 45 66 34 67
REMARK SMILES IDX 35 68 39 69 36 70 38 71 37 72 56 73 57 74 61 75 58 76 60 77
REMARK SMILES IDX 59 78 46 79 47 80 51 81 48 82 50 83 49 84
REMARK H PARENT 6 12 73 24 66 52 44 63
REMARK Flexibility Score: inf
ROOT
ATOM      1  C   UNL A   1      40.325  20.677  26.864  1.00  0.00     0.188 C 
ENDROOT
BRANCH   1   2
ATOM      2  O   UNL A   1      39.817  21.388  25.686  1.00  0.00    -0.376 OA
BRANCH   2   3
ATOM      3  C   UNL A   1      38.223  22.019  25.454  1.00  0.00     0.202 C 
BRANCH   3   4
ATOM      4  C   UNL A   1      36.242  21.031  25.740  1.00  0.00     0.261 C 
BRANCH   4   5
ATOM      5  O   UNL A   1      34.559  20.805  24.880  1.00  0.00    -0.459 OA
BRANCH   5   6
ATOM      6  C   UNL A   1      33.035  21.038  24.120  1.00  0.00     0.365 C 
ATOM      7  O   UNL A   1      32.205  20.138  23.991  1.00  0.00    -0.245 OA
BRANCH   6   8
ATOM      8  C   UNL A   1      32.423  22.630  23.260  1.00  0.00     0.304 C 
BRANCH   8   9
ATOM      9  C   UNL A   1      33.271  23.455  21.813  1.00  0.00     0.177 C 
BRANCH   9  10
ATOM     10  C   UNL A   1      33.043  25.167  21.030  1.00  0.00     0.231 C 
ATOM     11  N   UNL A   1      33.011  26.577  21.607  1.00  0.00    -0.326 N 
ATOM     12  H   UNL A   1      33.167  27.239  20.895  1.00  0.00     0.169 HD
ATOM     13  O   UNL A   1      33.003  25.150  19.781  1.00  0.00    -0.274 OA
BRANCH  11  14
ATOM     14  C   UNL A   1      32.808  27.294  22.968  1.00  0.00     0.041 A 
ATOM     15  C   UNL A   1      31.740  29.602  27.399  1.00  0.00     0.044 C 
ATOM     16  C   UNL A   1      32.381  28.681  26.380  1.00  0.00    -0.051 A 
ATOM     17  C   UNL A   1      31.134  27.709  25.669  1.00  0.00     0.005 A 
ATOM     18  C   UNL A   1      33.877  28.922  25.452  1.00  0.00     0.005 A 
ATOM     19  C   UNL A   1      31.305  27.152  23.939  1.00  0.00     0.026 A 
ATOM     20  C   UNL A   1      34.068  28.288  23.756  1.00  0.00     0.026 A 
ENDBRANCH  11  14
ENDBRANCH   9  10
ENDBRANCH   8   9
BRANCH   8  21
ATOM     21  N   UNL A   1      31.969  23.585  24.377  1.00  0.00    -0.319 N 
ATOM     22  C   UNL A   1      32.987  24.090  25.322  1.00  0.00     0.291 C 
ATOM     23  C   UNL A   1      30.709  23.422  25.111  1.00  0.00     0.291 C 
ATOM     24  H   UNL A   1      31.750  24.269  23.653  1.00  0.00     0.348 HD
ATOM     25  C   UNL A   1      33.083  23.245  26.590  1.00  0.00     0.221 C 
ATOM     26  C   UNL A   1      30.757  22.935  26.584  1.00  0.00     0.221 C 
ATOM     27  O   UNL A   1      31.876  23.408  27.338  1.00  0.00    -0.370 OA
ENDBRANCH   8  21
ENDBRANCH   6   8
ENDBRANCH   5   6
ENDBRANCH   4   5
ENDBRANCH   3   4
ENDBRANCH   2   3
ENDBRANCH   1   2
BRANCH   1  28
ATOM     28  C   UNL A   1      41.369  19.617  26.656  1.00  0.00     0.188 C 
BRANCH  28  29
ATOM     29  O   UNL A   1      41.932  19.755  25.373  1.00  0.00    -0.376 OA
BRANCH  29  30
ATOM     30  C   UNL A   1      43.309  19.445  25.344  1.00  0.00     0.202 C 
BRANCH  30  31
ATOM     31  C   UNL A   1      44.127  20.744  25.223  1.00  0.00     0.261 C 
BRANCH  31  32
ATOM     32  O   UNL A   1      43.237  21.900  25.195  1.00  0.00    -0.460 OA
BRANCH  32  33
ATOM     33  C   UNL A   1      43.509  22.956  26.040  1.00  0.00     0.338 C 
ATOM     34  O   UNL A   1      44.328  22.933  26.944  1.00  0.00    -0.246 OA
BRANCH  33  35
ATOM     35  C   UNL A   1      42.439  24.027  25.929  1.00  0.00     0.060 A 
ATOM     36  C   UNL A   1      42.622  25.208  25.168  1.00  0.00     0.016 A 
ATOM     37  C   UNL A   1      41.621  24.117  27.007  1.00  0.00     0.016 A 
ATOM     38  C   UNL A   1      42.234  26.511  25.672  1.00  0.00     0.010 A 
ATOM     39  C   UNL A   1      41.543  25.385  27.557  1.00  0.00     0.010 A 
ATOM     40  C   UNL A   1      41.732  26.663  26.974  1.00  0.00    -0.014 A 
BRANCH  40  41
ATOM     41  C   UNL A   1      41.475  28.122  27.925  1.00  0.00     0.031 A 
ATOM     42  C   UNL A   1      39.651  28.850  28.399  1.00  0.00     0.074 A 
ATOM     43  C   UNL A   1      42.852  28.628  28.422  1.00  0.00     0.049 A 
ATOM     44  N   UNL A   1      39.201  29.364  29.579  1.00  0.00    -0.248 NA
ATOM     45  C   UNL A   1      38.391  29.347  27.529  1.00  0.00     0.031 C 
ATOM     46  C   UNL A   1      43.249  29.640  29.614  1.00  0.00     0.029 A 
ATOM     47  N   UNL A   1      44.163  28.218  28.218  1.00  0.00    -0.354 N 
ATOM     48  C   UNL A   1      38.284  30.387  29.487  1.00  0.00     0.074 A 
ATOM     49  C   UNL A   1      37.577  30.044  28.313  1.00  0.00     0.031 C 
ATOM     50  C   UNL A   1      44.481  29.538  30.084  1.00  0.00     0.029 A 
ATOM     51  C   UNL A   1      45.124  28.935  28.992  1.00  0.00     0.049 A 
ATOM     52  H   UNL A   1      44.408  27.497  27.594  1.00  0.00     0.167 HD
ATOM     53  C   UNL A   1      38.362  31.659  30.020  1.00  0.00     0.031 A 
ATOM     54  C   UNL A   1      46.103  29.695  28.449  1.00  0.00     0.031 A 
ATOM     55  C   UNL A   1      39.692  32.158  30.499  1.00  0.00     0.049 A 
ATOM     56  C   UNL A   1      45.640  31.212  28.437  1.00  0.00     0.074 A 
ATOM     57  C   UNL A   1      40.439  32.037  31.659  1.00  0.00     0.029 A 
ATOM     58  N   UNL A   1      40.538  32.925  29.663  1.00  0.00    -0.354 N 
ATOM     59  N   UNL A   1      44.372  31.592  28.584  1.00  0.00    -0.248 NA
ATOM     60  C   UNL A   1      46.506  32.381  28.544  1.00  0.00     0.031 C 
ATOM     61  C   UNL A   1      41.783  32.531  31.420  1.00  0.00     0.029 A 
ATOM     62  C   UNL A   1      41.902  32.987  30.109  1.00  0.00     0.049 A 
ATOM     63  H   UNL A   1      40.220  33.377  28.847  1.00  0.00     0.167 HD
ATOM     64  C   UNL A   1      44.229  32.912  28.942  1.00  0.00     0.074 A 
ATOM     65  C   UNL A   1      45.624  33.368  28.834  1.00  0.00     0.031 C 
ATOM     66  C   UNL A   1      43.045  33.589  29.260  1.00  0.00     0.031 A 
BRANCH  53  67
ATOM     67  C   UNL A   1      37.026  32.368  30.341  1.00  0.00    -0.014 A 
ATOM     68  C   UNL A   1      36.514  33.297  29.420  1.00  0.00     0.009 A 
ATOM     69  C   UNL A   1      36.318  32.310  31.565  1.00  0.00     0.009 A 
ATOM     70  C   UNL A   1      35.447  34.162  29.739  1.00  0.00     0.001 A 
ATOM     71  C   UNL A   1      35.277  33.188  31.907  1.00  0.00     0.001 A 
ATOM     72  C   UNL A   1      34.849  34.130  30.994  1.00  0.00     0.000 A 
ENDBRANCH  53  67
BRANCH  54  73
ATOM     73  C   UNL A   1      46.965  28.670  27.774  1.00  0.00    -0.014 A 
ATOM     74  C   UNL A   1      47.830  29.232  26.763  1.00  0.00     0.009 A 
ATOM     75  C   UNL A   1      47.523  27.666  28.581  1.00  0.00     0.009 A 
ATOM     76  C   UNL A   1      49.222  29.014  26.776  1.00  0.00     0.001 A 
ATOM     77  C   UNL A   1      48.917  27.429  28.558  1.00  0.00     0.001 A 
ATOM     78  C   UNL A   1      49.769  28.141  27.706  1.00  0.00     0.000 A 
ENDBRANCH  54  73
BRANCH  66  79
ATOM     79  C   UNL A   1      42.858  35.000  28.675  1.00  0.00    -0.014 A 
ATOM     80  C   UNL A   1      42.968  36.185  29.428  1.00  0.00     0.009 A 
ATOM     81  C   UNL A   1      42.725  35.188  27.284  1.00  0.00     0.009 A 
ATOM     82  C   UNL A   1      42.867  37.459  28.854  1.00  0.00     0.001 A 
ATOM     83  C   UNL A   1      42.709  36.458  26.692  1.00  0.00     0.001 A 
ATOM     84  C   UNL A   1      42.750  37.596  27.481  1.00  0.00     0.000 A 
ENDBRANCH  66  79
ENDBRANCH  40  41
ENDBRANCH  33  35
ENDBRANCH  32  33
ENDBRANCH  31  32
ENDBRANCH  30  31
ENDBRANCH  29  30
ENDBRANCH  28  29
ENDBRANCH   1  28
TORSDOF 21
ENDMDL
