MODEL 1
REMARK VINA RESULT:     -10.1      0.000      0.000
REMARK SMILES COc1ccc(/C=C2\SC(=S)N=C2OCCOCCOCCOC(=O)c2ccc(-c3c4nc(c(-c5ccccc5)c5ccc([nH]5)c(-c5ccccc5)c5nc(c(-c6ccccc6)c6ccc3[nH]6)C=C5)C=C4)cc2)c(C(=O)[O-])c1OC
REMARK SMILES IDX 19 1 18 2 17 3 16 4 15 5 14 6 13 7 7 8 8 9 9 10 10 11 12 12
REMARK SMILES IDX 11 13 6 14 3 15 4 16 78 17 5 18 74 19 2 20 1 21 79 22 80 23
REMARK SMILES IDX 75 24 76 25 77 26 20 27 21 28 22 29 23 30 24 31 25 32 26 33
REMARK SMILES IDX 27 34 73 35 28 36 72 37 29 38 30 39 31 40 66 41 32 42 71 43
REMARK SMILES IDX 65 44 67 45 33 46 70 47 64 48 63 49 34 51 56 52 41 53 55 54
REMARK SMILES IDX 42 55 45 56 54 57 68 58 43 59 44 60 53 62 69 63 46 64 35 65
REMARK SMILES IDX 36 66 40 67 37 68 39 69 38 70 57 71 58 72 62 73 59 74 61 75
REMARK SMILES IDX 60 76 47 77 48 78 52 79 49 80 51 81 50 82
REMARK H PARENT 67 50 45 61
REMARK Flexibility Score: inf
ROOT
ATOM      1  C   UNL A   1      35.187  33.791  29.242  1.00  0.00     0.188 C 
ENDROOT
BRANCH   1   2
ATOM      2  C   UNL A   1      35.098  32.775  28.096  1.00  0.00     0.188 C 
BRANCH   2   3
ATOM      3  O   UNL A   1      34.066  31.848  28.295  1.00  0.00    -0.376 OA
BRANCH   3   4
ATOM      4  C   UNL A   1      33.419  31.198  27.232  1.00  0.00     0.201 C 
BRANCH   4   5
ATOM      5  C   UNL A   1      32.543  29.969  27.497  1.00  0.00     0.260 C 
BRANCH   5   6
ATOM      6  O   UNL A   1      32.652  28.719  26.757  1.00  0.00    -0.474 OA
BRANCH   6   7
ATOM      7  C   UNL A   1      32.514  28.285  25.505  1.00  0.00     0.229 C 
ATOM      8  C   UNL A   1      33.769  26.107  25.615  1.00  0.00     0.030 C 
ATOM      9  C   UNL A   1      32.983  26.985  24.981  1.00  0.00     0.077 C 
ATOM     10  S   UNL A   1      32.279  26.821  23.406  1.00  0.00    -0.053 SA
ATOM     11  C   UNL A   1      31.465  28.382  23.566  1.00  0.00     0.168 C 
ATOM     12  N   UNL A   1      31.764  29.023  24.742  1.00  0.00    -0.194 NA
ATOM     13  S   UNL A   1      30.345  28.905  22.440  1.00  0.00    -0.050 S 
BRANCH   8  14
ATOM     14  C   UNL A   1      34.077  24.674  25.359  1.00  0.00    -0.011 A 
ATOM     15  C   UNL A   1      34.725  21.956  24.827  1.00  0.00     0.161 A 
ATOM     16  C   UNL A   1      35.609  22.976  24.489  1.00  0.00     0.051 A 
ATOM     17  C   UNL A   1      33.474  22.274  25.372  1.00  0.00     0.170 A 
ATOM     18  C   UNL A   1      35.279  24.311  24.735  1.00  0.00     0.013 A 
ATOM     19  C   UNL A   1      33.139  23.636  25.578  1.00  0.00     0.050 A 
BRANCH  15  20
ATOM     20  O   UNL A   1      35.132  20.655  24.716  1.00  0.00    -0.493 OA
ATOM     21  C   UNL A   1      36.498  20.448  25.078  1.00  0.00     0.278 C 
ENDBRANCH  15  20
BRANCH  17  22
ATOM     22  O   UNL A   1      32.546  21.358  25.805  1.00  0.00    -0.492 OA
ATOM     23  C   UNL A   1      32.464  20.122  25.109  1.00  0.00     0.278 C 
ENDBRANCH  17  22
BRANCH  19  24
ATOM     24  C   UNL A   1      31.738  23.960  25.945  1.00  0.00     0.076 C 
ATOM     25  O   UNL A   1      30.781  24.053  25.198  1.00  0.00    -0.545 OA
ATOM     26  O   UNL A   1      31.583  23.973  27.285  1.00  0.00    -0.545 OA
ENDBRANCH  19  24
ENDBRANCH   8  14
ENDBRANCH   6   7
ENDBRANCH   5   6
ENDBRANCH   4   5
ENDBRANCH   3   4
ENDBRANCH   2   3
ENDBRANCH   1   2
BRANCH   1  27
ATOM     27  O   UNL A   1      34.003  34.347  29.802  1.00  0.00    -0.376 OA
BRANCH  27  28
ATOM     28  C   UNL A   1      33.946  34.680  31.181  1.00  0.00     0.202 C 
BRANCH  28  29
ATOM     29  C   UNL A   1      34.520  33.684  32.198  1.00  0.00     0.261 C 
BRANCH  29  30
ATOM     30  O   UNL A   1      35.887  33.912  32.594  1.00  0.00    -0.460 OA
BRANCH  30  31
ATOM     31  C   UNL A   1      36.442  32.931  33.347  1.00  0.00     0.338 C 
ATOM     32  O   UNL A   1      36.252  32.711  34.531  1.00  0.00    -0.246 OA
BRANCH  31  33
ATOM     33  C   UNL A   1      37.274  32.033  32.516  1.00  0.00     0.060 A 
ATOM     34  C   UNL A   1      38.237  31.241  33.154  1.00  0.00     0.016 A 
ATOM     35  C   UNL A   1      37.212  32.074  31.122  1.00  0.00     0.016 A 
ATOM     36  C   UNL A   1      39.173  30.525  32.404  1.00  0.00     0.010 A 
ATOM     37  C   UNL A   1      38.160  31.364  30.371  1.00  0.00     0.010 A 
ATOM     38  C   UNL A   1      39.171  30.618  31.007  1.00  0.00    -0.014 A 
BRANCH  38  39
ATOM     39  C   UNL A   1      40.311  30.080  30.215  1.00  0.00     0.031 A 
ATOM     40  C   UNL A   1      41.495  30.969  29.938  1.00  0.00     0.074 A 
ATOM     41  C   UNL A   1      40.313  28.820  29.743  1.00  0.00     0.049 A 
ATOM     42  N   UNL A   1      42.557  30.732  29.209  1.00  0.00    -0.248 NA
ATOM     43  C   UNL A   1      41.487  32.294  30.579  1.00  0.00     0.031 C 
ATOM     44  C   UNL A   1      39.288  27.817  30.010  1.00  0.00     0.029 A 
ATOM     45  N   UNL A   1      41.201  28.178  28.915  1.00  0.00    -0.354 N 
ATOM     46  C   UNL A   1      43.350  31.868  29.316  1.00  0.00     0.074 A 
ATOM     47  C   UNL A   1      42.625  32.813  30.140  1.00  0.00     0.031 C 
ATOM     48  C   UNL A   1      39.562  26.708  29.302  1.00  0.00     0.029 A 
ATOM     49  C   UNL A   1      40.788  26.923  28.536  1.00  0.00     0.049 A 
ATOM     50  H   UNL A   1      42.051  28.577  28.621  1.00  0.00     0.167 HD
ATOM     51  C   UNL A   1      44.578  32.100  28.794  1.00  0.00     0.031 A 
ATOM     52  C   UNL A   1      41.322  26.053  27.658  1.00  0.00     0.031 A 
ATOM     53  C   UNL A   1      45.299  31.174  27.962  1.00  0.00     0.049 A 
ATOM     54  C   UNL A   1      42.625  26.387  26.980  1.00  0.00     0.074 A 
ATOM     55  C   UNL A   1      46.556  31.321  27.400  1.00  0.00     0.029 A 
ATOM     56  N   UNL A   1      44.825  29.936  27.564  1.00  0.00    -0.354 N 
ATOM     57  N   UNL A   1      43.376  27.453  27.114  1.00  0.00    -0.248 NA
ATOM     58  C   UNL A   1      43.167  25.384  26.050  1.00  0.00     0.031 C 
ATOM     59  C   UNL A   1      46.817  30.195  26.613  1.00  0.00     0.029 A 
ATOM     60  C   UNL A   1      45.750  29.321  26.736  1.00  0.00     0.049 A 
ATOM     61  H   UNL A   1      43.960  29.549  27.831  1.00  0.00     0.167 HD
ATOM     62  C   UNL A   1      44.499  27.226  26.327  1.00  0.00     0.074 A 
ATOM     63  C   UNL A   1      44.331  25.923  25.719  1.00  0.00     0.031 C 
ATOM     64  C   UNL A   1      45.579  28.023  26.138  1.00  0.00     0.031 A 
BRANCH  51  65
ATOM     65  C   UNL A   1      45.216  33.427  29.096  1.00  0.00    -0.014 A 
ATOM     66  C   UNL A   1      46.128  33.573  30.153  1.00  0.00     0.009 A 
ATOM     67  C   UNL A   1      44.938  34.535  28.280  1.00  0.00     0.009 A 
ATOM     68  C   UNL A   1      46.724  34.809  30.407  1.00  0.00     0.001 A 
ATOM     69  C   UNL A   1      45.557  35.763  28.519  1.00  0.00     0.001 A 
ATOM     70  C   UNL A   1      46.444  35.902  29.586  1.00  0.00     0.000 A 
ENDBRANCH  51  65
BRANCH  52  71
ATOM     71  C   UNL A   1      40.624  24.777  27.348  1.00  0.00    -0.014 A 
ATOM     72  C   UNL A   1      41.112  23.553  27.830  1.00  0.00     0.009 A 
ATOM     73  C   UNL A   1      39.483  24.777  26.529  1.00  0.00     0.009 A 
ATOM     74  C   UNL A   1      40.495  22.353  27.468  1.00  0.00     0.001 A 
ATOM     75  C   UNL A   1      38.851  23.578  26.193  1.00  0.00     0.001 A 
ATOM     76  C   UNL A   1      39.365  22.366  26.652  1.00  0.00     0.000 A 
ENDBRANCH  52  71
BRANCH  64  77
ATOM     77  C   UNL A   1      46.691  27.490  25.277  1.00  0.00    -0.014 A 
ATOM     78  C   UNL A   1      47.577  26.507  25.746  1.00  0.00     0.009 A 
ATOM     79  C   UNL A   1      46.829  27.953  23.958  1.00  0.00     0.009 A 
ATOM     80  C   UNL A   1      48.598  26.025  24.924  1.00  0.00     0.001 A 
ATOM     81  C   UNL A   1      47.831  27.447  23.129  1.00  0.00     0.001 A 
ATOM     82  C   UNL A   1      48.720  26.491  23.615  1.00  0.00     0.000 A 
ENDBRANCH  64  77
ENDBRANCH  38  39
ENDBRANCH  31  33
ENDBRANCH  30  31
ENDBRANCH  29  30
ENDBRANCH  28  29
ENDBRANCH  27  28
ENDBRANCH   1  27
TORSDOF 20
ENDMDL
MODEL 2
REMARK VINA RESULT:      -9.0      5.584     12.854
REMARK SMILES COc1ccc(/C=C2\SC(=S)N=C2OCCOCCOCCOC(=O)c2ccc(-c3c4nc(c(-c5ccccc5)c5ccc([nH]5)c(-c5ccccc5)c5nc(c(-c6ccccc6)c6ccc3[nH]6)C=C5)C=C4)cc2)c(C(=O)[O-])c1OC
REMARK SMILES IDX 19 1 18 2 17 3 16 4 15 5 14 6 13 7 7 8 8 9 9 10 10 11 12 12
REMARK SMILES IDX 11 13 6 14 3 15 4 16 78 17 5 18 74 19 2 20 1 21 79 22 80 23
REMARK SMILES IDX 75 24 76 25 77 26 20 27 21 28 22 29 23 30 24 31 25 32 26 33
REMARK SMILES IDX 27 34 73 35 28 36 72 37 29 38 30 39 31 40 66 41 32 42 71 43
REMARK SMILES IDX 65 44 67 45 33 46 70 47 64 48 63 49 34 51 56 52 41 53 55 54
REMARK SMILES IDX 42 55 45 56 54 57 68 58 43 59 44 60 53 62 69 63 46 64 35 65
REMARK SMILES IDX 36 66 40 67 37 68 39 69 38 70 57 71 58 72 62 73 59 74 61 75
REMARK SMILES IDX 60 76 47 77 48 78 52 79 49 80 51 81 50 82
REMARK H PARENT 67 50 45 61
REMARK Flexibility Score: inf
ROOT
ATOM      1  C   UNL A   1      47.156  26.965  25.169  1.00  0.00     0.188 C 
ENDROOT
BRANCH   1   2
ATOM      2  C   UNL A   1      46.124  27.996  24.695  1.00  0.00     0.188 C 
BRANCH   2   3
ATOM      3  O   UNL A   1      46.389  29.276  25.202  1.00  0.00    -0.376 OA
BRANCH   3   4
ATOM      4  C   UNL A   1      45.996  29.675  26.489  1.00  0.00     0.201 C 
BRANCH   4   5
ATOM      5  C   UNL A   1      44.586  30.226  26.729  1.00  0.00     0.260 C 
BRANCH   5   6
ATOM      6  O   UNL A   1      44.309  31.594  27.146  1.00  0.00    -0.474 OA
BRANCH   6   7
ATOM      7  C   UNL A   1      44.339  32.321  28.262  1.00  0.00     0.229 C 
ATOM      8  C   UNL A   1      44.146  34.646  27.317  1.00  0.00     0.030 C 
ATOM      9  C   UNL A   1      44.175  33.789  28.345  1.00  0.00     0.077 C 
ATOM     10  S   UNL A   1      43.995  34.157  30.029  1.00  0.00    -0.053 SA
ATOM     11  C   UNL A   1      44.130  32.446  30.456  1.00  0.00     0.168 C 
ATOM     12  N   UNL A   1      44.360  31.640  29.369  1.00  0.00    -0.194 NA
ATOM     13  S   UNL A   1      43.851  31.908  32.014  1.00  0.00    -0.050 S 
BRANCH   8  14
ATOM     14  C   UNL A   1      43.706  36.063  27.211  1.00  0.00    -0.011 A 
ATOM     15  C   UNL A   1      42.796  38.748  26.984  1.00  0.00     0.161 A 
ATOM     16  C   UNL A   1      41.904  37.685  26.881  1.00  0.00     0.051 A 
ATOM     17  C   UNL A   1      44.165  38.494  27.131  1.00  0.00     0.170 A 
ATOM     18  C   UNL A   1      42.357  36.367  26.975  1.00  0.00     0.013 A 
ATOM     19  C   UNL A   1      44.614  37.150  27.184  1.00  0.00     0.050 A 
BRANCH  15  20
ATOM     20  O   UNL A   1      42.309  40.025  27.040  1.00  0.00    -0.493 OA
ATOM     21  C   UNL A   1      42.012  40.583  25.759  1.00  0.00     0.278 C 
ENDBRANCH  15  20
BRANCH  17  22
ATOM     22  O   UNL A   1      45.132  39.453  27.308  1.00  0.00    -0.492 OA
ATOM     23  C   UNL A   1      45.611  40.128  26.153  1.00  0.00     0.278 C 
ENDBRANCH  17  22
BRANCH  19  24
ATOM     24  C   UNL A   1      46.075  36.901  27.118  1.00  0.00     0.076 C 
ATOM     25  O   UNL A   1      46.835  36.712  28.050  1.00  0.00    -0.545 OA
ATOM     26  O   UNL A   1      46.475  36.723  25.842  1.00  0.00    -0.545 OA
ENDBRANCH  19  24
ENDBRANCH   8  14
ENDBRANCH   6   7
ENDBRANCH   5   6
ENDBRANCH   4   5
ENDBRANCH   3   4
ENDBRANCH   2   3
ENDBRANCH   1   2
BRANCH   1  27
ATOM     27  O   UNL A   1      47.202  25.672  24.578  1.00  0.00    -0.376 OA
BRANCH  27  28
ATOM     28  C   UNL A   1      46.851  24.522  25.333  1.00  0.00     0.202 C 
BRANCH  28  29
ATOM     29  C   UNL A   1      45.852  23.526  24.727  1.00  0.00     0.261 C 
BRANCH  29  30
ATOM     30  O   UNL A   1      44.616  24.092  24.251  1.00  0.00    -0.460 OA
BRANCH  30  31
ATOM     31  C   UNL A   1      43.492  23.579  24.809  1.00  0.00     0.338 C 
ATOM     32  O   UNL A   1      43.102  22.425  24.756  1.00  0.00    -0.246 OA
BRANCH  31  33
ATOM     33  C   UNL A   1      42.794  24.596  25.625  1.00  0.00     0.060 A 
ATOM     34  C   UNL A   1      43.323  25.893  25.664  1.00  0.00     0.016 A 
ATOM     35  C   UNL A   1      41.725  24.250  26.454  1.00  0.00     0.016 A 
ATOM     36  C   UNL A   1      42.819  26.835  26.565  1.00  0.00     0.010 A 
ATOM     37  C   UNL A   1      41.229  25.193  27.365  1.00  0.00     0.010 A 
ATOM     38  C   UNL A   1      41.799  26.478  27.454  1.00  0.00    -0.014 A 
BRANCH  38  39
ATOM     39  C   UNL A   1      41.438  27.377  28.585  1.00  0.00     0.031 A 
ATOM     40  C   UNL A   1      42.200  27.269  29.879  1.00  0.00     0.074 A 
ATOM     41  C   UNL A   1      40.451  28.285  28.479  1.00  0.00     0.049 A 
ATOM     42  N   UNL A   1      42.003  27.898  31.012  1.00  0.00    -0.248 NA
ATOM     43  C   UNL A   1      43.343  26.343  29.895  1.00  0.00     0.031 C 
ATOM     44  C   UNL A   1      39.693  28.571  27.266  1.00  0.00     0.029 A 
ATOM     45  N   UNL A   1      39.899  29.119  29.421  1.00  0.00    -0.354 N 
ATOM     46  C   UNL A   1      43.005  27.456  31.867  1.00  0.00     0.074 A 
ATOM     47  C   UNL A   1      43.778  26.471  31.140  1.00  0.00     0.031 C 
ATOM     48  C   UNL A   1      38.725  29.460  27.550  1.00  0.00     0.029 A 
ATOM     49  C   UNL A   1      38.802  29.810  28.966  1.00  0.00     0.049 A 
ATOM     50  H   UNL A   1      40.255  29.212  30.334  1.00  0.00     0.167 HD
ATOM     51  C   UNL A   1      43.272  27.846  33.137  1.00  0.00     0.031 A 
ATOM     52  C   UNL A   1      37.943  30.618  29.619  1.00  0.00     0.031 A 
ATOM     53  C   UNL A   1      42.502  28.812  33.873  1.00  0.00     0.049 A 
ATOM     54  C   UNL A   1      38.178  30.934  31.072  1.00  0.00     0.074 A 
ATOM     55  C   UNL A   1      42.708  29.278  35.160  1.00  0.00     0.029 A 
ATOM     56  N   UNL A   1      41.372  29.453  33.392  1.00  0.00    -0.354 N 
ATOM     57  N   UNL A   1      39.146  30.531  31.858  1.00  0.00    -0.248 NA
ATOM     58  C   UNL A   1      37.218  31.841  31.718  1.00  0.00     0.031 C 
ATOM     59  C   UNL A   1      41.668  30.157  35.480  1.00  0.00     0.029 A 
ATOM     60  C   UNL A   1      40.851  30.285  34.369  1.00  0.00     0.049 A 
ATOM     61  H   UNL A   1      40.995  29.335  32.491  1.00  0.00     0.167 HD
ATOM     62  C   UNL A   1      38.939  31.172  33.074  1.00  0.00     0.074 A 
ATOM     63  C   UNL A   1      37.754  31.991  32.921  1.00  0.00     0.031 C 
ATOM     64  C   UNL A   1      39.674  31.099  34.210  1.00  0.00     0.031 A 
BRANCH  51  65
ATOM     65  C   UNL A   1      44.447  27.206  33.822  1.00  0.00    -0.014 A 
ATOM     66  C   UNL A   1      45.723  27.789  33.774  1.00  0.00     0.009 A 
ATOM     67  C   UNL A   1      44.264  26.031  34.567  1.00  0.00     0.009 A 
ATOM     68  C   UNL A   1      46.799  27.189  34.431  1.00  0.00     0.001 A 
ATOM     69  C   UNL A   1      45.335  25.449  35.247  1.00  0.00     0.001 A 
ATOM     70  C   UNL A   1      46.604  26.024  35.172  1.00  0.00     0.000 A 
ENDBRANCH  51  65
BRANCH  52  71
ATOM     71  C   UNL A   1      36.762  31.181  28.913  1.00  0.00    -0.014 A 
ATOM     72  C   UNL A   1      36.696  32.546  28.593  1.00  0.00     0.009 A 
ATOM     73  C   UNL A   1      35.671  30.356  28.592  1.00  0.00     0.009 A 
ATOM     74  C   UNL A   1      35.549  33.080  28.002  1.00  0.00     0.001 A 
ATOM     75  C   UNL A   1      34.537  30.888  27.974  1.00  0.00     0.001 A 
ATOM     76  C   UNL A   1      34.472  32.251  27.691  1.00  0.00     0.000 A 
ENDBRANCH  52  71
BRANCH  64  77
ATOM     77  C   UNL A   1      39.252  31.964  35.366  1.00  0.00    -0.014 A 
ATOM     78  C   UNL A   1      38.360  31.497  36.345  1.00  0.00     0.009 A 
ATOM     79  C   UNL A   1      39.789  33.254  35.498  1.00  0.00     0.009 A 
ATOM     80  C   UNL A   1      37.989  32.318  37.412  1.00  0.00     0.001 A 
ATOM     81  C   UNL A   1      39.440  34.062  36.582  1.00  0.00     0.001 A 
ATOM     82  C   UNL A   1      38.533  33.597  37.532  1.00  0.00     0.000 A 
ENDBRANCH  64  77
ENDBRANCH  38  39
ENDBRANCH  31  33
ENDBRANCH  30  31
ENDBRANCH  29  30
ENDBRANCH  28  29
ENDBRANCH  27  28
ENDBRANCH   1  27
TORSDOF 20
ENDMDL
MODEL 3
REMARK VINA RESULT:      -8.9      1.644      6.088
REMARK SMILES COc1ccc(/C=C2\SC(=S)N=C2OCCOCCOCCOC(=O)c2ccc(-c3c4nc(c(-c5ccccc5)c5ccc([nH]5)c(-c5ccccc5)c5nc(c(-c6ccccc6)c6ccc3[nH]6)C=C5)C=C4)cc2)c(C(=O)[O-])c1OC
REMARK SMILES IDX 19 1 18 2 17 3 16 4 15 5 14 6 13 7 7 8 8 9 9 10 10 11 12 12
REMARK SMILES IDX 11 13 6 14 3 15 4 16 78 17 5 18 74 19 2 20 1 21 79 22 80 23
REMARK SMILES IDX 75 24 76 25 77 26 20 27 21 28 22 29 23 30 24 31 25 32 26 33
REMARK SMILES IDX 27 34 73 35 28 36 72 37 29 38 30 39 31 40 66 41 32 42 71 43
REMARK SMILES IDX 65 44 67 45 33 46 70 47 64 48 63 49 34 51 56 52 41 53 55 54
REMARK SMILES IDX 42 55 45 56 54 57 68 58 43 59 44 60 53 62 69 63 46 64 35 65
REMARK SMILES IDX 36 66 40 67 37 68 39 69 38 70 57 71 58 72 62 73 59 74 61 75
REMARK SMILES IDX 60 76 47 77 48 78 52 79 49 80 51 81 50 82
REMARK H PARENT 67 50 45 61
REMARK Flexibility Score: inf
ROOT
ATOM      1  C   UNL A   1      34.792  32.335  29.921  1.00  0.00     0.188 C 
ENDROOT
BRANCH   1   2
ATOM      2  C   UNL A   1      34.251  32.940  28.619  1.00  0.00     0.188 C 
BRANCH   2   3
ATOM      3  O   UNL A   1      33.421  32.045  27.929  1.00  0.00    -0.376 OA
BRANCH   3   4
ATOM      4  C   UNL A   1      32.469  32.470  26.990  1.00  0.00     0.201 C 
BRANCH   4   5
ATOM      5  C   UNL A   1      31.354  31.520  26.536  1.00  0.00     0.260 C 
BRANCH   5   6
ATOM      6  O   UNL A   1      31.586  30.304  25.769  1.00  0.00    -0.474 OA
BRANCH   6   7
ATOM      7  C   UNL A   1      31.118  29.713  24.671  1.00  0.00     0.229 C 
ATOM      8  C   UNL A   1      32.548  27.644  24.598  1.00  0.00     0.030 C 
ATOM      9  C   UNL A   1      31.527  28.389  24.156  1.00  0.00     0.077 C 
ATOM     10  S   UNL A   1      30.399  27.992  22.902  1.00  0.00    -0.053 SA
ATOM     11  C   UNL A   1      29.527  29.509  23.154  1.00  0.00     0.168 C 
ATOM     12  N   UNL A   1      30.105  30.306  24.110  1.00  0.00    -0.194 NA
ATOM     13  S   UNL A   1      28.075  29.822  22.386  1.00  0.00    -0.050 S 
BRANCH   8  14
ATOM     14  C   UNL A   1      32.898  26.212  24.399  1.00  0.00    -0.011 A 
ATOM     15  C   UNL A   1      33.599  23.492  23.954  1.00  0.00     0.161 A 
ATOM     16  C   UNL A   1      34.087  24.495  23.122  1.00  0.00     0.051 A 
ATOM     17  C   UNL A   1      32.700  23.814  24.978  1.00  0.00     0.170 A 
ATOM     18  C   UNL A   1      33.726  25.829  23.333  1.00  0.00     0.013 A 
ATOM     19  C   UNL A   1      32.312  25.166  25.153  1.00  0.00     0.050 A 
BRANCH  15  20
ATOM     20  O   UNL A   1      34.085  22.220  23.820  1.00  0.00    -0.493 OA
ATOM     21  C   UNL A   1      35.360  22.025  24.433  1.00  0.00     0.278 C 
ENDBRANCH  15  20
BRANCH  17  22
ATOM     22  O   UNL A   1      32.202  22.925  25.900  1.00  0.00    -0.492 OA
ATOM     23  C   UNL A   1      31.659  21.706  25.415  1.00  0.00     0.278 C 
ENDBRANCH  17  22
BRANCH  19  24
ATOM     24  C   UNL A   1      31.199  25.455  26.091  1.00  0.00     0.076 C 
ATOM     25  O   UNL A   1      30.067  25.009  26.053  1.00  0.00    -0.545 OA
ATOM     26  O   UNL A   1      31.636  26.165  27.151  1.00  0.00    -0.545 OA
ENDBRANCH  19  24
ENDBRANCH   8  14
ENDBRANCH   6   7
ENDBRANCH   5   6
ENDBRANCH   4   5
ENDBRANCH   3   4
ENDBRANCH   2   3
ENDBRANCH   1   2
BRANCH   1  27
ATOM     27  O   UNL A   1      34.157  32.619  31.161  1.00  0.00    -0.376 OA
BRANCH  27  28
ATOM     28  C   UNL A   1      34.805  33.424  32.135  1.00  0.00     0.202 C 
BRANCH  28  29
ATOM     29  C   UNL A   1      35.476  32.729  33.328  1.00  0.00     0.261 C 
BRANCH  29  30
ATOM     30  O   UNL A   1      36.860  32.372  33.148  1.00  0.00    -0.460 OA
BRANCH  30  31
ATOM     31  C   UNL A   1      37.075  31.182  32.536  1.00  0.00     0.338 C 
ATOM     32  O   UNL A   1      36.294  30.250  32.437  1.00  0.00    -0.246 OA
BRANCH  31  33
ATOM     33  C   UNL A   1      38.395  31.160  31.870  1.00  0.00     0.060 A 
ATOM     34  C   UNL A   1      38.436  31.267  30.474  1.00  0.00     0.016 A 
ATOM     35  C   UNL A   1      39.563  30.892  32.587  1.00  0.00     0.016 A 
ATOM     36  C   UNL A   1      39.634  31.060  29.784  1.00  0.00     0.010 A 
ATOM     37  C   UNL A   1      40.760  30.672  31.892  1.00  0.00     0.010 A 
ATOM     38  C   UNL A   1      40.796  30.715  30.485  1.00  0.00    -0.014 A 
BRANCH  38  39
ATOM     39  C   UNL A   1      42.001  30.236  29.753  1.00  0.00     0.031 A 
ATOM     40  C   UNL A   1      42.064  28.800  29.305  1.00  0.00     0.074 A 
ATOM     41  C   UNL A   1      43.034  31.054  29.480  1.00  0.00     0.049 A 
ATOM     42  N   UNL A   1      43.045  28.155  28.724  1.00  0.00    -0.248 NA
ATOM     43  C   UNL A   1      40.857  27.987  29.528  1.00  0.00     0.031 C 
ATOM     44  C   UNL A   1      43.076  32.484  29.764  1.00  0.00     0.029 A 
ATOM     45  N   UNL A   1      44.261  30.787  28.924  1.00  0.00    -0.354 N 
ATOM     46  C   UNL A   1      42.569  26.869  28.497  1.00  0.00     0.074 A 
ATOM     47  C   UNL A   1      41.231  26.811  29.046  1.00  0.00     0.031 C 
ATOM     48  C   UNL A   1      44.294  32.960  29.449  1.00  0.00     0.029 A 
ATOM     49  C   UNL A   1      45.114  31.865  28.935  1.00  0.00     0.049 A 
ATOM     50  H   UNL A   1      44.507  29.909  28.553  1.00  0.00     0.167 HD
ATOM     51  C   UNL A   1      43.180  25.835  27.872  1.00  0.00     0.031 A 
ATOM     52  C   UNL A   1      46.413  31.958  28.590  1.00  0.00     0.031 A 
ATOM     53  C   UNL A   1      44.515  25.879  27.336  1.00  0.00     0.049 A 
ATOM     54  C   UNL A   1      47.118  30.756  28.021  1.00  0.00     0.074 A 
ATOM     55  C   UNL A   1      45.210  24.881  26.674  1.00  0.00     0.029 A 
ATOM     56  N   UNL A   1      45.360  26.973  27.410  1.00  0.00    -0.354 N 
ATOM     57  N   UNL A   1      46.646  29.556  27.786  1.00  0.00    -0.248 NA
ATOM     58  C   UNL A   1      48.529  30.931  27.642  1.00  0.00     0.031 C 
ATOM     59  C   UNL A   1      46.498  25.353  26.399  1.00  0.00     0.029 A 
ATOM     60  C   UNL A   1      46.582  26.664  26.835  1.00  0.00     0.049 A 
ATOM     61  H   UNL A   1      45.127  27.841  27.811  1.00  0.00     0.167 HD
ATOM     62  C   UNL A   1      47.684  28.851  27.189  1.00  0.00     0.074 A 
ATOM     63  C   UNL A   1      48.810  29.757  27.097  1.00  0.00     0.031 C 
ATOM     64  C   UNL A   1      47.697  27.570  26.744  1.00  0.00     0.031 A 
BRANCH  51  65
ATOM     65  C   UNL A   1      42.410  24.550  27.749  1.00  0.00    -0.014 A 
ATOM     66  C   UNL A   1      41.557  24.315  26.660  1.00  0.00     0.009 A 
ATOM     67  C   UNL A   1      42.578  23.542  28.711  1.00  0.00     0.009 A 
ATOM     68  C   UNL A   1      40.862  23.108  26.553  1.00  0.00     0.001 A 
ATOM     69  C   UNL A   1      41.904  22.326  28.588  1.00  0.00     0.001 A 
ATOM     70  C   UNL A   1      41.041  22.112  27.514  1.00  0.00     0.000 A 
ENDBRANCH  51  65
BRANCH  52  71
ATOM     71  C   UNL A   1      47.149  33.235  28.784  1.00  0.00    -0.014 A 
ATOM     72  C   UNL A   1      47.780  33.526  30.003  1.00  0.00     0.009 A 
ATOM     73  C   UNL A   1      47.188  34.192  27.756  1.00  0.00     0.009 A 
ATOM     74  C   UNL A   1      48.401  34.761  30.203  1.00  0.00     0.001 A 
ATOM     75  C   UNL A   1      47.835  35.414  27.948  1.00  0.00     0.001 A 
ATOM     76  C   UNL A   1      48.429  35.703  29.175  1.00  0.00     0.000 A 
ENDBRANCH  52  71
BRANCH  64  77
ATOM     77  C   UNL A   1      48.950  27.083  26.069  1.00  0.00    -0.014 A 
ATOM     78  C   UNL A   1      49.185  27.311  24.705  1.00  0.00     0.009 A 
ATOM     79  C   UNL A   1      49.929  26.418  26.825  1.00  0.00     0.009 A 
ATOM     80  C   UNL A   1      50.360  26.853  24.104  1.00  0.00     0.001 A 
ATOM     81  C   UNL A   1      51.116  25.988  26.229  1.00  0.00     0.001 A 
ATOM     82  C   UNL A   1      51.326  26.197  24.868  1.00  0.00     0.000 A 
ENDBRANCH  64  77
ENDBRANCH  38  39
ENDBRANCH  31  33
ENDBRANCH  30  31
ENDBRANCH  29  30
ENDBRANCH  28  29
ENDBRANCH  27  28
ENDBRANCH   1  27
TORSDOF 20
ENDMDL
