MODEL 1
REMARK VINA RESULT:      -9.7      0.000      0.000
REMARK SMILES COc1cc(N[C@H]2C=C[C@@H](C(=O)OCCOCCOCCOC(=O)c3ccc(-c4c5nc(c(-c6ccccc6)c6ccc([nH]6)c(-c6ccccc6)c6nc(c(-c7ccccc7)c7ccc4[nH]7)C=C6)C=C5)cc3)C2)c([N+](=O)[O-])cc1F
REMARK SMILES IDX 17 1 16 2 15 3 14 4 13 5 11 6 12 7 10 8 7 9 8 10 73 11 9 12
REMARK SMILES IDX 6 13 5 15 3 16 4 17 79 18 78 19 80 20 74 21 2 22 1 23 75 24
REMARK SMILES IDX 76 25 77 26 18 27 19 28 20 29 21 30 22 31 23 32 24 33 25 34
REMARK SMILES IDX 26 35 72 36 27 37 71 38 28 39 29 40 30 41 65 42 31 43 70 44
REMARK SMILES IDX 64 45 66 46 32 47 69 48 63 49 62 50 33 52 55 53 40 54 54 55
REMARK SMILES IDX 41 56 44 57 53 58 67 59 42 60 43 61 52 63 68 64 45 65 34 66
REMARK SMILES IDX 35 67 39 68 36 69 38 70 37 71 56 72 57 73 61 74 58 75 60 76
REMARK SMILES IDX 59 77 46 78 47 79 51 80 48 81 50 82 49 83
REMARK H PARENT 6 14 66 51 44 62
REMARK Flexibility Score: inf
ROOT
ATOM      1  C   UNL A   1      33.942  34.340  28.205  1.00  0.00     0.188 C 
ENDROOT
BRANCH   1   2
ATOM      2  O   UNL A   1      34.522  33.063  27.972  1.00  0.00    -0.376 OA
BRANCH   2   3
ATOM      3  C   UNL A   1      33.669  31.993  27.567  1.00  0.00     0.202 C 
BRANCH   3   4
ATOM      4  C   UNL A   1      34.174  30.548  27.730  1.00  0.00     0.261 C 
BRANCH   4   5
ATOM      5  O   UNL A   1      33.227  29.533  27.329  1.00  0.00    -0.463 OA
BRANCH   5   6
ATOM      6  C   UNL A   1      33.607  28.725  26.307  1.00  0.00     0.312 C 
ATOM      7  O   UNL A   1      34.280  27.708  26.457  1.00  0.00    -0.252 OA
BRANCH   6   8
ATOM      8  C   UNL A   1      33.038  29.122  24.932  1.00  0.00     0.124 C 
ATOM      9  C   UNL A   1      31.753  28.000  23.140  1.00  0.00     0.103 C 
ATOM     10  C   UNL A   1      30.861  28.673  24.117  1.00  0.00    -0.006 C 
ATOM     11  C   UNL A   1      33.154  28.163  23.732  1.00  0.00     0.048 C 
ATOM     12  C   UNL A   1      31.553  29.315  25.064  1.00  0.00    -0.014 C 
BRANCH   9  13
ATOM     13  N   UNL A   1      31.358  26.625  22.883  1.00  0.00    -0.373 N 
ATOM     14  H   UNL A   1      30.767  26.505  22.105  1.00  0.00     0.161 HD
BRANCH  13  15
ATOM     15  C   UNL A   1      31.677  25.455  23.554  1.00  0.00     0.117 A 
ATOM     16  C   UNL A   1      31.528  24.068  25.591  1.00  0.00     0.157 A 
ATOM     17  C   UNL A   1      31.150  25.178  24.828  1.00  0.00     0.082 A 
ATOM     18  C   UNL A   1      32.400  23.141  25.037  1.00  0.00     0.172 A 
ATOM     19  C   UNL A   1      32.902  23.325  23.756  1.00  0.00     0.131 A 
ATOM     20  F   UNL A   1      32.763  22.037  25.704  1.00  0.00    -0.203 F 
ATOM     21  C   UNL A   1      32.550  24.474  23.021  1.00  0.00     0.295 A 
BRANCH  16  22
ATOM     22  O   UNL A   1      30.951  24.006  26.831  1.00  0.00    -0.494 OA
ATOM     23  C   UNL A   1      29.882  23.078  26.967  1.00  0.00     0.278 C 
ENDBRANCH  16  22
BRANCH  21  24
ATOM     24  N   UNL A   1      33.137  24.607  21.676  1.00  0.00     0.065 N 
ATOM     25  O   UNL A   1      33.479  25.734  21.286  1.00  0.00    -0.258 OA
ATOM     26  O   UNL A   1      33.265  23.574  21.002  1.00  0.00    -0.258 OA
ENDBRANCH  21  24
ENDBRANCH  13  15
ENDBRANCH   9  13
ENDBRANCH   6   8
ENDBRANCH   5   6
ENDBRANCH   4   5
ENDBRANCH   3   4
ENDBRANCH   2   3
ENDBRANCH   1   2
BRANCH   1  27
ATOM     27  C   UNL A   1      34.104  34.976  29.595  1.00  0.00     0.188 C 
BRANCH  27  28
ATOM     28  O   UNL A   1      34.534  34.095  30.604  1.00  0.00    -0.376 OA
BRANCH  28  29
ATOM     29  C   UNL A   1      34.315  34.465  31.955  1.00  0.00     0.202 C 
BRANCH  29  30
ATOM     30  C   UNL A   1      34.447  33.433  33.094  1.00  0.00     0.261 C 
BRANCH  30  31
ATOM     31  O   UNL A   1      35.287  32.289  32.862  1.00  0.00    -0.460 OA
BRANCH  31  32
ATOM     32  C   UNL A   1      36.483  32.256  33.500  1.00  0.00     0.338 C 
ATOM     33  O   UNL A   1      36.691  32.457  34.678  1.00  0.00    -0.246 OA
BRANCH  32  34
ATOM     34  C   UNL A   1      37.472  31.675  32.557  1.00  0.00     0.060 A 
ATOM     35  C   UNL A   1      38.534  30.912  33.068  1.00  0.00     0.016 A 
ATOM     36  C   UNL A   1      37.338  31.858  31.180  1.00  0.00     0.016 A 
ATOM     37  C   UNL A   1      39.473  30.345  32.204  1.00  0.00     0.010 A 
ATOM     38  C   UNL A   1      38.296  31.315  30.318  1.00  0.00     0.010 A 
ATOM     39  C   UNL A   1      39.384  30.579  30.827  1.00  0.00    -0.014 A 
BRANCH  39  40
ATOM     40  C   UNL A   1      40.520  30.237  29.936  1.00  0.00     0.031 A 
ATOM     41  C   UNL A   1      40.506  28.896  29.253  1.00  0.00     0.074 A 
ATOM     42  C   UNL A   1      41.545  31.084  29.733  1.00  0.00     0.049 A 
ATOM     43  N   UNL A   1      41.420  28.335  28.503  1.00  0.00    -0.248 NA
ATOM     44  C   UNL A   1      39.298  28.078  29.447  1.00  0.00     0.031 C 
ATOM     45  C   UNL A   1      41.657  32.432  30.286  1.00  0.00     0.029 A 
ATOM     46  N   UNL A   1      42.699  30.919  29.007  1.00  0.00    -0.354 N 
ATOM     47  C   UNL A   1      40.905  27.094  28.150  1.00  0.00     0.074 A 
ATOM     48  C   UNL A   1      39.610  26.974  28.786  1.00  0.00     0.031 C 
ATOM     49  C   UNL A   1      42.827  32.967  29.891  1.00  0.00     0.029 A 
ATOM     50  C   UNL A   1      43.561  31.985  29.094  1.00  0.00     0.049 A 
ATOM     51  H   UNL A   1      42.891  30.112  28.476  1.00  0.00     0.167 HD
ATOM     52  C   UNL A   1      41.456  26.138  27.367  1.00  0.00     0.031 A 
ATOM     53  C   UNL A   1      44.810  32.138  28.610  1.00  0.00     0.031 A 
ATOM     54  C   UNL A   1      42.749  26.245  26.749  1.00  0.00     0.049 A 
ATOM     55  C   UNL A   1      45.443  31.019  27.820  1.00  0.00     0.074 A 
ATOM     56  C   UNL A   1      43.390  25.333  25.928  1.00  0.00     0.029 A 
ATOM     57  N   UNL A   1      43.606  27.325  26.893  1.00  0.00    -0.354 N 
ATOM     58  N   UNL A   1      44.939  29.859  27.474  1.00  0.00    -0.248 NA
ATOM     59  C   UNL A   1      46.820  31.238  27.349  1.00  0.00     0.031 C 
ATOM     60  C   UNL A   1      44.661  25.833  25.629  1.00  0.00     0.029 A 
ATOM     61  C   UNL A   1      44.783  27.089  26.203  1.00  0.00     0.049 A 
ATOM     62  H   UNL A   1      43.407  28.139  27.411  1.00  0.00     0.167 HD
ATOM     63  C   UNL A   1      45.920  29.228  26.717  1.00  0.00     0.074 A 
ATOM     64  C   UNL A   1      47.043  30.138  26.643  1.00  0.00     0.031 C 
ATOM     65  C   UNL A   1      45.893  28.004  26.133  1.00  0.00     0.031 A 
BRANCH  52  66
ATOM     66  C   UNL A   1      40.674  24.869  27.171  1.00  0.00    -0.014 A 
ATOM     67  C   UNL A   1      41.102  23.651  27.724  1.00  0.00     0.009 A 
ATOM     68  C   UNL A   1      39.473  24.900  26.445  1.00  0.00     0.009 A 
ATOM     69  C   UNL A   1      40.360  22.485  27.522  1.00  0.00     0.001 A 
ATOM     70  C   UNL A   1      38.717  23.740  26.272  1.00  0.00     0.001 A 
ATOM     71  C   UNL A   1      39.167  22.532  26.802  1.00  0.00     0.000 A 
ENDBRANCH  52  66
BRANCH  53  72
ATOM     72  C   UNL A   1      45.572  33.387  28.881  1.00  0.00    -0.014 A 
ATOM     73  C   UNL A   1      45.502  34.475  27.997  1.00  0.00     0.009 A 
ATOM     74  C   UNL A   1      46.408  33.484  30.005  1.00  0.00     0.009 A 
ATOM     75  C   UNL A   1      46.274  35.620  28.218  1.00  0.00     0.001 A 
ATOM     76  C   UNL A   1      47.152  34.641  30.241  1.00  0.00     0.001 A 
ATOM     77  C   UNL A   1      47.093  35.704  29.342  1.00  0.00     0.000 A 
ENDBRANCH  53  72
BRANCH  65  78
ATOM     78  C   UNL A   1      47.090  27.594  25.318  1.00  0.00    -0.014 A 
ATOM     79  C   UNL A   1      48.184  26.935  25.898  1.00  0.00     0.009 A 
ATOM     80  C   UNL A   1      47.097  27.831  23.933  1.00  0.00     0.009 A 
ATOM     81  C   UNL A   1      49.277  26.555  25.114  1.00  0.00     0.001 A 
ATOM     82  C   UNL A   1      48.174  27.420  23.147  1.00  0.00     0.001 A 
ATOM     83  C   UNL A   1      49.268  26.792  23.740  1.00  0.00     0.000 A 
ENDBRANCH  65  78
ENDBRANCH  39  40
ENDBRANCH  32  34
ENDBRANCH  31  32
ENDBRANCH  30  31
ENDBRANCH  29  30
ENDBRANCH  28  29
ENDBRANCH  27  28
ENDBRANCH   1  27
TORSDOF 21
ENDMDL
MODEL 2
REMARK VINA RESULT:      -9.5      4.045      6.075
REMARK SMILES COc1cc(N[C@H]2C=C[C@@H](C(=O)OCCOCCOCCOC(=O)c3ccc(-c4c5nc(c(-c6ccccc6)c6ccc([nH]6)c(-c6ccccc6)c6nc(c(-c7ccccc7)c7ccc4[nH]7)C=C6)C=C5)cc3)C2)c([N+](=O)[O-])cc1F
REMARK SMILES IDX 17 1 16 2 15 3 14 4 13 5 11 6 12 7 10 8 7 9 8 10 73 11 9 12
REMARK SMILES IDX 6 13 5 15 3 16 4 17 79 18 78 19 80 20 74 21 2 22 1 23 75 24
REMARK SMILES IDX 76 25 77 26 18 27 19 28 20 29 21 30 22 31 23 32 24 33 25 34
REMARK SMILES IDX 26 35 72 36 27 37 71 38 28 39 29 40 30 41 65 42 31 43 70 44
REMARK SMILES IDX 64 45 66 46 32 47 69 48 63 49 62 50 33 52 55 53 40 54 54 55
REMARK SMILES IDX 41 56 44 57 53 58 67 59 42 60 43 61 52 63 68 64 45 65 34 66
REMARK SMILES IDX 35 67 39 68 36 69 38 70 37 71 56 72 57 73 61 74 58 75 60 76
REMARK SMILES IDX 59 77 46 78 47 79 51 80 48 81 50 82 49 83
REMARK H PARENT 6 14 66 51 44 62
REMARK Flexibility Score: inf
ROOT
ATOM      1  C   UNL A   1      33.365  29.241  27.477  1.00  0.00     0.188 C 
ENDROOT
BRANCH   1   2
ATOM      2  O   UNL A   1      33.153  28.114  26.637  1.00  0.00    -0.376 OA
BRANCH   2   3
ATOM      3  C   UNL A   1      32.311  28.267  25.495  1.00  0.00     0.202 C 
BRANCH   3   4
ATOM      4  C   UNL A   1      32.943  28.155  24.096  1.00  0.00     0.261 C 
BRANCH   4   5
ATOM      5  O   UNL A   1      32.500  27.014  23.328  1.00  0.00    -0.463 OA
BRANCH   5   6
ATOM      6  C   UNL A   1      32.741  25.793  23.870  1.00  0.00     0.312 C 
ATOM      7  O   UNL A   1      33.856  25.411  24.217  1.00  0.00    -0.252 OA
BRANCH   6   8
ATOM      8  C   UNL A   1      31.481  24.945  24.122  1.00  0.00     0.124 C 
ATOM      9  C   UNL A   1      30.958  22.828  25.292  1.00  0.00     0.103 C 
ATOM     10  C   UNL A   1      30.796  24.003  26.184  1.00  0.00    -0.006 C 
ATOM     11  C   UNL A   1      31.534  23.410  24.000  1.00  0.00     0.048 C 
ATOM     12  C   UNL A   1      31.038  25.152  25.544  1.00  0.00    -0.014 C 
BRANCH   9  13
ATOM     13  N   UNL A   1      31.759  21.778  25.896  1.00  0.00    -0.373 N 
ATOM     14  H   UNL A   1      31.274  21.203  26.531  1.00  0.00     0.161 HD
BRANCH  13  15
ATOM     15  C   UNL A   1      33.096  21.453  25.726  1.00  0.00     0.117 A 
ATOM     16  C   UNL A   1      35.473  22.104  25.864  1.00  0.00     0.157 A 
ATOM     17  C   UNL A   1      34.117  22.337  26.117  1.00  0.00     0.082 A 
ATOM     18  C   UNL A   1      35.848  20.903  25.277  1.00  0.00     0.172 A 
ATOM     19  C   UNL A   1      34.890  19.960  24.930  1.00  0.00     0.131 A 
ATOM     20  F   UNL A   1      37.135  20.606  25.052  1.00  0.00    -0.203 F 
ATOM     21  C   UNL A   1      33.525  20.233  25.146  1.00  0.00     0.295 A 
BRANCH  16  22
ATOM     22  O   UNL A   1      36.309  23.111  26.265  1.00  0.00    -0.494 OA
ATOM     23  C   UNL A   1      37.081  23.717  25.235  1.00  0.00     0.278 C 
ENDBRANCH  16  22
BRANCH  21  24
ATOM     24  N   UNL A   1      32.566  19.191  24.736  1.00  0.00     0.065 N 
ATOM     25  O   UNL A   1      32.443  18.183  25.449  1.00  0.00    -0.258 OA
ATOM     26  O   UNL A   1      31.924  19.383  23.692  1.00  0.00    -0.258 OA
ENDBRANCH  21  24
ENDBRANCH  13  15
ENDBRANCH   9  13
ENDBRANCH   6   8
ENDBRANCH   5   6
ENDBRANCH   4   5
ENDBRANCH   3   4
ENDBRANCH   2   3
ENDBRANCH   1   2
BRANCH   1  27
ATOM     27  C   UNL A   1      34.559  30.162  27.180  1.00  0.00     0.188 C 
BRANCH  27  28
ATOM     28  O   UNL A   1      34.308  31.535  27.359  1.00  0.00    -0.376 OA
BRANCH  28  29
ATOM     29  C   UNL A   1      32.965  31.955  27.521  1.00  0.00     0.202 C 
BRANCH  29  30
ATOM     30  C   UNL A   1      32.585  33.448  27.454  1.00  0.00     0.261 C 
BRANCH  30  31
ATOM     31  O   UNL A   1      32.429  34.153  28.697  1.00  0.00    -0.460 OA
BRANCH  31  32
ATOM     32  C   UNL A   1      33.380  35.065  29.019  1.00  0.00     0.338 C 
ATOM     33  O   UNL A   1      33.226  36.257  29.185  1.00  0.00    -0.246 OA
BRANCH  32  34
ATOM     34  C   UNL A   1      34.606  34.315  29.390  1.00  0.00     0.060 A 
ATOM     35  C   UNL A   1      34.565  33.439  30.486  1.00  0.00     0.016 A 
ATOM     36  C   UNL A   1      35.779  34.453  28.646  1.00  0.00     0.016 A 
ATOM     37  C   UNL A   1      35.700  32.713  30.851  1.00  0.00     0.010 A 
ATOM     38  C   UNL A   1      36.924  33.749  29.032  1.00  0.00     0.010 A 
ATOM     39  C   UNL A   1      36.899  32.896  30.152  1.00  0.00    -0.014 A 
BRANCH  39  40
ATOM     40  C   UNL A   1      38.171  32.365  30.700  1.00  0.00     0.031 A 
ATOM     41  C   UNL A   1      38.733  31.107  30.096  1.00  0.00     0.074 A 
ATOM     42  C   UNL A   1      38.820  32.973  31.709  1.00  0.00     0.049 A 
ATOM     43  N   UNL A   1      39.776  30.403  30.457  1.00  0.00    -0.248 NA
ATOM     44  C   UNL A   1      38.016  30.568  28.928  1.00  0.00     0.031 C 
ATOM     45  C   UNL A   1      38.418  34.224  32.348  1.00  0.00     0.029 A 
ATOM     46  N   UNL A   1      39.958  32.600  32.383  1.00  0.00    -0.354 N 
ATOM     47  C   UNL A   1      39.830  29.333  29.573  1.00  0.00     0.074 A 
ATOM     48  C   UNL A   1      38.704  29.466  28.674  1.00  0.00     0.031 C 
ATOM     49  C   UNL A   1      39.290  34.508  33.333  1.00  0.00     0.029 A 
ATOM     50  C   UNL A   1      40.283  33.439  33.420  1.00  0.00     0.049 A 
ATOM     51  H   UNL A   1      40.489  31.805  32.145  1.00  0.00     0.167 HD
ATOM     52  C   UNL A   1      40.735  28.329  29.511  1.00  0.00     0.031 A 
ATOM     53  C   UNL A   1      41.254  33.339  34.351  1.00  0.00     0.031 A 
ATOM     54  C   UNL A   1      41.844  28.183  30.414  1.00  0.00     0.049 A 
ATOM     55  C   UNL A   1      42.193  32.158  34.321  1.00  0.00     0.074 A 
ATOM     56  C   UNL A   1      42.823  27.204  30.425  1.00  0.00     0.029 A 
ATOM     57  N   UNL A   1      42.117  29.033  31.473  1.00  0.00    -0.354 N 
ATOM     58  N   UNL A   1      42.250  31.164  33.467  1.00  0.00    -0.248 NA
ATOM     59  C   UNL A   1      43.208  32.093  35.384  1.00  0.00     0.031 C 
ATOM     60  C   UNL A   1      43.648  27.425  31.532  1.00  0.00     0.029 A 
ATOM     61  C   UNL A   1      43.228  28.583  32.165  1.00  0.00     0.049 A 
ATOM     62  H   UNL A   1      41.595  29.837  31.702  1.00  0.00     0.167 HD
ATOM     63  C   UNL A   1      43.324  30.378  33.869  1.00  0.00     0.074 A 
ATOM     64  C   UNL A   1      43.899  31.017  35.034  1.00  0.00     0.031 C 
ATOM     65  C   UNL A   1      43.795  29.230  33.321  1.00  0.00     0.031 A 
BRANCH  52  66
ATOM     66  C   UNL A   1      40.534  27.282  28.451  1.00  0.00    -0.014 A 
ATOM     67  C   UNL A   1      39.762  26.133  28.692  1.00  0.00     0.009 A 
ATOM     68  C   UNL A   1      41.103  27.462  27.181  1.00  0.00     0.009 A 
ATOM     69  C   UNL A   1      39.596  25.172  27.693  1.00  0.00     0.001 A 
ATOM     70  C   UNL A   1      40.908  26.516  26.174  1.00  0.00     0.001 A 
ATOM     71  C   UNL A   1      40.164  25.367  26.434  1.00  0.00     0.000 A 
ENDBRANCH  52  66
BRANCH  53  72
ATOM     72  C   UNL A   1      41.378  34.367  35.420  1.00  0.00    -0.014 A 
ATOM     73  C   UNL A   1      40.644  34.255  36.611  1.00  0.00     0.009 A 
ATOM     74  C   UNL A   1      42.202  35.489  35.238  1.00  0.00     0.009 A 
ATOM     75  C   UNL A   1      40.710  35.258  37.582  1.00  0.00     0.001 A 
ATOM     76  C   UNL A   1      42.293  36.472  36.225  1.00  0.00     0.001 A 
ATOM     77  C   UNL A   1      41.538  36.362  37.391  1.00  0.00     0.000 A 
ENDBRANCH  53  72
BRANCH  65  78
ATOM     78  C   UNL A   1      45.022  28.615  33.939  1.00  0.00    -0.014 A 
ATOM     79  C   UNL A   1      46.313  28.992  33.541  1.00  0.00     0.009 A 
ATOM     80  C   UNL A   1      44.877  27.675  34.973  1.00  0.00     0.009 A 
ATOM     81  C   UNL A   1      47.435  28.413  34.141  1.00  0.00     0.001 A 
ATOM     82  C   UNL A   1      45.999  27.124  35.594  1.00  0.00     0.001 A 
ATOM     83  C   UNL A   1      47.276  27.484  35.170  1.00  0.00     0.000 A 
ENDBRANCH  65  78
ENDBRANCH  39  40
ENDBRANCH  32  34
ENDBRANCH  31  32
ENDBRANCH  30  31
ENDBRANCH  29  30
ENDBRANCH  28  29
ENDBRANCH  27  28
ENDBRANCH   1  27
TORSDOF 21
ENDMDL
MODEL 3
REMARK VINA RESULT:      -9.4      4.468      8.168
REMARK SMILES COc1cc(N[C@H]2C=C[C@@H](C(=O)OCCOCCOCCOC(=O)c3ccc(-c4c5nc(c(-c6ccccc6)c6ccc([nH]6)c(-c6ccccc6)c6nc(c(-c7ccccc7)c7ccc4[nH]7)C=C6)C=C5)cc3)C2)c([N+](=O)[O-])cc1F
REMARK SMILES IDX 17 1 16 2 15 3 14 4 13 5 11 6 12 7 10 8 7 9 8 10 73 11 9 12
REMARK SMILES IDX 6 13 5 15 3 16 4 17 79 18 78 19 80 20 74 21 2 22 1 23 75 24
REMARK SMILES IDX 76 25 77 26 18 27 19 28 20 29 21 30 22 31 23 32 24 33 25 34
REMARK SMILES IDX 26 35 72 36 27 37 71 38 28 39 29 40 30 41 65 42 31 43 70 44
REMARK SMILES IDX 64 45 66 46 32 47 69 48 63 49 62 50 33 52 55 53 40 54 54 55
REMARK SMILES IDX 41 56 44 57 53 58 67 59 42 60 43 61 52 63 68 64 45 65 34 66
REMARK SMILES IDX 35 67 39 68 36 69 38 70 37 71 56 72 57 73 61 74 58 75 60 76
REMARK SMILES IDX 59 77 46 78 47 79 51 80 48 81 50 82 49 83
REMARK H PARENT 6 14 66 51 44 62
REMARK Flexibility Score: inf
ROOT
ATOM      1  C   UNL A   1      34.781  32.150  28.629  1.00  0.00     0.188 C 
ENDROOT
BRANCH   1   2
ATOM      2  O   UNL A   1      34.066  31.784  27.457  1.00  0.00    -0.376 OA
BRANCH   2   3
ATOM      3  C   UNL A   1      33.313  30.572  27.471  1.00  0.00     0.202 C 
BRANCH   3   4
ATOM      4  C   UNL A   1      32.991  29.891  26.128  1.00  0.00     0.261 C 
BRANCH   4   5
ATOM      5  O   UNL A   1      31.653  29.353  26.035  1.00  0.00    -0.463 OA
BRANCH   5   6
ATOM      6  C   UNL A   1      31.520  28.025  26.284  1.00  0.00     0.312 C 
ATOM      7  O   UNL A   1      31.206  27.566  27.379  1.00  0.00    -0.252 OA
BRANCH   6   8
ATOM      8  C   UNL A   1      31.690  27.123  25.048  1.00  0.00     0.124 C 
ATOM      9  C   UNL A   1      31.989  24.702  24.632  1.00  0.00     0.103 C 
ATOM     10  C   UNL A   1      30.557  25.089  24.612  1.00  0.00    -0.006 C 
ATOM     11  C   UNL A   1      32.721  25.978  25.051  1.00  0.00     0.048 C 
ATOM     12  C   UNL A   1      30.394  26.404  24.796  1.00  0.00    -0.014 C 
BRANCH   9  13
ATOM     13  N   UNL A   1      32.242  23.550  25.481  1.00  0.00    -0.373 N 
ATOM     14  H   UNL A   1      31.894  23.630  26.398  1.00  0.00     0.161 HD
BRANCH  13  15
ATOM     15  C   UNL A   1      32.892  22.356  25.211  1.00  0.00     0.117 A 
ATOM     16  C   UNL A   1      32.841  19.891  25.087  1.00  0.00     0.157 A 
ATOM     17  C   UNL A   1      32.207  21.129  25.241  1.00  0.00     0.082 A 
ATOM     18  C   UNL A   1      34.199  19.866  24.804  1.00  0.00     0.172 A 
ATOM     19  C   UNL A   1      34.918  21.048  24.695  1.00  0.00     0.131 A 
ATOM     20  F   UNL A   1      34.850  18.712  24.603  1.00  0.00    -0.203 F 
ATOM     21  C   UNL A   1      34.273  22.284  24.902  1.00  0.00     0.295 A 
BRANCH  16  22
ATOM     22  O   UNL A   1      32.013  18.808  25.211  1.00  0.00    -0.494 OA
ATOM     23  C   UNL A   1      32.657  17.567  25.472  1.00  0.00     0.278 C 
ENDBRANCH  16  22
BRANCH  21  24
ATOM     24  N   UNL A   1      35.107  23.494  24.787  1.00  0.00     0.065 N 
ATOM     25  O   UNL A   1      35.534  24.023  25.825  1.00  0.00    -0.258 OA
ATOM     26  O   UNL A   1      35.343  23.921  23.646  1.00  0.00    -0.258 OA
ENDBRANCH  21  24
ENDBRANCH  13  15
ENDBRANCH   9  13
ENDBRANCH   6   8
ENDBRANCH   5   6
ENDBRANCH   4   5
ENDBRANCH   3   4
ENDBRANCH   2   3
ENDBRANCH   1   2
BRANCH   1  27
ATOM     27  C   UNL A   1      35.382  33.562  28.711  1.00  0.00     0.188 C 
BRANCH  27  28
ATOM     28  O   UNL A   1      34.778  34.513  27.868  1.00  0.00    -0.376 OA
BRANCH  28  29
ATOM     29  C   UNL A   1      33.947  35.498  28.457  1.00  0.00     0.202 C 
BRANCH  29  30
ATOM     30  C   UNL A   1      33.040  35.161  29.658  1.00  0.00     0.261 C 
BRANCH  30  31
ATOM     31  O   UNL A   1      32.961  36.123  30.724  1.00  0.00    -0.460 OA
BRANCH  31  32
ATOM     32  C   UNL A   1      32.662  35.657  31.962  1.00  0.00     0.338 C 
ATOM     33  O   UNL A   1      31.573  35.645  32.497  1.00  0.00    -0.246 OA
BRANCH  32  34
ATOM     34  C   UNL A   1      33.853  34.923  32.459  1.00  0.00     0.060 A 
ATOM     35  C   UNL A   1      35.114  35.534  32.375  1.00  0.00     0.016 A 
ATOM     36  C   UNL A   1      33.724  33.656  33.028  1.00  0.00     0.016 A 
ATOM     37  C   UNL A   1      36.251  34.871  32.844  1.00  0.00     0.010 A 
ATOM     38  C   UNL A   1      34.866  32.981  33.469  1.00  0.00     0.010 A 
ATOM     39  C   UNL A   1      36.139  33.573  33.355  1.00  0.00    -0.014 A 
BRANCH  39  40
ATOM     40  C   UNL A   1      37.354  32.753  33.582  1.00  0.00     0.031 A 
ATOM     41  C   UNL A   1      38.124  32.963  34.857  1.00  0.00     0.074 A 
ATOM     42  C   UNL A   1      37.775  31.842  32.685  1.00  0.00     0.049 A 
ATOM     43  N   UNL A   1      39.258  32.436  35.241  1.00  0.00    -0.248 NA
ATOM     44  C   UNL A   1      37.534  33.900  35.827  1.00  0.00     0.031 C 
ATOM     45  C   UNL A   1      37.096  31.499  31.438  1.00  0.00     0.029 A 
ATOM     46  N   UNL A   1      38.896  31.048  32.690  1.00  0.00    -0.354 N 
ATOM     47  C   UNL A   1      39.525  32.988  36.488  1.00  0.00     0.074 A 
ATOM     48  C   UNL A   1      38.448  33.908  36.785  1.00  0.00     0.031 C 
ATOM     49  C   UNL A   1      37.824  30.571  30.789  1.00  0.00     0.029 A 
ATOM     50  C   UNL A   1      39.037  30.289  31.553  1.00  0.00     0.049 A 
ATOM     51  H   UNL A   1      39.538  31.026  33.436  1.00  0.00     0.167 HD
ATOM     52  C   UNL A   1      40.570  32.752  37.314  1.00  0.00     0.031 A 
ATOM     53  C   UNL A   1      40.045  29.483  31.164  1.00  0.00     0.031 A 
ATOM     54  C   UNL A   1      41.651  31.854  37.014  1.00  0.00     0.049 A 
ATOM     55  C   UNL A   1      41.247  29.310  32.059  1.00  0.00     0.074 A 
ATOM     56  C   UNL A   1      42.752  31.540  37.794  1.00  0.00     0.029 A 
ATOM     57  N   UNL A   1      41.776  31.134  35.837  1.00  0.00    -0.354 N 
ATOM     58  N   UNL A   1      41.479  29.819  33.245  1.00  0.00    -0.248 NA
ATOM     59  C   UNL A   1      42.325  28.442  31.559  1.00  0.00     0.031 C 
ATOM     60  C   UNL A   1      43.575  30.680  37.060  1.00  0.00     0.029 A 
ATOM     61  C   UNL A   1      42.951  30.401  35.854  1.00  0.00     0.049 A 
ATOM     62  H   UNL A   1      41.126  31.143  35.097  1.00  0.00     0.167 HD
ATOM     63  C   UNL A   1      42.708  29.307  33.646  1.00  0.00     0.074 A 
ATOM     64  C   UNL A   1      43.167  28.437  32.584  1.00  0.00     0.031 C 
ATOM     65  C   UNL A   1      43.395  29.535  34.793  1.00  0.00     0.031 A 
BRANCH  52  66
ATOM     66  C   UNL A   1      40.614  33.516  38.608  1.00  0.00    -0.014 A 
ATOM     67  C   UNL A   1      39.762  33.197  39.678  1.00  0.00     0.009 A 
ATOM     68  C   UNL A   1      41.545  34.555  38.769  1.00  0.00     0.009 A 
ATOM     69  C   UNL A   1      39.818  33.927  40.867  1.00  0.00     0.001 A 
ATOM     70  C   UNL A   1      41.620  35.261  39.970  1.00  0.00     0.001 A 
ATOM     71  C   UNL A   1      40.750  34.953  41.014  1.00  0.00     0.000 A 
ENDBRANCH  52  66
BRANCH  53  72
ATOM     72  C   UNL A   1      39.989  28.794  29.846  1.00  0.00    -0.014 A 
ATOM     73  C   UNL A   1      40.392  29.454  28.674  1.00  0.00     0.009 A 
ATOM     74  C   UNL A   1      39.492  27.485  29.746  1.00  0.00     0.009 A 
ATOM     75  C   UNL A   1      40.272  28.828  27.430  1.00  0.00     0.001 A 
ATOM     76  C   UNL A   1      39.404  26.849  28.506  1.00  0.00     0.001 A 
ATOM     77  C   UNL A   1      39.783  27.525  27.348  1.00  0.00     0.000 A 
ENDBRANCH  53  72
BRANCH  65  78
ATOM     78  C   UNL A   1      44.691  28.794  34.987  1.00  0.00    -0.014 A 
ATOM     79  C   UNL A   1      45.922  29.354  34.612  1.00  0.00     0.009 A 
ATOM     80  C   UNL A   1      44.680  27.532  35.603  1.00  0.00     0.009 A 
ATOM     81  C   UNL A   1      47.111  28.649  34.816  1.00  0.00     0.001 A 
ATOM     82  C   UNL A   1      45.872  26.844  35.837  1.00  0.00     0.001 A 
ATOM     83  C   UNL A   1      47.085  27.399  35.434  1.00  0.00     0.000 A 
ENDBRANCH  65  78
ENDBRANCH  39  40
ENDBRANCH  32  34
ENDBRANCH  31  32
ENDBRANCH  30  31
ENDBRANCH  29  30
ENDBRANCH  28  29
ENDBRANCH  27  28
ENDBRANCH   1  27
TORSDOF 21
ENDMDL
