MODEL 1
REMARK VINA RESULT:     -10.8      0.000      0.000
REMARK SMILES O=C(OCCOCCOCCOC(=O)[C@H]1CS[C@]2(c3ccccc3)CCC(=O)N12)c1ccc(-c2c3nc(c(-c4ccccc4)c4ccc([nH]4)c(-c4ccccc4)c4nc(c(-c5ccccc5)c5ccc2[nH]5)C=C4)C=C3)cc1
REMARK SMILES IDX 7 1 6 2 5 3 4 4 3 5 2 6 1 7 30 8 31 9 77 10 32 11 76 12
REMARK SMILES IDX 33 13 34 14 35 15 70 16 36 17 75 18 69 19 71 20 37 21 74 22
REMARK SMILES IDX 68 23 67 24 38 26 60 27 45 28 59 29 46 30 49 31 58 32 72 33
REMARK SMILES IDX 47 34 48 35 57 37 73 38 50 39 39 40 40 41 44 42 41 43 43 44
REMARK SMILES IDX 42 45 61 46 62 47 66 48 63 49 65 50 64 51 51 52 52 53 56 54
REMARK SMILES IDX 53 55 55 56 54 57 8 58 9 59 10 60 11 61 12 62 13 63 14 64
REMARK SMILES IDX 15 65 16 66 29 67 17 68 18 69 27 70 25 71 26 72 28 73 19 74
REMARK SMILES IDX 20 75 24 76 21 77 23 78 22 79
REMARK H PARENT 71 25 49 36
REMARK Flexibility Score: inf
ROOT
ATOM      1  C   UNL A   1      33.890  20.028  24.967  1.00  0.00     0.188 C 
ENDROOT
BRANCH   1   2
ATOM      2  O   UNL A   1      35.205  19.611  24.647  1.00  0.00    -0.376 OA
BRANCH   2   3
ATOM      3  C   UNL A   1      36.358  20.376  25.011  1.00  0.00     0.202 C 
BRANCH   3   4
ATOM      4  C   UNL A   1      37.806  19.979  24.592  1.00  0.00     0.261 C 
BRANCH   4   5
ATOM      5  O   UNL A   1      38.663  19.590  25.676  1.00  0.00    -0.460 OA
BRANCH   5   6
ATOM      6  C   UNL A   1      39.974  19.845  25.951  1.00  0.00     0.338 C 
ATOM      7  O   UNL A   1      40.730  18.935  25.613  1.00  0.00    -0.246 OA
BRANCH   6   8
ATOM      8  C   UNL A   1      40.457  21.171  26.787  1.00  0.00     0.060 A 
ATOM      9  C   UNL A   1      39.554  22.594  26.121  1.00  0.00     0.016 A 
ATOM     10  C   UNL A   1      41.788  21.611  28.242  1.00  0.00     0.016 A 
ATOM     11  C   UNL A   1      39.909  24.200  26.656  1.00  0.00     0.010 A 
ATOM     12  C   UNL A   1      42.017  23.328  28.735  1.00  0.00     0.010 A 
ATOM     13  C   UNL A   1      41.124  24.578  27.863  1.00  0.00    -0.014 A 
BRANCH  13  14
ATOM     14  C   UNL A   1      41.644  25.986  27.845  1.00  0.00     0.031 A 
ATOM     15  C   UNL A   1      43.043  26.278  27.368  1.00  0.00     0.074 A 
ATOM     16  C   UNL A   1      40.838  27.023  28.160  1.00  0.00     0.049 A 
ATOM     17  N   UNL A   1      43.680  27.420  27.384  1.00  0.00    -0.248 NA
ATOM     18  C   UNL A   1      43.790  25.203  26.692  1.00  0.00     0.031 C 
ATOM     19  C   UNL A   1      39.391  26.992  28.314  1.00  0.00     0.029 A 
ATOM     20  N   UNL A   1      41.144  28.308  28.534  1.00  0.00    -0.354 N 
ATOM     21  C   UNL A   1      44.842  27.217  26.652  1.00  0.00     0.074 A 
ATOM     22  C   UNL A   1      44.888  25.823  26.292  1.00  0.00     0.031 C 
ATOM     23  C   UNL A   1      38.965  28.070  28.976  1.00  0.00     0.029 A 
ATOM     24  C   UNL A   1      40.110  28.896  29.237  1.00  0.00     0.049 A 
ATOM     25  H   UNL A   1      41.996  28.756  28.326  1.00  0.00     0.167 HD
ATOM     26  C   UNL A   1      45.760  28.133  26.271  1.00  0.00     0.031 A 
ATOM     27  C   UNL A   1      40.087  29.960  30.051  1.00  0.00     0.031 A 
ATOM     28  C   UNL A   1      45.726  29.496  26.727  1.00  0.00     0.049 A 
ATOM     29  C   UNL A   1      41.268  30.852  29.955  1.00  0.00     0.074 A 
ATOM     30  C   UNL A   1      46.630  30.513  26.498  1.00  0.00     0.029 A 
ATOM     31  N   UNL A   1      44.727  30.016  27.542  1.00  0.00    -0.354 N 
ATOM     32  N   UNL A   1      42.379  30.646  29.292  1.00  0.00    -0.248 NA
ATOM     33  C   UNL A   1      41.146  32.167  30.579  1.00  0.00     0.031 C 
ATOM     34  C   UNL A   1      46.222  31.623  27.247  1.00  0.00     0.029 A 
ATOM     35  C   UNL A   1      45.021  31.324  27.876  1.00  0.00     0.049 A 
ATOM     36  H   UNL A   1      43.928  29.524  27.839  1.00  0.00     0.167 HD
ATOM     37  C   UNL A   1      43.051  31.848  29.319  1.00  0.00     0.074 A 
ATOM     38  C   UNL A   1      42.231  32.759  30.103  1.00  0.00     0.031 C 
ATOM     39  C   UNL A   1      44.210  32.182  28.704  1.00  0.00     0.031 A 
BRANCH  26  40
ATOM     40  C   UNL A   1      46.874  27.658  25.380  1.00  0.00    -0.014 A 
ATOM     41  C   UNL A   1      47.961  26.927  25.894  1.00  0.00     0.009 A 
ATOM     42  C   UNL A   1      46.862  27.973  24.014  1.00  0.00     0.009 A 
ATOM     43  C   UNL A   1      49.025  26.554  25.067  1.00  0.00     0.001 A 
ATOM     44  C   UNL A   1      47.915  27.578  23.184  1.00  0.00     0.001 A 
ATOM     45  C   UNL A   1      49.000  26.880  23.712  1.00  0.00     0.000 A 
ENDBRANCH  26  40
BRANCH  27  46
ATOM     46  C   UNL A   1      38.917  30.233  30.923  1.00  0.00    -0.014 A 
ATOM     47  C   UNL A   1      37.822  30.983  30.477  1.00  0.00     0.009 A 
ATOM     48  C   UNL A   1      38.887  29.711  32.230  1.00  0.00     0.009 A 
ATOM     49  C   UNL A   1      36.748  31.249  31.333  1.00  0.00     0.001 A 
ATOM     50  C   UNL A   1      37.804  29.962  33.078  1.00  0.00     0.001 A 
ATOM     51  C   UNL A   1      36.741  30.745  32.633  1.00  0.00     0.000 A 
ENDBRANCH  27  46
BRANCH  39  52
ATOM     52  C   UNL A   1      44.632  33.607  28.858  1.00  0.00    -0.014 A 
ATOM     53  C   UNL A   1      45.332  34.036  29.994  1.00  0.00     0.009 A 
ATOM     54  C   UNL A   1      44.304  34.530  27.856  1.00  0.00     0.009 A 
ATOM     55  C   UNL A   1      45.649  35.381  30.149  1.00  0.00     0.001 A 
ATOM     56  C   UNL A   1      44.666  35.866  27.991  1.00  0.00     0.001 A 
ATOM     57  C   UNL A   1      45.323  36.293  29.144  1.00  0.00     0.000 A 
ENDBRANCH  39  52
ENDBRANCH  13  14
ENDBRANCH   6   8
ENDBRANCH   5   6
ENDBRANCH   4   5
ENDBRANCH   3   4
ENDBRANCH   2   3
ENDBRANCH   1   2
BRANCH   1  58
ATOM     58  C   UNL A   1      33.618  21.193  25.912  1.00  0.00     0.188 C 
BRANCH  58  59
ATOM     59  O   UNL A   1      33.194  22.457  25.441  1.00  0.00    -0.376 OA
BRANCH  59  60
ATOM     60  C   UNL A   1      31.862  22.585  24.988  1.00  0.00     0.202 C 
BRANCH  60  61
ATOM     61  C   UNL A   1      31.725  22.898  23.487  1.00  0.00     0.261 C 
BRANCH  61  62
ATOM     62  O   UNL A   1      31.701  24.295  23.111  1.00  0.00    -0.462 OA
BRANCH  62  63
ATOM     63  C   UNL A   1      32.885  24.813  22.695  1.00  0.00     0.329 C 
ATOM     64  O   UNL A   1      33.662  24.236  21.935  1.00  0.00    -0.250 OA
BRANCH  63  65
ATOM     65  C   UNL A   1      33.251  26.172  23.325  1.00  0.00     0.206 C 
ATOM     66  C   UNL A   1      33.805  27.150  22.302  1.00  0.00     0.109 C 
ATOM     67  N   UNL A   1      32.571  26.903  24.439  1.00  0.00    -0.309 N 
ATOM     68  S   UNL A   1      33.301  28.811  22.760  1.00  0.00    -0.126 SA
ATOM     69  C   UNL A   1      32.196  28.348  24.286  1.00  0.00     0.116 C 
ATOM     70  C   UNL A   1      33.429  26.764  25.559  1.00  0.00     0.224 C 
ATOM     71  C   UNL A   1      33.049  29.097  25.362  1.00  0.00     0.055 C 
ATOM     72  C   UNL A   1      34.073  28.090  25.849  1.00  0.00     0.104 C 
ATOM     73  O   UNL A   1      33.819  25.692  26.007  1.00  0.00    -0.275 OA
BRANCH  69  74
ATOM     74  C   UNL A   1      30.521  28.868  24.016  1.00  0.00    -0.012 A 
ATOM     75  C   UNL A   1      29.548  27.314  23.981  1.00  0.00     0.007 A 
ATOM     76  C   UNL A   1      29.437  30.526  23.591  1.00  0.00     0.007 A 
ATOM     77  C   UNL A   1      27.846  27.347  23.525  1.00  0.00     0.000 A 
ATOM     78  C   UNL A   1      27.684  30.404  23.204  1.00  0.00     0.000 A 
ATOM     79  C   UNL A   1      26.958  28.831  23.177  1.00  0.00     0.000 A 
ENDBRANCH  69  74
ENDBRANCH  63  65
ENDBRANCH  62  63
ENDBRANCH  61  62
ENDBRANCH  60  61
ENDBRANCH  59  60
ENDBRANCH  58  59
ENDBRANCH   1  58
TORSDOF 18
ENDMDL
MODEL 2
REMARK VINA RESULT:     -10.5      6.606     11.946
REMARK SMILES O=C(OCCOCCOCCOC(=O)[C@H]1CS[C@]2(c3ccccc3)CCC(=O)N12)c1ccc(-c2c3nc(c(-c4ccccc4)c4ccc([nH]4)c(-c4ccccc4)c4nc(c(-c5ccccc5)c5ccc2[nH]5)C=C4)C=C3)cc1
REMARK SMILES IDX 7 1 6 2 5 3 4 4 3 5 2 6 1 7 30 8 31 9 77 10 32 11 76 12
REMARK SMILES IDX 33 13 34 14 35 15 70 16 36 17 75 18 69 19 71 20 37 21 74 22
REMARK SMILES IDX 68 23 67 24 38 26 60 27 45 28 59 29 46 30 49 31 58 32 72 33
REMARK SMILES IDX 47 34 48 35 57 37 73 38 50 39 39 40 40 41 44 42 41 43 43 44
REMARK SMILES IDX 42 45 61 46 62 47 66 48 63 49 65 50 64 51 51 52 52 53 56 54
REMARK SMILES IDX 53 55 55 56 54 57 8 58 9 59 10 60 11 61 12 62 13 63 14 64
REMARK SMILES IDX 15 65 16 66 29 67 17 68 18 69 27 70 25 71 26 72 28 73 19 74
REMARK SMILES IDX 20 75 24 76 21 77 23 78 22 79
REMARK H PARENT 71 25 49 36
REMARK Flexibility Score: inf
ROOT
ATOM      1  C   UNL A   1      43.124  40.655  32.447  1.00  0.00     0.188 C 
ENDROOT
BRANCH   1   2
ATOM      2  O   UNL A   1      43.306  40.168  31.129  1.00  0.00    -0.376 OA
BRANCH   2   3
ATOM      3  C   UNL A   1      44.281  39.170  30.813  1.00  0.00     0.202 C 
BRANCH   3   4
ATOM      4  C   UNL A   1      44.671  38.800  29.349  1.00  0.00     0.261 C 
BRANCH   4   5
ATOM      5  O   UNL A   1      43.563  38.509  28.485  1.00  0.00    -0.460 OA
BRANCH   5   6
ATOM      6  C   UNL A   1      43.321  37.494  27.606  1.00  0.00     0.338 C 
ATOM      7  O   UNL A   1      42.579  37.816  26.679  1.00  0.00    -0.246 OA
BRANCH   6   8
ATOM      8  C   UNL A   1      43.852  35.963  27.862  1.00  0.00     0.060 A 
ATOM      9  C   UNL A   1      43.422  34.985  26.399  1.00  0.00     0.016 A 
ATOM     10  C   UNL A   1      44.746  34.927  29.348  1.00  0.00     0.016 A 
ATOM     11  C   UNL A   1      43.692  33.277  26.362  1.00  0.00     0.010 A 
ATOM     12  C   UNL A   1      45.010  33.156  29.150  1.00  0.00     0.010 A 
ATOM     13  C   UNL A   1      44.395  32.374  27.690  1.00  0.00    -0.014 A 
BRANCH  13  14
ATOM     14  C   UNL A   1      44.105  30.901  27.704  1.00  0.00     0.031 A 
ATOM     15  C   UNL A   1      45.008  29.938  26.980  1.00  0.00     0.074 A 
ATOM     16  C   UNL A   1      43.091  30.406  28.445  1.00  0.00     0.049 A 
ATOM     17  N   UNL A   1      44.845  28.652  26.808  1.00  0.00    -0.248 NA
ATOM     18  C   UNL A   1      46.302  30.434  26.478  1.00  0.00     0.031 C 
ATOM     19  C   UNL A   1      42.326  31.108  29.465  1.00  0.00     0.029 A 
ATOM     20  N   UNL A   1      42.435  29.203  28.366  1.00  0.00    -0.354 N 
ATOM     21  C   UNL A   1      46.037  28.186  26.269  1.00  0.00     0.074 A 
ATOM     22  C   UNL A   1      46.882  29.329  26.037  1.00  0.00     0.031 C 
ATOM     23  C   UNL A   1      41.187  30.463  29.727  1.00  0.00     0.029 A 
ATOM     24  C   UNL A   1      41.177  29.267  28.933  1.00  0.00     0.049 A 
ATOM     25  H   UNL A   1      42.815  28.392  27.956  1.00  0.00     0.167 HD
ATOM     26  C   UNL A   1      46.407  26.906  26.041  1.00  0.00     0.031 A 
ATOM     27  C   UNL A   1      40.102  28.478  28.795  1.00  0.00     0.031 A 
ATOM     28  C   UNL A   1      45.502  25.801  26.201  1.00  0.00     0.049 A 
ATOM     29  C   UNL A   1      40.370  27.149  28.195  1.00  0.00     0.074 A 
ATOM     30  C   UNL A   1      45.705  24.464  25.925  1.00  0.00     0.029 A 
ATOM     31  N   UNL A   1      44.195  25.928  26.657  1.00  0.00    -0.354 N 
ATOM     32  N   UNL A   1      41.485  26.720  27.656  1.00  0.00    -0.248 NA
ATOM     33  C   UNL A   1      39.309  26.152  28.313  1.00  0.00     0.031 C 
ATOM     34  C   UNL A   1      44.492  23.797  26.134  1.00  0.00     0.029 A 
ATOM     35  C   UNL A   1      43.558  24.703  26.617  1.00  0.00     0.049 A 
ATOM     36  H   UNL A   1      43.784  26.768  26.963  1.00  0.00     0.167 HD
ATOM     37  C   UNL A   1      41.305  25.368  27.467  1.00  0.00     0.074 A 
ATOM     38  C   UNL A   1      39.955  25.066  27.917  1.00  0.00     0.031 C 
ATOM     39  C   UNL A   1      42.196  24.451  27.019  1.00  0.00     0.031 A 
BRANCH  26  40
ATOM     40  C   UNL A   1      47.810  26.675  25.551  1.00  0.00    -0.014 A 
ATOM     41  C   UNL A   1      48.847  26.331  26.437  1.00  0.00     0.009 A 
ATOM     42  C   UNL A   1      48.114  26.839  24.192  1.00  0.00     0.009 A 
ATOM     43  C   UNL A   1      50.160  26.192  25.979  1.00  0.00     0.001 A 
ATOM     44  C   UNL A   1      49.423  26.675  23.731  1.00  0.00     0.001 A 
ATOM     45  C   UNL A   1      50.446  26.363  24.625  1.00  0.00     0.000 A 
ENDBRANCH  26  40
BRANCH  27  46
ATOM     46  C   UNL A   1      38.767  28.909  29.281  1.00  0.00    -0.014 A 
ATOM     47  C   UNL A   1      37.858  29.576  28.449  1.00  0.00     0.009 A 
ATOM     48  C   UNL A   1      38.385  28.628  30.605  1.00  0.00     0.009 A 
ATOM     49  C   UNL A   1      36.620  29.998  28.945  1.00  0.00     0.001 A 
ATOM     50  C   UNL A   1      37.139  29.033  31.094  1.00  0.00     0.001 A 
ATOM     51  C   UNL A   1      36.263  29.732  30.266  1.00  0.00     0.000 A 
ENDBRANCH  27  46
BRANCH  39  52
ATOM     52  C   UNL A   1      41.716  23.037  27.016  1.00  0.00    -0.014 A 
ATOM     53  C   UNL A   1      42.312  22.068  27.835  1.00  0.00     0.009 A 
ATOM     54  C   UNL A   1      40.663  22.673  26.165  1.00  0.00     0.009 A 
ATOM     55  C   UNL A   1      41.897  20.743  27.760  1.00  0.00     0.001 A 
ATOM     56  C   UNL A   1      40.218  21.356  26.127  1.00  0.00     0.001 A 
ATOM     57  C   UNL A   1      40.845  20.390  26.913  1.00  0.00     0.000 A 
ENDBRANCH  39  52
ENDBRANCH  13  14
ENDBRANCH   6   8
ENDBRANCH   5   6
ENDBRANCH   4   5
ENDBRANCH   3   4
ENDBRANCH   2   3
ENDBRANCH   1   2
BRANCH   1  58
ATOM     58  C   UNL A   1      43.405  39.794  33.673  1.00  0.00     0.188 C 
BRANCH  58  59
ATOM     59  O   UNL A   1      42.668  38.620  33.950  1.00  0.00    -0.376 OA
BRANCH  59  60
ATOM     60  C   UNL A   1      43.355  37.386  33.942  1.00  0.00     0.202 C 
BRANCH  60  61
ATOM     61  C   UNL A   1      42.446  36.149  33.812  1.00  0.00     0.261 C 
BRANCH  61  62
ATOM     62  O   UNL A   1      41.880  35.624  35.036  1.00  0.00    -0.462 OA
BRANCH  62  63
ATOM     63  C   UNL A   1      40.539  35.414  35.020  1.00  0.00     0.329 C 
ATOM     64  O   UNL A   1      39.699  36.308  35.111  1.00  0.00    -0.250 OA
BRANCH  63  65
ATOM     65  C   UNL A   1      40.119  33.931  34.970  1.00  0.00     0.206 C 
ATOM     66  C   UNL A   1      39.035  33.605  35.982  1.00  0.00     0.109 C 
ATOM     67  N   UNL A   1      40.026  33.022  33.785  1.00  0.00    -0.309 N 
ATOM     68  S   UNL A   1      37.965  32.337  35.294  1.00  0.00    -0.126 SA
ATOM     69  C   UNL A   1      38.786  32.214  33.540  1.00  0.00     0.116 C 
ATOM     70  C   UNL A   1      41.135  32.146  33.895  1.00  0.00     0.224 C 
ATOM     71  C   UNL A   1      39.250  30.725  33.661  1.00  0.00     0.055 C 
ATOM     72  C   UNL A   1      40.641  30.775  34.263  1.00  0.00     0.104 C 
ATOM     73  O   UNL A   1      42.301  32.509  33.988  1.00  0.00    -0.275 OA
BRANCH  69  74
ATOM     74  C   UNL A   1      37.614  32.639  32.278  1.00  0.00    -0.012 A 
ATOM     75  C   UNL A   1      38.608  32.783  30.743  1.00  0.00     0.007 A 
ATOM     76  C   UNL A   1      35.666  33.150  32.046  1.00  0.00     0.007 A 
ATOM     77  C   UNL A   1      37.870  33.400  29.267  1.00  0.00     0.000 A 
ATOM     78  C   UNL A   1      35.046  33.706  30.451  1.00  0.00     0.000 A 
ATOM     79  C   UNL A   1      36.162  33.817  29.131  1.00  0.00     0.000 A 
ENDBRANCH  69  74
ENDBRANCH  63  65
ENDBRANCH  62  63
ENDBRANCH  61  62
ENDBRANCH  60  61
ENDBRANCH  59  60
ENDBRANCH  58  59
ENDBRANCH   1  58
TORSDOF 18
ENDMDL
MODEL 3
REMARK VINA RESULT:     -10.4      3.306      5.021
REMARK SMILES O=C(OCCOCCOCCOC(=O)[C@H]1CS[C@]2(c3ccccc3)CCC(=O)N12)c1ccc(-c2c3nc(c(-c4ccccc4)c4ccc([nH]4)c(-c4ccccc4)c4nc(c(-c5ccccc5)c5ccc2[nH]5)C=C4)C=C3)cc1
REMARK SMILES IDX 7 1 6 2 5 3 4 4 3 5 2 6 1 7 30 8 31 9 77 10 32 11 76 12
REMARK SMILES IDX 33 13 34 14 35 15 70 16 36 17 75 18 69 19 71 20 37 21 74 22
REMARK SMILES IDX 68 23 67 24 38 26 60 27 45 28 59 29 46 30 49 31 58 32 72 33
REMARK SMILES IDX 47 34 48 35 57 37 73 38 50 39 39 40 40 41 44 42 41 43 43 44
REMARK SMILES IDX 42 45 61 46 62 47 66 48 63 49 65 50 64 51 51 52 52 53 56 54
REMARK SMILES IDX 53 55 55 56 54 57 8 58 9 59 10 60 11 61 12 62 13 63 14 64
REMARK SMILES IDX 15 65 16 66 29 67 17 68 18 69 27 70 25 71 26 72 28 73 19 74
REMARK SMILES IDX 20 75 24 76 21 77 23 78 22 79
REMARK H PARENT 71 25 49 36
REMARK Flexibility Score: inf
ROOT
ATOM      1  C   UNL A   1      38.201  20.654  25.091  1.00  0.00     0.188 C 
ENDROOT
BRANCH   1   2
ATOM      2  O   UNL A   1      39.529  20.941  25.493  1.00  0.00    -0.376 OA
BRANCH   2   3
ATOM      3  C   UNL A   1      40.308  20.021  26.263  1.00  0.00     0.202 C 
BRANCH   3   4
ATOM      4  C   UNL A   1      41.782  19.655  25.909  1.00  0.00     0.261 C 
BRANCH   4   5
ATOM      5  O   UNL A   1      42.557  20.733  25.364  1.00  0.00    -0.460 OA
BRANCH   5   6
ATOM      6  C   UNL A   1      43.159  21.816  25.935  1.00  0.00     0.338 C 
ATOM      7  O   UNL A   1      44.383  21.717  25.998  1.00  0.00    -0.246 OA
BRANCH   6   8
ATOM      8  C   UNL A   1      42.305  23.048  26.602  1.00  0.00     0.060 A 
ATOM      9  C   UNL A   1      43.250  24.571  26.340  1.00  0.00     0.016 A 
ATOM     10  C   UNL A   1      40.596  23.275  27.654  1.00  0.00     0.016 A 
ATOM     11  C   UNL A   1      42.735  26.067  27.039  1.00  0.00     0.010 A 
ATOM     12  C   UNL A   1      40.158  24.907  28.279  1.00  0.00     0.010 A 
ATOM     13  C   UNL A   1      41.291  26.237  28.019  1.00  0.00    -0.014 A 
BRANCH  13  14
ATOM     14  C   UNL A   1      41.259  27.428  28.931  1.00  0.00     0.031 A 
ATOM     15  C   UNL A   1      42.181  27.505  30.120  1.00  0.00     0.074 A 
ATOM     16  C   UNL A   1      40.479  28.493  28.647  1.00  0.00     0.049 A 
ATOM     17  N   UNL A   1      42.211  28.412  31.061  1.00  0.00    -0.248 NA
ATOM     18  C   UNL A   1      43.272  26.521  30.223  1.00  0.00     0.031 C 
ATOM     19  C   UNL A   1      39.784  28.762  27.396  1.00  0.00     0.029 A 
ATOM     20  N   UNL A   1      40.031  29.510  29.454  1.00  0.00    -0.354 N 
ATOM     21  C   UNL A   1      43.360  28.156  31.799  1.00  0.00     0.074 A 
ATOM     22  C   UNL A   1      43.950  26.952  31.275  1.00  0.00     0.031 C 
ATOM     23  C   UNL A   1      38.829  29.677  27.576  1.00  0.00     0.029 A 
ATOM     24  C   UNL A   1      38.890  30.102  28.946  1.00  0.00     0.049 A 
ATOM     25  H   UNL A   1      40.470  29.784  30.292  1.00  0.00     0.167 HD
ATOM     26  C   UNL A   1      43.897  28.900  32.791  1.00  0.00     0.031 A 
ATOM     27  C   UNL A   1      37.956  30.866  29.528  1.00  0.00     0.031 A 
ATOM     28  C   UNL A   1      43.231  30.046  33.345  1.00  0.00     0.049 A 
ATOM     29  C   UNL A   1      38.343  31.445  30.838  1.00  0.00     0.074 A 
ATOM     30  C   UNL A   1      43.608  30.844  34.407  1.00  0.00     0.029 A 
ATOM     31  N   UNL A   1      42.014  30.535  32.883  1.00  0.00    -0.354 N 
ATOM     32  N   UNL A   1      39.410  31.179  31.551  1.00  0.00    -0.248 NA
ATOM     33  C   UNL A   1      37.499  32.519  31.353  1.00  0.00     0.031 C 
ATOM     34  C   UNL A   1      42.576  31.760  34.640  1.00  0.00     0.029 A 
ATOM     35  C   UNL A   1      41.594  31.587  33.674  1.00  0.00     0.049 A 
ATOM     36  H   UNL A   1      41.523  30.181  32.106  1.00  0.00     0.167 HD
ATOM     37  C   UNL A   1      39.432  32.130  32.547  1.00  0.00     0.074 A 
ATOM     38  C   UNL A   1      38.245  32.949  32.360  1.00  0.00     0.031 C 
ATOM     39  C   UNL A   1      40.379  32.342  33.491  1.00  0.00     0.031 A 
BRANCH  26  40
ATOM     40  C   UNL A   1      45.220  28.447  33.347  1.00  0.00    -0.014 A 
ATOM     41  C   UNL A   1      46.435  28.925  32.823  1.00  0.00     0.009 A 
ATOM     42  C   UNL A   1      45.259  27.503  34.382  1.00  0.00     0.009 A 
ATOM     43  C   UNL A   1      47.657  28.440  33.300  1.00  0.00     0.001 A 
ATOM     44  C   UNL A   1      46.481  27.037  34.875  1.00  0.00     0.001 A 
ATOM     45  C   UNL A   1      47.678  27.497  34.327  1.00  0.00     0.000 A 
ENDBRANCH  26  40
BRANCH  27  46
ATOM     46  C   UNL A   1      36.665  31.149  28.851  1.00  0.00    -0.014 A 
ATOM     47  C   UNL A   1      36.258  32.455  28.554  1.00  0.00     0.009 A 
ATOM     48  C   UNL A   1      35.830  30.081  28.474  1.00  0.00     0.009 A 
ATOM     49  C   UNL A   1      35.022  32.691  27.944  1.00  0.00     0.001 A 
ATOM     50  C   UNL A   1      34.603  30.318  27.846  1.00  0.00     0.001 A 
ATOM     51  C   UNL A   1      34.193  31.625  27.596  1.00  0.00     0.000 A 
ENDBRANCH  27  46
BRANCH  39  52
ATOM     52  C   UNL A   1      40.151  33.524  34.376  1.00  0.00    -0.014 A 
ATOM     53  C   UNL A   1      40.688  34.780  34.061  1.00  0.00     0.009 A 
ATOM     54  C   UNL A   1      39.401  33.365  35.550  1.00  0.00     0.009 A 
ATOM     55  C   UNL A   1      40.524  35.846  34.938  1.00  0.00     0.001 A 
ATOM     56  C   UNL A   1      39.198  34.446  36.401  1.00  0.00     0.001 A 
ATOM     57  C   UNL A   1      39.772  35.680  36.102  1.00  0.00     0.000 A 
ENDBRANCH  39  52
ENDBRANCH  13  14
ENDBRANCH   6   8
ENDBRANCH   5   6
ENDBRANCH   4   5
ENDBRANCH   3   4
ENDBRANCH   2   3
ENDBRANCH   1   2
BRANCH   1  58
ATOM     58  C   UNL A   1      37.003  21.392  25.675  1.00  0.00     0.188 C 
BRANCH  58  59
ATOM     59  O   UNL A   1      36.008  21.974  24.856  1.00  0.00    -0.376 OA
BRANCH  59  60
ATOM     60  C   UNL A   1      34.670  21.941  25.309  1.00  0.00     0.202 C 
BRANCH  60  61
ATOM     61  C   UNL A   1      33.646  21.504  24.245  1.00  0.00     0.261 C 
BRANCH  61  62
ATOM     62  O   UNL A   1      33.400  22.427  23.158  1.00  0.00    -0.462 OA
BRANCH  62  63
ATOM     63  C   UNL A   1      32.401  23.323  23.362  1.00  0.00     0.329 C 
ATOM     64  O   UNL A   1      31.205  23.062  23.247  1.00  0.00    -0.250 OA
BRANCH  63  65
ATOM     65  C   UNL A   1      32.875  24.758  23.671  1.00  0.00     0.206 C 
ATOM     66  C   UNL A   1      33.591  25.393  22.491  1.00  0.00     0.109 C 
ATOM     67  N   UNL A   1      32.216  25.804  24.513  1.00  0.00    -0.309 N 
ATOM     68  S   UNL A   1      33.247  27.155  22.487  1.00  0.00    -0.126 SA
ATOM     69  C   UNL A   1      32.011  27.193  23.982  1.00  0.00     0.116 C 
ATOM     70  C   UNL A   1      32.987  25.872  25.700  1.00  0.00     0.224 C 
ATOM     71  C   UNL A   1      32.877  28.106  24.910  1.00  0.00     0.055 C 
ATOM     72  C   UNL A   1      33.754  27.164  25.712  1.00  0.00     0.104 C 
ATOM     73  O   UNL A   1      33.231  24.916  26.426  1.00  0.00    -0.275 OA
BRANCH  69  74
ATOM     74  C   UNL A   1      30.422  27.779  23.455  1.00  0.00    -0.012 A 
ATOM     75  C   UNL A   1      30.778  29.307  22.505  1.00  0.00     0.007 A 
ATOM     76  C   UNL A   1      28.445  27.408  23.702  1.00  0.00     0.007 A 
ATOM     77  C   UNL A   1      29.457  30.341  21.967  1.00  0.00     0.000 A 
ATOM     78  C   UNL A   1      27.208  28.533  23.037  1.00  0.00     0.000 A 
ATOM     79  C   UNL A   1      27.753  29.952  22.206  1.00  0.00     0.000 A 
ENDBRANCH  69  74
ENDBRANCH  63  65
ENDBRANCH  62  63
ENDBRANCH  61  62
ENDBRANCH  60  61
ENDBRANCH  59  60
ENDBRANCH  58  59
ENDBRANCH   1  58
TORSDOF 18
ENDMDL
