MODEL 1
REMARK VINA RESULT:     -11.6      0.000      0.000
REMARK SMILES CC1(C)[C@@]2(C(=O)OCCOCCOCCOC(=O)c3ccc(-c4c5nc(c(-c6ccccc6)c6ccc([nH]6)c(-c6ccccc6)c6nc(c(-c7ccccc7)c7ccc4[nH]7)C=C6)C=C5)cc3)CC[C@]1(C)/C(=N/NC(=O)c1ccc(Cl)cc1)C2
REMARK SMILES IDX 11 1 10 2 9 3 8 4 7 5 5 6 6 7 4 8 1 9 2 10 3 11 69 12 67 13
REMARK SMILES IDX 83 14 68 15 70 16 71 17 72 18 73 19 74 20 75 22 76 23 77 24
REMARK SMILES IDX 82 25 78 26 81 27 79 28 80 29 12 30 13 31 14 32 15 33 16 34
REMARK SMILES IDX 17 35 18 36 19 37 20 38 66 39 21 40 65 41 22 42 23 43 24 44
REMARK SMILES IDX 59 45 25 46 64 47 58 48 60 49 26 50 63 51 57 52 56 53 27 55
REMARK SMILES IDX 49 56 34 57 48 58 35 59 38 60 47 61 61 62 36 63 37 64 46 66
REMARK SMILES IDX 62 67 39 68 28 69 29 70 33 71 30 72 32 73 31 74 50 75 51 76
REMARK SMILES IDX 55 77 52 78 54 79 53 80 40 81 41 82 45 83 42 84 44 85 43 86
REMARK H PARENT 73 21 60 54 38 65
REMARK Flexibility Score: inf
ROOT
ATOM      1  C   UNL A   1      40.868  19.931  26.549  1.00  0.00     0.188 C 
ENDROOT
BRANCH   1   2
ATOM      2  O   UNL A   1      40.676  21.230  27.069  1.00  0.00    -0.376 OA
BRANCH   2   3
ATOM      3  C   UNL A   1      39.800  22.076  26.322  1.00  0.00     0.202 C 
BRANCH   3   4
ATOM      4  C   UNL A   1      38.520  21.404  25.810  1.00  0.00     0.261 C 
BRANCH   4   5
ATOM      5  O   UNL A   1      37.781  22.261  24.912  1.00  0.00    -0.463 OA
BRANCH   5   6
ATOM      6  C   UNL A   1      36.842  23.077  25.471  1.00  0.00     0.313 C 
ATOM      7  O   UNL A   1      37.068  23.924  26.323  1.00  0.00    -0.252 OA
BRANCH   6   8
ATOM      8  C   UNL A   1      35.461  22.779  24.919  1.00  0.00     0.079 C 
ATOM      9  C   UNL A   1      34.295  22.366  27.210  1.00  0.00     0.013 C 
ATOM     10  C   UNL A   1      34.221  23.045  25.826  1.00  0.00    -0.008 C 
ATOM     11  C   UNL A   1      33.870  24.530  26.076  1.00  0.00     0.013 C 
ATOM     12  C   UNL A   1      33.259  22.355  24.801  1.00  0.00     0.014 C 
ATOM     13  C   UNL A   1      35.374  21.246  24.627  1.00  0.00     0.021 C 
ATOM     14  C   UNL A   1      35.084  23.542  23.625  1.00  0.00     0.073 C 
ATOM     15  C   UNL A   1      33.864  20.955  24.621  1.00  0.00     0.014 C 
ATOM     16  C   UNL A   1      31.780  22.378  25.127  1.00  0.00     0.018 C 
ATOM     17  C   UNL A   1      33.654  23.090  23.494  1.00  0.00     0.046 C 
ATOM     18  N   UNL A   1      32.778  23.235  22.554  1.00  0.00    -0.181 NA
BRANCH  18  19
ATOM     19  N   UNL A   1      32.914  23.912  21.387  1.00  0.00    -0.243 N 
ATOM     20  C   UNL A   1      32.858  25.228  20.987  1.00  0.00     0.271 C 
ATOM     21  H   UNL A   1      33.101  23.307  20.632  1.00  0.00     0.194 HD
ATOM     22  O   UNL A   1      32.999  25.508  19.795  1.00  0.00    -0.267 OA
BRANCH  20  23
ATOM     23  C   UNL A   1      32.662  26.339  21.921  1.00  0.00     0.041 A 
ATOM     24  C   UNL A   1      31.343  26.659  22.278  1.00  0.00     0.015 A 
ATOM     25  C   UNL A   1      33.742  27.035  22.475  1.00  0.00     0.015 A 
ATOM     26  C   UNL A   1      31.107  27.606  23.275  1.00  0.00     0.021 A 
ATOM     27  C   UNL A   1      33.497  27.994  23.464  1.00  0.00     0.021 A 
ATOM     28  C   UNL A   1      32.186  28.252  23.879  1.00  0.00     0.041 A 
ATOM     29  Cl  UNL A   1      31.902  29.333  25.187  1.00  0.00    -0.084 Cl
ENDBRANCH  20  23
ENDBRANCH  18  19
ENDBRANCH   6   8
ENDBRANCH   5   6
ENDBRANCH   4   5
ENDBRANCH   3   4
ENDBRANCH   2   3
ENDBRANCH   1   2
BRANCH   1  30
ATOM     30  C   UNL A   1      42.210  19.641  25.898  1.00  0.00     0.188 C 
BRANCH  30  31
ATOM     31  O   UNL A   1      43.237  20.620  25.974  1.00  0.00    -0.376 OA
BRANCH  31  32
ATOM     32  C   UNL A   1      44.360  20.301  25.139  1.00  0.00     0.202 C 
BRANCH  32  33
ATOM     33  C   UNL A   1      45.557  21.273  25.268  1.00  0.00     0.261 C 
BRANCH  33  34
ATOM     34  O   UNL A   1      45.242  22.435  26.073  1.00  0.00    -0.460 OA
BRANCH  34  35
ATOM     35  C   UNL A   1      44.909  23.558  25.381  1.00  0.00     0.338 C 
ATOM     36  O   UNL A   1      45.081  23.749  24.187  1.00  0.00    -0.246 OA
BRANCH  35  37
ATOM     37  C   UNL A   1      44.056  24.452  26.218  1.00  0.00     0.060 A 
ATOM     38  C   UNL A   1      44.308  25.834  26.156  1.00  0.00     0.016 A 
ATOM     39  C   UNL A   1      42.993  23.984  26.996  1.00  0.00     0.016 A 
ATOM     40  C   UNL A   1      43.547  26.736  26.907  1.00  0.00     0.010 A 
ATOM     41  C   UNL A   1      42.241  24.888  27.764  1.00  0.00     0.010 A 
ATOM     42  C   UNL A   1      42.540  26.264  27.755  1.00  0.00    -0.014 A 
BRANCH  42  43
ATOM     43  C   UNL A   1      41.999  27.148  28.823  1.00  0.00     0.031 A 
ATOM     44  C   UNL A   1      42.745  27.191  30.134  1.00  0.00     0.074 A 
ATOM     45  C   UNL A   1      40.911  27.923  28.655  1.00  0.00     0.049 A 
ATOM     46  N   UNL A   1      42.444  27.809  31.247  1.00  0.00    -0.248 NA
ATOM     47  C   UNL A   1      44.005  26.429  30.188  1.00  0.00     0.031 C 
ATOM     48  C   UNL A   1      40.137  28.056  27.424  1.00  0.00     0.029 A 
ATOM     49  N   UNL A   1      40.267  28.749  29.548  1.00  0.00    -0.354 N 
ATOM     50  C   UNL A   1      43.473  27.505  32.133  1.00  0.00     0.074 A 
ATOM     51  C   UNL A   1      44.387  26.625  31.439  1.00  0.00     0.031 C 
ATOM     52  C   UNL A   1      39.114  28.905  27.642  1.00  0.00     0.029 A 
ATOM     53  C   UNL A   1      39.137  29.343  29.037  1.00  0.00     0.049 A 
ATOM     54  H   UNL A   1      40.585  28.900  30.466  1.00  0.00     0.167 HD
ATOM     55  C   UNL A   1      43.652  27.921  33.409  1.00  0.00     0.031 A 
ATOM     56  C   UNL A   1      38.217  30.126  29.638  1.00  0.00     0.031 A 
ATOM     57  C   UNL A   1      42.740  28.775  34.118  1.00  0.00     0.049 A 
ATOM     58  C   UNL A   1      38.367  30.471  31.101  1.00  0.00     0.074 A 
ATOM     59  C   UNL A   1      42.821  29.228  35.423  1.00  0.00     0.029 A 
ATOM     60  N   UNL A   1      41.576  29.301  33.582  1.00  0.00    -0.354 N 
ATOM     61  N   UNL A   1      39.338  30.170  31.931  1.00  0.00    -0.248 NA
ATOM     62  C   UNL A   1      37.290  31.269  31.709  1.00  0.00     0.031 C 
ATOM     63  C   UNL A   1      41.677  29.985  35.694  1.00  0.00     0.029 A 
ATOM     64  C   UNL A   1      40.920  30.060  34.536  1.00  0.00     0.049 A 
ATOM     65  H   UNL A   1      41.262  29.158  32.659  1.00  0.00     0.167 HD
ATOM     66  C   UNL A   1      39.008  30.777  33.139  1.00  0.00     0.074 A 
ATOM     67  C   UNL A   1      37.756  31.471  32.933  1.00  0.00     0.031 C 
ATOM     68  C   UNL A   1      39.683  30.761  34.315  1.00  0.00     0.031 A 
BRANCH  55  69
ATOM     69  C   UNL A   1      44.871  27.419  34.129  1.00  0.00    -0.014 A 
ATOM     70  C   UNL A   1      46.098  28.095  34.042  1.00  0.00     0.009 A 
ATOM     71  C   UNL A   1      44.785  26.264  34.922  1.00  0.00     0.009 A 
ATOM     72  C   UNL A   1      47.223  27.604  34.706  1.00  0.00     0.001 A 
ATOM     73  C   UNL A   1      45.904  25.793  35.610  1.00  0.00     0.001 A 
ATOM     74  C   UNL A   1      47.124  26.457  35.494  1.00  0.00     0.000 A 
ENDBRANCH  55  69
BRANCH  56  75
ATOM     75  C   UNL A   1      37.030  30.625  28.883  1.00  0.00    -0.014 A 
ATOM     76  C   UNL A   1      36.904  31.986  28.564  1.00  0.00     0.009 A 
ATOM     77  C   UNL A   1      35.979  29.755  28.552  1.00  0.00     0.009 A 
ATOM     78  C   UNL A   1      35.739  32.470  27.963  1.00  0.00     0.001 A 
ATOM     79  C   UNL A   1      34.829  30.237  27.921  1.00  0.00     0.001 A 
ATOM     80  C   UNL A   1      34.704  31.595  27.639  1.00  0.00     0.000 A 
ENDBRANCH  56  75
BRANCH  68  81
ATOM     81  C   UNL A   1      39.122  31.570  35.454  1.00  0.00    -0.014 A 
ATOM     82  C   UNL A   1      38.181  31.034  36.347  1.00  0.00     0.009 A 
ATOM     83  C   UNL A   1      39.584  32.879  35.663  1.00  0.00     0.009 A 
ATOM     84  C   UNL A   1      37.689  31.805  37.402  1.00  0.00     0.001 A 
ATOM     85  C   UNL A   1      39.115  33.638  36.737  1.00  0.00     0.001 A 
ATOM     86  C   UNL A   1      38.160  33.104  37.599  1.00  0.00     0.000 A 
ENDBRANCH  68  81
ENDBRANCH  42  43
ENDBRANCH  35  37
ENDBRANCH  34  35
ENDBRANCH  33  34
ENDBRANCH  32  33
ENDBRANCH  31  32
ENDBRANCH  30  31
ENDBRANCH   1  30
TORSDOF 19
ENDMDL
MODEL 2
REMARK VINA RESULT:     -10.4      3.496      8.842
REMARK SMILES CC1(C)[C@@]2(C(=O)OCCOCCOCCOC(=O)c3ccc(-c4c5nc(c(-c6ccccc6)c6ccc([nH]6)c(-c6ccccc6)c6nc(c(-c7ccccc7)c7ccc4[nH]7)C=C6)C=C5)cc3)CC[C@]1(C)/C(=N/NC(=O)c1ccc(Cl)cc1)C2
REMARK SMILES IDX 11 1 10 2 9 3 8 4 7 5 5 6 6 7 4 8 1 9 2 10 3 11 69 12 67 13
REMARK SMILES IDX 83 14 68 15 70 16 71 17 72 18 73 19 74 20 75 22 76 23 77 24
REMARK SMILES IDX 82 25 78 26 81 27 79 28 80 29 12 30 13 31 14 32 15 33 16 34
REMARK SMILES IDX 17 35 18 36 19 37 20 38 66 39 21 40 65 41 22 42 23 43 24 44
REMARK SMILES IDX 59 45 25 46 64 47 58 48 60 49 26 50 63 51 57 52 56 53 27 55
REMARK SMILES IDX 49 56 34 57 48 58 35 59 38 60 47 61 61 62 36 63 37 64 46 66
REMARK SMILES IDX 62 67 39 68 28 69 29 70 33 71 30 72 32 73 31 74 50 75 51 76
REMARK SMILES IDX 55 77 52 78 54 79 53 80 40 81 41 82 45 83 42 84 44 85 43 86
REMARK H PARENT 73 21 60 54 38 65
REMARK Flexibility Score: inf
ROOT
ATOM      1  C   UNL A   1      32.062  29.323  24.975  1.00  0.00     0.188 C 
ENDROOT
BRANCH   1   2
ATOM      2  O   UNL A   1      33.256  28.776  24.455  1.00  0.00    -0.376 OA
BRANCH   2   3
ATOM      3  C   UNL A   1      33.477  28.982  23.058  1.00  0.00     0.202 C 
BRANCH   3   4
ATOM      4  C   UNL A   1      33.631  27.705  22.224  1.00  0.00     0.261 C 
BRANCH   4   5
ATOM      5  O   UNL A   1      33.857  26.542  23.050  1.00  0.00    -0.463 OA
BRANCH   5   6
ATOM      6  C   UNL A   1      33.362  25.355  22.595  1.00  0.00     0.313 C 
ATOM      7  O   UNL A   1      33.258  25.045  21.417  1.00  0.00    -0.252 OA
BRANCH   6   8
ATOM      8  C   UNL A   1      32.920  24.472  23.745  1.00  0.00     0.079 C 
ATOM      9  C   UNL A   1      31.044  26.041  24.638  1.00  0.00     0.013 C 
ATOM     10  C   UNL A   1      31.456  24.601  24.266  1.00  0.00    -0.008 C 
ATOM     11  C   UNL A   1      30.353  24.048  23.334  1.00  0.00     0.013 C 
ATOM     12  C   UNL A   1      31.751  23.662  25.484  1.00  0.00     0.014 C 
ATOM     13  C   UNL A   1      33.782  24.833  24.997  1.00  0.00     0.021 C 
ATOM     14  C   UNL A   1      33.040  22.947  23.496  1.00  0.00     0.073 C 
ATOM     15  C   UNL A   1      32.939  24.339  26.184  1.00  0.00     0.014 C 
ATOM     16  C   UNL A   1      30.584  23.322  26.387  1.00  0.00     0.018 C 
ATOM     17  C   UNL A   1      32.400  22.451  24.765  1.00  0.00     0.046 C 
ATOM     18  N   UNL A   1      32.293  21.270  25.282  1.00  0.00    -0.181 NA
BRANCH  18  19
ATOM     19  N   UNL A   1      32.720  20.092  24.762  1.00  0.00    -0.243 N 
ATOM     20  C   UNL A   1      33.933  19.475  24.560  1.00  0.00     0.271 C 
ATOM     21  H   UNL A   1      31.969  19.537  24.449  1.00  0.00     0.194 HD
ATOM     22  O   UNL A   1      33.971  18.374  24.008  1.00  0.00    -0.267 OA
BRANCH  20  23
ATOM     23  C   UNL A   1      35.206  20.052  24.997  1.00  0.00     0.041 A 
ATOM     24  C   UNL A   1      36.379  19.357  24.666  1.00  0.00     0.015 A 
ATOM     25  C   UNL A   1      35.266  21.270  25.683  1.00  0.00     0.015 A 
ATOM     26  C   UNL A   1      37.622  19.934  24.924  1.00  0.00     0.021 A 
ATOM     27  C   UNL A   1      36.517  21.838  25.952  1.00  0.00     0.021 A 
ATOM     28  C   UNL A   1      37.685  21.182  25.546  1.00  0.00     0.041 A 
ATOM     29  Cl  UNL A   1      39.210  21.947  25.760  1.00  0.00    -0.084 Cl
ENDBRANCH  20  23
ENDBRANCH  18  19
ENDBRANCH   6   8
ENDBRANCH   5   6
ENDBRANCH   4   5
ENDBRANCH   3   4
ENDBRANCH   2   3
ENDBRANCH   1   2
BRANCH   1  30
ATOM     30  C   UNL A   1      31.855  29.221  26.477  1.00  0.00     0.188 C 
BRANCH  30  31
ATOM     31  O   UNL A   1      31.471  30.384  27.198  1.00  0.00    -0.376 OA
BRANCH  31  32
ATOM     32  C   UNL A   1      31.837  31.594  26.520  1.00  0.00     0.202 C 
BRANCH  32  33
ATOM     33  C   UNL A   1      32.834  32.491  27.292  1.00  0.00     0.261 C 
BRANCH  33  34
ATOM     34  O   UNL A   1      32.276  33.788  27.613  1.00  0.00    -0.460 OA
BRANCH  34  35
ATOM     35  C   UNL A   1      33.001  34.540  28.484  1.00  0.00     0.338 C 
ATOM     36  O   UNL A   1      32.609  35.528  29.086  1.00  0.00    -0.246 OA
BRANCH  35  37
ATOM     37  C   UNL A   1      34.282  33.854  28.826  1.00  0.00     0.060 A 
ATOM     38  C   UNL A   1      34.249  32.887  29.846  1.00  0.00     0.016 A 
ATOM     39  C   UNL A   1      35.478  34.086  28.142  1.00  0.00     0.016 A 
ATOM     40  C   UNL A   1      35.407  32.198  30.220  1.00  0.00     0.010 A 
ATOM     41  C   UNL A   1      36.646  33.408  28.528  1.00  0.00     0.010 A 
ATOM     42  C   UNL A   1      36.625  32.490  29.597  1.00  0.00    -0.014 A 
BRANCH  42  43
ATOM     43  C   UNL A   1      37.901  32.061  30.231  1.00  0.00     0.031 A 
ATOM     44  C   UNL A   1      38.585  30.842  29.662  1.00  0.00     0.074 A 
ATOM     45  C   UNL A   1      38.475  32.727  31.251  1.00  0.00     0.049 A 
ATOM     46  N   UNL A   1      39.655  30.214  30.077  1.00  0.00    -0.248 NA
ATOM     47  C   UNL A   1      37.972  30.258  28.457  1.00  0.00     0.031 C 
ATOM     48  C   UNL A   1      37.983  33.965  31.850  1.00  0.00     0.029 A 
ATOM     49  N   UNL A   1      39.614  32.436  31.967  1.00  0.00    -0.354 N 
ATOM     50  C   UNL A   1      39.837  29.159  29.189  1.00  0.00     0.074 A 
ATOM     51  C   UNL A   1      38.753  29.214  28.234  1.00  0.00     0.031 C 
ATOM     52  C   UNL A   1      38.809  34.322  32.852  1.00  0.00     0.029 A 
ATOM     53  C   UNL A   1      39.865  33.319  32.991  1.00  0.00     0.049 A 
ATOM     54  H   UNL A   1      40.195  31.669  31.765  1.00  0.00     0.167 HD
ATOM     55  C   UNL A   1      40.819  28.228  29.159  1.00  0.00     0.031 A 
ATOM     56  C   UNL A   1      40.819  33.299  33.945  1.00  0.00     0.031 A 
ATOM     57  C   UNL A   1      41.888  28.146  30.116  1.00  0.00     0.049 A 
ATOM     58  C   UNL A   1      41.828  32.175  33.971  1.00  0.00     0.074 A 
ATOM     59  C   UNL A   1      42.914  27.220  30.185  1.00  0.00     0.029 A 
ATOM     60  N   UNL A   1      42.066  29.023  31.174  1.00  0.00    -0.354 N 
ATOM     61  N   UNL A   1      41.984  31.178  33.133  1.00  0.00    -0.248 NA
ATOM     62  C   UNL A   1      42.796  32.178  35.080  1.00  0.00     0.031 C 
ATOM     63  C   UNL A   1      43.682  27.505  31.318  1.00  0.00     0.029 A 
ATOM     64  C   UNL A   1      43.174  28.649  31.913  1.00  0.00     0.049 A 
ATOM     65  H   UNL A   1      41.490  29.797  31.370  1.00  0.00     0.167 HD
ATOM     66  C   UNL A   1      43.089  30.466  33.589  1.00  0.00     0.074 A 
ATOM     67  C   UNL A   1      43.571  31.149  34.770  1.00  0.00     0.031 C 
ATOM     68  C   UNL A   1      43.655  29.346  33.076  1.00  0.00     0.031 A 
BRANCH  55  69
ATOM     69  C   UNL A   1      40.752  27.195  28.070  1.00  0.00    -0.014 A 
ATOM     70  C   UNL A   1      41.498  27.333  26.889  1.00  0.00     0.009 A 
ATOM     71  C   UNL A   1      39.946  26.058  28.237  1.00  0.00     0.009 A 
ATOM     72  C   UNL A   1      41.410  26.371  25.882  1.00  0.00     0.001 A 
ATOM     73  C   UNL A   1      39.884  25.083  27.241  1.00  0.00     0.001 A 
ATOM     74  C   UNL A   1      40.608  25.244  26.061  1.00  0.00     0.000 A 
ENDBRANCH  55  69
BRANCH  56  75
ATOM     75  C   UNL A   1      40.867  34.355  34.997  1.00  0.00    -0.014 A 
ATOM     76  C   UNL A   1      40.091  34.242  36.162  1.00  0.00     0.009 A 
ATOM     77  C   UNL A   1      41.628  35.520  34.805  1.00  0.00     0.009 A 
ATOM     78  C   UNL A   1      40.047  35.286  37.091  1.00  0.00     0.001 A 
ATOM     79  C   UNL A   1      41.608  36.547  35.752  1.00  0.00     0.001 A 
ATOM     80  C   UNL A   1      40.807  36.436  36.887  1.00  0.00     0.000 A 
ENDBRANCH  56  75
BRANCH  68  81
ATOM     81  C   UNL A   1      44.899  28.822  33.743  1.00  0.00    -0.014 A 
ATOM     82  C   UNL A   1      46.177  29.276  33.383  1.00  0.00     0.009 A 
ATOM     83  C   UNL A   1      44.781  27.888  34.785  1.00  0.00     0.009 A 
ATOM     84  C   UNL A   1      47.312  28.779  34.028  1.00  0.00     0.001 A 
ATOM     85  C   UNL A   1      45.914  27.417  35.452  1.00  0.00     0.001 A 
ATOM     86  C   UNL A   1      47.179  27.855  35.065  1.00  0.00     0.000 A 
ENDBRANCH  68  81
ENDBRANCH  42  43
ENDBRANCH  35  37
ENDBRANCH  34  35
ENDBRANCH  33  34
ENDBRANCH  32  33
ENDBRANCH  31  32
ENDBRANCH  30  31
ENDBRANCH   1  30
TORSDOF 19
ENDMDL
MODEL 3
REMARK VINA RESULT:     -10.4      4.722     10.190
REMARK SMILES CC1(C)[C@@]2(C(=O)OCCOCCOCCOC(=O)c3ccc(-c4c5nc(c(-c6ccccc6)c6ccc([nH]6)c(-c6ccccc6)c6nc(c(-c7ccccc7)c7ccc4[nH]7)C=C6)C=C5)cc3)CC[C@]1(C)/C(=N/NC(=O)c1ccc(Cl)cc1)C2
REMARK SMILES IDX 11 1 10 2 9 3 8 4 7 5 5 6 6 7 4 8 1 9 2 10 3 11 69 12 67 13
REMARK SMILES IDX 83 14 68 15 70 16 71 17 72 18 73 19 74 20 75 22 76 23 77 24
REMARK SMILES IDX 82 25 78 26 81 27 79 28 80 29 12 30 13 31 14 32 15 33 16 34
REMARK SMILES IDX 17 35 18 36 19 37 20 38 66 39 21 40 65 41 22 42 23 43 24 44
REMARK SMILES IDX 59 45 25 46 64 47 58 48 60 49 26 50 63 51 57 52 56 53 27 55
REMARK SMILES IDX 49 56 34 57 48 58 35 59 38 60 47 61 61 62 36 63 37 64 46 66
REMARK SMILES IDX 62 67 39 68 28 69 29 70 33 71 30 72 32 73 31 74 50 75 51 76
REMARK SMILES IDX 55 77 52 78 54 79 53 80 40 81 41 82 45 83 42 84 44 85 43 86
REMARK H PARENT 73 21 60 54 38 65
REMARK Flexibility Score: inf
ROOT
ATOM      1  C   UNL A   1      34.242  33.632  28.304  1.00  0.00     0.188 C 
ENDROOT
BRANCH   1   2
ATOM      2  O   UNL A   1      33.393  32.552  27.975  1.00  0.00    -0.376 OA
BRANCH   2   3
ATOM      3  C   UNL A   1      34.036  31.404  27.418  1.00  0.00     0.202 C 
BRANCH   3   4
ATOM      4  C   UNL A   1      33.145  30.165  27.263  1.00  0.00     0.261 C 
BRANCH   4   5
ATOM      5  O   UNL A   1      32.999  29.772  25.881  1.00  0.00    -0.463 OA
BRANCH   5   6
ATOM      6  C   UNL A   1      31.765  29.930  25.321  1.00  0.00     0.313 C 
ATOM      7  O   UNL A   1      31.095  30.951  25.378  1.00  0.00    -0.252 OA
BRANCH   6   8
ATOM      8  C   UNL A   1      31.308  28.655  24.640  1.00  0.00     0.079 C 
ATOM      9  C   UNL A   1      32.621  29.004  22.418  1.00  0.00     0.013 C 
ATOM     10  C   UNL A   1      32.221  28.026  23.544  1.00  0.00    -0.008 C 
ATOM     11  C   UNL A   1      33.526  27.366  24.046  1.00  0.00     0.013 C 
ATOM     12  C   UNL A   1      31.121  26.982  23.153  1.00  0.00     0.014 C 
ATOM     13  C   UNL A   1      29.981  28.960  23.873  1.00  0.00     0.021 C 
ATOM     14  C   UNL A   1      31.058  27.451  25.582  1.00  0.00     0.073 C 
ATOM     15  C   UNL A   1      29.902  27.850  22.811  1.00  0.00     0.014 C 
ATOM     16  C   UNL A   1      31.492  25.956  22.103  1.00  0.00     0.018 C 
ATOM     17  C   UNL A   1      30.770  26.398  24.546  1.00  0.00     0.046 C 
ATOM     18  N   UNL A   1      30.340  25.181  24.637  1.00  0.00    -0.181 NA
BRANCH  18  19
ATOM     19  N   UNL A   1      30.061  24.480  25.764  1.00  0.00    -0.243 N 
ATOM     20  C   UNL A   1      30.676  23.491  26.498  1.00  0.00     0.271 C 
ATOM     21  H   UNL A   1      29.199  24.745  26.157  1.00  0.00     0.194 HD
ATOM     22  O   UNL A   1      30.112  23.032  27.493  1.00  0.00    -0.267 OA
BRANCH  20  23
ATOM     23  C   UNL A   1      32.002  22.961  26.172  1.00  0.00     0.041 A 
ATOM     24  C   UNL A   1      33.100  23.821  26.337  1.00  0.00     0.015 A 
ATOM     25  C   UNL A   1      32.186  21.640  25.752  1.00  0.00     0.015 A 
ATOM     26  C   UNL A   1      34.395  23.325  26.186  1.00  0.00     0.021 A 
ATOM     27  C   UNL A   1      33.487  21.153  25.588  1.00  0.00     0.021 A 
ATOM     28  C   UNL A   1      34.583  21.988  25.834  1.00  0.00     0.041 A 
ATOM     29  Cl  UNL A   1      36.177  21.346  25.762  1.00  0.00    -0.084 Cl
ENDBRANCH  20  23
ENDBRANCH  18  19
ENDBRANCH   6   8
ENDBRANCH   5   6
ENDBRANCH   4   5
ENDBRANCH   3   4
ENDBRANCH   2   3
ENDBRANCH   1   2
BRANCH   1  30
ATOM     30  C   UNL A   1      34.835  33.642  29.702  1.00  0.00     0.188 C 
BRANCH  30  31
ATOM     31  O   UNL A   1      34.387  32.678  30.646  1.00  0.00    -0.376 OA
BRANCH  31  32
ATOM     32  C   UNL A   1      35.467  32.101  31.394  1.00  0.00     0.202 C 
BRANCH  32  33
ATOM     33  C   UNL A   1      36.716  31.743  30.553  1.00  0.00     0.261 C 
BRANCH  33  34
ATOM     34  O   UNL A   1      37.142  30.374  30.752  1.00  0.00    -0.460 OA
BRANCH  34  35
ATOM     35  C   UNL A   1      36.972  29.544  29.687  1.00  0.00     0.338 C 
ATOM     36  O   UNL A   1      35.926  29.332  29.095  1.00  0.00    -0.246 OA
BRANCH  35  37
ATOM     37  C   UNL A   1      38.295  29.108  29.150  1.00  0.00     0.060 A 
ATOM     38  C   UNL A   1      39.110  28.325  29.986  1.00  0.00     0.016 A 
ATOM     39  C   UNL A   1      38.720  29.388  27.848  1.00  0.00     0.016 A 
ATOM     40  C   UNL A   1      40.361  27.874  29.553  1.00  0.00     0.010 A 
ATOM     41  C   UNL A   1      39.984  28.951  27.418  1.00  0.00     0.010 A 
ATOM     42  C   UNL A   1      40.828  28.227  28.282  1.00  0.00    -0.014 A 
BRANCH  42  43
ATOM     43  C   UNL A   1      42.275  28.089  27.962  1.00  0.00     0.031 A 
ATOM     44  C   UNL A   1      43.172  29.260  28.280  1.00  0.00     0.074 A 
ATOM     45  C   UNL A   1      42.810  26.967  27.443  1.00  0.00     0.049 A 
ATOM     46  N   UNL A   1      44.444  29.431  28.029  1.00  0.00    -0.248 NA
ATOM     47  C   UNL A   1      42.538  30.391  28.980  1.00  0.00     0.031 C 
ATOM     48  C   UNL A   1      42.091  25.727  27.163  1.00  0.00     0.029 A 
ATOM     49  N   UNL A   1      44.103  26.703  27.054  1.00  0.00    -0.354 N 
ATOM     50  C   UNL A   1      44.759  30.689  28.533  1.00  0.00     0.074 A 
ATOM     51  C   UNL A   1      43.541  31.248  29.075  1.00  0.00     0.031 C 
ATOM     52  C   UNL A   1      42.952  24.835  26.636  1.00  0.00     0.029 A 
ATOM     53  C   UNL A   1      44.271  25.454  26.504  1.00  0.00     0.049 A 
ATOM     54  H   UNL A   1      44.839  27.346  27.160  1.00  0.00     0.167 HD
ATOM     55  C   UNL A   1      45.954  31.326  28.554  1.00  0.00     0.031 A 
ATOM     56  C   UNL A   1      45.357  24.891  25.935  1.00  0.00     0.031 A 
ATOM     57  C   UNL A   1      47.166  30.793  27.997  1.00  0.00     0.049 A 
ATOM     58  C   UNL A   1      46.647  25.673  25.850  1.00  0.00     0.074 A 
ATOM     59  C   UNL A   1      48.419  31.376  27.944  1.00  0.00     0.029 A 
ATOM     60  N   UNL A   1      47.275  29.551  27.392  1.00  0.00    -0.354 N 
ATOM     61  N   UNL A   1      46.930  26.863  26.321  1.00  0.00    -0.248 NA
ATOM     62  C   UNL A   1      47.771  25.024  25.153  1.00  0.00     0.031 C 
ATOM     63  C   UNL A   1      49.275  30.509  27.257  1.00  0.00     0.029 A 
ATOM     64  C   UNL A   1      48.570  29.358  26.945  1.00  0.00     0.049 A 
ATOM     65  H   UNL A   1      46.540  28.903  27.295  1.00  0.00     0.167 HD
ATOM     66  C   UNL A   1      48.270  27.086  26.015  1.00  0.00     0.074 A 
ATOM     67  C   UNL A   1      48.746  25.904  25.330  1.00  0.00     0.031 C 
ATOM     68  C   UNL A   1      49.038  28.171  26.280  1.00  0.00     0.031 A 
BRANCH  55  69
ATOM     69  C   UNL A   1      45.989  32.696  29.169  1.00  0.00    -0.014 A 
ATOM     70  C   UNL A   1      46.136  32.868  30.555  1.00  0.00     0.009 A 
ATOM     71  C   UNL A   1      45.896  33.831  28.349  1.00  0.00     0.009 A 
ATOM     72  C   UNL A   1      46.151  34.149  31.109  1.00  0.00     0.001 A 
ATOM     73  C   UNL A   1      45.942  35.110  28.903  1.00  0.00     0.001 A 
ATOM     74  C   UNL A   1      46.060  35.269  30.283  1.00  0.00     0.000 A 
ENDBRANCH  55  69
BRANCH  56  75
ATOM     75  C   UNL A   1      45.289  23.519  25.354  1.00  0.00    -0.014 A 
ATOM     76  C   UNL A   1      44.772  23.310  24.065  1.00  0.00     0.009 A 
ATOM     77  C   UNL A   1      45.665  22.402  26.117  1.00  0.00     0.009 A 
ATOM     78  C   UNL A   1      44.600  22.015  23.569  1.00  0.00     0.001 A 
ATOM     79  C   UNL A   1      45.523  21.110  25.605  1.00  0.00     0.001 A 
ATOM     80  C   UNL A   1      44.978  20.916  24.338  1.00  0.00     0.000 A 
ENDBRANCH  56  75
BRANCH  68  81
ATOM     81  C   UNL A   1      50.491  28.112  25.890  1.00  0.00    -0.014 A 
ATOM     82  C   UNL A   1      51.463  27.569  26.745  1.00  0.00     0.009 A 
ATOM     83  C   UNL A   1      50.883  28.568  24.621  1.00  0.00     0.009 A 
ATOM     84  C   UNL A   1      52.802  27.518  26.350  1.00  0.00     0.001 A 
ATOM     85  C   UNL A   1      52.217  28.486  24.215  1.00  0.00     0.001 A 
ATOM     86  C   UNL A   1      53.176  27.971  25.084  1.00  0.00     0.000 A 
ENDBRANCH  68  81
ENDBRANCH  42  43
ENDBRANCH  35  37
ENDBRANCH  34  35
ENDBRANCH  33  34
ENDBRANCH  32  33
ENDBRANCH  31  32
ENDBRANCH  30  31
ENDBRANCH   1  30
TORSDOF 19
ENDMDL
