MODEL 1
REMARK VINA RESULT:      -9.6      0.000      0.000
REMARK SMILES O=C(OCCOCCOCCOC(=O)[C@]1(CCc2cccnc2)CCC[NH2+]C1)c1ccc(-c2c3nc(c(-c4ccccc4)c4ccc([nH]4)c(-c4ccccc4)c4nc(c(-c5ccccc5)c5ccc2[nH]5)C=C4)C=C3)cc1
REMARK SMILES IDX 8 1 7 2 6 3 5 4 4 5 3 6 2 7 1 8 29 9 30 10 76 11 31 12 75 13
REMARK SMILES IDX 32 14 33 15 34 16 69 17 35 18 74 19 68 20 70 21 36 22 73 23
REMARK SMILES IDX 67 24 66 25 37 27 59 28 44 29 58 30 45 31 48 32 57 33 71 34
REMARK SMILES IDX 46 35 47 36 56 38 72 39 49 40 38 41 39 42 43 43 40 44 42 45
REMARK SMILES IDX 41 46 60 47 61 48 65 49 62 50 64 51 63 52 50 53 51 54 55 55
REMARK SMILES IDX 52 56 54 57 53 58 9 59 10 60 11 61 12 62 13 63 14 64 15 65
REMARK SMILES IDX 24 66 28 67 25 68 27 69 26 70 16 73 17 74 18 75 19 76 23 77
REMARK SMILES IDX 20 78 22 79 21 80
REMARK H PARENT 70 26 48 37 27 71 27 72
REMARK Flexibility Score: inf
ROOT
ATOM      1  C   UNL A   1      33.599  22.811  25.050  1.00  0.00     0.188 C 
ENDROOT
BRANCH   1   2
ATOM      2  C   UNL A   1      34.383  21.544  24.687  1.00  0.00     0.188 C 
BRANCH   2   3
ATOM      3  O   UNL A   1      35.767  21.614  24.373  1.00  0.00    -0.376 OA
BRANCH   3   4
ATOM      4  C   UNL A   1      36.635  20.698  25.027  1.00  0.00     0.202 C 
BRANCH   4   5
ATOM      5  C   UNL A   1      38.111  21.103  25.140  1.00  0.00     0.261 C 
BRANCH   5   6
ATOM      6  O   UNL A   1      38.386  22.098  26.134  1.00  0.00    -0.460 OA
BRANCH   6   7
ATOM      7  C   UNL A   1      39.575  22.650  26.480  1.00  0.00     0.338 C 
ATOM      8  O   UNL A   1      40.563  21.912  26.510  1.00  0.00    -0.246 OA
BRANCH   7   9
ATOM      9  C   UNL A   1      39.760  24.073  26.931  1.00  0.00     0.060 A 
ATOM     10  C   UNL A   1      40.378  25.095  26.207  1.00  0.00     0.016 A 
ATOM     11  C   UNL A   1      39.246  24.406  28.200  1.00  0.00     0.016 A 
ATOM     12  C   UNL A   1      40.508  26.385  26.712  1.00  0.00     0.010 A 
ATOM     13  C   UNL A   1      39.360  25.704  28.715  1.00  0.00     0.010 A 
ATOM     14  C   UNL A   1      40.021  26.694  27.974  1.00  0.00    -0.014 A 
BRANCH  14  15
ATOM     15  C   UNL A   1      40.427  27.979  28.574  1.00  0.00     0.031 A 
ATOM     16  C   UNL A   1      41.864  28.119  28.968  1.00  0.00     0.074 A 
ATOM     17  C   UNL A   1      39.594  29.036  28.625  1.00  0.00     0.049 A 
ATOM     18  N   UNL A   1      42.488  29.164  29.437  1.00  0.00    -0.248 NA
ATOM     19  C   UNL A   1      42.731  26.949  28.730  1.00  0.00     0.031 C 
ATOM     20  C   UNL A   1      38.247  29.090  28.064  1.00  0.00     0.029 A 
ATOM     21  N   UNL A   1      39.752  30.272  29.192  1.00  0.00    -0.354 N 
ATOM     22  C   UNL A   1      43.826  28.801  29.476  1.00  0.00     0.074 A 
ATOM     23  C   UNL A   1      43.915  27.414  29.088  1.00  0.00     0.031 C 
ATOM     24  C   UNL A   1      37.642  30.226  28.446  1.00  0.00     0.029 A 
ATOM     25  C   UNL A   1      38.594  31.014  29.212  1.00  0.00     0.049 A 
ATOM     26  H   UNL A   1      40.610  30.599  29.549  1.00  0.00     0.167 HD
ATOM     27  C   UNL A   1      44.895  29.581  29.749  1.00  0.00     0.031 A 
ATOM     28  C   UNL A   1      38.339  32.204  29.783  1.00  0.00     0.031 A 
ATOM     29  C   UNL A   1      44.784  30.944  30.179  1.00  0.00     0.049 A 
ATOM     30  C   UNL A   1      39.507  32.969  30.332  1.00  0.00     0.074 A 
ATOM     31  C   UNL A   1      45.784  31.815  30.562  1.00  0.00     0.029 A 
ATOM     32  N   UNL A   1      43.580  31.627  30.297  1.00  0.00    -0.354 N 
ATOM     33  N   UNL A   1      40.771  32.620  30.365  1.00  0.00    -0.248 NA
ATOM     34  C   UNL A   1      39.234  34.315  30.844  1.00  0.00     0.031 C 
ATOM     35  C   UNL A   1      45.178  33.010  30.970  1.00  0.00     0.029 A 
ATOM     36  C   UNL A   1      43.807  32.902  30.780  1.00  0.00     0.049 A 
ATOM     37  H   UNL A   1      42.696  31.258  30.071  1.00  0.00     0.167 HD
ATOM     38  C   UNL A   1      41.456  33.728  30.835  1.00  0.00     0.074 A 
ATOM     39  C   UNL A   1      40.462  34.755  31.081  1.00  0.00     0.031 C 
ATOM     40  C   UNL A   1      42.789  33.893  31.023  1.00  0.00     0.031 A 
BRANCH  27  41
ATOM     41  C   UNL A   1      46.240  28.936  29.605  1.00  0.00    -0.014 A 
ATOM     42  C   UNL A   1      46.909  28.931  28.368  1.00  0.00     0.009 A 
ATOM     43  C   UNL A   1      46.813  28.263  30.692  1.00  0.00     0.009 A 
ATOM     44  C   UNL A   1      48.105  28.226  28.213  1.00  0.00     0.001 A 
ATOM     45  C   UNL A   1      48.022  27.580  30.540  1.00  0.00     0.001 A 
ATOM     46  C   UNL A   1      48.659  27.552  29.300  1.00  0.00     0.000 A 
ENDBRANCH  27  41
BRANCH  28  47
ATOM     47  C   UNL A   1      36.954  32.743  29.838  1.00  0.00    -0.014 A 
ATOM     48  C   UNL A   1      36.067  32.382  30.861  1.00  0.00     0.009 A 
ATOM     49  C   UNL A   1      36.501  33.604  28.824  1.00  0.00     0.009 A 
ATOM     50  C   UNL A   1      34.742  32.832  30.841  1.00  0.00     0.001 A 
ATOM     51  C   UNL A   1      35.184  34.070  28.819  1.00  0.00     0.001 A 
ATOM     52  C   UNL A   1      34.301  33.672  29.821  1.00  0.00     0.000 A 
ENDBRANCH  28  47
BRANCH  40  53
ATOM     53  C   UNL A   1      43.237  35.248  31.485  1.00  0.00    -0.014 A 
ATOM     54  C   UNL A   1      43.302  35.568  32.848  1.00  0.00     0.009 A 
ATOM     55  C   UNL A   1      43.623  36.206  30.535  1.00  0.00     0.009 A 
ATOM     56  C   UNL A   1      43.707  36.841  33.250  1.00  0.00     0.001 A 
ATOM     57  C   UNL A   1      44.065  37.463  30.941  1.00  0.00     0.001 A 
ATOM     58  C   UNL A   1      44.094  37.784  32.298  1.00  0.00     0.000 A 
ENDBRANCH  40  53
ENDBRANCH  14  15
ENDBRANCH   7   9
ENDBRANCH   6   7
ENDBRANCH   5   6
ENDBRANCH   4   5
ENDBRANCH   3   4
ENDBRANCH   2   3
ENDBRANCH   1   2
BRANCH   1  59
ATOM     59  O   UNL A   1      32.188  22.840  24.990  1.00  0.00    -0.376 OA
BRANCH  59  60
ATOM     60  C   UNL A   1      31.552  23.476  23.901  1.00  0.00     0.202 C 
BRANCH  60  61
ATOM     61  C   UNL A   1      32.371  24.003  22.726  1.00  0.00     0.261 C 
BRANCH  61  62
ATOM     62  O   UNL A   1      31.922  25.185  22.036  1.00  0.00    -0.463 OA
BRANCH  62  63
ATOM     63  C   UNL A   1      32.723  26.271  22.209  1.00  0.00     0.317 C 
ATOM     64  O   UNL A   1      33.738  26.477  21.545  1.00  0.00    -0.251 OA
BRANCH  63  65
ATOM     65  C   UNL A   1      32.318  27.206  23.361  1.00  0.00     0.117 C 
ATOM     66  C   UNL A   1      30.856  27.170  23.854  1.00  0.00     0.030 C 
ATOM     67  C   UNL A   1      32.701  28.638  22.898  1.00  0.00     0.279 C 
ATOM     68  C   UNL A   1      29.884  28.094  23.124  1.00  0.00     0.063 C 
ATOM     69  N   UNL A   1      31.708  29.254  22.013  1.00  0.00    -0.345 N 
ATOM     70  C   UNL A   1      30.457  29.438  22.731  1.00  0.00     0.260 C 
ATOM     71  H   UNL A   1      32.052  30.160  21.696  1.00  0.00     0.346 HD
ATOM     72  H   UNL A   1      31.549  28.646  21.210  1.00  0.00     0.346 HD
BRANCH  65  73
ATOM     73  C   UNL A   1      33.245  26.820  24.568  1.00  0.00     0.029 C 
BRANCH  73  74
ATOM     74  C   UNL A   1      32.712  27.100  25.992  1.00  0.00     0.038 C 
BRANCH  74  75
ATOM     75  C   UNL A   1      32.935  28.489  26.522  1.00  0.00    -0.030 A 
ATOM     76  C   UNL A   1      31.935  29.463  26.464  1.00  0.00     0.007 A 
ATOM     77  C   UNL A   1      34.150  28.861  27.093  1.00  0.00     0.114 A 
ATOM     78  C   UNL A   1      32.191  30.751  26.924  1.00  0.00     0.020 A 
ATOM     79  N   UNL A   1      34.423  30.103  27.559  1.00  0.00    -0.264 NA
ATOM     80  C   UNL A   1      33.440  31.023  27.456  1.00  0.00     0.111 A 
ENDBRANCH  74  75
ENDBRANCH  73  74
ENDBRANCH  65  73
ENDBRANCH  63  65
ENDBRANCH  62  63
ENDBRANCH  61  62
ENDBRANCH  60  61
ENDBRANCH  59  60
ENDBRANCH   1  59
TORSDOF 20
ENDMDL
MODEL 2
REMARK VINA RESULT:      -9.5      2.431      4.236
REMARK SMILES O=C(OCCOCCOCCOC(=O)[C@]1(CCc2cccnc2)CCC[NH2+]C1)c1ccc(-c2c3nc(c(-c4ccccc4)c4ccc([nH]4)c(-c4ccccc4)c4nc(c(-c5ccccc5)c5ccc2[nH]5)C=C4)C=C3)cc1
REMARK SMILES IDX 8 1 7 2 6 3 5 4 4 5 3 6 2 7 1 8 29 9 30 10 76 11 31 12 75 13
REMARK SMILES IDX 32 14 33 15 34 16 69 17 35 18 74 19 68 20 70 21 36 22 73 23
REMARK SMILES IDX 67 24 66 25 37 27 59 28 44 29 58 30 45 31 48 32 57 33 71 34
REMARK SMILES IDX 46 35 47 36 56 38 72 39 49 40 38 41 39 42 43 43 40 44 42 45
REMARK SMILES IDX 41 46 60 47 61 48 65 49 62 50 64 51 63 52 50 53 51 54 55 55
REMARK SMILES IDX 52 56 54 57 53 58 9 59 10 60 11 61 12 62 13 63 14 64 15 65
REMARK SMILES IDX 24 66 28 67 25 68 27 69 26 70 16 73 17 74 18 75 19 76 23 77
REMARK SMILES IDX 20 78 22 79 21 80
REMARK H PARENT 70 26 48 37 27 71 27 72
REMARK Flexibility Score: inf
ROOT
ATOM      1  C   UNL A   1      35.633  23.233  23.993  1.00  0.00     0.188 C 
ENDROOT
BRANCH   1   2
ATOM      2  C   UNL A   1      36.636  22.102  24.248  1.00  0.00     0.188 C 
BRANCH   2   3
ATOM      3  O   UNL A   1      36.186  20.803  24.611  1.00  0.00    -0.376 OA
BRANCH   3   4
ATOM      4  C   UNL A   1      37.170  19.846  24.979  1.00  0.00     0.202 C 
BRANCH   4   5
ATOM      5  C   UNL A   1      38.561  20.387  25.336  1.00  0.00     0.261 C 
BRANCH   5   6
ATOM      6  O   UNL A   1      39.578  19.385  25.473  1.00  0.00    -0.460 OA
BRANCH   6   7
ATOM      7  C   UNL A   1      40.845  19.516  25.935  1.00  0.00     0.338 C 
ATOM      8  O   UNL A   1      41.551  18.504  25.970  1.00  0.00    -0.246 OA
BRANCH   7   9
ATOM      9  C   UNL A   1      41.422  20.782  26.508  1.00  0.00     0.060 A 
ATOM     10  C   UNL A   1      41.294  21.224  27.827  1.00  0.00     0.016 A 
ATOM     11  C   UNL A   1      42.175  21.588  25.631  1.00  0.00     0.016 A 
ATOM     12  C   UNL A   1      41.862  22.416  28.265  1.00  0.00     0.010 A 
ATOM     13  C   UNL A   1      42.761  22.785  26.063  1.00  0.00     0.010 A 
ATOM     14  C   UNL A   1      42.579  23.214  27.385  1.00  0.00    -0.014 A 
BRANCH  14  15
ATOM     15  C   UNL A   1      42.915  24.585  27.815  1.00  0.00     0.031 A 
ATOM     16  C   UNL A   1      44.368  24.914  27.957  1.00  0.00     0.074 A 
ATOM     17  C   UNL A   1      41.978  25.546  27.924  1.00  0.00     0.049 A 
ATOM     18  N   UNL A   1      44.926  26.059  28.240  1.00  0.00    -0.248 NA
ATOM     19  C   UNL A   1      45.323  23.827  27.667  1.00  0.00     0.031 C 
ATOM     20  C   UNL A   1      40.564  25.404  27.587  1.00  0.00     0.029 A 
ATOM     21  N   UNL A   1      42.072  26.839  28.365  1.00  0.00    -0.354 N 
ATOM     22  C   UNL A   1      46.288  25.847  28.086  1.00  0.00     0.074 A 
ATOM     23  C   UNL A   1      46.483  24.448  27.792  1.00  0.00     0.031 C 
ATOM     24  C   UNL A   1      39.893  26.499  27.979  1.00  0.00     0.029 A 
ATOM     25  C   UNL A   1      40.849  27.451  28.519  1.00  0.00     0.049 A 
ATOM     26  H   UNL A   1      42.928  27.287  28.552  1.00  0.00     0.167 HD
ATOM     27  C   UNL A   1      47.284  26.758  28.122  1.00  0.00     0.031 A 
ATOM     28  C   UNL A   1      40.544  28.654  29.036  1.00  0.00     0.031 A 
ATOM     29  C   UNL A   1      47.077  28.135  28.464  1.00  0.00     0.049 A 
ATOM     30  C   UNL A   1      41.681  29.587  29.329  1.00  0.00     0.074 A 
ATOM     31  C   UNL A   1      48.011  29.140  28.613  1.00  0.00     0.029 A 
ATOM     32  N   UNL A   1      45.832  28.693  28.727  1.00  0.00    -0.354 N 
ATOM     33  N   UNL A   1      42.968  29.381  29.180  1.00  0.00    -0.248 NA
ATOM     34  C   UNL A   1      41.330  30.937  29.778  1.00  0.00     0.031 C 
ATOM     35  C   UNL A   1      47.336  30.295  29.026  1.00  0.00     0.029 A 
ATOM     36  C   UNL A   1      45.975  30.024  29.071  1.00  0.00     0.049 A 
ATOM     37  H   UNL A   1      44.975  28.212  28.676  1.00  0.00     0.167 HD
ATOM     38  C   UNL A   1      43.579  30.594  29.450  1.00  0.00     0.074 A 
ATOM     39  C   UNL A   1      42.517  31.527  29.778  1.00  0.00     0.031 C 
ATOM     40  C   UNL A   1      44.895  30.918  29.404  1.00  0.00     0.031 A 
BRANCH  27  41
ATOM     41  C   UNL A   1      48.659  26.251  27.809  1.00  0.00    -0.014 A 
ATOM     42  C   UNL A   1      49.511  25.799  28.832  1.00  0.00     0.009 A 
ATOM     43  C   UNL A   1      49.137  26.290  26.492  1.00  0.00     0.009 A 
ATOM     44  C   UNL A   1      50.830  25.440  28.547  1.00  0.00     0.001 A 
ATOM     45  C   UNL A   1      50.448  25.907  26.207  1.00  0.00     0.001 A 
ATOM     46  C   UNL A   1      51.297  25.494  27.234  1.00  0.00     0.000 A 
ENDBRANCH  27  41
BRANCH  28  47
ATOM     47  C   UNL A   1      39.129  29.044  29.277  1.00  0.00    -0.014 A 
ATOM     48  C   UNL A   1      38.494  28.784  30.499  1.00  0.00     0.009 A 
ATOM     49  C   UNL A   1      38.389  29.653  28.248  1.00  0.00     0.009 A 
ATOM     50  C   UNL A   1      37.137  29.079  30.670  1.00  0.00     0.001 A 
ATOM     51  C   UNL A   1      37.041  29.968  28.429  1.00  0.00     0.001 A 
ATOM     52  C   UNL A   1      36.412  29.667  29.636  1.00  0.00     0.000 A 
ENDBRANCH  28  47
BRANCH  40  53
ATOM     53  C   UNL A   1      45.241  32.349  29.686  1.00  0.00    -0.014 A 
ATOM     54  C   UNL A   1      45.187  33.324  28.680  1.00  0.00     0.009 A 
ATOM     55  C   UNL A   1      45.601  32.727  30.989  1.00  0.00     0.009 A 
ATOM     56  C   UNL A   1      45.530  34.646  28.964  1.00  0.00     0.001 A 
ATOM     57  C   UNL A   1      45.905  34.055  31.279  1.00  0.00     0.001 A 
ATOM     58  C   UNL A   1      45.882  35.011  30.264  1.00  0.00     0.000 A 
ENDBRANCH  40  53
ENDBRANCH  14  15
ENDBRANCH   7   9
ENDBRANCH   6   7
ENDBRANCH   5   6
ENDBRANCH   4   5
ENDBRANCH   3   4
ENDBRANCH   2   3
ENDBRANCH   1   2
BRANCH   1  59
ATOM     59  O   UNL A   1      34.353  22.968  23.460  1.00  0.00    -0.376 OA
BRANCH  59  60
ATOM     60  C   UNL A   1      33.611  24.021  22.879  1.00  0.00     0.202 C 
BRANCH  60  61
ATOM     61  C   UNL A   1      34.010  25.475  23.121  1.00  0.00     0.261 C 
BRANCH  61  62
ATOM     62  O   UNL A   1      33.798  26.048  24.426  1.00  0.00    -0.463 OA
BRANCH  62  63
ATOM     63  C   UNL A   1      33.246  27.291  24.406  1.00  0.00     0.317 C 
ATOM     64  O   UNL A   1      33.880  28.311  24.141  1.00  0.00    -0.251 OA
BRANCH  63  65
ATOM     65  C   UNL A   1      31.767  27.355  24.823  1.00  0.00     0.117 C 
ATOM     66  C   UNL A   1      30.696  26.968  23.782  1.00  0.00     0.030 C 
ATOM     67  C   UNL A   1      31.533  28.805  25.330  1.00  0.00     0.279 C 
ATOM     68  C   UNL A   1      30.208  28.096  22.875  1.00  0.00     0.063 C 
ATOM     69  N   UNL A   1      31.301  29.773  24.254  1.00  0.00    -0.345 N 
ATOM     70  C   UNL A   1      30.071  29.442  23.552  1.00  0.00     0.260 C 
ATOM     71  H   UNL A   1      31.222  30.709  24.651  1.00  0.00     0.346 HD
ATOM     72  H   UNL A   1      32.082  29.742  23.598  1.00  0.00     0.346 HD
BRANCH  65  73
ATOM     73  C   UNL A   1      31.625  26.382  26.047  1.00  0.00     0.029 C 
BRANCH  73  74
ATOM     74  C   UNL A   1      30.793  25.096  25.841  1.00  0.00     0.038 C 
BRANCH  74  75
ATOM     75  C   UNL A   1      31.530  23.796  26.006  1.00  0.00    -0.030 A 
ATOM     76  C   UNL A   1      32.707  23.712  26.754  1.00  0.00     0.007 A 
ATOM     77  C   UNL A   1      31.067  22.621  25.418  1.00  0.00     0.114 A 
ATOM     78  C   UNL A   1      33.385  22.501  26.850  1.00  0.00     0.020 A 
ATOM     79  N   UNL A   1      31.700  21.427  25.503  1.00  0.00    -0.264 NA
ATOM     80  C   UNL A   1      32.850  21.396  26.210  1.00  0.00     0.111 A 
ENDBRANCH  74  75
ENDBRANCH  73  74
ENDBRANCH  65  73
ENDBRANCH  63  65
ENDBRANCH  62  63
ENDBRANCH  61  62
ENDBRANCH  60  61
ENDBRANCH  59  60
ENDBRANCH   1  59
TORSDOF 20
ENDMDL
MODEL 3
REMARK VINA RESULT:      -9.5      3.667      8.644
REMARK SMILES O=C(OCCOCCOCCOC(=O)[C@]1(CCc2cccnc2)CCC[NH2+]C1)c1ccc(-c2c3nc(c(-c4ccccc4)c4ccc([nH]4)c(-c4ccccc4)c4nc(c(-c5ccccc5)c5ccc2[nH]5)C=C4)C=C3)cc1
REMARK SMILES IDX 8 1 7 2 6 3 5 4 4 5 3 6 2 7 1 8 29 9 30 10 76 11 31 12 75 13
REMARK SMILES IDX 32 14 33 15 34 16 69 17 35 18 74 19 68 20 70 21 36 22 73 23
REMARK SMILES IDX 67 24 66 25 37 27 59 28 44 29 58 30 45 31 48 32 57 33 71 34
REMARK SMILES IDX 46 35 47 36 56 38 72 39 49 40 38 41 39 42 43 43 40 44 42 45
REMARK SMILES IDX 41 46 60 47 61 48 65 49 62 50 64 51 63 52 50 53 51 54 55 55
REMARK SMILES IDX 52 56 54 57 53 58 9 59 10 60 11 61 12 62 13 63 14 64 15 65
REMARK SMILES IDX 24 66 28 67 25 68 27 69 26 70 16 73 17 74 18 75 19 76 23 77
REMARK SMILES IDX 20 78 22 79 21 80
REMARK H PARENT 70 26 48 37 27 71 27 72
REMARK Flexibility Score: inf
ROOT
ATOM      1  C   UNL A   1      31.915  27.755  26.893  1.00  0.00     0.188 C 
ENDROOT
BRANCH   1   2
ATOM      2  C   UNL A   1      31.951  29.271  27.116  1.00  0.00     0.188 C 
BRANCH   2   3
ATOM      3  O   UNL A   1      33.055  30.044  26.664  1.00  0.00    -0.376 OA
BRANCH   3   4
ATOM      4  C   UNL A   1      33.232  31.333  27.236  1.00  0.00     0.202 C 
BRANCH   4   5
ATOM      5  C   UNL A   1      31.994  32.236  27.303  1.00  0.00     0.261 C 
BRANCH   5   6
ATOM      6  O   UNL A   1      32.277  33.639  27.393  1.00  0.00    -0.460 OA
BRANCH   6   7
ATOM      7  C   UNL A   1      32.962  34.309  28.351  1.00  0.00     0.338 C 
ATOM      8  O   UNL A   1      32.510  35.394  28.727  1.00  0.00    -0.246 OA
BRANCH   7   9
ATOM      9  C   UNL A   1      34.289  33.880  28.915  1.00  0.00     0.060 A 
ATOM     10  C   UNL A   1      35.538  34.065  28.319  1.00  0.00     0.016 A 
ATOM     11  C   UNL A   1      34.266  33.245  30.173  1.00  0.00     0.016 A 
ATOM     12  C   UNL A   1      36.715  33.627  28.917  1.00  0.00     0.010 A 
ATOM     13  C   UNL A   1      35.445  32.810  30.792  1.00  0.00     0.010 A 
ATOM     14  C   UNL A   1      36.677  32.980  30.144  1.00  0.00    -0.014 A 
BRANCH  14  15
ATOM     15  C   UNL A   1      37.900  32.292  30.599  1.00  0.00     0.031 A 
ATOM     16  C   UNL A   1      38.639  32.910  31.745  1.00  0.00     0.074 A 
ATOM     17  C   UNL A   1      38.258  31.085  30.121  1.00  0.00     0.049 A 
ATOM     18  N   UNL A   1      39.687  32.464  32.381  1.00  0.00    -0.248 NA
ATOM     19  C   UNL A   1      38.077  34.157  32.298  1.00  0.00     0.031 C 
ATOM     20  C   UNL A   1      37.494  30.282  29.171  1.00  0.00     0.029 A 
ATOM     21  N   UNL A   1      39.372  30.324  30.358  1.00  0.00    -0.354 N 
ATOM     22  C   UNL A   1      39.860  33.332  33.450  1.00  0.00     0.074 A 
ATOM     23  C   UNL A   1      38.883  34.386  33.320  1.00  0.00     0.031 C 
ATOM     24  C   UNL A   1      38.223  29.224  28.783  1.00  0.00     0.029 A 
ATOM     25  C   UNL A   1      39.474  29.236  29.523  1.00  0.00     0.049 A 
ATOM     26  H   UNL A   1      40.033  30.534  31.057  1.00  0.00     0.167 HD
ATOM     27  C   UNL A   1      40.719  33.219  34.486  1.00  0.00     0.031 A 
ATOM     28  C   UNL A   1      40.471  28.345  29.382  1.00  0.00     0.031 A 
ATOM     29  C   UNL A   1      41.715  32.191  34.573  1.00  0.00     0.049 A 
ATOM     30  C   UNL A   1      41.579  28.386  30.393  1.00  0.00     0.074 A 
ATOM     31  C   UNL A   1      42.695  32.014  35.528  1.00  0.00     0.029 A 
ATOM     32  N   UNL A   1      41.861  31.169  33.644  1.00  0.00    -0.354 N 
ATOM     33  N   UNL A   1      41.737  29.209  31.402  1.00  0.00    -0.248 NA
ATOM     34  C   UNL A   1      42.598  27.336  30.301  1.00  0.00     0.031 C 
ATOM     35  C   UNL A   1      43.474  30.916  35.144  1.00  0.00     0.029 A 
ATOM     36  C   UNL A   1      42.939  30.373  33.985  1.00  0.00     0.049 A 
ATOM     37  H   UNL A   1      41.283  31.031  32.859  1.00  0.00     0.167 HD
ATOM     38  C   UNL A   1      42.830  28.737  32.108  1.00  0.00     0.074 A 
ATOM     39  C   UNL A   1      43.300  27.559  31.402  1.00  0.00     0.031 C 
ATOM     40  C   UNL A   1      43.383  29.215  33.250  1.00  0.00     0.031 A 
BRANCH  27  41
ATOM     41  C   UNL A   1      40.603  34.259  35.559  1.00  0.00    -0.014 A 
ATOM     42  C   UNL A   1      39.768  34.056  36.672  1.00  0.00     0.009 A 
ATOM     43  C   UNL A   1      41.273  35.481  35.425  1.00  0.00     0.009 A 
ATOM     44  C   UNL A   1      39.573  35.076  37.606  1.00  0.00     0.001 A 
ATOM     45  C   UNL A   1      41.096  36.490  36.373  1.00  0.00     0.001 A 
ATOM     46  C   UNL A   1      40.239  36.291  37.455  1.00  0.00     0.000 A 
ENDBRANCH  27  41
BRANCH  28  47
ATOM     47  C   UNL A   1      40.452  27.346  28.282  1.00  0.00    -0.014 A 
ATOM     48  C   UNL A   1      39.871  26.081  28.449  1.00  0.00     0.009 A 
ATOM     49  C   UNL A   1      41.062  27.651  27.052  1.00  0.00     0.009 A 
ATOM     50  C   UNL A   1      39.944  25.127  27.429  1.00  0.00     0.001 A 
ATOM     51  C   UNL A   1      41.114  26.704  26.027  1.00  0.00     0.001 A 
ATOM     52  C   UNL A   1      40.567  25.437  26.221  1.00  0.00     0.000 A 
ENDBRANCH  28  47
BRANCH  40  53
ATOM     53  C   UNL A   1      44.533  28.436  33.814  1.00  0.00    -0.014 A 
ATOM     54  C   UNL A   1      45.859  28.746  33.479  1.00  0.00     0.009 A 
ATOM     55  C   UNL A   1      44.280  27.392  34.718  1.00  0.00     0.009 A 
ATOM     56  C   UNL A   1      46.909  27.995  34.005  1.00  0.00     0.001 A 
ATOM     57  C   UNL A   1      45.334  26.669  35.272  1.00  0.00     0.001 A 
ATOM     58  C   UNL A   1      46.647  26.963  34.906  1.00  0.00     0.000 A 
ENDBRANCH  40  53
ENDBRANCH  14  15
ENDBRANCH   7   9
ENDBRANCH   6   7
ENDBRANCH   5   6
ENDBRANCH   4   5
ENDBRANCH   3   4
ENDBRANCH   2   3
ENDBRANCH   1   2
BRANCH   1  59
ATOM     59  O   UNL A   1      30.700  27.037  26.949  1.00  0.00    -0.376 OA
BRANCH  59  60
ATOM     60  C   UNL A   1      30.399  26.102  25.933  1.00  0.00     0.202 C 
BRANCH  60  61
ATOM     61  C   UNL A   1      30.260  24.618  26.262  1.00  0.00     0.261 C 
BRANCH  61  62
ATOM     62  O   UNL A   1      31.104  23.671  25.580  1.00  0.00    -0.463 OA
BRANCH  62  63
ATOM     63  C   UNL A   1      32.008  23.049  26.383  1.00  0.00     0.317 C 
ATOM     64  O   UNL A   1      31.789  22.765  27.560  1.00  0.00    -0.251 OA
BRANCH  63  65
ATOM     65  C   UNL A   1      33.381  22.787  25.740  1.00  0.00     0.117 C 
ATOM     66  C   UNL A   1      34.556  23.712  26.122  1.00  0.00     0.030 C 
ATOM     67  C   UNL A   1      33.143  22.815  24.206  1.00  0.00     0.279 C 
ATOM     68  C   UNL A   1      34.708  24.978  25.282  1.00  0.00     0.063 C 
ATOM     69  N   UNL A   1      33.106  24.168  23.643  1.00  0.00    -0.345 N 
ATOM     70  C   UNL A   1      34.403  24.805  23.810  1.00  0.00     0.260 C 
ATOM     71  H   UNL A   1      32.881  24.116  22.650  1.00  0.00     0.346 HD
ATOM     72  H   UNL A   1      32.396  24.717  24.128  1.00  0.00     0.346 HD
BRANCH  65  73
ATOM     73  C   UNL A   1      33.769  21.321  26.146  1.00  0.00     0.029 C 
BRANCH  73  74
ATOM     74  C   UNL A   1      34.735  20.556  25.213  1.00  0.00     0.038 C 
BRANCH  74  75
ATOM     75  C   UNL A   1      34.196  19.303  24.583  1.00  0.00    -0.030 A 
ATOM     76  C   UNL A   1      32.909  19.253  24.040  1.00  0.00     0.007 A 
ATOM     77  C   UNL A   1      34.958  18.140  24.514  1.00  0.00     0.114 A 
ATOM     78  C   UNL A   1      32.426  18.063  23.504  1.00  0.00     0.020 A 
ATOM     79  N   UNL A   1      34.519  16.971  23.988  1.00  0.00    -0.264 NA
ATOM     80  C   UNL A   1      33.259  16.957  23.503  1.00  0.00     0.111 A 
ENDBRANCH  74  75
ENDBRANCH  73  74
ENDBRANCH  65  73
ENDBRANCH  63  65
ENDBRANCH  62  63
ENDBRANCH  61  62
ENDBRANCH  60  61
ENDBRANCH  59  60
ENDBRANCH   1  59
TORSDOF 20
ENDMDL
