MODEL 1
REMARK VINA RESULT:     -10.7      0.000      0.000
REMARK SMILES O=C(OCCOCCOCCOC(=O)[C@H]1Sc2[nH]c(=O)sc2[C@H]2c3cc(Br)cc(Br)c3OC(=O)[C@H]21)c1ccc(-c2c3nc(c(-c4ccccc4)c4ccc([nH]4)c(-c4ccccc4)c4nc(c(-c5ccccc5)c5ccc2[nH]5)C=C4)C=C3)cc1
REMARK SMILES IDX 7 1 6 2 5 3 4 4 3 5 2 6 1 7 36 8 37 9 83 10 38 11 82 12
REMARK SMILES IDX 39 13 40 14 41 15 76 16 42 17 81 18 75 19 77 20 43 21 80 22
REMARK SMILES IDX 74 23 73 24 44 26 66 27 51 28 65 29 52 30 55 31 64 32 78 33
REMARK SMILES IDX 53 34 54 35 63 37 79 38 56 39 45 40 46 41 50 42 47 43 49 44
REMARK SMILES IDX 48 45 67 46 68 47 72 48 69 49 71 50 70 51 57 52 58 53 62 54
REMARK SMILES IDX 59 55 61 56 60 57 8 58 9 59 10 60 11 61 12 62 13 63 14 64
REMARK SMILES IDX 15 65 16 66 35 67 17 68 23 69 33 70 18 71 22 72 24 73 32 74
REMARK SMILES IDX 34 75 19 76 21 78 25 79 31 80 20 81 26 82 29 83 27 84 28 85
REMARK SMILES IDX 30 86
REMARK H PARENT 77 25 55 36 18 77
REMARK Flexibility Score: inf
ROOT
ATOM      1  C   UNL A   1      41.177  19.677  26.115  1.00  0.00     0.188 C 
ENDROOT
BRANCH   1   2
ATOM      2  O   UNL A   1      41.985  18.530  26.083  1.00  0.00    -0.376 OA
BRANCH   2   3
ATOM      3  C   UNL A   1      43.356  18.568  25.756  1.00  0.00     0.202 C 
BRANCH   3   4
ATOM      4  C   UNL A   1      43.951  19.271  24.525  1.00  0.00     0.261 C 
BRANCH   4   5
ATOM      5  O   UNL A   1      44.298  20.659  24.597  1.00  0.00    -0.460 OA
BRANCH   5   6
ATOM      6  C   UNL A   1      45.372  21.317  25.075  1.00  0.00     0.338 C 
ATOM      7  O   UNL A   1      46.392  20.668  25.310  1.00  0.00    -0.246 OA
BRANCH   6   8
ATOM      8  C   UNL A   1      45.380  22.755  25.479  1.00  0.00     0.060 A 
ATOM      9  C   UNL A   1      46.185  23.331  26.458  1.00  0.00     0.016 A 
ATOM     10  C   UNL A   1      44.386  23.548  24.865  1.00  0.00     0.016 A 
ATOM     11  C   UNL A   1      45.828  24.567  26.990  1.00  0.00     0.010 A 
ATOM     12  C   UNL A   1      44.048  24.790  25.372  1.00  0.00     0.010 A 
ATOM     13  C   UNL A   1      44.688  25.229  26.518  1.00  0.00    -0.014 A 
BRANCH  13  14
ATOM     14  C   UNL A   1      44.162  26.355  27.276  1.00  0.00     0.031 A 
ATOM     15  C   UNL A   1      45.012  27.567  27.262  1.00  0.00     0.074 A 
ATOM     16  C   UNL A   1      42.988  26.315  27.942  1.00  0.00     0.049 A 
ATOM     17  N   UNL A   1      45.774  28.001  28.211  1.00  0.00    -0.248 NA
ATOM     18  C   UNL A   1      45.150  28.298  25.999  1.00  0.00     0.031 C 
ATOM     19  C   UNL A   1      41.922  25.307  27.898  1.00  0.00     0.029 A 
ATOM     20  N   UNL A   1      42.471  27.250  28.784  1.00  0.00    -0.354 N 
ATOM     21  C   UNL A   1      46.360  29.168  27.730  1.00  0.00     0.074 A 
ATOM     22  C   UNL A   1      46.067  29.213  26.318  1.00  0.00     0.031 C 
ATOM     23  C   UNL A   1      40.806  25.799  28.491  1.00  0.00     0.029 A 
ATOM     24  C   UNL A   1      41.130  27.075  29.103  1.00  0.00     0.049 A 
ATOM     25  H   UNL A   1      43.007  27.995  29.141  1.00  0.00     0.167 HD
ATOM     26  C   UNL A   1      46.856  30.116  28.571  1.00  0.00     0.031 A 
ATOM     27  C   UNL A   1      40.352  27.934  29.811  1.00  0.00     0.031 A 
ATOM     28  C   UNL A   1      47.003  29.613  29.913  1.00  0.00     0.049 A 
ATOM     29  C   UNL A   1      41.258  28.786  30.615  1.00  0.00     0.074 A 
ATOM     30  C   UNL A   1      47.767  28.624  30.501  1.00  0.00     0.029 A 
ATOM     31  N   UNL A   1      45.985  29.877  30.798  1.00  0.00    -0.354 N 
ATOM     32  N   UNL A   1      41.974  28.324  31.598  1.00  0.00    -0.248 NA
ATOM     33  C   UNL A   1      41.727  30.029  30.026  1.00  0.00     0.031 C 
ATOM     34  C   UNL A   1      46.896  28.007  31.447  1.00  0.00     0.029 A 
ATOM     35  C   UNL A   1      45.686  28.702  31.442  1.00  0.00     0.049 A 
ATOM     36  H   UNL A   1      45.550  30.748  30.943  1.00  0.00     0.167 HD
ATOM     37  C   UNL A   1      43.206  28.944  31.455  1.00  0.00     0.074 A 
ATOM     38  C   UNL A   1      42.967  30.050  30.527  1.00  0.00     0.031 C 
ATOM     39  C   UNL A   1      44.355  28.334  31.873  1.00  0.00     0.031 A 
BRANCH  26  40
ATOM     40  C   UNL A   1      46.848  31.591  28.270  1.00  0.00    -0.014 A 
ATOM     41  C   UNL A   1      48.035  32.326  28.439  1.00  0.00     0.009 A 
ATOM     42  C   UNL A   1      45.665  32.332  28.094  1.00  0.00     0.009 A 
ATOM     43  C   UNL A   1      48.024  33.726  28.495  1.00  0.00     0.001 A 
ATOM     44  C   UNL A   1      45.654  33.729  28.111  1.00  0.00     0.001 A 
ATOM     45  C   UNL A   1      46.832  34.426  28.339  1.00  0.00     0.000 A 
ENDBRANCH  26  40
BRANCH  27  46
ATOM     46  C   UNL A   1      38.935  28.304  29.594  1.00  0.00    -0.014 A 
ATOM     47  C   UNL A   1      38.087  28.576  30.683  1.00  0.00     0.009 A 
ATOM     48  C   UNL A   1      38.505  28.704  28.317  1.00  0.00     0.009 A 
ATOM     49  C   UNL A   1      36.882  29.271  30.504  1.00  0.00     0.001 A 
ATOM     50  C   UNL A   1      37.302  29.398  28.139  1.00  0.00     0.001 A 
ATOM     51  C   UNL A   1      36.499  29.698  29.235  1.00  0.00     0.000 A 
ENDBRANCH  27  46
BRANCH  39  52
ATOM     52  C   UNL A   1      44.219  27.040  32.645  1.00  0.00    -0.014 A 
ATOM     53  C   UNL A   1      44.413  25.772  32.067  1.00  0.00     0.009 A 
ATOM     54  C   UNL A   1      44.014  27.107  34.031  1.00  0.00     0.009 A 
ATOM     55  C   UNL A   1      44.365  24.608  32.844  1.00  0.00     0.001 A 
ATOM     56  C   UNL A   1      43.987  25.948  34.810  1.00  0.00     0.001 A 
ATOM     57  C   UNL A   1      44.153  24.698  34.217  1.00  0.00     0.000 A 
ENDBRANCH  39  52
ENDBRANCH  13  14
ENDBRANCH   6   8
ENDBRANCH   5   6
ENDBRANCH   4   5
ENDBRANCH   3   4
ENDBRANCH   2   3
ENDBRANCH   1   2
BRANCH   1  58
ATOM     58  C   UNL A   1      41.699  20.822  27.007  1.00  0.00     0.188 C 
BRANCH  58  59
ATOM     59  O   UNL A   1      41.253  22.144  26.751  1.00  0.00    -0.376 OA
BRANCH  59  60
ATOM     60  C   UNL A   1      39.859  22.327  26.534  1.00  0.00     0.202 C 
BRANCH  60  61
ATOM     61  C   UNL A   1      39.322  23.712  26.097  1.00  0.00     0.261 C 
BRANCH  61  62
ATOM     62  O   UNL A   1      38.160  23.719  25.225  1.00  0.00    -0.462 OA
BRANCH  62  63
ATOM     63  C   UNL A   1      36.993  23.280  25.774  1.00  0.00     0.320 C 
ATOM     64  O   UNL A   1      36.640  23.506  26.929  1.00  0.00    -0.251 OA
BRANCH  63  65
ATOM     65  C   UNL A   1      36.090  22.483  24.811  1.00  0.00     0.178 C 
ATOM     66  S   UNL A   1      36.134  20.702  25.204  1.00  0.00    -0.091 SA
ATOM     67  C   UNL A   1      34.803  23.136  24.269  1.00  0.00     0.137 C 
ATOM     68  C   UNL A   1      34.597  20.131  24.813  1.00  0.00     0.091 A 
ATOM     69  C   UNL A   1      33.475  22.321  24.175  1.00  0.00     0.082 C 
ATOM     70  C   UNL A   1      34.499  24.536  24.789  1.00  0.00     0.317 C 
ATOM     71  N   UNL A   1      34.365  18.793  24.918  1.00  0.00    -0.307 N 
ATOM     72  C   UNL A   1      33.556  20.840  24.377  1.00  0.00     0.049 A 
ATOM     73  C   UNL A   1      32.358  23.053  24.922  1.00  0.00     0.007 A 
ATOM     74  O   UNL A   1      33.405  25.064  24.135  1.00  0.00    -0.425 OA
ATOM     75  O   UNL A   1      35.144  25.173  25.605  1.00  0.00    -0.251 OA
ATOM     76  C   UNL A   1      33.139  18.344  24.502  1.00  0.00     0.305 A 
ATOM     77  H   UNL A   1      35.045  18.177  25.277  1.00  0.00     0.171 HD
ATOM     78  S   UNL A   1      32.253  19.746  23.899  1.00  0.00    -0.078 S 
ATOM     79  C   UNL A   1      31.356  22.477  25.710  1.00  0.00     0.024 A 
ATOM     80  C   UNL A   1      32.321  24.447  24.745  1.00  0.00     0.148 A 
ATOM     81  O   UNL A   1      32.715  17.210  24.538  1.00  0.00    -0.257 OA
ATOM     82  C   UNL A   1      30.321  23.267  26.226  1.00  0.00     0.019 A 
ATOM     83  C   UNL A   1      31.261  25.228  25.209  1.00  0.00     0.062 A 
ATOM     84  Br  UNL A   1      29.000  22.463  27.315  1.00  0.00    -0.051 Br
ATOM     85  C   UNL A   1      30.250  24.632  25.953  1.00  0.00     0.035 A 
ATOM     86  Br  UNL A   1      31.183  27.089  24.867  1.00  0.00    -0.047 Br
ENDBRANCH  63  65
ENDBRANCH  62  63
ENDBRANCH  61  62
ENDBRANCH  60  61
ENDBRANCH  59  60
ENDBRANCH  58  59
ENDBRANCH   1  58
TORSDOF 17
ENDMDL
MODEL 2
REMARK VINA RESULT:     -10.6     11.592     17.188
REMARK SMILES O=C(OCCOCCOCCOC(=O)[C@H]1Sc2[nH]c(=O)sc2[C@H]2c3cc(Br)cc(Br)c3OC(=O)[C@H]21)c1ccc(-c2c3nc(c(-c4ccccc4)c4ccc([nH]4)c(-c4ccccc4)c4nc(c(-c5ccccc5)c5ccc2[nH]5)C=C4)C=C3)cc1
REMARK SMILES IDX 7 1 6 2 5 3 4 4 3 5 2 6 1 7 36 8 37 9 83 10 38 11 82 12
REMARK SMILES IDX 39 13 40 14 41 15 76 16 42 17 81 18 75 19 77 20 43 21 80 22
REMARK SMILES IDX 74 23 73 24 44 26 66 27 51 28 65 29 52 30 55 31 64 32 78 33
REMARK SMILES IDX 53 34 54 35 63 37 79 38 56 39 45 40 46 41 50 42 47 43 49 44
REMARK SMILES IDX 48 45 67 46 68 47 72 48 69 49 71 50 70 51 57 52 58 53 62 54
REMARK SMILES IDX 59 55 61 56 60 57 8 58 9 59 10 60 11 61 12 62 13 63 14 64
REMARK SMILES IDX 15 65 16 66 35 67 17 68 23 69 33 70 18 71 22 72 24 73 32 74
REMARK SMILES IDX 34 75 19 76 21 78 25 79 31 80 20 81 26 82 29 83 27 84 28 85
REMARK SMILES IDX 30 86
REMARK H PARENT 77 25 55 36 18 77
REMARK Flexibility Score: inf
ROOT
ATOM      1  C   UNL A   1      41.169  40.305  25.951  1.00  0.00     0.188 C 
ENDROOT
BRANCH   1   2
ATOM      2  O   UNL A   1      41.713  40.178  27.238  1.00  0.00    -0.376 OA
BRANCH   2   3
ATOM      3  C   UNL A   1      42.165  38.949  27.761  1.00  0.00     0.202 C 
BRANCH   3   4
ATOM      4  C   UNL A   1      42.834  37.834  26.941  1.00  0.00     0.261 C 
BRANCH   4   5
ATOM      5  O   UNL A   1      44.131  37.355  27.318  1.00  0.00    -0.460 OA
BRANCH   5   6
ATOM      6  C   UNL A   1      44.567  36.197  27.850  1.00  0.00     0.338 C 
ATOM      7  O   UNL A   1      45.548  35.657  27.339  1.00  0.00    -0.246 OA
BRANCH   6   8
ATOM      8  C   UNL A   1      43.865  35.437  28.928  1.00  0.00     0.060 A 
ATOM      9  C   UNL A   1      43.398  34.128  28.844  1.00  0.00     0.016 A 
ATOM     10  C   UNL A   1      43.568  36.190  30.085  1.00  0.00     0.016 A 
ATOM     11  C   UNL A   1      42.446  33.687  29.758  1.00  0.00     0.010 A 
ATOM     12  C   UNL A   1      42.645  35.742  31.013  1.00  0.00     0.010 A 
ATOM     13  C   UNL A   1      41.992  34.547  30.766  1.00  0.00    -0.014 A 
BRANCH  13  14
ATOM     14  C   UNL A   1      40.798  34.186  31.517  1.00  0.00     0.031 A 
ATOM     15  C   UNL A   1      40.997  34.051  32.977  1.00  0.00     0.074 A 
ATOM     16  C   UNL A   1      39.593  33.989  30.940  1.00  0.00     0.049 A 
ATOM     17  N   UNL A   1      41.081  32.958  33.660  1.00  0.00    -0.248 NA
ATOM     18  C   UNL A   1      41.288  35.264  33.748  1.00  0.00     0.031 C 
ATOM     19  C   UNL A   1      39.153  34.282  29.571  1.00  0.00     0.029 A 
ATOM     20  N   UNL A   1      38.454  33.522  31.519  1.00  0.00    -0.354 N 
ATOM     21  C   UNL A   1      41.260  33.344  34.984  1.00  0.00     0.074 A 
ATOM     22  C   UNL A   1      41.539  34.759  34.957  1.00  0.00     0.031 C 
ATOM     23  C   UNL A   1      37.801  34.203  29.501  1.00  0.00     0.029 A 
ATOM     24  C   UNL A   1      37.300  33.689  30.764  1.00  0.00     0.049 A 
ATOM     25  H   UNL A   1      38.448  33.098  32.407  1.00  0.00     0.167 HD
ATOM     26  C   UNL A   1      40.952  32.513  36.018  1.00  0.00     0.031 A 
ATOM     27  C   UNL A   1      36.029  33.430  31.166  1.00  0.00     0.031 A 
ATOM     28  C   UNL A   1      40.770  31.155  35.573  1.00  0.00     0.049 A 
ATOM     29  C   UNL A   1      36.113  32.473  32.293  1.00  0.00     0.074 A 
ATOM     30  C   UNL A   1      41.588  30.207  34.993  1.00  0.00     0.029 A 
ATOM     31  N   UNL A   1      39.482  30.741  35.329  1.00  0.00    -0.354 N 
ATOM     32  N   UNL A   1      36.521  31.245  32.150  1.00  0.00    -0.248 NA
ATOM     33  C   UNL A   1      36.205  33.010  33.641  1.00  0.00     0.031 C 
ATOM     34  C   UNL A   1      40.767  29.566  34.018  1.00  0.00     0.029 A 
ATOM     35  C   UNL A   1      39.481  30.099  34.115  1.00  0.00     0.049 A 
ATOM     36  H   UNL A   1      38.705  30.879  35.916  1.00  0.00     0.167 HD
ATOM     37  C   UNL A   1      37.331  31.015  33.250  1.00  0.00     0.074 A 
ATOM     38  C   UNL A   1      37.026  32.104  34.179  1.00  0.00     0.031 C 
ATOM     39  C   UNL A   1      38.373  30.133  33.186  1.00  0.00     0.031 A 
BRANCH  26  40
ATOM     40  C   UNL A   1      40.444  32.989  37.353  1.00  0.00    -0.014 A 
ATOM     41  C   UNL A   1      41.312  32.963  38.459  1.00  0.00     0.009 A 
ATOM     42  C   UNL A   1      39.079  33.199  37.624  1.00  0.00     0.009 A 
ATOM     43  C   UNL A   1      40.827  33.076  39.769  1.00  0.00     0.001 A 
ATOM     44  C   UNL A   1      38.596  33.349  38.926  1.00  0.00     0.001 A 
ATOM     45  C   UNL A   1      39.468  33.260  40.002  1.00  0.00     0.000 A 
ENDBRANCH  26  40
BRANCH  27  46
ATOM     46  C   UNL A   1      34.790  34.190  30.890  1.00  0.00    -0.014 A 
ATOM     47  C   UNL A   1      34.350  35.196  31.770  1.00  0.00     0.009 A 
ATOM     48  C   UNL A   1      34.219  34.153  29.605  1.00  0.00     0.009 A 
ATOM     49  C   UNL A   1      33.415  36.158  31.359  1.00  0.00     0.001 A 
ATOM     50  C   UNL A   1      33.287  35.114  29.196  1.00  0.00     0.001 A 
ATOM     51  C   UNL A   1      32.898  36.127  30.066  1.00  0.00     0.000 A 
ENDBRANCH  27  46
BRANCH  39  52
ATOM     52  C   UNL A   1      38.507  29.299  31.931  1.00  0.00    -0.014 A 
ATOM     53  C   UNL A   1      38.939  29.823  30.698  1.00  0.00     0.009 A 
ATOM     54  C   UNL A   1      38.313  27.914  32.026  1.00  0.00     0.009 A 
ATOM     55  C   UNL A   1      39.133  28.991  29.587  1.00  0.00     0.001 A 
ATOM     56  C   UNL A   1      38.528  27.081  30.924  1.00  0.00     0.001 A 
ATOM     57  C   UNL A   1      38.929  27.619  29.703  1.00  0.00     0.000 A 
ENDBRANCH  39  52
ENDBRANCH  13  14
ENDBRANCH   6   8
ENDBRANCH   5   6
ENDBRANCH   4   5
ENDBRANCH   3   4
ENDBRANCH   2   3
ENDBRANCH   1   2
BRANCH   1  58
ATOM     58  C   UNL A   1      41.875  41.331  25.039  1.00  0.00     0.188 C 
BRANCH  58  59
ATOM     59  O   UNL A   1      43.292  41.331  24.981  1.00  0.00    -0.376 OA
BRANCH  59  60
ATOM     60  C   UNL A   1      43.964  42.449  25.550  1.00  0.00     0.202 C 
BRANCH  60  61
ATOM     61  C   UNL A   1      44.723  43.440  24.633  1.00  0.00     0.261 C 
BRANCH  61  62
ATOM     62  O   UNL A   1      44.359  43.441  23.227  1.00  0.00    -0.462 OA
BRANCH  62  63
ATOM     63  C   UNL A   1      45.109  42.648  22.410  1.00  0.00     0.320 C 
ATOM     64  O   UNL A   1      45.981  41.876  22.802  1.00  0.00    -0.251 OA
BRANCH  63  65
ATOM     65  C   UNL A   1      44.759  42.755  20.913  1.00  0.00     0.178 C 
ATOM     66  S   UNL A   1      42.967  42.535  20.647  1.00  0.00    -0.091 SA
ATOM     67  C   UNL A   1      45.575  43.704  20.012  1.00  0.00     0.137 C 
ATOM     68  C   UNL A   1      42.600  43.508  19.322  1.00  0.00     0.091 A 
ATOM     69  C   UNL A   1      44.866  44.599  18.948  1.00  0.00     0.082 C 
ATOM     70  C   UNL A   1      46.657  44.517  20.714  1.00  0.00     0.317 C 
ATOM     71  N   UNL A   1      41.329  43.470  18.832  1.00  0.00    -0.307 N 
ATOM     72  C   UNL A   1      43.426  44.315  18.656  1.00  0.00     0.049 A 
ATOM     73  C   UNL A   1      45.245  46.065  19.160  1.00  0.00     0.007 A 
ATOM     74  O   UNL A   1      47.402  45.222  19.791  1.00  0.00    -0.425 OA
ATOM     75  O   UNL A   1      46.919  44.519  21.905  1.00  0.00    -0.251 OA
ATOM     76  C   UNL A   1      41.083  44.196  17.696  1.00  0.00     0.305 A 
ATOM     77  H   UNL A   1      40.621  42.948  19.273  1.00  0.00     0.171 HD
ATOM     78  S   UNL A   1      42.612  44.937  17.215  1.00  0.00    -0.078 S 
ATOM     79  C   UNL A   1      44.407  47.178  19.032  1.00  0.00     0.024 A 
ATOM     80  C   UNL A   1      46.596  46.305  19.467  1.00  0.00     0.148 A 
ATOM     81  O   UNL A   1      40.028  44.328  17.117  1.00  0.00    -0.257 OA
ATOM     82  C   UNL A   1      44.931  48.472  19.130  1.00  0.00     0.019 A 
ATOM     83  C   UNL A   1      47.133  47.593  19.509  1.00  0.00     0.062 A 
ATOM     84  Br  UNL A   1      43.764  49.955  18.986  1.00  0.00    -0.051 Br
ATOM     85  C   UNL A   1      46.293  48.687  19.335  1.00  0.00     0.035 A 
ATOM     86  Br  UNL A   1      48.977  47.885  19.821  1.00  0.00    -0.047 Br
ENDBRANCH  63  65
ENDBRANCH  62  63
ENDBRANCH  61  62
ENDBRANCH  60  61
ENDBRANCH  59  60
ENDBRANCH  58  59
ENDBRANCH   1  58
TORSDOF 17
ENDMDL
MODEL 3
REMARK VINA RESULT:     -10.1      7.970     12.026
REMARK SMILES O=C(OCCOCCOCCOC(=O)[C@H]1Sc2[nH]c(=O)sc2[C@H]2c3cc(Br)cc(Br)c3OC(=O)[C@H]21)c1ccc(-c2c3nc(c(-c4ccccc4)c4ccc([nH]4)c(-c4ccccc4)c4nc(c(-c5ccccc5)c5ccc2[nH]5)C=C4)C=C3)cc1
REMARK SMILES IDX 7 1 6 2 5 3 4 4 3 5 2 6 1 7 36 8 37 9 83 10 38 11 82 12
REMARK SMILES IDX 39 13 40 14 41 15 76 16 42 17 81 18 75 19 77 20 43 21 80 22
REMARK SMILES IDX 74 23 73 24 44 26 66 27 51 28 65 29 52 30 55 31 64 32 78 33
REMARK SMILES IDX 53 34 54 35 63 37 79 38 56 39 45 40 46 41 50 42 47 43 49 44
REMARK SMILES IDX 48 45 67 46 68 47 72 48 69 49 71 50 70 51 57 52 58 53 62 54
REMARK SMILES IDX 59 55 61 56 60 57 8 58 9 59 10 60 11 61 12 62 13 63 14 64
REMARK SMILES IDX 15 65 16 66 35 67 17 68 23 69 33 70 18 71 22 72 24 73 32 74
REMARK SMILES IDX 34 75 19 76 21 78 25 79 31 80 20 81 26 82 29 83 27 84 28 85
REMARK SMILES IDX 30 86
REMARK H PARENT 77 25 55 36 18 77
REMARK Flexibility Score: inf
ROOT
ATOM      1  C   UNL A   1      34.986  33.458  31.356  1.00  0.00     0.188 C 
ENDROOT
BRANCH   1   2
ATOM      2  O   UNL A   1      35.915  33.352  32.403  1.00  0.00    -0.376 OA
BRANCH   2   3
ATOM      3  C   UNL A   1      37.066  34.163  32.490  1.00  0.00     0.202 C 
BRANCH   3   4
ATOM      4  C   UNL A   1      38.482  33.732  32.075  1.00  0.00     0.261 C 
BRANCH   4   5
ATOM      5  O   UNL A   1      39.262  34.580  31.224  1.00  0.00    -0.460 OA
BRANCH   5   6
ATOM      6  C   UNL A   1      39.488  34.597  29.896  1.00  0.00     0.338 C 
ATOM      7  O   UNL A   1      38.653  34.071  29.160  1.00  0.00    -0.246 OA
BRANCH   6   8
ATOM      8  C   UNL A   1      40.745  35.081  29.251  1.00  0.00     0.060 A 
ATOM      9  C   UNL A   1      41.925  35.431  29.903  1.00  0.00     0.016 A 
ATOM     10  C   UNL A   1      40.652  35.294  27.859  1.00  0.00     0.016 A 
ATOM     11  C   UNL A   1      42.863  36.212  29.236  1.00  0.00     0.010 A 
ATOM     12  C   UNL A   1      41.598  36.045  27.185  1.00  0.00     0.010 A 
ATOM     13  C   UNL A   1      42.629  36.610  27.914  1.00  0.00    -0.014 A 
BRANCH  13  14
ATOM     14  C   UNL A   1      43.458  37.659  27.336  1.00  0.00     0.031 A 
ATOM     15  C   UNL A   1      44.898  37.329  27.232  1.00  0.00     0.074 A 
ATOM     16  C   UNL A   1      42.966  38.845  26.919  1.00  0.00     0.049 A 
ATOM     17  N   UNL A   1      45.856  37.757  27.985  1.00  0.00    -0.248 NA
ATOM     18  C   UNL A   1      45.300  36.290  26.280  1.00  0.00     0.031 C 
ATOM     19  C   UNL A   1      41.572  39.268  26.739  1.00  0.00     0.029 A 
ATOM     20  N   UNL A   1      43.659  39.936  26.494  1.00  0.00    -0.354 N 
ATOM     21  C   UNL A   1      47.021  37.176  27.492  1.00  0.00     0.074 A 
ATOM     22  C   UNL A   1      46.600  36.166  26.552  1.00  0.00     0.031 C 
ATOM     23  C   UNL A   1      41.535  40.424  26.031  1.00  0.00     0.029 A 
ATOM     24  C   UNL A   1      42.894  40.909  25.861  1.00  0.00     0.049 A 
ATOM     25  H   UNL A   1      44.630  40.030  26.625  1.00  0.00     0.167 HD
ATOM     26  C   UNL A   1      48.246  37.718  27.733  1.00  0.00     0.031 A 
ATOM     27  C   UNL A   1      43.360  42.020  25.237  1.00  0.00     0.031 A 
ATOM     28  C   UNL A   1      48.197  38.696  28.790  1.00  0.00     0.049 A 
ATOM     29  C   UNL A   1      44.707  42.298  25.784  1.00  0.00     0.074 A 
ATOM     30  C   UNL A   1      47.898  38.654  30.137  1.00  0.00     0.029 A 
ATOM     31  N   UNL A   1      48.084  40.015  28.421  1.00  0.00    -0.354 N 
ATOM     32  N   UNL A   1      44.908  42.673  27.014  1.00  0.00    -0.248 NA
ATOM     33  C   UNL A   1      45.852  41.700  25.116  1.00  0.00     0.031 C 
ATOM     34  C   UNL A   1      47.144  39.841  30.379  1.00  0.00     0.029 A 
ATOM     35  C   UNL A   1      47.097  40.575  29.193  1.00  0.00     0.049 A 
ATOM     36  H   UNL A   1      48.615  40.474  27.730  1.00  0.00     0.167 HD
ATOM     37  C   UNL A   1      46.024  41.959  27.420  1.00  0.00     0.074 A 
ATOM     38  C   UNL A   1      46.616  41.447  26.183  1.00  0.00     0.031 C 
ATOM     39  C   UNL A   1      46.201  41.611  28.730  1.00  0.00     0.031 A 
BRANCH  26  40
ATOM     40  C   UNL A   1      49.399  37.645  26.768  1.00  0.00    -0.014 A 
ATOM     41  C   UNL A   1      49.169  37.158  25.469  1.00  0.00     0.009 A 
ATOM     42  C   UNL A   1      50.743  37.773  27.167  1.00  0.00     0.009 A 
ATOM     43  C   UNL A   1      50.227  36.760  24.641  1.00  0.00     0.001 A 
ATOM     44  C   UNL A   1      51.802  37.413  26.331  1.00  0.00     0.001 A 
ATOM     45  C   UNL A   1      51.543  36.880  25.077  1.00  0.00     0.000 A 
ENDBRANCH  26  40
BRANCH  27  46
ATOM     46  C   UNL A   1      42.890  42.652  23.983  1.00  0.00    -0.014 A 
ATOM     47  C   UNL A   1      43.571  43.754  23.433  1.00  0.00     0.009 A 
ATOM     48  C   UNL A   1      41.974  41.974  23.160  1.00  0.00     0.009 A 
ATOM     49  C   UNL A   1      43.379  44.126  22.094  1.00  0.00     0.001 A 
ATOM     50  C   UNL A   1      41.784  42.346  21.824  1.00  0.00     0.001 A 
ATOM     51  C   UNL A   1      42.500  43.410  21.285  1.00  0.00     0.000 A 
ENDBRANCH  27  46
BRANCH  39  52
ATOM     52  C   UNL A   1      45.226  42.176  29.740  1.00  0.00    -0.014 A 
ATOM     53  C   UNL A   1      45.410  43.414  30.383  1.00  0.00     0.009 A 
ATOM     54  C   UNL A   1      44.019  41.496  29.955  1.00  0.00     0.009 A 
ATOM     55  C   UNL A   1      44.434  43.935  31.242  1.00  0.00     0.001 A 
ATOM     56  C   UNL A   1      43.035  42.026  30.795  1.00  0.00     0.001 A 
ATOM     57  C   UNL A   1      43.246  43.240  31.445  1.00  0.00     0.000 A 
ENDBRANCH  39  52
ENDBRANCH  13  14
ENDBRANCH   6   8
ENDBRANCH   5   6
ENDBRANCH   4   5
ENDBRANCH   3   4
ENDBRANCH   2   3
ENDBRANCH   1   2
BRANCH   1  58
ATOM     58  C   UNL A   1      35.404  32.773  30.038  1.00  0.00     0.188 C 
BRANCH  58  59
ATOM     59  O   UNL A   1      34.451  31.979  29.349  1.00  0.00    -0.376 OA
BRANCH  59  60
ATOM     60  C   UNL A   1      34.531  31.958  27.928  1.00  0.00     0.202 C 
BRANCH  60  61
ATOM     61  C   UNL A   1      35.052  30.693  27.205  1.00  0.00     0.261 C 
BRANCH  61  62
ATOM     62  O   UNL A   1      34.095  29.961  26.393  1.00  0.00    -0.462 OA
BRANCH  62  63
ATOM     63  C   UNL A   1      33.254  29.124  27.063  1.00  0.00     0.320 C 
ATOM     64  O   UNL A   1      33.529  28.564  28.121  1.00  0.00    -0.251 OA
BRANCH  63  65
ATOM     65  C   UNL A   1      31.870  28.944  26.407  1.00  0.00     0.178 C 
ATOM     66  S   UNL A   1      31.385  30.445  25.491  1.00  0.00    -0.091 SA
ATOM     67  C   UNL A   1      31.447  27.548  25.906  1.00  0.00     0.137 C 
ATOM     68  C   UNL A   1      30.472  29.886  24.191  1.00  0.00     0.091 A 
ATOM     69  C   UNL A   1      30.718  27.380  24.537  1.00  0.00     0.082 C 
ATOM     70  C   UNL A   1      32.488  26.444  26.062  1.00  0.00     0.317 C 
ATOM     71  N   UNL A   1      29.890  30.809  23.373  1.00  0.00    -0.307 N 
ATOM     72  C   UNL A   1      30.217  28.620  23.864  1.00  0.00     0.049 A 
ATOM     73  C   UNL A   1      31.476  26.384  23.658  1.00  0.00     0.007 A 
ATOM     74  O   UNL A   1      31.950  25.225  25.706  1.00  0.00    -0.425 OA
ATOM     75  O   UNL A   1      33.618  26.557  26.506  1.00  0.00    -0.251 OA
ATOM     76  C   UNL A   1      29.075  30.329  22.382  1.00  0.00     0.305 A 
ATOM     77  H   UNL A   1      30.049  31.774  23.488  1.00  0.00     0.171 HD
ATOM     78  S   UNL A   1      29.030  28.573  22.555  1.00  0.00    -0.078 S 
ATOM     79  C   UNL A   1      31.683  26.468  22.277  1.00  0.00     0.024 A 
ATOM     80  C   UNL A   1      31.967  25.243  24.318  1.00  0.00     0.148 A 
ATOM     81  O   UNL A   1      28.490  30.964  21.533  1.00  0.00    -0.257 OA
ATOM     82  C   UNL A   1      32.286  25.410  21.587  1.00  0.00     0.019 A 
ATOM     83  C   UNL A   1      32.517  24.163  23.626  1.00  0.00     0.062 A 
ATOM     84  Br  UNL A   1      32.582  25.569  19.725  1.00  0.00    -0.051 Br
ATOM     85  C   UNL A   1      32.675  24.245  22.247  1.00  0.00     0.035 A 
ATOM     86  Br  UNL A   1      33.076  22.595  24.527  1.00  0.00    -0.047 Br
ENDBRANCH  63  65
ENDBRANCH  62  63
ENDBRANCH  61  62
ENDBRANCH  60  61
ENDBRANCH  59  60
ENDBRANCH  58  59
ENDBRANCH   1  58
TORSDOF 17
ENDMDL
