MODEL 1
REMARK VINA RESULT:     -11.3      0.000      0.000
REMARK SMILES CS(=O)(=O)c1ccc(/C=C(/C(=O)OCCOCCOCCOC(=O)c2ccc(-c3c4nc(c(-c5ccccc5)c5ccc([nH]5)c(-c5ccccc5)c5nc(c(-c6ccccc6)c6ccc3[nH]6)C=C5)C=C4)cc2)c2ccc(-c3ccc(F)cc3F)cc2)cc1
REMARK SMILES IDX 17 1 16 2 15 3 14 4 13 5 11 6 12 7 10 8 9 9 8 10 5 11 6 12
REMARK SMILES IDX 88 13 7 14 87 15 2 16 1 17 3 18 4 19 73 20 74 21 86 22 75 23
REMARK SMILES IDX 85 24 76 25 77 26 78 27 83 28 79 29 82 30 84 31 80 32 81 33
REMARK SMILES IDX 18 34 19 35 20 36 21 37 22 38 23 39 24 40 25 41 26 42 72 43
REMARK SMILES IDX 27 44 71 45 28 46 29 47 30 48 65 49 31 50 70 51 64 52 66 53
REMARK SMILES IDX 32 54 69 55 63 56 62 57 33 59 55 60 40 61 54 62 41 63 44 64
REMARK SMILES IDX 53 65 67 66 42 67 43 68 52 70 68 71 45 72 34 73 35 74 39 75
REMARK SMILES IDX 36 76 38 77 37 78 56 79 57 80 61 81 58 82 60 83 59 84 46 85
REMARK SMILES IDX 47 86 51 87 48 88 50 89 49 90
REMARK H PARENT 66 58 44 69
REMARK Flexibility Score: inf
ROOT
ATOM      1  C   UNL A   1      32.460  28.112  26.115  1.00  0.00     0.188 C 
ENDROOT
BRANCH   1   2
ATOM      2  O   UNL A   1      33.737  28.366  25.585  1.00  0.00    -0.376 OA
BRANCH   2   3
ATOM      3  C   UNL A   1      33.971  28.088  24.216  1.00  0.00     0.202 C 
BRANCH   3   4
ATOM      4  C   UNL A   1      32.963  27.363  23.292  1.00  0.00     0.261 C 
BRANCH   4   5
ATOM      5  O   UNL A   1      32.708  25.967  23.513  1.00  0.00    -0.460 OA
BRANCH   5   6
ATOM      6  C   UNL A   1      33.111  25.100  22.547  1.00  0.00     0.338 C 
ATOM      7  O   UNL A   1      33.353  25.403  21.388  1.00  0.00    -0.246 OA
BRANCH   6   8
ATOM      8  C   UNL A   1      33.367  23.728  23.110  1.00  0.00     0.067 C 
ATOM      9  C   UNL A   1      32.393  22.783  23.071  1.00  0.00     0.024 C 
BRANCH   9  10
ATOM     10  C   UNL A   1      32.485  21.341  23.429  1.00  0.00    -0.025 A 
ATOM     11  C   UNL A   1      33.066  18.614  23.782  1.00  0.00     0.067 A 
ATOM     12  C   UNL A   1      33.308  19.510  24.819  1.00  0.00     0.021 A 
ATOM     13  C   UNL A   1      32.404  19.035  22.629  1.00  0.00     0.021 A 
ATOM     14  C   UNL A   1      32.976  20.858  24.650  1.00  0.00     0.009 A 
ATOM     15  C   UNL A   1      32.121  20.396  22.456  1.00  0.00     0.009 A 
BRANCH  11  16
ATOM     16  S   UNL A   1      33.614  16.930  23.936  1.00  0.00     0.175 S 
ATOM     17  C   UNL A   1      35.121  17.080  24.867  1.00  0.00     0.163 C 
ATOM     18  O   UNL A   1      33.949  16.456  22.607  1.00  0.00    -0.224 OA
ATOM     19  O   UNL A   1      32.647  16.229  24.759  1.00  0.00    -0.224 OA
ENDBRANCH  11  16
ENDBRANCH   9  10
BRANCH   8  20
ATOM     20  C   UNL A   1      34.698  23.479  23.705  1.00  0.00    -0.011 A 
ATOM     21  C   UNL A   1      34.854  23.624  25.089  1.00  0.00     0.009 A 
ATOM     22  C   UNL A   1      35.767  22.976  22.959  1.00  0.00     0.009 A 
ATOM     23  C   UNL A   1      36.034  23.234  25.720  1.00  0.00     0.009 A 
ATOM     24  C   UNL A   1      36.945  22.567  23.602  1.00  0.00     0.009 A 
ATOM     25  C   UNL A   1      37.093  22.676  24.996  1.00  0.00    -0.015 A 
BRANCH  25  26
ATOM     26  C   UNL A   1      38.305  22.226  25.701  1.00  0.00     0.018 A 
ATOM     27  C   UNL A   1      38.763  20.898  25.577  1.00  0.00     0.015 A 
ATOM     28  C   UNL A   1      39.019  23.081  26.556  1.00  0.00     0.133 A 
ATOM     29  C   UNL A   1      39.874  20.449  26.295  1.00  0.00     0.040 A 
ATOM     30  C   UNL A   1      40.128  22.642  27.272  1.00  0.00     0.079 A 
ATOM     31  F   UNL A   1      38.628  24.354  26.719  1.00  0.00    -0.206 F 
ATOM     32  C   UNL A   1      40.541  21.327  27.140  1.00  0.00     0.126 A 
ATOM     33  F   UNL A   1      41.603  20.898  27.834  1.00  0.00    -0.207 F 
ENDBRANCH  25  26
ENDBRANCH   8  20
ENDBRANCH   6   8
ENDBRANCH   5   6
ENDBRANCH   4   5
ENDBRANCH   3   4
ENDBRANCH   2   3
ENDBRANCH   1   2
BRANCH   1  34
ATOM     34  C   UNL A   1      31.947  29.233  27.043  1.00  0.00     0.188 C 
BRANCH  34  35
ATOM     35  O   UNL A   1      32.341  30.578  26.829  1.00  0.00    -0.376 OA
BRANCH  35  36
ATOM     36  C   UNL A   1      31.361  31.546  26.481  1.00  0.00     0.202 C 
BRANCH  36  37
ATOM     37  C   UNL A   1      31.524  33.029  26.873  1.00  0.00     0.261 C 
BRANCH  37  38
ATOM     38  O   UNL A   1      32.864  33.544  26.926  1.00  0.00    -0.460 OA
BRANCH  38  39
ATOM     39  C   UNL A   1      33.245  34.066  28.116  1.00  0.00     0.338 C 
ATOM     40  O   UNL A   1      32.627  34.860  28.811  1.00  0.00    -0.246 OA
BRANCH  39  41
ATOM     41  C   UNL A   1      34.473  33.390  28.581  1.00  0.00     0.060 A 
ATOM     42  C   UNL A   1      34.388  32.050  28.985  1.00  0.00     0.016 A 
ATOM     43  C   UNL A   1      35.687  34.074  28.668  1.00  0.00     0.016 A 
ATOM     44  C   UNL A   1      35.510  31.394  29.488  1.00  0.00     0.010 A 
ATOM     45  C   UNL A   1      36.807  33.422  29.197  1.00  0.00     0.010 A 
ATOM     46  C   UNL A   1      36.720  32.086  29.627  1.00  0.00    -0.014 A 
BRANCH  46  47
ATOM     47  C   UNL A   1      37.837  31.466  30.382  1.00  0.00     0.031 A 
ATOM     48  C   UNL A   1      38.767  30.534  29.657  1.00  0.00     0.074 A 
ATOM     49  C   UNL A   1      38.042  31.739  31.683  1.00  0.00     0.049 A 
ATOM     50  N   UNL A   1      39.786  29.854  30.118  1.00  0.00    -0.248 NA
ATOM     51  C   UNL A   1      38.512  30.343  28.221  1.00  0.00     0.031 C 
ATOM     52  C   UNL A   1      37.245  32.655  32.493  1.00  0.00     0.029 A 
ATOM     53  N   UNL A   1      38.992  31.259  32.551  1.00  0.00    -0.354 N 
ATOM     54  C   UNL A   1      40.288  29.147  29.033  1.00  0.00     0.074 A 
ATOM     55  C   UNL A   1      39.450  29.467  27.896  1.00  0.00     0.031 C 
ATOM     56  C   UNL A   1      37.744  32.679  33.742  1.00  0.00     0.029 A 
ATOM     57  C   UNL A   1      38.857  31.736  33.832  1.00  0.00     0.049 A 
ATOM     58  H   UNL A   1      39.702  30.634  32.281  1.00  0.00     0.167 HD
ATOM     59  C   UNL A   1      41.345  28.303  28.984  1.00  0.00     0.031 A 
ATOM     60  C   UNL A   1      39.530  31.419  34.956  1.00  0.00     0.031 A 
ATOM     61  C   UNL A   1      42.154  27.949  30.119  1.00  0.00     0.049 A 
ATOM     62  C   UNL A   1      40.636  30.394  34.897  1.00  0.00     0.074 A 
ATOM     63  C   UNL A   1      43.248  27.100  30.166  1.00  0.00     0.029 A 
ATOM     64  N   UNL A   1      41.949  28.407  31.411  1.00  0.00    -0.354 N 
ATOM     65  N   UNL A   1      41.115  29.748  33.861  1.00  0.00    -0.248 NA
ATOM     66  C   UNL A   1      41.291  30.054  36.170  1.00  0.00     0.031 C 
ATOM     67  C   UNL A   1      43.660  26.994  31.498  1.00  0.00     0.029 A 
ATOM     68  C   UNL A   1      42.874  27.835  32.267  1.00  0.00     0.049 A 
ATOM     69  H   UNL A   1      41.248  29.045  31.679  1.00  0.00     0.167 HD
ATOM     70  C   UNL A   1      42.147  28.955  34.352  1.00  0.00     0.074 A 
ATOM     71  C   UNL A   1      42.233  29.209  35.774  1.00  0.00     0.031 C 
ATOM     72  C   UNL A   1      42.953  28.094  33.682  1.00  0.00     0.031 A 
BRANCH  59  73
ATOM     73  C   UNL A   1      41.650  27.660  27.659  1.00  0.00    -0.014 A 
ATOM     74  C   UNL A   1      41.197  26.368  27.351  1.00  0.00     0.009 A 
ATOM     75  C   UNL A   1      42.386  28.370  26.697  1.00  0.00     0.009 A 
ATOM     76  C   UNL A   1      41.509  25.786  26.120  1.00  0.00     0.001 A 
ATOM     77  C   UNL A   1      42.668  27.798  25.457  1.00  0.00     0.001 A 
ATOM     78  C   UNL A   1      42.239  26.502  25.172  1.00  0.00     0.000 A 
ENDBRANCH  59  73
BRANCH  60  79
ATOM     79  C   UNL A   1      39.158  32.041  36.255  1.00  0.00    -0.014 A 
ATOM     80  C   UNL A   1      38.117  31.511  37.033  1.00  0.00     0.009 A 
ATOM     81  C   UNL A   1      39.813  33.200  36.702  1.00  0.00     0.009 A 
ATOM     82  C   UNL A   1      37.723  32.144  38.214  1.00  0.00     0.001 A 
ATOM     83  C   UNL A   1      39.440  33.812  37.900  1.00  0.00     0.001 A 
ATOM     84  C   UNL A   1      38.387  33.290  38.650  1.00  0.00     0.000 A 
ENDBRANCH  60  79
BRANCH  72  85
ATOM     85  C   UNL A   1      44.036  27.399  34.465  1.00  0.00    -0.014 A 
ATOM     86  C   UNL A   1      45.308  27.971  34.632  1.00  0.00     0.009 A 
ATOM     87  C   UNL A   1      43.759  26.171  35.087  1.00  0.00     0.009 A 
ATOM     88  C   UNL A   1      46.287  27.308  35.377  1.00  0.00     0.001 A 
ATOM     89  C   UNL A   1      44.729  25.528  35.858  1.00  0.00     0.001 A 
ATOM     90  C   UNL A   1      45.996  26.093  35.994  1.00  0.00     0.000 A 
ENDBRANCH  72  85
ENDBRANCH  46  47
ENDBRANCH  39  41
ENDBRANCH  38  39
ENDBRANCH  37  38
ENDBRANCH  36  37
ENDBRANCH  35  36
ENDBRANCH  34  35
ENDBRANCH   1  34
TORSDOF 21
ENDMDL
MODEL 2
REMARK VINA RESULT:     -11.1      0.857      5.534
REMARK SMILES CS(=O)(=O)c1ccc(/C=C(/C(=O)OCCOCCOCCOC(=O)c2ccc(-c3c4nc(c(-c5ccccc5)c5ccc([nH]5)c(-c5ccccc5)c5nc(c(-c6ccccc6)c6ccc3[nH]6)C=C5)C=C4)cc2)c2ccc(-c3ccc(F)cc3F)cc2)cc1
REMARK SMILES IDX 17 1 16 2 15 3 14 4 13 5 11 6 12 7 10 8 9 9 8 10 5 11 6 12
REMARK SMILES IDX 88 13 7 14 87 15 2 16 1 17 3 18 4 19 73 20 74 21 86 22 75 23
REMARK SMILES IDX 85 24 76 25 77 26 78 27 83 28 79 29 82 30 84 31 80 32 81 33
REMARK SMILES IDX 18 34 19 35 20 36 21 37 22 38 23 39 24 40 25 41 26 42 72 43
REMARK SMILES IDX 27 44 71 45 28 46 29 47 30 48 65 49 31 50 70 51 64 52 66 53
REMARK SMILES IDX 32 54 69 55 63 56 62 57 33 59 55 60 40 61 54 62 41 63 44 64
REMARK SMILES IDX 53 65 67 66 42 67 43 68 52 70 68 71 45 72 34 73 35 74 39 75
REMARK SMILES IDX 36 76 38 77 37 78 56 79 57 80 61 81 58 82 60 83 59 84 46 85
REMARK SMILES IDX 47 86 51 87 48 88 50 89 49 90
REMARK H PARENT 66 58 44 69
REMARK Flexibility Score: inf
ROOT
ATOM      1  C   UNL A   1      32.246  28.092  26.271  1.00  0.00     0.188 C 
ENDROOT
BRANCH   1   2
ATOM      2  O   UNL A   1      33.476  28.277  25.614  1.00  0.00    -0.376 OA
BRANCH   2   3
ATOM      3  C   UNL A   1      33.536  28.060  24.215  1.00  0.00     0.202 C 
BRANCH   3   4
ATOM      4  C   UNL A   1      32.509  27.216  23.422  1.00  0.00     0.261 C 
BRANCH   4   5
ATOM      5  O   UNL A   1      32.263  25.864  23.837  1.00  0.00    -0.460 OA
BRANCH   5   6
ATOM      6  C   UNL A   1      32.224  24.912  22.867  1.00  0.00     0.338 C 
ATOM      7  O   UNL A   1      31.956  25.118  21.693  1.00  0.00    -0.246 OA
BRANCH   6   8
ATOM      8  C   UNL A   1      32.695  23.579  23.384  1.00  0.00     0.067 C 
ATOM      9  C   UNL A   1      31.870  22.501  23.337  1.00  0.00     0.024 C 
BRANCH   9  10
ATOM     10  C   UNL A   1      32.184  21.080  23.650  1.00  0.00    -0.025 A 
ATOM     11  C   UNL A   1      33.218  18.488  23.981  1.00  0.00     0.067 A 
ATOM     12  C   UNL A   1      33.142  19.345  25.075  1.00  0.00     0.021 A 
ATOM     13  C   UNL A   1      32.653  18.854  22.760  1.00  0.00     0.021 A 
ATOM     14  C   UNL A   1      32.586  20.617  24.911  1.00  0.00     0.009 A 
ATOM     15  C   UNL A   1      32.143  20.149  22.599  1.00  0.00     0.009 A 
BRANCH  11  16
ATOM     16  S   UNL A   1      34.049  16.926  24.151  1.00  0.00     0.175 S 
ATOM     17  C   UNL A   1      32.982  16.016  25.243  1.00  0.00     0.163 C 
ATOM     18  O   UNL A   1      35.301  17.169  24.841  1.00  0.00    -0.224 OA
ATOM     19  O   UNL A   1      34.024  16.275  22.855  1.00  0.00    -0.224 OA
ENDBRANCH  11  16
ENDBRANCH   9  10
BRANCH   8  20
ATOM     20  C   UNL A   1      34.062  23.516  23.944  1.00  0.00    -0.011 A 
ATOM     21  C   UNL A   1      34.224  23.584  25.333  1.00  0.00     0.009 A 
ATOM     22  C   UNL A   1      35.182  23.256  23.150  1.00  0.00     0.009 A 
ATOM     23  C   UNL A   1      35.467  23.354  25.919  1.00  0.00     0.009 A 
ATOM     24  C   UNL A   1      36.427  23.006  23.747  1.00  0.00     0.009 A 
ATOM     25  C   UNL A   1      36.588  23.037  25.144  1.00  0.00    -0.015 A 
BRANCH  25  26
ATOM     26  C   UNL A   1      37.873  22.748  25.800  1.00  0.00     0.018 A 
ATOM     27  C   UNL A   1      38.551  23.744  26.534  1.00  0.00     0.015 A 
ATOM     28  C   UNL A   1      38.494  21.493  25.684  1.00  0.00     0.133 A 
ATOM     29  C   UNL A   1      39.802  23.493  27.103  1.00  0.00     0.040 A 
ATOM     30  C   UNL A   1      39.737  21.235  26.251  1.00  0.00     0.079 A 
ATOM     31  F   UNL A   1      37.899  20.508  24.994  1.00  0.00    -0.206 F 
ATOM     32  C   UNL A   1      40.384  22.241  26.950  1.00  0.00     0.126 A 
ATOM     33  F   UNL A   1      41.585  22.000  27.490  1.00  0.00    -0.207 F 
ENDBRANCH  25  26
ENDBRANCH   8  20
ENDBRANCH   6   8
ENDBRANCH   5   6
ENDBRANCH   4   5
ENDBRANCH   3   4
ENDBRANCH   2   3
ENDBRANCH   1   2
BRANCH   1  34
ATOM     34  C   UNL A   1      31.889  29.240  27.239  1.00  0.00     0.188 C 
BRANCH  34  35
ATOM     35  O   UNL A   1      32.312  30.566  26.965  1.00  0.00    -0.376 OA
BRANCH  35  36
ATOM     36  C   UNL A   1      31.355  31.533  26.555  1.00  0.00     0.202 C 
BRANCH  36  37
ATOM     37  C   UNL A   1      31.578  33.038  26.804  1.00  0.00     0.261 C 
BRANCH  37  38
ATOM     38  O   UNL A   1      32.940  33.491  26.872  1.00  0.00    -0.460 OA
BRANCH  38  39
ATOM     39  C   UNL A   1      33.362  33.898  28.093  1.00  0.00     0.338 C 
ATOM     40  O   UNL A   1      32.774  34.631  28.875  1.00  0.00    -0.246 OA
BRANCH  39  41
ATOM     41  C   UNL A   1      34.595  33.171  28.458  1.00  0.00     0.060 A 
ATOM     42  C   UNL A   1      34.492  31.823  28.831  1.00  0.00     0.016 A 
ATOM     43  C   UNL A   1      35.833  33.814  28.483  1.00  0.00     0.016 A 
ATOM     44  C   UNL A   1      35.622  31.118  29.241  1.00  0.00     0.010 A 
ATOM     45  C   UNL A   1      36.963  33.113  28.919  1.00  0.00     0.010 A 
ATOM     46  C   UNL A   1      36.861  31.768  29.318  1.00  0.00    -0.014 A 
BRANCH  46  47
ATOM     47  C   UNL A   1      38.003  31.092  29.980  1.00  0.00     0.031 A 
ATOM     48  C   UNL A   1      38.259  31.367  31.436  1.00  0.00     0.074 A 
ATOM     49  C   UNL A   1      38.791  30.230  29.313  1.00  0.00     0.049 A 
ATOM     50  N   UNL A   1      39.214  30.918  32.210  1.00  0.00    -0.248 NA
ATOM     51  C   UNL A   1      37.309  32.268  32.106  1.00  0.00     0.031 C 
ATOM     52  C   UNL A   1      38.630  29.840  27.915  1.00  0.00     0.029 A 
ATOM     53  N   UNL A   1      39.895  29.528  29.735  1.00  0.00    -0.354 N 
ATOM     54  C   UNL A   1      38.988  31.491  33.455  1.00  0.00     0.074 A 
ATOM     55  C   UNL A   1      37.817  32.333  33.327  1.00  0.00     0.031 C 
ATOM     56  C   UNL A   1      39.596  28.961  27.594  1.00  0.00     0.029 A 
ATOM     57  C   UNL A   1      40.476  28.773  28.745  1.00  0.00     0.049 A 
ATOM     58  H   UNL A   1      40.236  29.563  30.656  1.00  0.00     0.167 HD
ATOM     59  C   UNL A   1      39.692  31.338  34.601  1.00  0.00     0.031 A 
ATOM     60  C   UNL A   1      41.610  28.043  28.759  1.00  0.00     0.031 A 
ATOM     61  C   UNL A   1      40.881  30.536  34.723  1.00  0.00     0.049 A 
ATOM     62  C   UNL A   1      42.436  27.973  30.019  1.00  0.00     0.074 A 
ATOM     63  C   UNL A   1      41.662  30.321  35.845  1.00  0.00     0.029 A 
ATOM     64  N   UNL A   1      41.470  29.834  33.684  1.00  0.00    -0.354 N 
ATOM     65  N   UNL A   1      42.201  28.502  31.196  1.00  0.00    -0.248 NA
ATOM     66  C   UNL A   1      43.690  27.206  29.947  1.00  0.00     0.031 C 
ATOM     67  C   UNL A   1      42.762  29.544  35.468  1.00  0.00     0.029 A 
ATOM     68  C   UNL A   1      42.623  29.211  34.130  1.00  0.00     0.049 A 
ATOM     69  H   UNL A   1      41.121  29.786  32.765  1.00  0.00     0.167 HD
ATOM     70  C   UNL A   1      43.256  28.103  32.009  1.00  0.00     0.074 A 
ATOM     71  C   UNL A   1      44.125  27.278  31.197  1.00  0.00     0.031 C 
ATOM     72  C   UNL A   1      43.483  28.391  33.315  1.00  0.00     0.031 A 
BRANCH  59  73
ATOM     73  C   UNL A   1      39.219  32.103  35.806  1.00  0.00    -0.014 A 
ATOM     74  C   UNL A   1      39.669  33.405  36.070  1.00  0.00     0.009 A 
ATOM     75  C   UNL A   1      38.288  31.516  36.679  1.00  0.00     0.009 A 
ATOM     76  C   UNL A   1      39.228  34.088  37.206  1.00  0.00     0.001 A 
ATOM     77  C   UNL A   1      37.825  32.213  37.794  1.00  0.00     0.001 A 
ATOM     78  C   UNL A   1      38.303  33.494  38.064  1.00  0.00     0.000 A 
ENDBRANCH  59  73
BRANCH  60  79
ATOM     79  C   UNL A   1      42.068  27.346  27.527  1.00  0.00    -0.014 A 
ATOM     80  C   UNL A   1      42.153  25.945  27.485  1.00  0.00     0.009 A 
ATOM     81  C   UNL A   1      42.468  28.081  26.400  1.00  0.00     0.009 A 
ATOM     82  C   UNL A   1      42.655  25.300  26.351  1.00  0.00     0.001 A 
ATOM     83  C   UNL A   1      42.937  27.433  25.256  1.00  0.00     0.001 A 
ATOM     84  C   UNL A   1      43.042  26.043  25.236  1.00  0.00     0.000 A 
ENDBRANCH  60  79
BRANCH  72  85
ATOM     85  C   UNL A   1      44.690  27.772  33.967  1.00  0.00    -0.014 A 
ATOM     86  C   UNL A   1      45.932  28.429  33.996  1.00  0.00     0.009 A 
ATOM     87  C   UNL A   1      44.569  26.529  34.608  1.00  0.00     0.009 A 
ATOM     88  C   UNL A   1      47.030  27.835  34.623  1.00  0.00     0.001 A 
ATOM     89  C   UNL A   1      45.660  25.954  35.262  1.00  0.00     0.001 A 
ATOM     90  C   UNL A   1      46.893  26.603  35.260  1.00  0.00     0.000 A 
ENDBRANCH  72  85
ENDBRANCH  46  47
ENDBRANCH  39  41
ENDBRANCH  38  39
ENDBRANCH  37  38
ENDBRANCH  36  37
ENDBRANCH  35  36
ENDBRANCH  34  35
ENDBRANCH   1  34
TORSDOF 21
ENDMDL
MODEL 3
REMARK VINA RESULT:     -10.9      3.525      8.339
REMARK SMILES CS(=O)(=O)c1ccc(/C=C(/C(=O)OCCOCCOCCOC(=O)c2ccc(-c3c4nc(c(-c5ccccc5)c5ccc([nH]5)c(-c5ccccc5)c5nc(c(-c6ccccc6)c6ccc3[nH]6)C=C5)C=C4)cc2)c2ccc(-c3ccc(F)cc3F)cc2)cc1
REMARK SMILES IDX 17 1 16 2 15 3 14 4 13 5 11 6 12 7 10 8 9 9 8 10 5 11 6 12
REMARK SMILES IDX 88 13 7 14 87 15 2 16 1 17 3 18 4 19 73 20 74 21 86 22 75 23
REMARK SMILES IDX 85 24 76 25 77 26 78 27 83 28 79 29 82 30 84 31 80 32 81 33
REMARK SMILES IDX 18 34 19 35 20 36 21 37 22 38 23 39 24 40 25 41 26 42 72 43
REMARK SMILES IDX 27 44 71 45 28 46 29 47 30 48 65 49 31 50 70 51 64 52 66 53
REMARK SMILES IDX 32 54 69 55 63 56 62 57 33 59 55 60 40 61 54 62 41 63 44 64
REMARK SMILES IDX 53 65 67 66 42 67 43 68 52 70 68 71 45 72 34 73 35 74 39 75
REMARK SMILES IDX 36 76 38 77 37 78 56 79 57 80 61 81 58 82 60 83 59 84 46 85
REMARK SMILES IDX 47 86 51 87 48 88 50 89 49 90
REMARK H PARENT 66 58 44 69
REMARK Flexibility Score: inf
ROOT
ATOM      1  C   UNL A   1      35.614  21.652  25.718  1.00  0.00     0.188 C 
ENDROOT
BRANCH   1   2
ATOM      2  O   UNL A   1      34.577  21.836  24.786  1.00  0.00    -0.376 OA
BRANCH   2   3
ATOM      3  C   UNL A   1      33.445  20.987  24.854  1.00  0.00     0.202 C 
BRANCH   3   4
ATOM      4  C   UNL A   1      32.106  21.376  25.524  1.00  0.00     0.261 C 
BRANCH   4   5
ATOM      5  O   UNL A   1      31.440  22.571  25.089  1.00  0.00    -0.460 OA
BRANCH   5   6
ATOM      6  C   UNL A   1      31.169  23.512  26.031  1.00  0.00     0.338 C 
ATOM      7  O   UNL A   1      31.166  23.316  27.238  1.00  0.00    -0.246 OA
BRANCH   6   8
ATOM      8  C   UNL A   1      31.011  24.877  25.418  1.00  0.00     0.067 C 
ATOM      9  C   UNL A   1      30.192  25.053  24.350  1.00  0.00     0.024 C 
BRANCH   9  10
ATOM     10  C   UNL A   1      29.782  26.326  23.696  1.00  0.00    -0.025 A 
ATOM     11  C   UNL A   1      28.992  28.916  22.944  1.00  0.00     0.067 A 
ATOM     12  C   UNL A   1      30.282  28.479  22.659  1.00  0.00     0.021 A 
ATOM     13  C   UNL A   1      28.048  28.032  23.466  1.00  0.00     0.021 A 
ATOM     14  C   UNL A   1      30.653  27.174  22.997  1.00  0.00     0.009 A 
ATOM     15  C   UNL A   1      28.449  26.743  23.843  1.00  0.00     0.009 A 
BRANCH  11  16
ATOM     16  S   UNL A   1      28.559  30.614  22.646  1.00  0.00     0.175 S 
ATOM     17  C   UNL A   1      29.315  31.470  24.008  1.00  0.00     0.163 C 
ATOM     18  O   UNL A   1      27.119  30.729  22.785  1.00  0.00    -0.224 OA
ATOM     19  O   UNL A   1      29.229  31.029  21.428  1.00  0.00    -0.224 OA
ENDBRANCH  11  16
ENDBRANCH   9  10
BRANCH   8  20
ATOM     20  C   UNL A   1      31.788  25.982  26.019  1.00  0.00    -0.011 A 
ATOM     21  C   UNL A   1      33.088  26.220  25.557  1.00  0.00     0.009 A 
ATOM     22  C   UNL A   1      31.227  26.879  26.933  1.00  0.00     0.009 A 
ATOM     23  C   UNL A   1      33.795  27.351  25.962  1.00  0.00     0.009 A 
ATOM     24  C   UNL A   1      31.936  28.026  27.322  1.00  0.00     0.009 A 
ATOM     25  C   UNL A   1      33.227  28.288  26.832  1.00  0.00    -0.015 A 
BRANCH  25  26
ATOM     26  C   UNL A   1      33.983  29.498  27.198  1.00  0.00     0.018 A 
ATOM     27  C   UNL A   1      35.337  29.416  27.585  1.00  0.00     0.015 A 
ATOM     28  C   UNL A   1      33.378  30.765  27.221  1.00  0.00     0.133 A 
ATOM     29  C   UNL A   1      36.038  30.552  27.995  1.00  0.00     0.040 A 
ATOM     30  C   UNL A   1      34.071  31.901  27.625  1.00  0.00     0.079 A 
ATOM     31  F   UNL A   1      32.090  30.905  26.867  1.00  0.00    -0.206 F 
ATOM     32  C   UNL A   1      35.394  31.783  28.016  1.00  0.00     0.126 A 
ATOM     33  F   UNL A   1      36.062  32.872  28.413  1.00  0.00    -0.207 F 
ENDBRANCH  25  26
ENDBRANCH   8  20
ENDBRANCH   6   8
ENDBRANCH   5   6
ENDBRANCH   4   5
ENDBRANCH   3   4
ENDBRANCH   2   3
ENDBRANCH   1   2
BRANCH   1  34
ATOM     34  C   UNL A   1      36.928  21.149  25.083  1.00  0.00     0.188 C 
BRANCH  34  35
ATOM     35  O   UNL A   1      38.176  21.672  25.508  1.00  0.00    -0.376 OA
BRANCH  35  36
ATOM     36  C   UNL A   1      38.212  22.907  26.209  1.00  0.00     0.202 C 
BRANCH  36  37
ATOM     37  C   UNL A   1      39.453  23.821  26.159  1.00  0.00     0.261 C 
BRANCH  37  38
ATOM     38  O   UNL A   1      39.357  25.085  26.834  1.00  0.00    -0.460 OA
BRANCH  38  39
ATOM     39  C   UNL A   1      40.530  25.728  27.047  1.00  0.00     0.338 C 
ATOM     40  O   UNL A   1      41.552  25.648  26.380  1.00  0.00    -0.246 OA
BRANCH  39  41
ATOM     41  C   UNL A   1      40.360  26.723  28.125  1.00  0.00     0.060 A 
ATOM     42  C   UNL A   1      41.258  27.797  28.193  1.00  0.00     0.016 A 
ATOM     43  C   UNL A   1      39.362  26.579  29.090  1.00  0.00     0.016 A 
ATOM     44  C   UNL A   1      41.170  28.724  29.231  1.00  0.00     0.010 A 
ATOM     45  C   UNL A   1      39.290  27.496  30.146  1.00  0.00     0.010 A 
ATOM     46  C   UNL A   1      40.204  28.561  30.232  1.00  0.00    -0.014 A 
BRANCH  46  47
ATOM     47  C   UNL A   1      40.267  29.399  31.455  1.00  0.00     0.031 A 
ATOM     48  C   UNL A   1      41.412  29.201  32.407  1.00  0.00     0.074 A 
ATOM     49  C   UNL A   1      39.338  30.338  31.710  1.00  0.00     0.049 A 
ATOM     50  N   UNL A   1      41.654  29.792  33.550  1.00  0.00    -0.248 NA
ATOM     51  C   UNL A   1      42.419  28.201  32.019  1.00  0.00     0.031 C 
ATOM     52  C   UNL A   1      38.203  30.665  30.852  1.00  0.00     0.029 A 
ATOM     53  N   UNL A   1      39.209  31.191  32.780  1.00  0.00    -0.354 N 
ATOM     54  C   UNL A   1      42.833  29.230  34.022  1.00  0.00     0.074 A 
ATOM     55  C   UNL A   1      43.247  28.238  33.051  1.00  0.00     0.031 C 
ATOM     56  C   UNL A   1      37.494  31.654  31.424  1.00  0.00     0.029 A 
ATOM     57  C   UNL A   1      38.093  31.988  32.715  1.00  0.00     0.049 A 
ATOM     58  H   UNL A   1      39.855  31.227  33.521  1.00  0.00     0.167 HD
ATOM     59  C   UNL A   1      43.509  29.506  35.162  1.00  0.00     0.031 A 
ATOM     60  C   UNL A   1      37.592  32.861  33.613  1.00  0.00     0.031 A 
ATOM     61  C   UNL A   1      43.080  30.460  36.149  1.00  0.00     0.049 A 
ATOM     62  C   UNL A   1      38.307  33.073  34.924  1.00  0.00     0.074 A 
ATOM     63  C   UNL A   1      43.701  30.807  37.337  1.00  0.00     0.029 A 
ATOM     64  N   UNL A   1      41.914  31.205  36.075  1.00  0.00    -0.354 N 
ATOM     65  N   UNL A   1      39.432  32.551  35.350  1.00  0.00    -0.248 NA
ATOM     66  C   UNL A   1      37.675  33.997  35.880  1.00  0.00     0.031 C 
ATOM     67  C   UNL A   1      42.875  31.711  38.013  1.00  0.00     0.029 A 
ATOM     68  C   UNL A   1      41.780  31.986  37.210  1.00  0.00     0.049 A 
ATOM     69  H   UNL A   1      41.275  31.181  35.326  1.00  0.00     0.167 HD
ATOM     70  C   UNL A   1      39.659  33.108  36.604  1.00  0.00     0.074 A 
ATOM     71  C   UNL A   1      38.563  34.017  36.865  1.00  0.00     0.031 C 
ATOM     72  C   UNL A   1      40.686  32.888  37.462  1.00  0.00     0.031 A 
BRANCH  59  73
ATOM     73  C   UNL A   1      44.763  28.719  35.424  1.00  0.00    -0.014 A 
ATOM     74  C   UNL A   1      44.731  27.501  36.119  1.00  0.00     0.009 A 
ATOM     75  C   UNL A   1      45.995  29.197  34.948  1.00  0.00     0.009 A 
ATOM     76  C   UNL A   1      45.913  26.797  36.366  1.00  0.00     0.001 A 
ATOM     77  C   UNL A   1      47.168  28.476  35.168  1.00  0.00     0.001 A 
ATOM     78  C   UNL A   1      47.128  27.282  35.886  1.00  0.00     0.000 A 
ENDBRANCH  59  73
BRANCH  60  79
ATOM     79  C   UNL A   1      36.319  33.578  33.332  1.00  0.00    -0.014 A 
ATOM     80  C   UNL A   1      36.326  34.922  32.929  1.00  0.00     0.009 A 
ATOM     81  C   UNL A   1      35.085  32.933  33.513  1.00  0.00     0.009 A 
ATOM     82  C   UNL A   1      35.126  35.611  32.740  1.00  0.00     0.001 A 
ATOM     83  C   UNL A   1      33.887  33.615  33.291  1.00  0.00     0.001 A 
ATOM     84  C   UNL A   1      33.907  34.957  32.916  1.00  0.00     0.000 A 
ENDBRANCH  60  79
BRANCH  72  85
ATOM     85  C   UNL A   1      40.707  33.679  38.744  1.00  0.00    -0.014 A 
ATOM     86  C   UNL A   1      41.312  34.944  38.821  1.00  0.00     0.009 A 
ATOM     87  C   UNL A   1      40.064  33.166  39.882  1.00  0.00     0.009 A 
ATOM     88  C   UNL A   1      41.301  35.660  40.021  1.00  0.00     0.001 A 
ATOM     89  C   UNL A   1      40.026  33.899  41.070  1.00  0.00     0.001 A 
ATOM     90  C   UNL A   1      40.654  35.141  41.141  1.00  0.00     0.000 A 
ENDBRANCH  72  85
ENDBRANCH  46  47
ENDBRANCH  39  41
ENDBRANCH  38  39
ENDBRANCH  37  38
ENDBRANCH  36  37
ENDBRANCH  35  36
ENDBRANCH  34  35
ENDBRANCH   1  34
TORSDOF 21
ENDMDL
