MODEL 1
REMARK VINA RESULT:     -10.1      0.000      0.000
REMARK SMILES NS(=O)(=O)c1ccc(-n2nc(C(=O)OCCOCCOCCOC(=O)c3ccc(-c4c5nc(c(-c6ccccc6)c6ccc([nH]6)c(-c6ccccc6)c6nc(c(-c7ccccc7)c7ccc4[nH]7)C=C6)C=C5)cc3)cc2-c2cc3ccccc3s2)cc1
REMARK SMILES IDX 18 1 17 2 16 3 15 4 14 5 12 6 13 7 11 8 9 9 10 10 75 11
REMARK SMILES IDX 74 12 8 13 5 14 6 15 86 16 7 17 85 18 2 19 3 20 4 21 1 22
REMARK SMILES IDX 76 25 77 26 84 27 78 28 83 29 79 30 82 31 80 32 81 33 19 34
REMARK SMILES IDX 20 35 21 36 22 37 23 38 24 39 25 40 26 41 27 42 73 43 28 44
REMARK SMILES IDX 72 45 29 46 30 47 31 48 66 49 32 50 71 51 65 52 67 53 33 54
REMARK SMILES IDX 70 55 64 56 63 57 34 59 56 60 41 61 55 62 42 63 45 64 54 65
REMARK SMILES IDX 68 66 43 67 44 68 53 70 69 71 46 72 35 73 36 74 40 75 37 76
REMARK SMILES IDX 39 77 38 78 57 79 58 80 62 81 59 82 61 83 60 84 47 85 48 86
REMARK SMILES IDX 52 87 49 88 51 89 50 90
REMARK H PARENT 1 23 1 24 67 58 45 69
REMARK Flexibility Score: inf
ROOT
ATOM      1  C   UNL A   1      42.782  22.823  26.938  1.00  0.00     0.188 C 
ENDROOT
BRANCH   1   2
ATOM      2  O   UNL A   1      42.512  21.693  27.743  1.00  0.00    -0.376 OA
BRANCH   2   3
ATOM      3  C   UNL A   1      41.583  20.696  27.343  1.00  0.00     0.202 C 
BRANCH   3   4
ATOM      4  C   UNL A   1      40.644  20.810  26.124  1.00  0.00     0.261 C 
BRANCH   4   5
ATOM      5  O   UNL A   1      39.281  21.124  26.399  1.00  0.00    -0.458 OA
BRANCH   5   6
ATOM      6  C   UNL A   1      38.905  22.428  26.235  1.00  0.00     0.358 C 
ATOM      7  O   UNL A   1      39.641  23.387  26.429  1.00  0.00    -0.244 OA
BRANCH   6   8
ATOM      8  C   UNL A   1      37.526  22.523  25.737  1.00  0.00     0.171 A 
ATOM      9  N   UNL A   1      35.647  23.363  25.161  1.00  0.00    -0.231 N 
ATOM     10  N   UNL A   1      36.983  23.628  25.196  1.00  0.00    -0.160 NA
ATOM     11  C   UNL A   1      35.368  22.111  25.657  1.00  0.00     0.085 A 
ATOM     12  C   UNL A   1      36.592  21.470  25.702  1.00  0.00     0.068 A 
BRANCH   9  13
ATOM     13  C   UNL A   1      34.763  24.361  24.714  1.00  0.00     0.065 A 
ATOM     14  C   UNL A   1      33.117  26.380  23.776  1.00  0.00     0.082 A 
ATOM     15  C   UNL A   1      33.484  26.353  25.128  1.00  0.00     0.024 A 
ATOM     16  C   UNL A   1      33.565  25.397  22.888  1.00  0.00     0.024 A 
ATOM     17  C   UNL A   1      34.291  25.323  25.606  1.00  0.00     0.030 A 
ATOM     18  C   UNL A   1      34.422  24.399  23.353  1.00  0.00     0.030 A 
BRANCH  14  19
ATOM     19  S   UNL A   1      32.059  27.664  23.182  1.00  0.00     0.238 S 
ATOM     20  O   UNL A   1      31.569  28.427  24.312  1.00  0.00    -0.207 OA
ATOM     21  O   UNL A   1      31.195  27.118  22.171  1.00  0.00    -0.207 OA
BRANCH  19  22
ATOM     22  N   UNL A   1      33.119  28.702  22.388  1.00  0.00    -0.225 NA
ATOM     23  H   UNL A   1      32.598  29.283  21.731  1.00  0.00     0.137 HD
ATOM     24  H   UNL A   1      33.814  28.156  21.881  1.00  0.00     0.137 HD
ENDBRANCH  19  22
ENDBRANCH  14  19
ENDBRANCH   9  13
BRANCH  11  25
ATOM     25  C   UNL A   1      34.168  21.580  26.257  1.00  0.00     0.054 A 
ATOM     26  C   UNL A   1      33.028  22.296  26.621  1.00  0.00     0.031 A 
ATOM     27  S   UNL A   1      33.510  20.182  25.413  1.00  0.00    -0.134 S 
ATOM     28  C   UNL A   1      32.181  22.352  25.432  1.00  0.00    -0.007 A 
ATOM     29  C   UNL A   1      32.528  21.326  24.540  1.00  0.00     0.035 A 
ATOM     30  C   UNL A   1      31.260  23.327  24.995  1.00  0.00     0.009 A 
ATOM     31  C   UNL A   1      32.154  21.341  23.189  1.00  0.00     0.019 A 
ATOM     32  C   UNL A   1      30.896  23.363  23.643  1.00  0.00     0.001 A 
ATOM     33  C   UNL A   1      31.380  22.414  22.745  1.00  0.00     0.001 A 
ENDBRANCH  11  25
ENDBRANCH   6   8
ENDBRANCH   5   6
ENDBRANCH   4   5
ENDBRANCH   3   4
ENDBRANCH   2   3
ENDBRANCH   1   2
BRANCH   1  34
ATOM     34  C   UNL A   1      43.927  22.790  25.905  1.00  0.00     0.188 C 
BRANCH  34  35
ATOM     35  O   UNL A   1      45.143  23.408  26.263  1.00  0.00    -0.376 OA
BRANCH  35  36
ATOM     36  C   UNL A   1      45.264  24.796  26.531  1.00  0.00     0.202 C 
BRANCH  36  37
ATOM     37  C   UNL A   1      44.497  25.916  25.827  1.00  0.00     0.261 C 
BRANCH  37  38
ATOM     38  O   UNL A   1      43.345  26.377  26.488  1.00  0.00    -0.460 OA
BRANCH  38  39
ATOM     39  C   UNL A   1      42.222  26.294  25.751  1.00  0.00     0.338 C 
ATOM     40  O   UNL A   1      42.019  25.597  24.773  1.00  0.00    -0.246 OA
BRANCH  39  41
ATOM     41  C   UNL A   1      41.242  27.211  26.333  1.00  0.00     0.060 A 
ATOM     42  C   UNL A   1      41.556  28.571  26.294  1.00  0.00     0.016 A 
ATOM     43  C   UNL A   1      40.333  26.659  27.237  1.00  0.00     0.016 A 
ATOM     44  C   UNL A   1      41.231  29.320  27.396  1.00  0.00     0.010 A 
ATOM     45  C   UNL A   1      40.053  27.389  28.353  1.00  0.00     0.010 A 
ATOM     46  C   UNL A   1      40.618  28.659  28.461  1.00  0.00    -0.014 A 
BRANCH  46  47
ATOM     47  C   UNL A   1      40.564  29.309  29.746  1.00  0.00     0.031 A 
ATOM     48  C   UNL A   1      39.400  30.205  29.855  1.00  0.00     0.074 A 
ATOM     49  C   UNL A   1      41.410  28.958  30.733  1.00  0.00     0.049 A 
ATOM     50  N   UNL A   1      39.400  31.495  29.809  1.00  0.00    -0.248 NA
ATOM     51  C   UNL A   1      38.062  29.594  29.743  1.00  0.00     0.031 C 
ATOM     52  C   UNL A   1      42.384  27.859  30.757  1.00  0.00     0.029 A 
ATOM     53  N   UNL A   1      41.484  29.443  31.995  1.00  0.00    -0.354 N 
ATOM     54  C   UNL A   1      38.060  31.846  29.904  1.00  0.00     0.074 A 
ATOM     55  C   UNL A   1      37.311  30.675  29.545  1.00  0.00     0.031 C 
ATOM     56  C   UNL A   1      42.740  27.611  32.040  1.00  0.00     0.029 A 
ATOM     57  C   UNL A   1      42.113  28.600  32.901  1.00  0.00     0.049 A 
ATOM     58  H   UNL A   1      41.122  30.323  32.249  1.00  0.00     0.167 HD
ATOM     59  C   UNL A   1      37.671  32.917  30.648  1.00  0.00     0.031 A 
ATOM     60  C   UNL A   1      42.024  28.677  34.256  1.00  0.00     0.031 A 
ATOM     61  C   UNL A   1      38.788  33.782  30.943  1.00  0.00     0.049 A 
ATOM     62  C   UNL A   1      41.485  30.021  34.588  1.00  0.00     0.074 A 
ATOM     63  C   UNL A   1      39.703  34.485  30.187  1.00  0.00     0.029 A 
ATOM     64  N   UNL A   1      39.331  33.675  32.203  1.00  0.00    -0.354 N 
ATOM     65  N   UNL A   1      42.146  31.126  34.391  1.00  0.00    -0.248 NA
ATOM     66  C   UNL A   1      40.037  30.168  34.661  1.00  0.00     0.031 C 
ATOM     67  C   UNL A   1      40.935  34.371  30.897  1.00  0.00     0.029 A 
ATOM     68  C   UNL A   1      40.695  33.674  32.082  1.00  0.00     0.049 A 
ATOM     69  H   UNL A   1      38.826  33.609  33.046  1.00  0.00     0.167 HD
ATOM     70  C   UNL A   1      41.210  32.010  33.870  1.00  0.00     0.074 A 
ATOM     71  C   UNL A   1      39.911  31.393  34.143  1.00  0.00     0.031 C 
ATOM     72  C   UNL A   1      41.583  32.995  32.999  1.00  0.00     0.031 A 
BRANCH  59  73
ATOM     73  C   UNL A   1      36.427  32.899  31.511  1.00  0.00    -0.014 A 
ATOM     74  C   UNL A   1      35.223  33.339  30.937  1.00  0.00     0.009 A 
ATOM     75  C   UNL A   1      36.434  32.751  32.914  1.00  0.00     0.009 A 
ATOM     76  C   UNL A   1      34.132  33.708  31.731  1.00  0.00     0.001 A 
ATOM     77  C   UNL A   1      35.334  33.078  33.706  1.00  0.00     0.001 A 
ATOM     78  C   UNL A   1      34.192  33.590  33.116  1.00  0.00     0.000 A 
ENDBRANCH  59  73
BRANCH  60  79
ATOM     79  C   UNL A   1      42.036  27.575  35.249  1.00  0.00    -0.014 A 
ATOM     80  C   UNL A   1      41.151  26.490  35.135  1.00  0.00     0.009 A 
ATOM     81  C   UNL A   1      43.103  27.449  36.159  1.00  0.00     0.009 A 
ATOM     82  C   UNL A   1      41.347  25.314  35.876  1.00  0.00     0.001 A 
ATOM     83  C   UNL A   1      43.297  26.277  36.901  1.00  0.00     0.001 A 
ATOM     84  C   UNL A   1      42.427  25.203  36.749  1.00  0.00     0.000 A 
ENDBRANCH  60  79
BRANCH  72  85
ATOM     85  C   UNL A   1      43.059  33.239  32.799  1.00  0.00    -0.014 A 
ATOM     86  C   UNL A   1      43.802  34.165  33.554  1.00  0.00     0.009 A 
ATOM     87  C   UNL A   1      43.750  32.384  31.929  1.00  0.00     0.009 A 
ATOM     88  C   UNL A   1      45.193  34.245  33.420  1.00  0.00     0.001 A 
ATOM     89  C   UNL A   1      45.138  32.450  31.810  1.00  0.00     0.001 A 
ATOM     90  C   UNL A   1      45.860  33.383  32.552  1.00  0.00     0.000 A 
ENDBRANCH  72  85
ENDBRANCH  46  47
ENDBRANCH  39  41
ENDBRANCH  38  39
ENDBRANCH  37  38
ENDBRANCH  36  37
ENDBRANCH  35  36
ENDBRANCH  34  35
ENDBRANCH   1  34
TORSDOF 21
ENDMDL
MODEL 2
REMARK VINA RESULT:      -9.8      3.382      7.233
REMARK SMILES NS(=O)(=O)c1ccc(-n2nc(C(=O)OCCOCCOCCOC(=O)c3ccc(-c4c5nc(c(-c6ccccc6)c6ccc([nH]6)c(-c6ccccc6)c6nc(c(-c7ccccc7)c7ccc4[nH]7)C=C6)C=C5)cc3)cc2-c2cc3ccccc3s2)cc1
REMARK SMILES IDX 18 1 17 2 16 3 15 4 14 5 12 6 13 7 11 8 9 9 10 10 75 11
REMARK SMILES IDX 74 12 8 13 5 14 6 15 86 16 7 17 85 18 2 19 3 20 4 21 1 22
REMARK SMILES IDX 76 25 77 26 84 27 78 28 83 29 79 30 82 31 80 32 81 33 19 34
REMARK SMILES IDX 20 35 21 36 22 37 23 38 24 39 25 40 26 41 27 42 73 43 28 44
REMARK SMILES IDX 72 45 29 46 30 47 31 48 66 49 32 50 71 51 65 52 67 53 33 54
REMARK SMILES IDX 70 55 64 56 63 57 34 59 56 60 41 61 55 62 42 63 45 64 54 65
REMARK SMILES IDX 68 66 43 67 44 68 53 70 69 71 46 72 35 73 36 74 40 75 37 76
REMARK SMILES IDX 39 77 38 78 57 79 58 80 62 81 59 82 61 83 60 84 47 85 48 86
REMARK SMILES IDX 52 87 49 88 51 89 50 90
REMARK H PARENT 1 23 1 24 67 58 45 69
REMARK Flexibility Score: inf
ROOT
ATOM      1  C   UNL A   1      37.403  19.482  24.927  1.00  0.00     0.188 C 
ENDROOT
BRANCH   1   2
ATOM      2  O   UNL A   1      36.910  20.789  25.144  1.00  0.00    -0.376 OA
BRANCH   2   3
ATOM      3  C   UNL A   1      35.557  21.027  25.503  1.00  0.00     0.202 C 
BRANCH   3   4
ATOM      4  C   UNL A   1      34.342  20.701  24.610  1.00  0.00     0.261 C 
BRANCH   4   5
ATOM      5  O   UNL A   1      34.086  21.598  23.533  1.00  0.00    -0.458 OA
BRANCH   5   6
ATOM      6  C   UNL A   1      32.786  21.975  23.343  1.00  0.00     0.358 C 
ATOM      7  O   UNL A   1      31.910  21.235  22.912  1.00  0.00    -0.244 OA
BRANCH   6   8
ATOM      8  C   UNL A   1      32.566  23.360  23.779  1.00  0.00     0.171 A 
ATOM      9  N   UNL A   1      31.856  25.376  23.799  1.00  0.00    -0.231 N 
ATOM     10  N   UNL A   1      31.504  24.111  23.435  1.00  0.00    -0.160 NA
ATOM     11  C   UNL A   1      33.106  25.406  24.373  1.00  0.00     0.085 A 
ATOM     12  C   UNL A   1      33.395  24.085  24.656  1.00  0.00     0.068 A 
BRANCH   9  13
ATOM     13  C   UNL A   1      30.985  26.440  23.505  1.00  0.00     0.065 A 
ATOM     14  C   UNL A   1      29.184  28.452  22.893  1.00  0.00     0.082 A 
ATOM     15  C   UNL A   1      30.256  28.192  22.030  1.00  0.00     0.024 A 
ATOM     16  C   UNL A   1      29.009  27.713  24.068  1.00  0.00     0.024 A 
ATOM     17  C   UNL A   1      31.177  27.197  22.350  1.00  0.00     0.030 A 
ATOM     18  C   UNL A   1      29.897  26.677  24.359  1.00  0.00     0.030 A 
BRANCH  14  19
ATOM     19  S   UNL A   1      28.042  29.743  22.507  1.00  0.00     0.238 S 
ATOM     20  O   UNL A   1      26.792  29.483  23.192  1.00  0.00    -0.207 OA
ATOM     21  O   UNL A   1      28.121  30.021  21.098  1.00  0.00    -0.207 OA
BRANCH  19  22
ATOM     22  N   UNL A   1      28.693  31.082  23.291  1.00  0.00    -0.225 NA
ATOM     23  H   UNL A   1      29.258  31.620  22.634  1.00  0.00     0.137 HD
ATOM     24  H   UNL A   1      29.277  30.771  24.067  1.00  0.00     0.137 HD
ENDBRANCH  19  22
ENDBRANCH  14  19
ENDBRANCH   9  13
BRANCH  11  25
ATOM     25  C   UNL A   1      34.073  26.473  24.468  1.00  0.00     0.054 A 
ATOM     26  C   UNL A   1      33.950  27.763  23.954  1.00  0.00     0.031 A 
ATOM     27  S   UNL A   1      34.667  26.749  26.103  1.00  0.00    -0.134 S 
ATOM     28  C   UNL A   1      33.265  28.549  24.977  1.00  0.00    -0.007 A 
ATOM     29  C   UNL A   1      33.397  27.935  26.232  1.00  0.00     0.035 A 
ATOM     30  C   UNL A   1      32.395  29.655  24.869  1.00  0.00     0.009 A 
ATOM     31  C   UNL A   1      32.566  28.246  27.317  1.00  0.00     0.019 A 
ATOM     32  C   UNL A   1      31.546  29.961  25.940  1.00  0.00     0.001 A 
ATOM     33  C   UNL A   1      31.596  29.231  27.126  1.00  0.00     0.001 A 
ENDBRANCH  11  25
ENDBRANCH   6   8
ENDBRANCH   5   6
ENDBRANCH   4   5
ENDBRANCH   3   4
ENDBRANCH   2   3
ENDBRANCH   1   2
BRANCH   1  34
ATOM     34  C   UNL A   1      38.581  18.942  25.763  1.00  0.00     0.188 C 
BRANCH  34  35
ATOM     35  O   UNL A   1      39.884  19.176  25.278  1.00  0.00    -0.376 OA
BRANCH  35  36
ATOM     36  C   UNL A   1      40.966  19.567  26.108  1.00  0.00     0.202 C 
BRANCH  36  37
ATOM     37  C   UNL A   1      41.606  20.955  26.155  1.00  0.00     0.261 C 
BRANCH  37  38
ATOM     38  O   UNL A   1      42.973  20.988  26.480  1.00  0.00    -0.460 OA
BRANCH  38  39
ATOM     39  C   UNL A   1      43.788  21.050  25.410  1.00  0.00     0.338 C 
ATOM     40  O   UNL A   1      44.033  20.169  24.604  1.00  0.00    -0.246 OA
BRANCH  39  41
ATOM     41  C   UNL A   1      44.355  22.397  25.364  1.00  0.00     0.060 A 
ATOM     42  C   UNL A   1      45.355  22.689  26.294  1.00  0.00     0.016 A 
ATOM     43  C   UNL A   1      43.585  23.377  24.733  1.00  0.00     0.016 A 
ATOM     44  C   UNL A   1      45.337  23.937  26.861  1.00  0.00     0.010 A 
ATOM     45  C   UNL A   1      43.535  24.600  25.330  1.00  0.00     0.010 A 
ATOM     46  C   UNL A   1      44.323  24.808  26.461  1.00  0.00    -0.014 A 
BRANCH  46  47
ATOM     47  C   UNL A   1      44.060  25.982  27.254  1.00  0.00     0.031 A 
ATOM     48  C   UNL A   1      45.008  27.068  26.951  1.00  0.00     0.074 A 
ATOM     49  C   UNL A   1      42.961  26.060  28.028  1.00  0.00     0.049 A 
ATOM     50  N   UNL A   1      46.000  27.464  27.675  1.00  0.00    -0.248 NA
ATOM     51  C   UNL A   1      45.012  27.599  25.574  1.00  0.00     0.031 C 
ATOM     52  C   UNL A   1      41.838  25.119  28.123  1.00  0.00     0.029 A 
ATOM     53  N   UNL A   1      42.551  27.086  28.812  1.00  0.00    -0.354 N 
ATOM     54  C   UNL A   1      46.601  28.465  26.925  1.00  0.00     0.074 A 
ATOM     55  C   UNL A   1      46.160  28.272  25.571  1.00  0.00     0.031 C 
ATOM     56  C   UNL A   1      40.784  25.744  28.701  1.00  0.00     0.029 A 
ATOM     57  C   UNL A   1      41.196  27.075  29.115  1.00  0.00     0.049 A 
ATOM     58  H   UNL A   1      43.165  27.782  29.142  1.00  0.00     0.167 HD
ATOM     59  C   UNL A   1      47.074  29.594  27.519  1.00  0.00     0.031 A 
ATOM     60  C   UNL A   1      40.473  28.130  29.577  1.00  0.00     0.031 A 
ATOM     61  C   UNL A   1      47.216  29.414  28.943  1.00  0.00     0.049 A 
ATOM     62  C   UNL A   1      41.441  29.144  30.071  1.00  0.00     0.074 A 
ATOM     63  C   UNL A   1      47.922  28.546  29.751  1.00  0.00     0.029 A 
ATOM     64  N   UNL A   1      46.226  29.955  29.732  1.00  0.00    -0.354 N 
ATOM     65  N   UNL A   1      42.189  28.968  31.122  1.00  0.00    -0.248 NA
ATOM     66  C   UNL A   1      41.934  30.128  29.115  1.00  0.00     0.031 C 
ATOM     67  C   UNL A   1      47.051  28.269  30.847  1.00  0.00     0.029 A 
ATOM     68  C   UNL A   1      45.895  29.037  30.693  1.00  0.00     0.049 A 
ATOM     69  H   UNL A   1      45.825  30.847  29.624  1.00  0.00     0.167 HD
ATOM     70  C   UNL A   1      43.436  29.457  30.755  1.00  0.00     0.074 A 
ATOM     71  C   UNL A   1      43.195  30.239  29.541  1.00  0.00     0.031 C 
ATOM     72  C   UNL A   1      44.580  28.931  31.284  1.00  0.00     0.031 A 
BRANCH  59  73
ATOM     73  C   UNL A   1      46.914  30.966  26.901  1.00  0.00    -0.014 A 
ATOM     74  C   UNL A   1      48.047  31.793  26.835  1.00  0.00     0.009 A 
ATOM     75  C   UNL A   1      45.672  31.586  26.650  1.00  0.00     0.009 A 
ATOM     76  C   UNL A   1      47.929  33.173  26.637  1.00  0.00     0.001 A 
ATOM     77  C   UNL A   1      45.553  32.955  26.410  1.00  0.00     0.001 A 
ATOM     78  C   UNL A   1      46.681  33.755  26.437  1.00  0.00     0.000 A 
ENDBRANCH  59  73
BRANCH  60  79
ATOM     79  C   UNL A   1      39.055  28.471  29.309  1.00  0.00    -0.014 A 
ATOM     80  C   UNL A   1      38.134  28.612  30.361  1.00  0.00     0.009 A 
ATOM     81  C   UNL A   1      38.662  28.930  28.037  1.00  0.00     0.009 A 
ATOM     82  C   UNL A   1      36.886  29.219  30.154  1.00  0.00     0.001 A 
ATOM     83  C   UNL A   1      37.416  29.533  27.830  1.00  0.00     0.001 A 
ATOM     84  C   UNL A   1      36.532  29.691  28.892  1.00  0.00     0.000 A 
ENDBRANCH  60  79
BRANCH  72  85
ATOM     85  C   UNL A   1      44.447  27.969  32.440  1.00  0.00    -0.014 A 
ATOM     86  C   UNL A   1      44.380  28.377  33.785  1.00  0.00     0.009 A 
ATOM     87  C   UNL A   1      44.217  26.619  32.142  1.00  0.00     0.009 A 
ATOM     88  C   UNL A   1      44.113  27.450  34.800  1.00  0.00     0.001 A 
ATOM     89  C   UNL A   1      43.932  25.699  33.152  1.00  0.00     0.001 A 
ATOM     90  C   UNL A   1      43.885  26.113  34.481  1.00  0.00     0.000 A 
ENDBRANCH  72  85
ENDBRANCH  46  47
ENDBRANCH  39  41
ENDBRANCH  38  39
ENDBRANCH  37  38
ENDBRANCH  36  37
ENDBRANCH  35  36
ENDBRANCH  34  35
ENDBRANCH   1  34
TORSDOF 21
ENDMDL
MODEL 3
REMARK VINA RESULT:      -9.6      2.841      4.828
REMARK SMILES NS(=O)(=O)c1ccc(-n2nc(C(=O)OCCOCCOCCOC(=O)c3ccc(-c4c5nc(c(-c6ccccc6)c6ccc([nH]6)c(-c6ccccc6)c6nc(c(-c7ccccc7)c7ccc4[nH]7)C=C6)C=C5)cc3)cc2-c2cc3ccccc3s2)cc1
REMARK SMILES IDX 18 1 17 2 16 3 15 4 14 5 12 6 13 7 11 8 9 9 10 10 75 11
REMARK SMILES IDX 74 12 8 13 5 14 6 15 86 16 7 17 85 18 2 19 3 20 4 21 1 22
REMARK SMILES IDX 76 25 77 26 84 27 78 28 83 29 79 30 82 31 80 32 81 33 19 34
REMARK SMILES IDX 20 35 21 36 22 37 23 38 24 39 25 40 26 41 27 42 73 43 28 44
REMARK SMILES IDX 72 45 29 46 30 47 31 48 66 49 32 50 71 51 65 52 67 53 33 54
REMARK SMILES IDX 70 55 64 56 63 57 34 59 56 60 41 61 55 62 42 63 45 64 54 65
REMARK SMILES IDX 68 66 43 67 44 68 53 70 69 71 46 72 35 73 36 74 40 75 37 76
REMARK SMILES IDX 39 77 38 78 57 79 58 80 62 81 59 82 61 83 60 84 47 85 48 86
REMARK SMILES IDX 52 87 49 88 51 89 50 90
REMARK H PARENT 1 23 1 24 67 58 45 69
REMARK Flexibility Score: inf
ROOT
ATOM      1  C   UNL A   1      34.883  21.317  25.034  1.00  0.00     0.188 C 
ENDROOT
BRANCH   1   2
ATOM      2  O   UNL A   1      33.965  20.955  26.046  1.00  0.00    -0.376 OA
BRANCH   2   3
ATOM      3  C   UNL A   1      33.939  21.618  27.302  1.00  0.00     0.202 C 
BRANCH   3   4
ATOM      4  C   UNL A   1      32.665  22.159  27.983  1.00  0.00     0.261 C 
BRANCH   4   5
ATOM      5  O   UNL A   1      32.365  23.536  27.768  1.00  0.00    -0.458 OA
BRANCH   5   6
ATOM      6  C   UNL A   1      32.112  23.915  26.480  1.00  0.00     0.358 C 
ATOM      7  O   UNL A   1      31.324  23.347  25.736  1.00  0.00    -0.244 OA
BRANCH   6   8
ATOM      8  C   UNL A   1      32.865  25.127  26.127  1.00  0.00     0.171 A 
ATOM      9  N   UNL A   1      33.469  27.177  26.072  1.00  0.00    -0.231 N 
ATOM     10  N   UNL A   1      32.947  26.227  26.898  1.00  0.00    -0.160 NA
ATOM     11  C   UNL A   1      33.721  26.671  24.818  1.00  0.00     0.085 A 
ATOM     12  C   UNL A   1      33.648  25.300  24.970  1.00  0.00     0.068 A 
BRANCH   9  13
ATOM     13  C   UNL A   1      33.617  28.492  26.549  1.00  0.00     0.065 A 
ATOM     14  C   UNL A   1      33.932  31.033  27.600  1.00  0.00     0.082 A 
ATOM     15  C   UNL A   1      32.650  30.568  27.277  1.00  0.00     0.024 A 
ATOM     16  C   UNL A   1      35.062  30.235  27.393  1.00  0.00     0.024 A 
ATOM     17  C   UNL A   1      32.493  29.298  26.725  1.00  0.00     0.030 A 
ATOM     18  C   UNL A   1      34.900  28.942  26.896  1.00  0.00     0.030 A 
BRANCH  14  19
ATOM     19  S   UNL A   1      34.131  32.659  28.260  1.00  0.00     0.238 S 
ATOM     20  O   UNL A   1      35.281  33.281  27.636  1.00  0.00    -0.207 OA
ATOM     21  O   UNL A   1      33.947  32.604  29.685  1.00  0.00    -0.207 OA
BRANCH  19  22
ATOM     22  N   UNL A   1      32.804  33.492  27.645  1.00  0.00    -0.225 NA
ATOM     23  H   UNL A   1      32.904  33.592  26.635  1.00  0.00     0.137 HD
ATOM     24  H   UNL A   1      32.754  34.415  28.075  1.00  0.00     0.137 HD
ENDBRANCH  19  22
ENDBRANCH  14  19
ENDBRANCH   9  13
BRANCH  11  25
ATOM     25  C   UNL A   1      33.799  27.328  23.535  1.00  0.00     0.054 A 
ATOM     26  C   UNL A   1      33.055  27.029  22.395  1.00  0.00     0.031 A 
ATOM     27  S   UNL A   1      33.696  29.084  23.630  1.00  0.00    -0.134 S 
ATOM     28  C   UNL A   1      31.816  27.795  22.499  1.00  0.00    -0.007 A 
ATOM     29  C   UNL A   1      31.984  28.874  23.380  1.00  0.00     0.035 A 
ATOM     30  C   UNL A   1      30.514  27.524  22.026  1.00  0.00     0.009 A 
ATOM     31  C   UNL A   1      30.904  29.559  23.954  1.00  0.00     0.019 A 
ATOM     32  C   UNL A   1      29.426  28.187  22.607  1.00  0.00     0.001 A 
ATOM     33  C   UNL A   1      29.618  29.152  23.594  1.00  0.00     0.001 A 
ENDBRANCH  11  25
ENDBRANCH   6   8
ENDBRANCH   5   6
ENDBRANCH   4   5
ENDBRANCH   3   4
ENDBRANCH   2   3
ENDBRANCH   1   2
BRANCH   1  34
ATOM     34  C   UNL A   1      35.928  22.423  25.286  1.00  0.00     0.188 C 
BRANCH  34  35
ATOM     35  O   UNL A   1      36.972  22.139  26.189  1.00  0.00    -0.376 OA
BRANCH  35  36
ATOM     36  C   UNL A   1      38.346  22.202  25.838  1.00  0.00     0.202 C 
BRANCH  36  37
ATOM     37  C   UNL A   1      39.295  23.364  26.133  1.00  0.00     0.261 C 
BRANCH  37  38
ATOM     38  O   UNL A   1      39.238  23.885  27.438  1.00  0.00    -0.460 OA
BRANCH  38  39
ATOM     39  C   UNL A   1      40.137  24.858  27.677  1.00  0.00     0.338 C 
ATOM     40  O   UNL A   1      41.350  24.793  27.591  1.00  0.00    -0.246 OA
BRANCH  39  41
ATOM     41  C   UNL A   1      39.397  26.056  28.071  1.00  0.00     0.060 A 
ATOM     42  C   UNL A   1      39.677  27.228  27.365  1.00  0.00     0.016 A 
ATOM     43  C   UNL A   1      38.831  26.047  29.348  1.00  0.00     0.016 A 
ATOM     44  C   UNL A   1      39.726  28.394  28.084  1.00  0.00     0.010 A 
ATOM     45  C   UNL A   1      38.927  27.196  30.072  1.00  0.00     0.010 A 
ATOM     46  C   UNL A   1      39.493  28.312  29.456  1.00  0.00    -0.014 A 
BRANCH  46  47
ATOM     47  C   UNL A   1      39.857  29.426  30.294  1.00  0.00     0.031 A 
ATOM     48  C   UNL A   1      38.698  30.285  30.594  1.00  0.00     0.074 A 
ATOM     49  C   UNL A   1      41.087  29.510  30.835  1.00  0.00     0.049 A 
ATOM     50  N   UNL A   1      38.435  31.444  30.094  1.00  0.00    -0.248 NA
ATOM     51  C   UNL A   1      37.577  29.674  31.334  1.00  0.00     0.031 C 
ATOM     52  C   UNL A   1      42.172  28.520  30.804  1.00  0.00     0.029 A 
ATOM     53  N   UNL A   1      41.587  30.465  31.655  1.00  0.00    -0.354 N 
ATOM     54  C   UNL A   1      37.217  31.798  30.658  1.00  0.00     0.074 A 
ATOM     55  C   UNL A   1      36.622  30.578  31.128  1.00  0.00     0.031 C 
ATOM     56  C   UNL A   1      43.070  28.815  31.774  1.00  0.00     0.029 A 
ATOM     57  C   UNL A   1      42.684  30.065  32.407  1.00  0.00     0.049 A 
ATOM     58  H   UNL A   1      41.204  31.371  31.711  1.00  0.00     0.167 HD
ATOM     59  C   UNL A   1      36.978  33.077  31.058  1.00  0.00     0.031 A 
ATOM     60  C   UNL A   1      43.154  30.683  33.522  1.00  0.00     0.031 A 
ATOM     61  C   UNL A   1      37.930  33.992  30.477  1.00  0.00     0.049 A 
ATOM     62  C   UNL A   1      42.558  32.044  33.557  1.00  0.00     0.074 A 
ATOM     63  C   UNL A   1      38.296  34.333  29.190  1.00  0.00     0.029 A 
ATOM     64  N   UNL A   1      38.959  34.407  31.292  1.00  0.00    -0.354 N 
ATOM     65  N   UNL A   1      42.855  32.977  32.698  1.00  0.00    -0.248 NA
ATOM     66  C   UNL A   1      41.273  32.201  34.226  1.00  0.00     0.031 C 
ATOM     67  C   UNL A   1      39.709  34.522  29.245  1.00  0.00     0.029 A 
ATOM     68  C   UNL A   1      40.121  34.364  30.570  1.00  0.00     0.049 A 
ATOM     69  H   UNL A   1      38.873  34.687  32.232  1.00  0.00     0.167 HD
ATOM     70  C   UNL A   1      41.638  33.570  32.385  1.00  0.00     0.074 A 
ATOM     71  C   UNL A   1      40.714  33.111  33.423  1.00  0.00     0.031 C 
ATOM     72  C   UNL A   1      41.421  34.120  31.153  1.00  0.00     0.031 A 
BRANCH  59  73
ATOM     73  C   UNL A   1      36.235  33.404  32.335  1.00  0.00    -0.014 A 
ATOM     74  C   UNL A   1      35.365  34.507  32.325  1.00  0.00     0.009 A 
ATOM     75  C   UNL A   1      36.558  32.874  33.601  1.00  0.00     0.009 A 
ATOM     76  C   UNL A   1      34.935  35.105  33.514  1.00  0.00     0.001 A 
ATOM     77  C   UNL A   1      36.096  33.441  34.790  1.00  0.00     0.001 A 
ATOM     78  C   UNL A   1      35.311  34.579  34.746  1.00  0.00     0.000 A 
ENDBRANCH  59  73
BRANCH  60  79
ATOM     79  C   UNL A   1      43.787  30.080  34.720  1.00  0.00    -0.014 A 
ATOM     80  C   UNL A   1      43.039  29.296  35.615  1.00  0.00     0.009 A 
ATOM     81  C   UNL A   1      45.189  30.042  34.842  1.00  0.00     0.009 A 
ATOM     82  C   UNL A   1      43.670  28.484  36.570  1.00  0.00     0.001 A 
ATOM     83  C   UNL A   1      45.819  29.233  35.795  1.00  0.00     0.001 A 
ATOM     84  C   UNL A   1      45.060  28.442  36.650  1.00  0.00     0.000 A 
ENDBRANCH  60  79
BRANCH  72  85
ATOM     85  C   UNL A   1      42.604  34.268  30.228  1.00  0.00    -0.014 A 
ATOM     86  C   UNL A   1      43.175  33.194  29.520  1.00  0.00     0.009 A 
ATOM     87  C   UNL A   1      43.049  35.566  29.940  1.00  0.00     0.009 A 
ATOM     88  C   UNL A   1      44.179  33.417  28.570  1.00  0.00     0.001 A 
ATOM     89  C   UNL A   1      44.035  35.790  28.978  1.00  0.00     0.001 A 
ATOM     90  C   UNL A   1      44.603  34.716  28.296  1.00  0.00     0.000 A 
ENDBRANCH  72  85
ENDBRANCH  46  47
ENDBRANCH  39  41
ENDBRANCH  38  39
ENDBRANCH  37  38
ENDBRANCH  36  37
ENDBRANCH  35  36
ENDBRANCH  34  35
ENDBRANCH   1  34
TORSDOF 21
ENDMDL
