MODEL 1
REMARK VINA RESULT:     -11.7      0.000      0.000
REMARK SMILES Cc1ccc(Nc2c(Cl)cccc2Cl)c(CC(=O)OCCOCCOCCOC(=O)c2ccc(-c3c4nc(c(-c5ccccc5)c5ccc([nH]5)c(-c5ccccc5)c5nc(c(-c6ccccc6)c6ccc3[nH]6)C=C5)C=C4)cc2)c1
REMARK SMILES IDX 23 1 22 2 21 3 20 4 19 5 17 6 18 7 16 8 15 9 1 10 2 11 3 12
REMARK SMILES IDX 79 13 4 14 5 15 6 16 7 18 8 19 13 20 9 21 10 22 12 23 14 24
REMARK SMILES IDX 11 25 24 26 25 27 26 28 27 29 28 30 29 31 30 32 31 33 32 34
REMARK SMILES IDX 78 35 33 36 77 37 34 38 35 39 36 40 71 41 37 42 76 43 70 44
REMARK SMILES IDX 72 45 38 46 75 47 69 48 68 49 39 51 61 52 46 53 60 54 47 55
REMARK SMILES IDX 50 56 59 57 73 58 48 59 49 60 58 62 74 63 51 64 40 65 41 66
REMARK SMILES IDX 45 67 42 68 44 69 43 70 62 71 63 72 67 73 64 74 66 75 65 76
REMARK SMILES IDX 52 77 53 78 57 79 54 80 56 81 55 82
REMARK H PARENT 6 17 72 50 50 61
REMARK Flexibility Score: inf
ROOT
ATOM      1  C   UNL A   1      34.304  32.844  28.447  1.00  0.00     0.188 C 
ENDROOT
BRANCH   1   2
ATOM      2  O   UNL A   1      35.413  32.455  27.673  1.00  0.00    -0.376 OA
BRANCH   2   3
ATOM      3  C   UNL A   1      35.996  31.175  27.801  1.00  0.00     0.202 C 
BRANCH   3   4
ATOM      4  C   UNL A   1      35.379  29.680  28.006  1.00  0.00     0.261 C 
BRANCH   4   5
ATOM      5  O   UNL A   1      34.084  28.653  27.278  1.00  0.00    -0.463 OA
BRANCH   5   6
ATOM      6  C   UNL A   1      32.476  28.361  27.164  1.00  0.00     0.310 C 
ATOM      7  O   UNL A   1      31.607  27.932  27.935  1.00  0.00    -0.252 OA
BRANCH   6   8
ATOM      8  C   UNL A   1      31.888  28.961  26.011  1.00  0.00     0.160 C 
BRANCH   8   9
ATOM      9  C   UNL A   1      31.656  27.757  25.171  1.00  0.00    -0.013 A 
ATOM     10  C   UNL A   1      29.083  29.106  22.675  1.00  0.00     0.044 C 
ATOM     11  C   UNL A   1      30.318  28.464  23.220  1.00  0.00    -0.051 A 
ATOM     12  C   UNL A   1      31.466  28.287  22.488  1.00  0.00     0.005 A 
ATOM     13  C   UNL A   1      30.388  28.121  24.548  1.00  0.00     0.009 A 
ATOM     14  C   UNL A   1      32.631  27.749  23.105  1.00  0.00     0.026 A 
ATOM     15  C   UNL A   1      32.828  27.195  24.604  1.00  0.00     0.042 A 
BRANCH  15  16
ATOM     16  N   UNL A   1      34.151  25.782  25.138  1.00  0.00    -0.353 N 
ATOM     17  H   UNL A   1      35.078  26.111  25.144  1.00  0.00     0.167 HD
BRANCH  16  18
ATOM     18  C   UNL A   1      34.017  24.016  25.621  1.00  0.00     0.076 A 
ATOM     19  C   UNL A   1      32.876  23.341  26.434  1.00  0.00     0.066 A 
ATOM     20  C   UNL A   1      35.193  23.230  25.626  1.00  0.00     0.066 A 
ATOM     21  Cl  UNL A   1      31.169  23.736  26.803  1.00  0.00    -0.082 Cl
ATOM     22  C   UNL A   1      33.073  22.158  27.188  1.00  0.00     0.023 A 
ATOM     23  C   UNL A   1      35.316  22.059  26.446  1.00  0.00     0.023 A 
ATOM     24  Cl  UNL A   1      36.501  23.370  24.558  1.00  0.00    -0.082 Cl
ATOM     25  C   UNL A   1      34.298  21.553  27.244  1.00  0.00     0.003 A 
ENDBRANCH  16  18
ENDBRANCH  15  16
ENDBRANCH   8   9
ENDBRANCH   6   8
ENDBRANCH   5   6
ENDBRANCH   4   5
ENDBRANCH   3   4
ENDBRANCH   2   3
ENDBRANCH   1   2
BRANCH   1  26
ATOM     26  C   UNL A   1      32.970  33.220  27.810  1.00  0.00     0.188 C 
BRANCH  26  27
ATOM     27  O   UNL A   1      32.508  34.512  28.132  1.00  0.00    -0.376 OA
BRANCH  27  28
ATOM     28  C   UNL A   1      33.320  35.222  29.067  1.00  0.00     0.202 C 
BRANCH  28  29
ATOM     29  C   UNL A   1      32.635  35.941  30.306  1.00  0.00     0.261 C 
BRANCH  29  30
ATOM     30  O   UNL A   1      32.921  35.357  31.643  1.00  0.00    -0.460 OA
BRANCH  30  31
ATOM     31  C   UNL A   1      34.026  35.710  32.450  1.00  0.00     0.338 C 
ATOM     32  O   UNL A   1      34.508  36.815  32.303  1.00  0.00    -0.246 OA
BRANCH  31  33
ATOM     33  C   UNL A   1      34.498  34.460  33.493  1.00  0.00     0.060 A 
ATOM     34  C   UNL A   1      35.403  34.179  35.208  1.00  0.00     0.016 A 
ATOM     35  C   UNL A   1      35.400  33.759  32.090  1.00  0.00     0.016 A 
ATOM     36  C   UNL A   1      37.153  33.443  35.200  1.00  0.00     0.010 A 
ATOM     37  C   UNL A   1      37.040  33.190  32.225  1.00  0.00     0.010 A 
ATOM     38  C   UNL A   1      38.051  32.964  33.677  1.00  0.00    -0.014 A 
BRANCH  38  39
ATOM     39  C   UNL A   1      39.640  32.016  33.291  1.00  0.00     0.031 A 
ATOM     40  C   UNL A   1      39.921  30.596  32.043  1.00  0.00     0.074 A 
ATOM     41  C   UNL A   1      40.868  32.469  33.634  1.00  0.00     0.049 A 
ATOM     42  N   UNL A   1      40.378  29.380  32.283  1.00  0.00    -0.248 NA
ATOM     43  C   UNL A   1      39.224  30.379  30.557  1.00  0.00     0.031 C 
ATOM     44  C   UNL A   1      42.159  32.077  33.033  1.00  0.00     0.029 A 
ATOM     45  N   UNL A   1      41.241  33.456  34.535  1.00  0.00    -0.354 N 
ATOM     46  C   UNL A   1      40.108  28.577  31.122  1.00  0.00     0.074 A 
ATOM     47  C   UNL A   1      38.984  29.093  30.459  1.00  0.00     0.031 C 
ATOM     48  C   UNL A   1      43.165  32.571  33.779  1.00  0.00     0.029 A 
ATOM     49  C   UNL A   1      42.553  33.159  34.956  1.00  0.00     0.049 A 
ATOM     50  H   UNL A   1      40.692  34.219  34.828  1.00  0.00     0.167 HD
ATOM     51  C   UNL A   1      41.074  27.921  30.406  1.00  0.00     0.031 A 
ATOM     52  C   UNL A   1      42.713  32.742  36.240  1.00  0.00     0.031 A 
ATOM     53  C   UNL A   1      42.320  28.166  31.083  1.00  0.00     0.049 A 
ATOM     54  C   UNL A   1      43.021  31.257  36.246  1.00  0.00     0.074 A 
ATOM     55  C   UNL A   1      43.347  29.070  30.885  1.00  0.00     0.029 A 
ATOM     56  N   UNL A   1      42.340  27.827  32.419  1.00  0.00    -0.354 N 
ATOM     57  N   UNL A   1      42.797  30.462  35.227  1.00  0.00    -0.248 NA
ATOM     58  C   UNL A   1      43.725  30.576  37.324  1.00  0.00     0.031 C 
ATOM     59  C   UNL A   1      43.946  29.308  32.163  1.00  0.00     0.029 A 
ATOM     60  C   UNL A   1      43.286  28.543  33.113  1.00  0.00     0.049 A 
ATOM     61  H   UNL A   1      41.749  27.154  32.826  1.00  0.00     0.167 HD
ATOM     62  C   UNL A   1      43.369  29.247  35.447  1.00  0.00     0.074 A 
ATOM     63  C   UNL A   1      43.911  29.356  36.789  1.00  0.00     0.031 C 
ATOM     64  C   UNL A   1      43.414  28.238  34.529  1.00  0.00     0.031 A 
BRANCH  51  65
ATOM     65  C   UNL A   1      40.913  27.426  28.955  1.00  0.00    -0.014 A 
ATOM     66  C   UNL A   1      41.514  28.154  27.916  1.00  0.00     0.009 A 
ATOM     67  C   UNL A   1      40.210  26.268  28.531  1.00  0.00     0.009 A 
ATOM     68  C   UNL A   1      41.394  27.784  26.563  1.00  0.00     0.001 A 
ATOM     69  C   UNL A   1      40.027  25.926  27.176  1.00  0.00     0.001 A 
ATOM     70  C   UNL A   1      40.635  26.682  26.188  1.00  0.00     0.000 A 
ENDBRANCH  51  65
BRANCH  52  71
ATOM     71  C   UNL A   1      41.855  33.574  37.149  1.00  0.00    -0.014 A 
ATOM     72  C   UNL A   1      42.128  34.970  37.162  1.00  0.00     0.009 A 
ATOM     73  C   UNL A   1      40.571  33.161  37.540  1.00  0.00     0.009 A 
ATOM     74  C   UNL A   1      41.143  35.909  37.491  1.00  0.00     0.001 A 
ATOM     75  C   UNL A   1      39.588  34.109  37.879  1.00  0.00     0.001 A 
ATOM     76  C   UNL A   1      39.879  35.473  37.869  1.00  0.00     0.000 A 
ENDBRANCH  52  71
BRANCH  64  77
ATOM     77  C   UNL A   1      43.541  26.779  34.912  1.00  0.00    -0.014 A 
ATOM     78  C   UNL A   1      42.439  25.947  35.117  1.00  0.00     0.009 A 
ATOM     79  C   UNL A   1      44.808  26.146  34.867  1.00  0.00     0.009 A 
ATOM     80  C   UNL A   1      42.598  24.581  35.360  1.00  0.00     0.001 A 
ATOM     81  C   UNL A   1      44.961  24.769  34.991  1.00  0.00     0.001 A 
ATOM     82  C   UNL A   1      43.855  23.990  35.279  1.00  0.00     0.000 A 
ENDBRANCH  64  77
ENDBRANCH  38  39
ENDBRANCH  31  33
ENDBRANCH  30  31
ENDBRANCH  29  30
ENDBRANCH  28  29
ENDBRANCH  27  28
ENDBRANCH  26  27
ENDBRANCH   1  26
TORSDOF 20
ENDMDL
MODEL 2
REMARK VINA RESULT:     -11.2      2.008      2.763
REMARK SMILES Cc1ccc(Nc2c(Cl)cccc2Cl)c(CC(=O)OCCOCCOCCOC(=O)c2ccc(-c3c4nc(c(-c5ccccc5)c5ccc([nH]5)c(-c5ccccc5)c5nc(c(-c6ccccc6)c6ccc3[nH]6)C=C5)C=C4)cc2)c1
REMARK SMILES IDX 23 1 22 2 21 3 20 4 19 5 17 6 18 7 16 8 15 9 1 10 2 11 3 12
REMARK SMILES IDX 79 13 4 14 5 15 6 16 7 18 8 19 13 20 9 21 10 22 12 23 14 24
REMARK SMILES IDX 11 25 24 26 25 27 26 28 27 29 28 30 29 31 30 32 31 33 32 34
REMARK SMILES IDX 78 35 33 36 77 37 34 38 35 39 36 40 71 41 37 42 76 43 70 44
REMARK SMILES IDX 72 45 38 46 75 47 69 48 68 49 39 51 61 52 46 53 60 54 47 55
REMARK SMILES IDX 50 56 59 57 73 58 48 59 49 60 58 62 74 63 51 64 40 65 41 66
REMARK SMILES IDX 45 67 42 68 44 69 43 70 62 71 63 72 67 73 64 74 66 75 65 76
REMARK SMILES IDX 52 77 53 78 57 79 54 80 56 81 55 82
REMARK H PARENT 6 17 72 50 50 61
REMARK Flexibility Score: inf
ROOT
ATOM      1  C   UNL A   1      34.424  33.487  28.607  1.00  0.00     0.188 C 
ENDROOT
BRANCH   1   2
ATOM      2  O   UNL A   1      35.525  33.128  27.807  1.00  0.00    -0.376 OA
BRANCH   2   3
ATOM      3  C   UNL A   1      36.139  31.861  27.914  1.00  0.00     0.202 C 
BRANCH   3   4
ATOM      4  C   UNL A   1      35.569  30.363  28.209  1.00  0.00     0.261 C 
BRANCH   4   5
ATOM      5  O   UNL A   1      35.044  28.918  27.264  1.00  0.00    -0.463 OA
BRANCH   5   6
ATOM      6  C   UNL A   1      33.810  28.167  26.491  1.00  0.00     0.310 C 
ATOM      7  O   UNL A   1      33.198  27.101  26.647  1.00  0.00    -0.252 OA
BRANCH   6   8
ATOM      8  C   UNL A   1      33.114  29.031  25.594  1.00  0.00     0.160 C 
BRANCH   8   9
ATOM      9  C   UNL A   1      32.297  28.039  24.847  1.00  0.00    -0.013 A 
ATOM     10  C   UNL A   1      29.501  30.283  23.498  1.00  0.00     0.044 C 
ATOM     11  C   UNL A   1      30.624  29.298  23.536  1.00  0.00    -0.051 A 
ATOM     12  C   UNL A   1      31.367  28.952  22.435  1.00  0.00     0.005 A 
ATOM     13  C   UNL A   1      31.042  28.775  24.736  1.00  0.00     0.009 A 
ATOM     14  C   UNL A   1      32.480  28.074  22.570  1.00  0.00     0.026 A 
ATOM     15  C   UNL A   1      33.012  27.295  23.874  1.00  0.00     0.042 A 
BRANCH  15  16
ATOM     16  N   UNL A   1      34.003  25.549  23.840  1.00  0.00    -0.353 N 
ATOM     17  H   UNL A   1      34.905  25.630  23.456  1.00  0.00     0.167 HD
BRANCH  16  18
ATOM     18  C   UNL A   1      33.604  23.837  24.368  1.00  0.00     0.076 A 
ATOM     19  C   UNL A   1      34.555  22.811  25.049  1.00  0.00     0.066 A 
ATOM     20  C   UNL A   1      32.482  23.199  23.788  1.00  0.00     0.066 A 
ATOM     21  Cl  UNL A   1      36.081  22.912  25.978  1.00  0.00    -0.082 Cl
ATOM     22  C   UNL A   1      34.359  21.411  24.958  1.00  0.00     0.023 A 
ATOM     23  C   UNL A   1      32.381  21.770  23.712  1.00  0.00     0.023 A 
ATOM     24  Cl  UNL A   1      31.031  23.942  23.325  1.00  0.00    -0.082 Cl
ATOM     25  C   UNL A   1      33.315  20.890  24.243  1.00  0.00     0.003 A 
ENDBRANCH  16  18
ENDBRANCH  15  16
ENDBRANCH   8   9
ENDBRANCH   6   8
ENDBRANCH   5   6
ENDBRANCH   4   5
ENDBRANCH   3   4
ENDBRANCH   2   3
ENDBRANCH   1   2
BRANCH   1  26
ATOM     26  C   UNL A   1      33.079  33.872  28.001  1.00  0.00     0.188 C 
BRANCH  26  27
ATOM     27  O   UNL A   1      32.524  35.064  28.509  1.00  0.00    -0.376 OA
BRANCH  27  28
ATOM     28  C   UNL A   1      33.288  35.686  29.542  1.00  0.00     0.202 C 
BRANCH  28  29
ATOM     29  C   UNL A   1      32.580  36.074  30.910  1.00  0.00     0.261 C 
BRANCH  29  30
ATOM     30  O   UNL A   1      32.956  35.261  32.096  1.00  0.00    -0.460 OA
BRANCH  30  31
ATOM     31  C   UNL A   1      34.070  35.523  32.924  1.00  0.00     0.338 C 
ATOM     32  O   UNL A   1      34.396  36.681  33.092  1.00  0.00    -0.246 OA
BRANCH  31  33
ATOM     33  C   UNL A   1      34.780  34.108  33.529  1.00  0.00     0.060 A 
ATOM     34  C   UNL A   1      36.046  33.516  34.903  1.00  0.00     0.016 A 
ATOM     35  C   UNL A   1      35.361  33.794  31.845  1.00  0.00     0.016 A 
ATOM     36  C   UNL A   1      37.763  32.916  34.357  1.00  0.00     0.010 A 
ATOM     37  C   UNL A   1      37.000  33.317  31.496  1.00  0.00     0.010 A 
ATOM     38  C   UNL A   1      38.310  32.844  32.609  1.00  0.00    -0.014 A 
BRANCH  38  39
ATOM     39  C   UNL A   1      39.789  32.111  31.690  1.00  0.00     0.031 A 
ATOM     40  C   UNL A   1      39.950  30.410  30.833  1.00  0.00     0.074 A 
ATOM     41  C   UNL A   1      40.822  32.860  31.242  1.00  0.00     0.049 A 
ATOM     42  N   UNL A   1      40.835  29.458  31.072  1.00  0.00    -0.248 NA
ATOM     43  C   UNL A   1      38.794  29.559  30.007  1.00  0.00     0.031 C 
ATOM     44  C   UNL A   1      41.777  32.509  30.171  1.00  0.00     0.029 A 
ATOM     45  N   UNL A   1      41.203  34.153  31.575  1.00  0.00    -0.354 N 
ATOM     46  C   UNL A   1      40.369  28.259  30.430  1.00  0.00     0.074 A 
ATOM     47  C   UNL A   1      38.969  28.303  30.340  1.00  0.00     0.031 C 
ATOM     48  C   UNL A   1      42.784  33.403  30.162  1.00  0.00     0.029 A 
ATOM     49  C   UNL A   1      42.585  34.258  31.318  1.00  0.00     0.049 A 
ATOM     50  H   UNL A   1      40.618  34.863  31.926  1.00  0.00     0.167 HD
ATOM     51  C   UNL A   1      41.086  27.569  29.490  1.00  0.00     0.031 A 
ATOM     52  C   UNL A   1      43.410  34.360  32.394  1.00  0.00     0.031 A 
ATOM     53  C   UNL A   1      42.346  28.251  29.357  1.00  0.00     0.049 A 
ATOM     54  C   UNL A   1      44.155  33.053  32.576  1.00  0.00     0.074 A 
ATOM     55  C   UNL A   1      42.829  29.187  28.462  1.00  0.00     0.029 A 
ATOM     56  N   UNL A   1      43.050  28.420  30.529  1.00  0.00    -0.354 N 
ATOM     57  N   UNL A   1      43.787  31.921  32.027  1.00  0.00    -0.248 NA
ATOM     58  C   UNL A   1      45.435  32.935  33.263  1.00  0.00     0.031 C 
ATOM     59  C   UNL A   1      43.807  29.966  29.161  1.00  0.00     0.029 A 
ATOM     60  C   UNL A   1      43.911  29.488  30.458  1.00  0.00     0.049 A 
ATOM     61  H   UNL A   1      42.948  27.845  31.322  1.00  0.00     0.167 HD
ATOM     62  C   UNL A   1      44.759  30.983  32.191  1.00  0.00     0.074 A 
ATOM     63  C   UNL A   1      45.758  31.656  33.000  1.00  0.00     0.031 C 
ATOM     64  C   UNL A   1      44.730  29.737  31.635  1.00  0.00     0.031 A 
BRANCH  51  65
ATOM     65  C   UNL A   1      40.486  26.569  28.482  1.00  0.00    -0.014 A 
ATOM     66  C   UNL A   1      40.938  26.587  27.153  1.00  0.00     0.009 A 
ATOM     67  C   UNL A   1      39.499  25.585  28.754  1.00  0.00     0.009 A 
ATOM     68  C   UNL A   1      40.424  25.725  26.165  1.00  0.00     0.001 A 
ATOM     69  C   UNL A   1      38.931  24.764  27.760  1.00  0.00     0.001 A 
ATOM     70  C   UNL A   1      39.406  24.825  26.461  1.00  0.00     0.000 A 
ENDBRANCH  51  65
BRANCH  52  71
ATOM     71  C   UNL A   1      42.808  35.301  33.398  1.00  0.00    -0.014 A 
ATOM     72  C   UNL A   1      42.392  34.722  34.628  1.00  0.00     0.009 A 
ATOM     73  C   UNL A   1      43.102  36.675  33.395  1.00  0.00     0.009 A 
ATOM     74  C   UNL A   1      42.333  35.469  35.810  1.00  0.00     0.001 A 
ATOM     75  C   UNL A   1      43.032  37.423  34.585  1.00  0.00     0.001 A 
ATOM     76  C   UNL A   1      42.635  36.825  35.781  1.00  0.00     0.000 A 
ENDBRANCH  52  71
BRANCH  64  77
ATOM     77  C   UNL A   1      45.478  28.555  32.217  1.00  0.00    -0.014 A 
ATOM     78  C   UNL A   1      46.543  27.932  31.565  1.00  0.00     0.009 A 
ATOM     79  C   UNL A   1      45.250  28.172  33.563  1.00  0.00     0.009 A 
ATOM     80  C   UNL A   1      47.277  26.918  32.185  1.00  0.00     0.001 A 
ATOM     81  C   UNL A   1      46.053  27.248  34.222  1.00  0.00     0.001 A 
ATOM     82  C   UNL A   1      47.044  26.589  33.516  1.00  0.00     0.000 A 
ENDBRANCH  64  77
ENDBRANCH  38  39
ENDBRANCH  31  33
ENDBRANCH  30  31
ENDBRANCH  29  30
ENDBRANCH  28  29
ENDBRANCH  27  28
ENDBRANCH  26  27
ENDBRANCH   1  26
TORSDOF 20
ENDMDL
MODEL 3
REMARK VINA RESULT:     -11.1     10.046     13.819
REMARK SMILES Cc1ccc(Nc2c(Cl)cccc2Cl)c(CC(=O)OCCOCCOCCOC(=O)c2ccc(-c3c4nc(c(-c5ccccc5)c5ccc([nH]5)c(-c5ccccc5)c5nc(c(-c6ccccc6)c6ccc3[nH]6)C=C5)C=C4)cc2)c1
REMARK SMILES IDX 23 1 22 2 21 3 20 4 19 5 17 6 18 7 16 8 15 9 1 10 2 11 3 12
REMARK SMILES IDX 79 13 4 14 5 15 6 16 7 18 8 19 13 20 9 21 10 22 12 23 14 24
REMARK SMILES IDX 11 25 24 26 25 27 26 28 27 29 28 30 29 31 30 32 31 33 32 34
REMARK SMILES IDX 78 35 33 36 77 37 34 38 35 39 36 40 71 41 37 42 76 43 70 44
REMARK SMILES IDX 72 45 38 46 75 47 69 48 68 49 39 51 61 52 46 53 60 54 47 55
REMARK SMILES IDX 50 56 59 57 73 58 48 59 49 60 58 62 74 63 51 64 40 65 41 66
REMARK SMILES IDX 45 67 42 68 44 69 43 70 62 71 63 72 67 73 64 74 66 75 65 76
REMARK SMILES IDX 52 77 53 78 57 79 54 80 56 81 55 82
REMARK H PARENT 6 17 72 50 50 61
REMARK Flexibility Score: inf
ROOT
ATOM      1  C   UNL A   1      44.884  40.177  26.993  1.00  0.00     0.188 C 
ENDROOT
BRANCH   1   2
ATOM      2  O   UNL A   1      44.175  40.334  25.787  1.00  0.00    -0.376 OA
BRANCH   2   3
ATOM      3  C   UNL A   1      43.218  41.359  25.615  1.00  0.00     0.202 C 
BRANCH   3   4
ATOM      4  C   UNL A   1      42.030  41.609  24.527  1.00  0.00     0.261 C 
BRANCH   4   5
ATOM      5  O   UNL A   1      41.869  41.807  22.740  1.00  0.00    -0.463 OA
BRANCH   5   6
ATOM      6  C   UNL A   1      42.242  42.714  21.428  1.00  0.00     0.310 C 
ATOM      7  O   UNL A   1      41.666  43.601  20.783  1.00  0.00    -0.252 OA
BRANCH   6   8
ATOM      8  C   UNL A   1      43.628  42.658  21.096  1.00  0.00     0.160 C 
BRANCH   8   9
ATOM      9  C   UNL A   1      43.987  44.097  21.196  1.00  0.00    -0.013 A 
ATOM     10  C   UNL A   1      44.732  44.396  24.941  1.00  0.00     0.044 C 
ATOM     11  C   UNL A   1      44.901  44.476  23.458  1.00  0.00    -0.051 A 
ATOM     12  C   UNL A   1      46.120  44.605  22.840  1.00  0.00     0.005 A 
ATOM     13  C   UNL A   1      43.819  44.304  22.630  1.00  0.00     0.009 A 
ATOM     14  C   UNL A   1      46.207  44.584  21.419  1.00  0.00     0.026 A 
ATOM     15  C   UNL A   1      45.028  44.510  20.326  1.00  0.00     0.042 A 
BRANCH  15  16
ATOM     16  N   UNL A   1      45.137  45.269  18.470  1.00  0.00    -0.353 N 
ATOM     17  H   UNL A   1      45.985  45.053  18.019  1.00  0.00     0.167 HD
BRANCH  16  18
ATOM     18  C   UNL A   1      44.009  46.272  17.425  1.00  0.00     0.076 A 
ATOM     19  C   UNL A   1      44.272  47.688  16.840  1.00  0.00     0.066 A 
ATOM     20  C   UNL A   1      42.628  45.964  17.440  1.00  0.00     0.066 A 
ATOM     21  Cl  UNL A   1      45.725  48.675  16.496  1.00  0.00    -0.082 Cl
ATOM     22  C   UNL A   1      43.225  48.583  16.505  1.00  0.00     0.023 A 
ATOM     23  C   UNL A   1      41.632  46.944  17.114  1.00  0.00     0.023 A 
ATOM     24  Cl  UNL A   1      41.944  44.422  17.597  1.00  0.00    -0.082 Cl
ATOM     25  C   UNL A   1      41.915  48.238  16.697  1.00  0.00     0.003 A 
ENDBRANCH  16  18
ENDBRANCH  15  16
ENDBRANCH   8   9
ENDBRANCH   6   8
ENDBRANCH   5   6
ENDBRANCH   4   5
ENDBRANCH   3   4
ENDBRANCH   2   3
ENDBRANCH   1   2
BRANCH   1  26
ATOM     26  C   UNL A   1      44.553  39.065  27.983  1.00  0.00     0.188 C 
BRANCH  26  27
ATOM     27  O   UNL A   1      43.700  39.451  29.036  1.00  0.00    -0.376 OA
BRANCH  27  28
ATOM     28  C   UNL A   1      44.330  40.207  30.070  1.00  0.00     0.202 C 
BRANCH  28  29
ATOM     29  C   UNL A   1      44.156  39.756  31.583  1.00  0.00     0.261 C 
BRANCH  29  30
ATOM     30  O   UNL A   1      45.206  38.852  32.123  1.00  0.00    -0.460 OA
BRANCH  30  31
ATOM     31  C   UNL A   1      45.293  37.470  31.842  1.00  0.00     0.338 C 
ATOM     32  O   UNL A   1      45.736  37.135  30.761  1.00  0.00    -0.246 OA
BRANCH  31  33
ATOM     33  C   UNL A   1      44.715  36.508  33.112  1.00  0.00     0.060 A 
ATOM     34  C   UNL A   1      45.195  34.913  34.143  1.00  0.00     0.016 A 
ATOM     35  C   UNL A   1      43.205  36.297  32.138  1.00  0.00     0.016 A 
ATOM     36  C   UNL A   1      44.211  33.315  33.854  1.00  0.00     0.010 A 
ATOM     37  C   UNL A   1      42.457  34.743  31.901  1.00  0.00     0.010 A 
ATOM     38  C   UNL A   1      42.820  33.175  32.669  1.00  0.00    -0.014 A 
BRANCH  38  39
ATOM     39  C   UNL A   1      41.497  31.879  32.292  1.00  0.00     0.031 A 
ATOM     40  C   UNL A   1      41.432  30.604  30.870  1.00  0.00     0.074 A 
ATOM     41  C   UNL A   1      40.577  31.480  33.202  1.00  0.00     0.049 A 
ATOM     42  N   UNL A   1      40.491  30.452  29.955  1.00  0.00    -0.248 NA
ATOM     43  C   UNL A   1      42.685  29.781  30.167  1.00  0.00     0.031 C 
ATOM     44  C   UNL A   1      39.809  30.219  33.194  1.00  0.00     0.029 A 
ATOM     45  N   UNL A   1      40.185  32.067  34.397  1.00  0.00    -0.354 N 
ATOM     46  C   UNL A   1      41.023  29.608  28.920  1.00  0.00     0.074 A 
ATOM     47  C   UNL A   1      42.418  29.753  28.883  1.00  0.00     0.031 C 
ATOM     48  C   UNL A   1      38.845  30.280  34.132  1.00  0.00     0.029 A 
ATOM     49  C   UNL A   1      38.871  31.631  34.661  1.00  0.00     0.049 A 
ATOM     50  H   UNL A   1      40.724  32.674  34.955  1.00  0.00     0.167 HD
ATOM     51  C   UNL A   1      40.454  28.424  28.535  1.00  0.00     0.031 A 
ATOM     52  C   UNL A   1      37.879  32.555  34.556  1.00  0.00     0.031 A 
ATOM     53  C   UNL A   1      39.256  28.272  29.317  1.00  0.00     0.049 A 
ATOM     54  C   UNL A   1      37.074  32.281  33.300  1.00  0.00     0.074 A 
ATOM     55  C   UNL A   1      38.961  27.580  30.477  1.00  0.00     0.029 A 
ATOM     56  N   UNL A   1      38.369  29.324  29.244  1.00  0.00    -0.354 N 
ATOM     57  N   UNL A   1      37.496  31.527  32.314  1.00  0.00    -0.248 NA
ATOM     58  C   UNL A   1      35.693  32.706  33.110  1.00  0.00     0.031 C 
ATOM     59  C   UNL A   1      37.902  28.291  31.129  1.00  0.00     0.029 A 
ATOM     60  C   UNL A   1      37.565  29.392  30.356  1.00  0.00     0.049 A 
ATOM     61  H   UNL A   1      38.318  29.951  28.487  1.00  0.00     0.167 HD
ATOM     62  C   UNL A   1      36.482  31.293  31.437  1.00  0.00     0.074 A 
ATOM     63  C   UNL A   1      35.381  32.079  31.961  1.00  0.00     0.031 C 
ATOM     64  C   UNL A   1      36.567  30.450  30.367  1.00  0.00     0.031 A 
BRANCH  51  65
ATOM     65  C   UNL A   1      41.186  27.301  27.772  1.00  0.00    -0.014 A 
ATOM     66  C   UNL A   1      41.373  27.428  26.387  1.00  0.00     0.009 A 
ATOM     67  C   UNL A   1      41.722  26.111  28.331  1.00  0.00     0.009 A 
ATOM     68  C   UNL A   1      42.008  26.437  25.613  1.00  0.00     0.001 A 
ATOM     69  C   UNL A   1      42.299  25.084  27.558  1.00  0.00     0.001 A 
ATOM     70  C   UNL A   1      42.454  25.255  26.193  1.00  0.00     0.000 A 
ENDBRANCH  51  65
BRANCH  52  71
ATOM     71  C   UNL A   1      38.329  33.847  35.175  1.00  0.00    -0.014 A 
ATOM     72  C   UNL A   1      38.372  33.878  36.596  1.00  0.00     0.009 A 
ATOM     73  C   UNL A   1      39.145  34.757  34.483  1.00  0.00     0.009 A 
ATOM     74  C   UNL A   1      39.235  34.737  37.288  1.00  0.00     0.001 A 
ATOM     75  C   UNL A   1      40.003  35.625  35.183  1.00  0.00     0.001 A 
ATOM     76  C   UNL A   1      40.035  35.623  36.577  1.00  0.00     0.000 A 
ENDBRANCH  52  71
BRANCH  64  77
ATOM     77  C   UNL A   1      35.696  30.589  29.136  1.00  0.00    -0.014 A 
ATOM     78  C   UNL A   1      35.262  29.497  28.383  1.00  0.00     0.009 A 
ATOM     79  C   UNL A   1      35.109  31.841  28.827  1.00  0.00     0.009 A 
ATOM     80  C   UNL A   1      34.370  29.658  27.321  1.00  0.00     0.001 A 
ATOM     81  C   UNL A   1      34.131  31.987  27.847  1.00  0.00     0.001 A 
ATOM     82  C   UNL A   1      33.792  30.898  27.065  1.00  0.00     0.000 A 
ENDBRANCH  64  77
ENDBRANCH  38  39
ENDBRANCH  31  33
ENDBRANCH  30  31
ENDBRANCH  29  30
ENDBRANCH  28  29
ENDBRANCH  27  28
ENDBRANCH  26  27
ENDBRANCH   1  26
TORSDOF 20
ENDMDL
