MODEL 1
REMARK VINA RESULT:      -9.3      0.000      0.000
REMARK SMILES Cc1ccc(C(=O)OCCOCCOCCOC(=O)c2ccc(-c3c4nc(c(-c5ccccc5)c5ccc([nH]5)c(-c5ccccc5)c5nc(c(-c6ccccc6)c6ccc3[nH]6)C=C5)C=C4)cc2)cc1N1C(=O)/C(=C/c2ccc([N+](=O)[O-])cc2)SC1=S
REMARK SMILES IDX 12 1 11 2 10 3 9 4 8 5 6 6 7 7 5 8 1 9 2 10 3 11 69 12 4 13
REMARK SMILES IDX 68 14 70 15 71 16 85 17 72 18 73 19 84 20 86 21 74 22 75 23
REMARK SMILES IDX 76 24 83 25 77 26 82 27 78 28 79 29 80 30 81 31 13 32 14 33
REMARK SMILES IDX 15 34 16 35 17 36 18 37 19 38 20 39 21 40 67 41 22 42 66 43
REMARK SMILES IDX 23 44 24 45 25 46 60 47 26 48 65 49 59 50 61 51 27 52 64 53
REMARK SMILES IDX 58 54 57 55 28 57 50 58 35 59 49 60 36 61 39 62 48 63 62 64
REMARK SMILES IDX 37 65 38 66 47 68 63 69 40 70 29 71 30 72 34 73 31 74 33 75
REMARK SMILES IDX 32 76 51 77 52 78 56 79 53 80 55 81 54 82 41 83 42 84 46 85
REMARK SMILES IDX 43 86 45 87 44 88
REMARK H PARENT 61 56 39 67
REMARK Flexibility Score: inf
ROOT
ATOM      1  C   UNL A   1      46.380  28.196  35.855  1.00  0.00     0.188 C 
ENDROOT
BRANCH   1   2
ATOM      2  O   UNL A   1      46.137  26.804  36.111  1.00  0.00    -0.376 OA
BRANCH   2   3
ATOM      3  C   UNL A   1      44.804  26.456  36.483  1.00  0.00     0.202 C 
BRANCH   3   4
ATOM      4  C   UNL A   1      44.090  27.493  37.419  1.00  0.00     0.261 C 
BRANCH   4   5
ATOM      5  O   UNL A   1      43.057  28.351  36.796  1.00  0.00    -0.460 OA
BRANCH   5   6
ATOM      6  C   UNL A   1      41.846  28.094  36.195  1.00  0.00     0.338 C 
ATOM      7  O   UNL A   1      41.055  27.271  36.624  1.00  0.00    -0.246 OA
BRANCH   6   8
ATOM      8  C   UNL A   1      41.513  29.054  34.894  1.00  0.00     0.062 A 
ATOM      9  C   UNL A   1      40.328  31.570  31.455  1.00  0.00     0.046 C 
ATOM     10  C   UNL A   1      40.700  30.729  32.640  1.00  0.00    -0.027 A 
ATOM     11  C   UNL A   1      41.994  30.328  32.744  1.00  0.00     0.006 A 
ATOM     12  C   UNL A   1      39.860  30.393  33.718  1.00  0.00     0.054 A 
ATOM     13  C   UNL A   1      42.356  29.572  33.859  1.00  0.00     0.016 A 
ATOM     14  C   UNL A   1      40.238  29.536  34.800  1.00  0.00     0.042 A 
BRANCH  12  15
ATOM     15  N   UNL A   1      38.775  31.231  33.992  1.00  0.00    -0.261 N 
ATOM     16  C   UNL A   1      37.551  30.774  33.510  1.00  0.00     0.270 C 
ATOM     17  C   UNL A   1      38.901  32.573  34.286  1.00  0.00     0.152 C 
ATOM     18  O   UNL A   1      37.214  29.637  33.204  1.00  0.00    -0.268 OA
ATOM     19  C   UNL A   1      36.718  31.945  33.235  1.00  0.00     0.081 C 
ATOM     20  S   UNL A   1      37.358  33.353  33.986  1.00  0.00    -0.054 SA
ATOM     21  S   UNL A   1      40.248  33.392  34.842  1.00  0.00    -0.051 S 
ATOM     22  C   UNL A   1      35.736  31.832  32.339  1.00  0.00     0.029 C 
BRANCH  22  23
ATOM     23  C   UNL A   1      34.943  32.977  31.959  1.00  0.00    -0.024 A 
ATOM     24  C   UNL A   1      34.829  33.354  30.618  1.00  0.00     0.015 A 
ATOM     25  C   UNL A   1      34.403  33.758  32.984  1.00  0.00     0.015 A 
ATOM     26  C   UNL A   1      34.155  34.529  30.297  1.00  0.00     0.086 A 
ATOM     27  C   UNL A   1      33.738  34.933  32.671  1.00  0.00     0.086 A 
ATOM     28  C   UNL A   1      33.611  35.310  31.328  1.00  0.00     0.269 A 
BRANCH  28  29
ATOM     29  N   UNL A   1      32.892  36.543  31.002  1.00  0.00     0.062 N 
ATOM     30  O   UNL A   1      32.766  36.836  29.805  1.00  0.00    -0.258 OA
ATOM     31  O   UNL A   1      32.449  37.216  31.944  1.00  0.00    -0.258 OA
ENDBRANCH  28  29
ENDBRANCH  22  23
ENDBRANCH  12  15
ENDBRANCH   6   8
ENDBRANCH   5   6
ENDBRANCH   4   5
ENDBRANCH   3   4
ENDBRANCH   2   3
ENDBRANCH   1   2
BRANCH   1  32
ATOM     32  C   UNL A   1      47.560  28.378  34.903  1.00  0.00     0.188 C 
BRANCH  32  33
ATOM     33  O   UNL A   1      47.483  27.438  33.847  1.00  0.00    -0.376 OA
BRANCH  33  34
ATOM     34  C   UNL A   1      48.350  27.610  32.725  1.00  0.00     0.202 C 
BRANCH  34  35
ATOM     35  C   UNL A   1      49.883  27.662  32.919  1.00  0.00     0.261 C 
BRANCH  35  36
ATOM     36  O   UNL A   1      50.514  28.208  31.740  1.00  0.00    -0.460 OA
BRANCH  36  37
ATOM     37  C   UNL A   1      50.530  29.569  31.527  1.00  0.00     0.338 C 
ATOM     38  O   UNL A   1      50.795  30.411  32.341  1.00  0.00    -0.246 OA
BRANCH  37  39
ATOM     39  C   UNL A   1      49.813  29.804  30.209  1.00  0.00     0.060 A 
ATOM     40  C   UNL A   1      48.704  30.650  30.108  1.00  0.00     0.016 A 
ATOM     41  C   UNL A   1      49.876  28.788  29.308  1.00  0.00     0.016 A 
ATOM     42  C   UNL A   1      47.594  30.316  29.247  1.00  0.00     0.010 A 
ATOM     43  C   UNL A   1      48.631  28.324  28.876  1.00  0.00     0.010 A 
ATOM     44  C   UNL A   1      47.433  29.043  28.669  1.00  0.00    -0.014 A 
BRANCH  44  45
ATOM     45  C   UNL A   1      45.997  28.442  28.108  1.00  0.00     0.031 A 
ATOM     46  C   UNL A   1      44.488  28.013  28.787  1.00  0.00     0.074 A 
ATOM     47  C   UNL A   1      46.024  28.134  26.797  1.00  0.00     0.049 A 
ATOM     48  N   UNL A   1      43.748  27.005  28.348  1.00  0.00    -0.248 NA
ATOM     49  C   UNL A   1      43.757  28.492  30.020  1.00  0.00     0.031 C 
ATOM     50  C   UNL A   1      44.907  27.865  25.909  1.00  0.00     0.029 A 
ATOM     51  N   UNL A   1      47.141  27.908  26.009  1.00  0.00    -0.354 N 
ATOM     52  C   UNL A   1      42.531  27.052  29.049  1.00  0.00     0.074 A 
ATOM     53  C   UNL A   1      42.810  27.612  30.295  1.00  0.00     0.031 C 
ATOM     54  C   UNL A   1      45.381  27.300  24.787  1.00  0.00     0.029 A 
ATOM     55  C   UNL A   1      46.796  27.036  24.988  1.00  0.00     0.049 A 
ATOM     56  H   UNL A   1      48.032  28.302  26.151  1.00  0.00     0.167 HD
ATOM     57  C   UNL A   1      41.309  27.033  28.444  1.00  0.00     0.031 A 
ATOM     58  C   UNL A   1      47.415  25.821  24.902  1.00  0.00     0.031 A 
ATOM     59  C   UNL A   1      41.426  26.352  27.190  1.00  0.00     0.049 A 
ATOM     60  C   UNL A   1      46.443  24.670  25.060  1.00  0.00     0.074 A 
ATOM     61  C   UNL A   1      41.363  26.723  25.865  1.00  0.00     0.029 A 
ATOM     62  N   UNL A   1      42.002  25.099  27.240  1.00  0.00    -0.354 N 
ATOM     63  N   UNL A   1      45.205  24.828  25.444  1.00  0.00    -0.248 NA
ATOM     64  C   UNL A   1      46.750  23.264  24.805  1.00  0.00     0.031 C 
ATOM     65  C   UNL A   1      42.088  25.735  25.133  1.00  0.00     0.029 A 
ATOM     66  C   UNL A   1      42.513  24.753  26.015  1.00  0.00     0.049 A 
ATOM     67  H   UNL A   1      42.040  24.532  28.043  1.00  0.00     0.167 HD
ATOM     68  C   UNL A   1      44.571  23.624  25.516  1.00  0.00     0.074 A 
ATOM     69  C   UNL A   1      45.578  22.668  25.104  1.00  0.00     0.031 C 
ATOM     70  C   UNL A   1      43.279  23.520  25.940  1.00  0.00     0.031 A 
BRANCH  57  71
ATOM     71  C   UNL A   1      40.069  27.805  28.925  1.00  0.00    -0.014 A 
ATOM     72  C   UNL A   1      39.772  29.052  28.348  1.00  0.00     0.009 A 
ATOM     73  C   UNL A   1      39.228  27.447  30.010  1.00  0.00     0.009 A 
ATOM     74  C   UNL A   1      38.725  29.872  28.815  1.00  0.00     0.001 A 
ATOM     75  C   UNL A   1      38.156  28.240  30.458  1.00  0.00     0.001 A 
ATOM     76  C   UNL A   1      37.910  29.464  29.865  1.00  0.00     0.000 A 
ENDBRANCH  57  71
BRANCH  58  77
ATOM     77  C   UNL A   1      48.873  25.873  25.250  1.00  0.00    -0.014 A 
ATOM     78  C   UNL A   1      49.689  26.686  24.423  1.00  0.00     0.009 A 
ATOM     79  C   UNL A   1      49.402  25.480  26.489  1.00  0.00     0.009 A 
ATOM     80  C   UNL A   1      50.921  27.185  24.858  1.00  0.00     0.001 A 
ATOM     81  C   UNL A   1      50.659  25.961  26.914  1.00  0.00     0.001 A 
ATOM     82  C   UNL A   1      51.401  26.833  26.113  1.00  0.00     0.000 A 
ENDBRANCH  58  77
BRANCH  70  83
ATOM     83  C   UNL A   1      42.620  22.258  26.439  1.00  0.00    -0.014 A 
ATOM     84  C   UNL A   1      41.520  22.256  27.304  1.00  0.00     0.009 A 
ATOM     85  C   UNL A   1      42.956  21.027  25.825  1.00  0.00     0.009 A 
ATOM     86  C   UNL A   1      40.802  21.079  27.556  1.00  0.00     0.001 A 
ATOM     87  C   UNL A   1      42.204  19.869  26.025  1.00  0.00     0.001 A 
ATOM     88  C   UNL A   1      41.131  19.894  26.902  1.00  0.00     0.000 A 
ENDBRANCH  70  83
ENDBRANCH  44  45
ENDBRANCH  37  39
ENDBRANCH  36  37
ENDBRANCH  35  36
ENDBRANCH  34  35
ENDBRANCH  33  34
ENDBRANCH  32  33
ENDBRANCH   1  32
TORSDOF 20
ENDMDL
MODEL 2
REMARK VINA RESULT:      -9.1      5.555     11.027
REMARK SMILES Cc1ccc(C(=O)OCCOCCOCCOC(=O)c2ccc(-c3c4nc(c(-c5ccccc5)c5ccc([nH]5)c(-c5ccccc5)c5nc(c(-c6ccccc6)c6ccc3[nH]6)C=C5)C=C4)cc2)cc1N1C(=O)/C(=C/c2ccc([N+](=O)[O-])cc2)SC1=S
REMARK SMILES IDX 12 1 11 2 10 3 9 4 8 5 6 6 7 7 5 8 1 9 2 10 3 11 69 12 4 13
REMARK SMILES IDX 68 14 70 15 71 16 85 17 72 18 73 19 84 20 86 21 74 22 75 23
REMARK SMILES IDX 76 24 83 25 77 26 82 27 78 28 79 29 80 30 81 31 13 32 14 33
REMARK SMILES IDX 15 34 16 35 17 36 18 37 19 38 20 39 21 40 67 41 22 42 66 43
REMARK SMILES IDX 23 44 24 45 25 46 60 47 26 48 65 49 59 50 61 51 27 52 64 53
REMARK SMILES IDX 58 54 57 55 28 57 50 58 35 59 49 60 36 61 39 62 48 63 62 64
REMARK SMILES IDX 37 65 38 66 47 68 63 69 40 70 29 71 30 72 34 73 31 74 33 75
REMARK SMILES IDX 32 76 51 77 52 78 56 79 53 80 55 81 54 82 41 83 42 84 46 85
REMARK SMILES IDX 43 86 45 87 44 88
REMARK H PARENT 61 56 39 67
REMARK Flexibility Score: inf
ROOT
ATOM      1  C   UNL A   1      39.905  30.048  29.358  1.00  0.00     0.188 C 
ENDROOT
BRANCH   1   2
ATOM      2  O   UNL A   1      38.975  31.141  29.368  1.00  0.00    -0.376 OA
BRANCH   2   3
ATOM      3  C   UNL A   1      38.040  31.162  30.446  1.00  0.00     0.202 C 
BRANCH   3   4
ATOM      4  C   UNL A   1      36.615  31.698  30.071  1.00  0.00     0.261 C 
BRANCH   4   5
ATOM      5  O   UNL A   1      35.685  30.735  29.440  1.00  0.00    -0.460 OA
BRANCH   5   6
ATOM      6  C   UNL A   1      35.683  30.067  28.237  1.00  0.00     0.338 C 
ATOM      7  O   UNL A   1      36.609  29.366  27.867  1.00  0.00    -0.246 OA
BRANCH   6   8
ATOM      8  C   UNL A   1      34.285  30.222  27.374  1.00  0.00     0.062 A 
ATOM      9  C   UNL A   1      30.660  30.458  24.851  1.00  0.00     0.046 C 
ATOM     10  C   UNL A   1      31.893  30.342  25.696  1.00  0.00    -0.027 A 
ATOM     11  C   UNL A   1      32.061  31.254  26.689  1.00  0.00     0.006 A 
ATOM     12  C   UNL A   1      32.853  29.315  25.631  1.00  0.00     0.054 A 
ATOM     13  C   UNL A   1      33.189  31.135  27.501  1.00  0.00     0.016 A 
ATOM     14  C   UNL A   1      34.049  29.275  26.417  1.00  0.00     0.042 A 
BRANCH  12  15
ATOM     15  N   UNL A   1      32.460  28.080  25.109  1.00  0.00    -0.261 N 
ATOM     16  C   UNL A   1      31.986  27.173  26.054  1.00  0.00     0.270 C 
ATOM     17  C   UNL A   1      32.895  27.590  23.895  1.00  0.00     0.152 C 
ATOM     18  O   UNL A   1      31.540  27.384  27.175  1.00  0.00    -0.268 OA
ATOM     19  C   UNL A   1      32.273  25.827  25.559  1.00  0.00     0.081 C 
ATOM     20  S   UNL A   1      32.666  25.850  23.885  1.00  0.00    -0.054 SA
ATOM     21  S   UNL A   1      33.537  28.435  22.603  1.00  0.00    -0.051 S 
ATOM     22  C   UNL A   1      32.380  24.833  26.442  1.00  0.00     0.029 C 
BRANCH  22  23
ATOM     23  C   UNL A   1      32.754  23.503  26.021  1.00  0.00    -0.024 A 
ATOM     24  C   UNL A   1      31.783  22.584  25.612  1.00  0.00     0.015 A 
ATOM     25  C   UNL A   1      34.094  23.135  26.157  1.00  0.00     0.015 A 
ATOM     26  C   UNL A   1      32.164  21.276  25.326  1.00  0.00     0.086 A 
ATOM     27  C   UNL A   1      34.478  21.832  25.881  1.00  0.00     0.086 A 
ATOM     28  C   UNL A   1      33.511  20.910  25.460  1.00  0.00     0.269 A 
BRANCH  28  29
ATOM     29  N   UNL A   1      33.925  19.539  25.153  1.00  0.00     0.062 N 
ATOM     30  O   UNL A   1      35.071  19.368  24.715  1.00  0.00    -0.258 OA
ATOM     31  O   UNL A   1      33.105  18.633  25.356  1.00  0.00    -0.258 OA
ENDBRANCH  28  29
ENDBRANCH  22  23
ENDBRANCH  12  15
ENDBRANCH   6   8
ENDBRANCH   5   6
ENDBRANCH   4   5
ENDBRANCH   3   4
ENDBRANCH   2   3
ENDBRANCH   1   2
BRANCH   1  32
ATOM     32  C   UNL A   1      39.568  29.034  30.449  1.00  0.00     0.188 C 
BRANCH  32  33
ATOM     33  O   UNL A   1      39.683  27.717  29.944  1.00  0.00    -0.376 OA
BRANCH  33  34
ATOM     34  C   UNL A   1      40.616  27.476  28.890  1.00  0.00     0.202 C 
BRANCH  34  35
ATOM     35  C   UNL A   1      41.859  26.588  29.128  1.00  0.00     0.261 C 
BRANCH  35  36
ATOM     36  O   UNL A   1      42.588  26.414  27.894  1.00  0.00    -0.460 OA
BRANCH  36  37
ATOM     37  C   UNL A   1      42.222  25.431  27.001  1.00  0.00     0.338 C 
ATOM     38  O   UNL A   1      41.470  24.521  27.218  1.00  0.00    -0.246 OA
BRANCH  37  39
ATOM     39  C   UNL A   1      43.209  25.510  25.850  1.00  0.00     0.060 A 
ATOM     40  C   UNL A   1      44.330  24.679  25.773  1.00  0.00     0.016 A 
ATOM     41  C   UNL A   1      43.319  26.723  25.243  1.00  0.00     0.016 A 
ATOM     42  C   UNL A   1      45.591  25.179  25.280  1.00  0.00     0.010 A 
ATOM     43  C   UNL A   1      44.618  27.235  25.215  1.00  0.00     0.010 A 
ATOM     44  C   UNL A   1      45.846  26.550  25.091  1.00  0.00    -0.014 A 
BRANCH  44  45
ATOM     45  C   UNL A   1      47.357  27.221  25.017  1.00  0.00     0.031 A 
ATOM     46  C   UNL A   1      48.641  27.253  23.888  1.00  0.00     0.074 A 
ATOM     47  C   UNL A   1      47.721  27.843  26.155  1.00  0.00     0.049 A 
ATOM     48  N   UNL A   1      49.920  27.264  24.235  1.00  0.00    -0.248 NA
ATOM     49  C   UNL A   1      48.672  27.121  22.382  1.00  0.00     0.031 C 
ATOM     50  C   UNL A   1      48.818  28.770  26.368  1.00  0.00     0.029 A 
ATOM     51  N   UNL A   1      47.182  27.665  27.419  1.00  0.00    -0.354 N 
ATOM     52  C   UNL A   1      50.665  27.434  23.055  1.00  0.00     0.074 A 
ATOM     53  C   UNL A   1      49.917  26.861  22.026  1.00  0.00     0.031 C 
ATOM     54  C   UNL A   1      49.015  28.902  27.689  1.00  0.00     0.029 A 
ATOM     55  C   UNL A   1      48.162  27.937  28.362  1.00  0.00     0.049 A 
ATOM     56  H   UNL A   1      46.256  27.392  27.615  1.00  0.00     0.167 HD
ATOM     57  C   UNL A   1      51.627  28.387  22.900  1.00  0.00     0.031 A 
ATOM     58  C   UNL A   1      48.568  26.950  29.214  1.00  0.00     0.031 A 
ATOM     59  C   UNL A   1      52.176  28.701  24.185  1.00  0.00     0.049 A 
ATOM     60  C   UNL A   1      50.034  26.609  29.040  1.00  0.00     0.074 A 
ATOM     61  C   UNL A   1      52.138  29.791  25.024  1.00  0.00     0.029 A 
ATOM     62  N   UNL A   1      52.622  27.625  24.925  1.00  0.00    -0.354 N 
ATOM     63  N   UNL A   1      50.758  27.056  28.049  1.00  0.00    -0.248 NA
ATOM     64  C   UNL A   1      50.817  25.760  29.935  1.00  0.00     0.031 C 
ATOM     65  C   UNL A   1      52.396  29.298  26.340  1.00  0.00     0.029 A 
ATOM     66  C   UNL A   1      52.655  27.939  26.260  1.00  0.00     0.049 A 
ATOM     67  H   UNL A   1      52.881  26.754  24.548  1.00  0.00     0.167 HD
ATOM     68  C   UNL A   1      52.031  26.576  28.134  1.00  0.00     0.074 A 
ATOM     69  C   UNL A   1      52.024  25.767  29.335  1.00  0.00     0.031 C 
ATOM     70  C   UNL A   1      52.968  26.863  27.186  1.00  0.00     0.031 A 
BRANCH  57  71
ATOM     71  C   UNL A   1      51.918  29.151  21.597  1.00  0.00    -0.014 A 
ATOM     72  C   UNL A   1      51.112  30.251  21.254  1.00  0.00     0.009 A 
ATOM     73  C   UNL A   1      52.862  28.785  20.604  1.00  0.00     0.009 A 
ATOM     74  C   UNL A   1      51.238  30.927  20.024  1.00  0.00     0.001 A 
ATOM     75  C   UNL A   1      53.023  29.478  19.390  1.00  0.00     0.001 A 
ATOM     76  C   UNL A   1      52.199  30.547  19.094  1.00  0.00     0.000 A 
ENDBRANCH  57  71
BRANCH  58  77
ATOM     77  C   UNL A   1      47.447  26.066  29.675  1.00  0.00    -0.014 A 
ATOM     78  C   UNL A   1      47.019  26.241  31.015  1.00  0.00     0.009 A 
ATOM     79  C   UNL A   1      46.593  25.363  28.812  1.00  0.00     0.009 A 
ATOM     80  C   UNL A   1      45.748  25.843  31.445  1.00  0.00     0.001 A 
ATOM     81  C   UNL A   1      45.324  24.935  29.256  1.00  0.00     0.001 A 
ATOM     82  C   UNL A   1      44.893  25.201  30.559  1.00  0.00     0.000 A 
ENDBRANCH  58  77
BRANCH  70  83
ATOM     83  C   UNL A   1      54.242  26.090  26.953  1.00  0.00    -0.014 A 
ATOM     84  C   UNL A   1      55.408  26.285  27.703  1.00  0.00     0.009 A 
ATOM     85  C   UNL A   1      54.203  24.950  26.114  1.00  0.00     0.009 A 
ATOM     86  C   UNL A   1      56.485  25.394  27.607  1.00  0.00     0.001 A 
ATOM     87  C   UNL A   1      55.249  24.028  26.065  1.00  0.00     0.001 A 
ATOM     88  C   UNL A   1      56.397  24.258  26.807  1.00  0.00     0.000 A 
ENDBRANCH  70  83
ENDBRANCH  44  45
ENDBRANCH  37  39
ENDBRANCH  36  37
ENDBRANCH  35  36
ENDBRANCH  34  35
ENDBRANCH  33  34
ENDBRANCH  32  33
ENDBRANCH   1  32
TORSDOF 20
ENDMDL
MODEL 3
REMARK VINA RESULT:      -9.0      3.723     11.010
REMARK SMILES Cc1ccc(C(=O)OCCOCCOCCOC(=O)c2ccc(-c3c4nc(c(-c5ccccc5)c5ccc([nH]5)c(-c5ccccc5)c5nc(c(-c6ccccc6)c6ccc3[nH]6)C=C5)C=C4)cc2)cc1N1C(=O)/C(=C/c2ccc([N+](=O)[O-])cc2)SC1=S
REMARK SMILES IDX 12 1 11 2 10 3 9 4 8 5 6 6 7 7 5 8 1 9 2 10 3 11 69 12 4 13
REMARK SMILES IDX 68 14 70 15 71 16 85 17 72 18 73 19 84 20 86 21 74 22 75 23
REMARK SMILES IDX 76 24 83 25 77 26 82 27 78 28 79 29 80 30 81 31 13 32 14 33
REMARK SMILES IDX 15 34 16 35 17 36 18 37 19 38 20 39 21 40 67 41 22 42 66 43
REMARK SMILES IDX 23 44 24 45 25 46 60 47 26 48 65 49 59 50 61 51 27 52 64 53
REMARK SMILES IDX 58 54 57 55 28 57 50 58 35 59 49 60 36 61 39 62 48 63 62 64
REMARK SMILES IDX 37 65 38 66 47 68 63 69 40 70 29 71 30 72 34 73 31 74 33 75
REMARK SMILES IDX 32 76 51 77 52 78 56 79 53 80 55 81 54 82 41 83 42 84 46 85
REMARK SMILES IDX 43 86 45 87 44 88
REMARK H PARENT 61 56 39 67
REMARK Flexibility Score: inf
ROOT
ATOM      1  C   UNL A   1      37.805  32.910  35.006  1.00  0.00     0.188 C 
ENDROOT
BRANCH   1   2
ATOM      2  O   UNL A   1      37.613  31.500  35.190  1.00  0.00    -0.376 OA
BRANCH   2   3
ATOM      3  C   UNL A   1      38.710  30.784  35.755  1.00  0.00     0.202 C 
BRANCH   3   4
ATOM      4  C   UNL A   1      39.712  30.183  34.708  1.00  0.00     0.261 C 
BRANCH   4   5
ATOM      5  O   UNL A   1      41.145  30.187  35.080  1.00  0.00    -0.460 OA
BRANCH   5   6
ATOM      6  C   UNL A   1      41.869  29.569  36.073  1.00  0.00     0.338 C 
ATOM      7  O   UNL A   1      42.269  30.156  37.064  1.00  0.00    -0.246 OA
BRANCH   6   8
ATOM      8  C   UNL A   1      42.081  27.946  35.854  1.00  0.00     0.062 A 
ATOM      9  C   UNL A   1      42.915  23.662  35.142  1.00  0.00     0.046 C 
ATOM     10  C   UNL A   1      42.668  25.120  35.391  1.00  0.00    -0.027 A 
ATOM     11  C   UNL A   1      41.397  25.501  35.682  1.00  0.00     0.006 A 
ATOM     12  C   UNL A   1      43.646  26.130  35.453  1.00  0.00     0.054 A 
ATOM     13  C   UNL A   1      41.164  26.851  35.947  1.00  0.00     0.016 A 
ATOM     14  C   UNL A   1      43.361  27.521  35.634  1.00  0.00     0.042 A 
BRANCH  12  15
ATOM     15  N   UNL A   1      44.955  25.759  35.775  1.00  0.00    -0.261 N 
ATOM     16  C   UNL A   1      45.758  25.450  34.680  1.00  0.00     0.270 C 
ATOM     17  C   UNL A   1      45.333  25.288  37.016  1.00  0.00     0.152 C 
ATOM     18  O   UNL A   1      45.625  25.772  33.506  1.00  0.00    -0.268 OA
ATOM     19  C   UNL A   1      46.755  24.476  35.123  1.00  0.00     0.081 C 
ATOM     20  S   UNL A   1      46.844  24.413  36.839  1.00  0.00    -0.054 SA
ATOM     21  S   UNL A   1      44.551  25.477  38.481  1.00  0.00    -0.051 S 
ATOM     22  C   UNL A   1      47.303  23.667  34.214  1.00  0.00     0.029 C 
BRANCH  22  23
ATOM     23  C   UNL A   1      48.223  22.625  34.607  1.00  0.00    -0.024 A 
ATOM     24  C   UNL A   1      47.759  21.344  34.921  1.00  0.00     0.015 A 
ATOM     25  C   UNL A   1      49.563  22.977  34.780  1.00  0.00     0.015 A 
ATOM     26  C   UNL A   1      48.655  20.397  35.408  1.00  0.00     0.086 A 
ATOM     27  C   UNL A   1      50.459  22.041  35.272  1.00  0.00     0.086 A 
ATOM     28  C   UNL A   1      50.002  20.753  35.578  1.00  0.00     0.269 A 
BRANCH  28  29
ATOM     29  N   UNL A   1      50.956  19.763  36.081  1.00  0.00     0.062 N 
ATOM     30  O   UNL A   1      51.346  19.883  37.251  1.00  0.00    -0.258 OA
ATOM     31  O   UNL A   1      51.310  18.861  35.309  1.00  0.00    -0.258 OA
ENDBRANCH  28  29
ENDBRANCH  22  23
ENDBRANCH  12  15
ENDBRANCH   6   8
ENDBRANCH   5   6
ENDBRANCH   4   5
ENDBRANCH   3   4
ENDBRANCH   2   3
ENDBRANCH   1   2
BRANCH   1  32
ATOM     32  C   UNL A   1      36.502  33.589  34.589  1.00  0.00     0.188 C 
BRANCH  32  33
ATOM     33  O   UNL A   1      35.693  32.686  33.860  1.00  0.00    -0.376 OA
BRANCH  33  34
ATOM     34  C   UNL A   1      35.308  33.044  32.532  1.00  0.00     0.202 C 
BRANCH  34  35
ATOM     35  C   UNL A   1      35.280  31.982  31.408  1.00  0.00     0.261 C 
BRANCH  35  36
ATOM     36  O   UNL A   1      36.448  31.137  31.495  1.00  0.00    -0.460 OA
BRANCH  36  37
ATOM     37  C   UNL A   1      37.361  31.105  30.464  1.00  0.00     0.338 C 
ATOM     38  O   UNL A   1      37.576  31.988  29.680  1.00  0.00    -0.246 OA
BRANCH  37  39
ATOM     39  C   UNL A   1      37.763  29.651  30.294  1.00  0.00     0.060 A 
ATOM     40  C   UNL A   1      38.710  29.039  31.121  1.00  0.00     0.016 A 
ATOM     41  C   UNL A   1      37.650  29.146  29.036  1.00  0.00     0.016 A 
ATOM     42  C   UNL A   1      39.657  28.091  30.587  1.00  0.00     0.010 A 
ATOM     43  C   UNL A   1      38.832  28.601  28.528  1.00  0.00     0.010 A 
ATOM     44  C   UNL A   1      39.861  27.912  29.205  1.00  0.00    -0.014 A 
BRANCH  44  45
ATOM     45  C   UNL A   1      41.220  27.245  28.537  1.00  0.00     0.031 A 
ATOM     46  C   UNL A   1      41.921  25.687  28.456  1.00  0.00     0.074 A 
ATOM     47  C   UNL A   1      42.038  28.155  27.972  1.00  0.00     0.049 A 
ATOM     48  N   UNL A   1      43.229  25.472  28.466  1.00  0.00    -0.248 NA
ATOM     49  C   UNL A   1      41.322  24.301  28.515  1.00  0.00     0.031 C 
ATOM     50  C   UNL A   1      43.145  27.932  27.060  1.00  0.00     0.029 A 
ATOM     51  N   UNL A   1      42.067  29.520  28.208  1.00  0.00    -0.354 N 
ATOM     52  C   UNL A   1      43.421  24.098  28.242  1.00  0.00     0.074 A 
ATOM     53  C   UNL A   1      42.301  23.449  28.762  1.00  0.00     0.031 C 
ATOM     54  C   UNL A   1      43.875  29.056  26.993  1.00  0.00     0.029 A 
ATOM     55  C   UNL A   1      43.356  29.981  27.986  1.00  0.00     0.049 A 
ATOM     56  H   UNL A   1      41.300  30.070  28.488  1.00  0.00     0.167 HD
ATOM     57  C   UNL A   1      44.254  23.597  27.286  1.00  0.00     0.031 A 
ATOM     58  C   UNL A   1      44.056  30.545  29.014  1.00  0.00     0.031 A 
ATOM     59  C   UNL A   1      45.294  24.550  27.036  1.00  0.00     0.049 A 
ATOM     60  C   UNL A   1      45.309  29.763  29.352  1.00  0.00     0.074 A 
ATOM     61  C   UNL A   1      45.632  25.376  25.987  1.00  0.00     0.029 A 
ATOM     62  N   UNL A   1      45.981  24.992  28.148  1.00  0.00    -0.354 N 
ATOM     63  N   UNL A   1      45.567  28.582  28.860  1.00  0.00    -0.248 NA
ATOM     64  C   UNL A   1      46.373  30.216  30.246  1.00  0.00     0.031 C 
ATOM     65  C   UNL A   1      46.401  26.443  26.544  1.00  0.00     0.029 A 
ATOM     66  C   UNL A   1      46.572  26.205  27.899  1.00  0.00     0.049 A 
ATOM     67  H   UNL A   1      46.040  24.505  29.001  1.00  0.00     0.167 HD
ATOM     68  C   UNL A   1      46.749  28.110  29.348  1.00  0.00     0.074 A 
ATOM     69  C   UNL A   1      47.223  29.170  30.214  1.00  0.00     0.031 C 
ATOM     70  C   UNL A   1      47.216  26.872  29.019  1.00  0.00     0.031 A 
BRANCH  57  71
ATOM     71  C   UNL A   1      43.997  22.325  26.461  1.00  0.00    -0.014 A 
ATOM     72  C   UNL A   1      42.784  21.634  26.630  1.00  0.00     0.009 A 
ATOM     73  C   UNL A   1      44.927  21.676  25.609  1.00  0.00     0.009 A 
ATOM     74  C   UNL A   1      42.523  20.400  26.001  1.00  0.00     0.001 A 
ATOM     75  C   UNL A   1      44.660  20.464  24.946  1.00  0.00     0.001 A 
ATOM     76  C   UNL A   1      43.457  19.817  25.152  1.00  0.00     0.000 A 
ENDBRANCH  57  71
BRANCH  58  77
ATOM     77  C   UNL A   1      43.207  31.392  29.915  1.00  0.00    -0.014 A 
ATOM     78  C   UNL A   1      43.004  32.735  29.509  1.00  0.00     0.009 A 
ATOM     79  C   UNL A   1      42.345  30.879  30.897  1.00  0.00     0.009 A 
ATOM     80  C   UNL A   1      41.921  33.492  29.967  1.00  0.00     0.001 A 
ATOM     81  C   UNL A   1      41.271  31.655  31.380  1.00  0.00     0.001 A 
ATOM     82  C   UNL A   1      41.043  32.946  30.895  1.00  0.00     0.000 A 
ENDBRANCH  58  77
BRANCH  70  83
ATOM     83  C   UNL A   1      48.261  26.098  29.785  1.00  0.00    -0.014 A 
ATOM     84  C   UNL A   1      49.459  25.654  29.214  1.00  0.00     0.009 A 
ATOM     85  C   UNL A   1      48.155  26.023  31.194  1.00  0.00     0.009 A 
ATOM     86  C   UNL A   1      50.493  25.146  30.012  1.00  0.00     0.001 A 
ATOM     87  C   UNL A   1      49.207  25.576  31.995  1.00  0.00     0.001 A 
ATOM     88  C   UNL A   1      50.375  25.127  31.400  1.00  0.00     0.000 A 
ENDBRANCH  70  83
ENDBRANCH  44  45
ENDBRANCH  37  39
ENDBRANCH  36  37
ENDBRANCH  35  36
ENDBRANCH  34  35
ENDBRANCH  33  34
ENDBRANCH  32  33
ENDBRANCH   1  32
TORSDOF 20
ENDMDL
