MODEL 1
REMARK VINA RESULT:     -10.5      0.000      0.000
REMARK SMILES CCCc1cc2c(cc1Cl)C=C(C(=O)OCCOCCOCCOC(=O)c1ccc(-c3c4nc(c(-c5ccccc5)c5ccc([nH]5)c(-c5ccccc5)c5nc(c(-c6ccccc6)c6ccc3[nH]6)C=C5)C=C4)cc1)[C@H](C(F)(F)F)O2
REMARK SMILES IDX 19 1 18 2 17 3 16 4 15 5 13 6 14 7 12 8 4 9 5 10 9 11 6 12
REMARK SMILES IDX 8 13 10 14 7 15 80 16 11 17 75 18 3 19 2 20 1 21 76 22 77 23
REMARK SMILES IDX 78 24 79 25 20 26 21 27 22 28 23 29 24 30 25 31 26 32 27 33
REMARK SMILES IDX 28 34 74 35 29 36 73 37 30 38 31 39 32 40 67 41 33 42 72 43
REMARK SMILES IDX 66 44 68 45 34 46 71 47 65 48 64 49 35 51 57 52 42 53 56 54
REMARK SMILES IDX 43 55 46 56 55 57 69 58 44 59 45 60 54 62 70 63 47 64 36 65
REMARK SMILES IDX 37 66 41 67 38 68 40 69 39 70 58 71 59 72 63 73 60 74 62 75
REMARK SMILES IDX 61 76 48 77 49 78 53 79 50 80 52 81 51 82
REMARK H PARENT 68 50 46 61
REMARK Flexibility Score: inf
ROOT
ATOM      1  C   UNL A   1      41.065  20.533  27.417  1.00  0.00     0.188 C 
ENDROOT
BRANCH   1   2
ATOM      2  O   UNL A   1      40.184  21.623  27.256  1.00  0.00    -0.376 OA
BRANCH   2   3
ATOM      3  C   UNL A   1      39.526  21.838  26.015  1.00  0.00     0.202 C 
BRANCH   3   4
ATOM      4  C   UNL A   1      38.045  22.231  25.904  1.00  0.00     0.261 C 
BRANCH   4   5
ATOM      5  O   UNL A   1      37.421  21.933  24.646  1.00  0.00    -0.460 OA
BRANCH   5   6
ATOM      6  C   UNL A   1      36.317  21.158  24.719  1.00  0.00     0.338 C 
ATOM      7  O   UNL A   1      36.286  19.971  25.002  1.00  0.00    -0.246 OA
BRANCH   6   8
ATOM      8  C   UNL A   1      35.092  21.966  24.584  1.00  0.00     0.087 C 
ATOM      9  C   UNL A   1      32.178  26.040  23.997  1.00  0.00    -0.026 A 
ATOM     10  C   UNL A   1      32.112  24.867  24.779  1.00  0.00     0.052 A 
ATOM     11  C   UNL A   1      33.262  26.175  23.115  1.00  0.00     0.045 A 
ATOM     12  C   UNL A   1      33.092  23.875  24.695  1.00  0.00     0.128 A 
ATOM     13  C   UNL A   1      34.219  25.159  22.996  1.00  0.00     0.032 A 
ATOM     14  Cl  UNL A   1      33.560  27.608  22.201  1.00  0.00    -0.084 Cl
ATOM     15  C   UNL A   1      34.145  24.016  23.797  1.00  0.00     0.019 A 
ATOM     16  O   UNL A   1      33.003  22.850  25.596  1.00  0.00    -0.475 OA
ATOM     17  C   UNL A   1      35.224  23.046  23.801  1.00  0.00     0.027 C 
ATOM     18  C   UNL A   1      33.875  21.690  25.426  1.00  0.00     0.316 C 
BRANCH   9  19
ATOM     19  C   UNL A   1      31.141  27.116  24.258  1.00  0.00     0.037 C 
BRANCH  19  20
ATOM     20  C   UNL A   1      29.909  27.193  23.348  1.00  0.00     0.001 C 
ATOM     21  C   UNL A   1      29.334  28.590  23.192  1.00  0.00     0.004 C 
ENDBRANCH  19  20
ENDBRANCH   9  19
BRANCH  18  22
ATOM     22  C   UNL A   1      32.994  20.506  24.987  1.00  0.00     0.430 C 
ATOM     23  F   UNL A   1      33.038  20.303  23.651  1.00  0.00    -0.167 F 
ATOM     24  F   UNL A   1      33.336  19.358  25.608  1.00  0.00    -0.167 F 
ATOM     25  F   UNL A   1      31.694  20.736  25.308  1.00  0.00    -0.167 F 
ENDBRANCH  18  22
ENDBRANCH   6   8
ENDBRANCH   5   6
ENDBRANCH   4   5
ENDBRANCH   3   4
ENDBRANCH   2   3
ENDBRANCH   1   2
BRANCH   1  26
ATOM     26  C   UNL A   1      41.222  19.499  26.289  1.00  0.00     0.188 C 
BRANCH  26  27
ATOM     27  O   UNL A   1      42.358  19.496  25.457  1.00  0.00    -0.376 OA
BRANCH  27  28
ATOM     28  C   UNL A   1      43.429  20.393  25.702  1.00  0.00     0.202 C 
BRANCH  28  29
ATOM     29  C   UNL A   1      43.933  21.420  24.676  1.00  0.00     0.261 C 
BRANCH  29  30
ATOM     30  O   UNL A   1      43.286  22.696  24.687  1.00  0.00    -0.460 OA
BRANCH  30  31
ATOM     31  C   UNL A   1      44.119  23.762  24.843  1.00  0.00     0.338 C 
ATOM     32  O   UNL A   1      45.097  24.043  24.189  1.00  0.00    -0.246 OA
BRANCH  31  33
ATOM     33  C   UNL A   1      43.506  24.668  25.836  1.00  0.00     0.060 A 
ATOM     34  C   UNL A   1      42.534  24.193  26.714  1.00  0.00     0.016 A 
ATOM     35  C   UNL A   1      43.909  26.011  25.869  1.00  0.00     0.016 A 
ATOM     36  C   UNL A   1      41.972  25.068  27.644  1.00  0.00     0.010 A 
ATOM     37  C   UNL A   1      43.333  26.889  26.788  1.00  0.00     0.010 A 
ATOM     38  C   UNL A   1      42.376  26.417  27.695  1.00  0.00    -0.014 A 
BRANCH  38  39
ATOM     39  C   UNL A   1      41.927  27.267  28.822  1.00  0.00     0.031 A 
ATOM     40  C   UNL A   1      40.712  28.138  28.730  1.00  0.00     0.074 A 
ATOM     41  C   UNL A   1      42.647  27.225  29.960  1.00  0.00     0.049 A 
ATOM     42  N   UNL A   1      40.138  28.836  29.678  1.00  0.00    -0.248 NA
ATOM     43  C   UNL A   1      40.059  28.250  27.418  1.00  0.00     0.031 C 
ATOM     44  C   UNL A   1      43.864  26.433  30.145  1.00  0.00     0.029 A 
ATOM     45  N   UNL A   1      42.457  27.840  31.170  1.00  0.00    -0.354 N 
ATOM     46  C   UNL A   1      39.042  29.448  29.089  1.00  0.00     0.074 A 
ATOM     47  C   UNL A   1      39.058  29.081  27.688  1.00  0.00     0.031 C 
ATOM     48  C   UNL A   1      44.291  26.579  31.408  1.00  0.00     0.029 A 
ATOM     49  C   UNL A   1      43.400  27.498  32.110  1.00  0.00     0.049 A 
ATOM     50  H   UNL A   1      41.718  28.465  31.349  1.00  0.00     0.167 HD
ATOM     51  C   UNL A   1      38.103  30.228  29.677  1.00  0.00     0.031 A 
ATOM     52  C   UNL A   1      43.532  27.871  33.398  1.00  0.00     0.031 A 
ATOM     53  C   UNL A   1      38.112  30.601  31.071  1.00  0.00     0.049 A 
ATOM     54  C   UNL A   1      42.496  28.770  34.010  1.00  0.00     0.074 A 
ATOM     55  C   UNL A   1      37.172  31.349  31.760  1.00  0.00     0.029 A 
ATOM     56  N   UNL A   1      39.104  30.271  31.981  1.00  0.00    -0.354 N 
ATOM     57  N   UNL A   1      41.409  29.262  33.467  1.00  0.00    -0.248 NA
ATOM     58  C   UNL A   1      42.689  29.150  35.416  1.00  0.00     0.031 C 
ATOM     59  C   UNL A   1      37.635  31.541  33.062  1.00  0.00     0.029 A 
ATOM     60  C   UNL A   1      38.818  30.837  33.213  1.00  0.00     0.049 A 
ATOM     61  H   UNL A   1      39.894  29.718  31.781  1.00  0.00     0.167 HD
ATOM     62  C   UNL A   1      40.778  29.987  34.468  1.00  0.00     0.074 A 
ATOM     63  C   UNL A   1      41.590  29.854  35.658  1.00  0.00     0.031 C 
ATOM     64  C   UNL A   1      39.628  30.701  34.399  1.00  0.00     0.031 A 
BRANCH  51  65
ATOM     65  C   UNL A   1      36.958  30.733  28.841  1.00  0.00    -0.014 A 
ATOM     66  C   UNL A   1      36.877  32.098  28.512  1.00  0.00     0.009 A 
ATOM     67  C   UNL A   1      35.875  29.897  28.528  1.00  0.00     0.009 A 
ATOM     68  C   UNL A   1      35.727  32.618  27.917  1.00  0.00     0.001 A 
ATOM     69  C   UNL A   1      34.737  30.415  27.904  1.00  0.00     0.001 A 
ATOM     70  C   UNL A   1      34.658  31.777  27.614  1.00  0.00     0.000 A 
ENDBRANCH  51  65
BRANCH  52  71
ATOM     71  C   UNL A   1      44.678  27.350  34.191  1.00  0.00    -0.014 A 
ATOM     72  C   UNL A   1      45.924  27.997  34.152  1.00  0.00     0.009 A 
ATOM     73  C   UNL A   1      44.550  26.176  34.948  1.00  0.00     0.009 A 
ATOM     74  C   UNL A   1      47.023  27.468  34.829  1.00  0.00     0.001 A 
ATOM     75  C   UNL A   1      45.642  25.668  35.656  1.00  0.00     0.001 A 
ATOM     76  C   UNL A   1      46.879  26.307  35.587  1.00  0.00     0.000 A 
ENDBRANCH  52  71
BRANCH  64  77
ATOM     77  C   UNL A   1      39.148  31.399  35.645  1.00  0.00    -0.014 A 
ATOM     78  C   UNL A   1      38.188  30.783  36.464  1.00  0.00     0.009 A 
ATOM     79  C   UNL A   1      39.549  32.711  35.943  1.00  0.00     0.009 A 
ATOM     80  C   UNL A   1      37.620  31.470  37.537  1.00  0.00     0.001 A 
ATOM     81  C   UNL A   1      39.006  33.384  37.039  1.00  0.00     0.001 A 
ATOM     82  C   UNL A   1      38.031  32.770  37.826  1.00  0.00     0.000 A 
ENDBRANCH  64  77
ENDBRANCH  38  39
ENDBRANCH  31  33
ENDBRANCH  30  31
ENDBRANCH  29  30
ENDBRANCH  28  29
ENDBRANCH  27  28
ENDBRANCH  26  27
ENDBRANCH   1  26
TORSDOF 20
ENDMDL
MODEL 2
REMARK VINA RESULT:     -10.1      3.989      7.863
REMARK SMILES CCCc1cc2c(cc1Cl)C=C(C(=O)OCCOCCOCCOC(=O)c1ccc(-c3c4nc(c(-c5ccccc5)c5ccc([nH]5)c(-c5ccccc5)c5nc(c(-c6ccccc6)c6ccc3[nH]6)C=C5)C=C4)cc1)[C@H](C(F)(F)F)O2
REMARK SMILES IDX 19 1 18 2 17 3 16 4 15 5 13 6 14 7 12 8 4 9 5 10 9 11 6 12
REMARK SMILES IDX 8 13 10 14 7 15 80 16 11 17 75 18 3 19 2 20 1 21 76 22 77 23
REMARK SMILES IDX 78 24 79 25 20 26 21 27 22 28 23 29 24 30 25 31 26 32 27 33
REMARK SMILES IDX 28 34 74 35 29 36 73 37 30 38 31 39 32 40 67 41 33 42 72 43
REMARK SMILES IDX 66 44 68 45 34 46 71 47 65 48 64 49 35 51 57 52 42 53 56 54
REMARK SMILES IDX 43 55 46 56 55 57 69 58 44 59 45 60 54 62 70 63 47 64 36 65
REMARK SMILES IDX 37 66 41 67 38 68 40 69 39 70 58 71 59 72 63 73 60 74 62 75
REMARK SMILES IDX 61 76 48 77 49 78 53 79 50 80 52 81 51 82
REMARK H PARENT 68 50 46 61
REMARK Flexibility Score: inf
ROOT
ATOM      1  C   UNL A   1      33.460  22.256  27.452  1.00  0.00     0.188 C 
ENDROOT
BRANCH   1   2
ATOM      2  O   UNL A   1      32.162  22.778  27.634  1.00  0.00    -0.376 OA
BRANCH   2   3
ATOM      3  C   UNL A   1      31.743  23.931  26.917  1.00  0.00     0.202 C 
BRANCH   3   4
ATOM      4  C   UNL A   1      31.364  23.907  25.429  1.00  0.00     0.261 C 
BRANCH   4   5
ATOM      5  O   UNL A   1      30.810  25.127  24.914  1.00  0.00    -0.460 OA
BRANCH   5   6
ATOM      6  C   UNL A   1      31.580  25.775  24.013  1.00  0.00     0.338 C 
ATOM      7  O   UNL A   1      31.835  25.400  22.879  1.00  0.00    -0.246 OA
BRANCH   6   8
ATOM      8  C   UNL A   1      31.954  27.114  24.501  1.00  0.00     0.087 C 
ATOM      9  C   UNL A   1      34.048  30.643  27.432  1.00  0.00    -0.026 A 
ATOM     10  C   UNL A   1      32.819  30.509  26.751  1.00  0.00     0.052 A 
ATOM     11  C   UNL A   1      34.989  29.612  27.288  1.00  0.00     0.045 A 
ATOM     12  C   UNL A   1      32.535  29.386  25.969  1.00  0.00     0.128 A 
ATOM     13  C   UNL A   1      34.723  28.509  26.466  1.00  0.00     0.032 A 
ATOM     14  Cl  UNL A   1      36.473  29.561  28.169  1.00  0.00    -0.084 Cl
ATOM     15  C   UNL A   1      33.491  28.387  25.819  1.00  0.00     0.019 A 
ATOM     16  O   UNL A   1      31.265  29.296  25.469  1.00  0.00    -0.475 OA
ATOM     17  C   UNL A   1      33.148  27.169  25.109  1.00  0.00     0.027 C 
ATOM     18  C   UNL A   1      30.973  28.256  24.486  1.00  0.00     0.316 C 
BRANCH   9  19
ATOM     19  C   UNL A   1      34.207  31.831  28.362  1.00  0.00     0.037 C 
BRANCH  19  20
ATOM     20  C   UNL A   1      34.929  33.082  27.848  1.00  0.00     0.001 C 
ATOM     21  C   UNL A   1      36.292  33.319  28.474  1.00  0.00     0.004 C 
ENDBRANCH  19  20
ENDBRANCH   9  19
BRANCH  18  22
ATOM     22  C   UNL A   1      30.751  28.948  23.128  1.00  0.00     0.430 C 
ATOM     23  F   UNL A   1      31.914  29.316  22.545  1.00  0.00    -0.167 F 
ATOM     24  F   UNL A   1      30.065  28.171  22.265  1.00  0.00    -0.167 F 
ATOM     25  F   UNL A   1      30.015  30.079  23.286  1.00  0.00    -0.167 F 
ENDBRANCH  18  22
ENDBRANCH   6   8
ENDBRANCH   5   6
ENDBRANCH   4   5
ENDBRANCH   3   4
ENDBRANCH   2   3
ENDBRANCH   1   2
BRANCH   1  26
ATOM     26  C   UNL A   1      33.762  21.350  26.245  1.00  0.00     0.188 C 
BRANCH  26  27
ATOM     27  O   UNL A   1      34.887  21.577  25.429  1.00  0.00    -0.376 OA
BRANCH  27  28
ATOM     28  C   UNL A   1      35.730  20.501  25.055  1.00  0.00     0.202 C 
BRANCH  28  29
ATOM     29  C   UNL A   1      37.264  20.591  25.026  1.00  0.00     0.261 C 
BRANCH  29  30
ATOM     30  O   UNL A   1      37.854  21.612  25.835  1.00  0.00    -0.460 OA
BRANCH  30  31
ATOM     31  C   UNL A   1      39.149  21.387  26.193  1.00  0.00     0.338 C 
ATOM     32  O   UNL A   1      39.810  20.392  26.003  1.00  0.00    -0.246 OA
BRANCH  31  33
ATOM     33  C   UNL A   1      39.707  22.665  26.683  1.00  0.00     0.060 A 
ATOM     34  C   UNL A   1      40.719  22.667  27.640  1.00  0.00     0.016 A 
ATOM     35  C   UNL A   1      39.194  23.868  26.177  1.00  0.00     0.016 A 
ATOM     36  C   UNL A   1      41.231  23.886  28.084  1.00  0.00     0.010 A 
ATOM     37  C   UNL A   1      39.695  25.086  26.636  1.00  0.00     0.010 A 
ATOM     38  C   UNL A   1      40.732  25.102  27.577  1.00  0.00    -0.014 A 
BRANCH  38  39
ATOM     39  C   UNL A   1      41.433  26.366  27.901  1.00  0.00     0.031 A 
ATOM     40  C   UNL A   1      42.775  26.704  27.330  1.00  0.00     0.074 A 
ATOM     41  C   UNL A   1      40.812  27.228  28.729  1.00  0.00     0.049 A 
ATOM     42  N   UNL A   1      43.443  27.825  27.431  1.00  0.00    -0.248 NA
ATOM     43  C   UNL A   1      43.461  25.661  26.554  1.00  0.00     0.031 C 
ATOM     44  C   UNL A   1      39.515  26.985  29.364  1.00  0.00     0.029 A 
ATOM     45  N   UNL A   1      41.170  28.478  29.163  1.00  0.00    -0.354 N 
ATOM     46  C   UNL A   1      44.614  27.637  26.712  1.00  0.00     0.074 A 
ATOM     47  C   UNL A   1      44.591  26.275  26.219  1.00  0.00     0.031 C 
ATOM     48  C   UNL A   1      39.168  28.066  30.076  1.00  0.00     0.029 A 
ATOM     49  C   UNL A   1      40.229  29.065  29.975  1.00  0.00     0.049 A 
ATOM     50  H   UNL A   1      42.018  28.913  28.918  1.00  0.00     0.167 HD
ATOM     51  C   UNL A   1      45.604  28.532  26.474  1.00  0.00     0.031 A 
ATOM     52  C   UNL A   1      40.211  30.275  30.566  1.00  0.00     0.031 A 
ATOM     53  C   UNL A   1      45.621  29.880  26.987  1.00  0.00     0.049 A 
ATOM     54  C   UNL A   1      41.342  31.230  30.315  1.00  0.00     0.074 A 
ATOM     55  C   UNL A   1      46.562  30.870  26.755  1.00  0.00     0.029 A 
ATOM     56  N   UNL A   1      44.673  30.424  27.839  1.00  0.00    -0.354 N 
ATOM     57  N   UNL A   1      42.396  31.074  29.551  1.00  0.00    -0.248 NA
ATOM     58  C   UNL A   1      41.276  32.535  30.988  1.00  0.00     0.031 C 
ATOM     59  C   UNL A   1      46.228  31.981  27.529  1.00  0.00     0.029 A 
ATOM     60  C   UNL A   1      45.031  31.721  28.174  1.00  0.00     0.049 A 
ATOM     61  H   UNL A   1      43.867  29.959  28.159  1.00  0.00     0.167 HD
ATOM     62  C   UNL A   1      43.104  32.266  29.632  1.00  0.00     0.074 A 
ATOM     63  C   UNL A   1      42.350  33.144  30.500  1.00  0.00     0.031 C 
ATOM     64  C   UNL A   1      44.277  32.595  29.038  1.00  0.00     0.031 A 
BRANCH  51  65
ATOM     65  C   UNL A   1      46.758  28.116  25.602  1.00  0.00    -0.014 A 
ATOM     66  C   UNL A   1      46.621  28.131  24.203  1.00  0.00     0.009 A 
ATOM     67  C   UNL A   1      47.914  27.551  26.163  1.00  0.00     0.009 A 
ATOM     68  C   UNL A   1      47.600  27.560  23.387  1.00  0.00     0.001 A 
ATOM     69  C   UNL A   1      48.906  27.009  25.343  1.00  0.00     0.001 A 
ATOM     70  C   UNL A   1      48.742  26.999  23.958  1.00  0.00     0.000 A 
ENDBRANCH  51  65
BRANCH  52  71
ATOM     71  C   UNL A   1      39.051  30.649  31.420  1.00  0.00    -0.014 A 
ATOM     72  C   UNL A   1      39.082  30.418  32.806  1.00  0.00     0.009 A 
ATOM     73  C   UNL A   1      37.887  31.188  30.851  1.00  0.00     0.009 A 
ATOM     74  C   UNL A   1      37.967  30.692  33.598  1.00  0.00     0.001 A 
ATOM     75  C   UNL A   1      36.785  31.497  31.652  1.00  0.00     0.001 A 
ATOM     76  C   UNL A   1      36.821  31.238  33.022  1.00  0.00     0.000 A 
ENDBRANCH  52  71
BRANCH  64  77
ATOM     77  C   UNL A   1      44.837  33.972  29.284  1.00  0.00    -0.014 A 
ATOM     78  C   UNL A   1      44.268  35.082  28.638  1.00  0.00     0.009 A 
ATOM     79  C   UNL A   1      45.997  34.158  30.052  1.00  0.00     0.009 A 
ATOM     80  C   UNL A   1      44.861  36.342  28.732  1.00  0.00     0.001 A 
ATOM     81  C   UNL A   1      46.568  35.426  30.174  1.00  0.00     0.001 A 
ATOM     82  C   UNL A   1      46.009  36.514  29.504  1.00  0.00     0.000 A 
ENDBRANCH  64  77
ENDBRANCH  38  39
ENDBRANCH  31  33
ENDBRANCH  30  31
ENDBRANCH  29  30
ENDBRANCH  28  29
ENDBRANCH  27  28
ENDBRANCH  26  27
ENDBRANCH   1  26
TORSDOF 20
ENDMDL
MODEL 3
REMARK VINA RESULT:      -9.9      2.649      3.819
REMARK SMILES CCCc1cc2c(cc1Cl)C=C(C(=O)OCCOCCOCCOC(=O)c1ccc(-c3c4nc(c(-c5ccccc5)c5ccc([nH]5)c(-c5ccccc5)c5nc(c(-c6ccccc6)c6ccc3[nH]6)C=C5)C=C4)cc1)[C@H](C(F)(F)F)O2
REMARK SMILES IDX 19 1 18 2 17 3 16 4 15 5 13 6 14 7 12 8 4 9 5 10 9 11 6 12
REMARK SMILES IDX 8 13 10 14 7 15 80 16 11 17 75 18 3 19 2 20 1 21 76 22 77 23
REMARK SMILES IDX 78 24 79 25 20 26 21 27 22 28 23 29 24 30 25 31 26 32 27 33
REMARK SMILES IDX 28 34 74 35 29 36 73 37 30 38 31 39 32 40 67 41 33 42 72 43
REMARK SMILES IDX 66 44 68 45 34 46 71 47 65 48 64 49 35 51 57 52 42 53 56 54
REMARK SMILES IDX 43 55 46 56 55 57 69 58 44 59 45 60 54 62 70 63 47 64 36 65
REMARK SMILES IDX 37 66 41 67 38 68 40 69 39 70 58 71 59 72 63 73 60 74 62 75
REMARK SMILES IDX 61 76 48 77 49 78 53 79 50 80 52 81 51 82
REMARK H PARENT 68 50 46 61
REMARK Flexibility Score: inf
ROOT
ATOM      1  C   UNL A   1      45.392  19.003  25.108  1.00  0.00     0.188 C 
ENDROOT
BRANCH   1   2
ATOM      2  O   UNL A   1      44.409  18.249  25.783  1.00  0.00    -0.376 OA
BRANCH   2   3
ATOM      3  C   UNL A   1      43.035  18.588  25.663  1.00  0.00     0.202 C 
BRANCH   3   4
ATOM      4  C   UNL A   1      42.328  19.583  26.595  1.00  0.00     0.261 C 
BRANCH   4   5
ATOM      5  O   UNL A   1      41.404  20.477  25.956  1.00  0.00    -0.460 OA
BRANCH   5   6
ATOM      6  C   UNL A   1      41.474  21.765  26.361  1.00  0.00     0.338 C 
ATOM      7  O   UNL A   1      42.495  22.406  26.553  1.00  0.00    -0.246 OA
BRANCH   6   8
ATOM      8  C   UNL A   1      40.139  22.388  26.380  1.00  0.00     0.087 C 
ATOM      9  C   UNL A   1      35.323  23.243  25.154  1.00  0.00    -0.026 A 
ATOM     10  C   UNL A   1      36.434  24.054  25.470  1.00  0.00     0.052 A 
ATOM     11  C   UNL A   1      35.497  21.851  25.201  1.00  0.00     0.045 A 
ATOM     12  C   UNL A   1      37.672  23.501  25.806  1.00  0.00     0.128 A 
ATOM     13  C   UNL A   1      36.725  21.296  25.586  1.00  0.00     0.032 A 
ATOM     14  Cl  UNL A   1      34.281  20.731  24.705  1.00  0.00    -0.084 Cl
ATOM     15  C   UNL A   1      37.817  22.119  25.873  1.00  0.00     0.019 A 
ATOM     16  O   UNL A   1      38.712  24.376  25.957  1.00  0.00    -0.475 OA
ATOM     17  C   UNL A   1      39.131  21.548  26.102  1.00  0.00     0.027 C 
ATOM     18  C   UNL A   1      39.972  23.879  26.503  1.00  0.00     0.316 C 
BRANCH   9  19
ATOM     19  C   UNL A   1      34.064  23.937  24.669  1.00  0.00     0.037 C 
BRANCH  19  20
ATOM     20  C   UNL A   1      33.150  24.614  25.698  1.00  0.00     0.001 C 
ATOM     21  C   UNL A   1      32.486  23.655  26.671  1.00  0.00     0.004 C 
ENDBRANCH  19  20
ENDBRANCH   9  19
BRANCH  18  22
ATOM     22  C   UNL A   1      40.132  24.470  27.916  1.00  0.00     0.430 C 
ATOM     23  F   UNL A   1      38.963  24.501  28.594  1.00  0.00    -0.167 F 
ATOM     24  F   UNL A   1      41.039  23.794  28.652  1.00  0.00    -0.167 F 
ATOM     25  F   UNL A   1      40.581  25.751  27.847  1.00  0.00    -0.167 F 
ENDBRANCH  18  22
ENDBRANCH   6   8
ENDBRANCH   5   6
ENDBRANCH   4   5
ENDBRANCH   3   4
ENDBRANCH   2   3
ENDBRANCH   1   2
BRANCH   1  26
ATOM     26  C   UNL A   1      45.273  20.536  25.041  1.00  0.00     0.188 C 
BRANCH  26  27
ATOM     27  O   UNL A   1      44.605  21.167  23.974  1.00  0.00    -0.376 OA
BRANCH  27  28
ATOM     28  C   UNL A   1      44.488  22.579  23.937  1.00  0.00     0.202 C 
BRANCH  28  29
ATOM     29  C   UNL A   1      45.564  23.538  24.472  1.00  0.00     0.261 C 
BRANCH  29  30
ATOM     30  O   UNL A   1      45.215  24.925  24.507  1.00  0.00    -0.460 OA
BRANCH  30  31
ATOM     31  C   UNL A   1      45.994  25.694  25.318  1.00  0.00     0.338 C 
ATOM     32  O   UNL A   1      47.176  25.928  25.210  1.00  0.00    -0.246 OA
BRANCH  31  33
ATOM     33  C   UNL A   1      45.101  26.392  26.266  1.00  0.00     0.060 A 
ATOM     34  C   UNL A   1      44.468  25.684  27.285  1.00  0.00     0.016 A 
ATOM     35  C   UNL A   1      44.894  27.770  26.114  1.00  0.00     0.016 A 
ATOM     36  C   UNL A   1      43.632  26.366  28.170  1.00  0.00     0.010 A 
ATOM     37  C   UNL A   1      44.043  28.448  26.988  1.00  0.00     0.010 A 
ATOM     38  C   UNL A   1      43.423  27.753  28.035  1.00  0.00    -0.014 A 
BRANCH  38  39
ATOM     39  C   UNL A   1      42.709  28.487  29.104  1.00  0.00     0.031 A 
ATOM     40  C   UNL A   1      41.311  28.993  28.929  1.00  0.00     0.074 A 
ATOM     41  C   UNL A   1      43.359  28.681  30.268  1.00  0.00     0.049 A 
ATOM     42  N   UNL A   1      40.526  29.541  29.822  1.00  0.00    -0.248 NA
ATOM     43  C   UNL A   1      40.715  28.878  27.590  1.00  0.00     0.031 C 
ATOM     44  C   UNL A   1      44.735  28.255  30.534  1.00  0.00     0.029 A 
ATOM     45  N   UNL A   1      42.954  29.263  31.441  1.00  0.00    -0.354 N 
ATOM     46  C   UNL A   1      39.334  29.813  29.166  1.00  0.00     0.074 A 
ATOM     47  C   UNL A   1      39.515  29.416  27.784  1.00  0.00     0.031 C 
ATOM     48  C   UNL A   1      45.047  28.555  31.803  1.00  0.00     0.029 A 
ATOM     49  C   UNL A   1      43.908  29.222  32.429  1.00  0.00     0.049 A 
ATOM     50  H   UNL A   1      42.066  29.670  31.564  1.00  0.00     0.167 HD
ATOM     51  C   UNL A   1      38.193  30.329  29.683  1.00  0.00     0.031 A 
ATOM     52  C   UNL A   1      43.874  29.660  33.702  1.00  0.00     0.031 A 
ATOM     53  C   UNL A   1      38.036  30.737  31.058  1.00  0.00     0.049 A 
ATOM     54  C   UNL A   1      42.606  30.265  34.234  1.00  0.00     0.074 A 
ATOM     55  C   UNL A   1      36.897  31.226  31.678  1.00  0.00     0.029 A 
ATOM     56  N   UNL A   1      39.035  30.720  32.017  1.00  0.00    -0.354 N 
ATOM     57  N   UNL A   1      41.454  30.425  33.631  1.00  0.00    -0.248 NA
ATOM     58  C   UNL A   1      42.623  30.732  35.628  1.00  0.00     0.031 C 
ATOM     59  C   UNL A   1      37.229  31.581  32.985  1.00  0.00     0.029 A 
ATOM     60  C   UNL A   1      38.550  31.229  33.211  1.00  0.00     0.049 A 
ATOM     61  H   UNL A   1      39.953  30.396  31.872  1.00  0.00     0.167 HD
ATOM     62  C   UNL A   1      40.604  30.986  34.574  1.00  0.00     0.074 A 
ATOM     63  C   UNL A   1      41.365  31.119  35.798  1.00  0.00     0.031 C 
ATOM     64  C   UNL A   1      39.309  31.359  34.430  1.00  0.00     0.031 A 
BRANCH  51  65
ATOM     65  C   UNL A   1      36.995  30.475  28.784  1.00  0.00    -0.014 A 
ATOM     66  C   UNL A   1      36.575  31.754  28.377  1.00  0.00     0.009 A 
ATOM     67  C   UNL A   1      36.185  29.369  28.482  1.00  0.00     0.009 A 
ATOM     68  C   UNL A   1      35.357  31.925  27.717  1.00  0.00     0.001 A 
ATOM     69  C   UNL A   1      34.981  29.541  27.795  1.00  0.00     0.001 A 
ATOM     70  C   UNL A   1      34.561  30.819  27.427  1.00  0.00     0.000 A 
ENDBRANCH  51  65
BRANCH  52  71
ATOM     71  C   UNL A   1      45.079  29.497  34.560  1.00  0.00    -0.014 A 
ATOM     72  C   UNL A   1      46.076  30.487  34.584  1.00  0.00     0.009 A 
ATOM     73  C   UNL A   1      45.266  28.331  35.317  1.00  0.00     0.009 A 
ATOM     74  C   UNL A   1      47.244  30.302  35.323  1.00  0.00     0.001 A 
ATOM     75  C   UNL A   1      46.421  28.165  36.087  1.00  0.00     0.001 A 
ATOM     76  C   UNL A   1      47.413  29.144  36.080  1.00  0.00     0.000 A 
ENDBRANCH  52  71
BRANCH  64  77
ATOM     77  C   UNL A   1      38.600  31.943  35.625  1.00  0.00    -0.014 A 
ATOM     78  C   UNL A   1      38.520  33.338  35.775  1.00  0.00     0.009 A 
ATOM     79  C   UNL A   1      38.121  31.123  36.658  1.00  0.00     0.009 A 
ATOM     80  C   UNL A   1      38.003  33.900  36.943  1.00  0.00     0.001 A 
ATOM     81  C   UNL A   1      37.570  31.688  37.810  1.00  0.00     0.001 A 
ATOM     82  C   UNL A   1      37.525  33.074  37.959  1.00  0.00     0.000 A 
ENDBRANCH  64  77
ENDBRANCH  38  39
ENDBRANCH  31  33
ENDBRANCH  30  31
ENDBRANCH  29  30
ENDBRANCH  28  29
ENDBRANCH  27  28
ENDBRANCH  26  27
ENDBRANCH   1  26
TORSDOF 20
ENDMDL
