MODEL 1
REMARK VINA RESULT:      -9.5      0.000      0.000
REMARK SMILES CC[N@@H+](C)CCn1c(SCC(=O)OCCOCCOCCOC(=O)c2ccc(-c3c4nc(c(-c5ccccc5)c5ccc([nH]5)c(-c5ccccc5)c5nc(c(-c6ccccc6)c6ccc3[nH]6)C=C5)C=C4)cc2)nc2cnccc21
REMARK SMILES IDX 15 1 14 2 13 3 11 4 12 5 10 6 9 7 8 8 7 9 79 10 73 11 74 12
REMARK SMILES IDX 78 13 75 14 77 15 76 16 6 17 5 18 3 19 4 20 2 22 1 23 16 24
REMARK SMILES IDX 17 25 18 26 19 27 20 28 21 29 22 30 23 31 24 32 25 33 26 34
REMARK SMILES IDX 72 35 27 36 71 37 28 38 29 39 30 40 65 41 31 42 70 43 64 44
REMARK SMILES IDX 66 45 32 46 69 47 63 48 62 49 33 51 55 52 40 53 54 54 41 55
REMARK SMILES IDX 44 56 53 57 67 58 42 59 43 60 52 62 68 63 45 64 34 65 35 66
REMARK SMILES IDX 39 67 36 68 38 69 37 70 56 71 57 72 61 73 58 74 60 75 59 76
REMARK SMILES IDX 46 77 47 78 51 79 48 80 50 81 49 82
REMARK H PARENT 3 21 66 50 44 61
REMARK Flexibility Score: inf
ROOT
ATOM      1  C   UNL A   1      31.400  28.908  23.795  1.00  0.00     0.202 C 
ENDROOT
BRANCH   1   2
ATOM      2  C   UNL A   1      31.171  27.396  23.915  1.00  0.00     0.261 C 
BRANCH   2   3
ATOM      3  O   UNL A   1      30.149  27.085  24.900  1.00  0.00    -0.463 OA
BRANCH   3   4
ATOM      4  C   UNL A   1      30.436  26.080  25.766  1.00  0.00     0.316 C 
ATOM      5  O   UNL A   1      29.649  25.698  26.629  1.00  0.00    -0.251 OA
BRANCH   4   6
ATOM      6  C   UNL A   1      31.719  25.301  25.492  1.00  0.00     0.200 C 
BRANCH   6   7
ATOM      7  S   UNL A   1      31.603  23.526  25.274  1.00  0.00    -0.076 SA
BRANCH   7   8
ATOM      8  C   UNL A   1      33.142  22.729  25.551  1.00  0.00     0.169 A 
ATOM      9  N   UNL A   1      33.786  21.812  24.750  1.00  0.00    -0.313 N 
ATOM     10  C   UNL A   1      35.145  22.058  24.831  1.00  0.00     0.072 A 
ATOM     11  N   UNL A   1      34.014  23.251  26.396  1.00  0.00    -0.221 NA
ATOM     12  C   UNL A   1      35.263  22.865  25.952  1.00  0.00     0.108 A 
ATOM     13  C   UNL A   1      36.251  21.623  24.094  1.00  0.00     0.049 A 
ATOM     14  C   UNL A   1      36.548  23.177  26.406  1.00  0.00     0.141 A 
ATOM     15  C   UNL A   1      37.479  22.001  24.607  1.00  0.00     0.113 A 
ATOM     16  N   UNL A   1      37.648  22.730  25.732  1.00  0.00    -0.262 NA
BRANCH   9  17
ATOM     17  C   UNL A   1      33.268  20.716  23.983  1.00  0.00     0.186 C 
BRANCH  17  18
ATOM     18  C   UNL A   1      33.452  19.323  24.582  1.00  0.00     0.284 C 
BRANCH  18  19
ATOM     19  N   UNL A   1      33.669  18.043  23.915  1.00  0.00    -0.336 N 
ATOM     20  C   UNL A   1      32.763  17.937  22.767  1.00  0.00     0.332 C 
ATOM     21  H   UNL A   1      34.647  18.101  23.633  1.00  0.00     0.347 HD
BRANCH  19  22
ATOM     22  C   UNL A   1      33.759  16.814  24.682  1.00  0.00     0.258 C 
ATOM     23  C   UNL A   1      32.825  16.844  25.886  1.00  0.00     0.071 C 
ENDBRANCH  19  22
ENDBRANCH  18  19
ENDBRANCH  17  18
ENDBRANCH   9  17
ENDBRANCH   7   8
ENDBRANCH   6   7
ENDBRANCH   4   6
ENDBRANCH   3   4
ENDBRANCH   2   3
ENDBRANCH   1   2
BRANCH   1  24
ATOM     24  O   UNL A   1      32.332  29.442  24.730  1.00  0.00    -0.376 OA
BRANCH  24  25
ATOM     25  C   UNL A   1      33.367  28.567  25.128  1.00  0.00     0.188 C 
BRANCH  25  26
ATOM     26  C   UNL A   1      33.893  28.637  26.563  1.00  0.00     0.188 C 
BRANCH  26  27
ATOM     27  O   UNL A   1      33.563  29.781  27.306  1.00  0.00    -0.376 OA
BRANCH  27  28
ATOM     28  C   UNL A   1      34.592  30.680  27.686  1.00  0.00     0.202 C 
BRANCH  28  29
ATOM     29  C   UNL A   1      35.987  30.161  28.074  1.00  0.00     0.261 C 
BRANCH  29  30
ATOM     30  O   UNL A   1      36.974  31.212  28.178  1.00  0.00    -0.460 OA
BRANCH  30  31
ATOM     31  C   UNL A   1      37.984  30.926  29.063  1.00  0.00     0.338 C 
ATOM     32  O   UNL A   1      38.110  31.418  30.147  1.00  0.00    -0.246 OA
BRANCH  31  33
ATOM     33  C   UNL A   1      38.689  29.656  28.660  1.00  0.00     0.060 A 
ATOM     34  C   UNL A   1      39.103  28.634  29.523  1.00  0.00     0.016 A 
ATOM     35  C   UNL A   1      39.138  29.628  27.346  1.00  0.00     0.016 A 
ATOM     36  C   UNL A   1      40.157  27.759  29.153  1.00  0.00     0.010 A 
ATOM     37  C   UNL A   1      40.149  28.738  26.977  1.00  0.00     0.010 A 
ATOM     38  C   UNL A   1      40.763  27.866  27.899  1.00  0.00    -0.014 A 
BRANCH  38  39
ATOM     39  C   UNL A   1      41.976  27.104  27.460  1.00  0.00     0.031 A 
ATOM     40  C   UNL A   1      41.754  25.651  27.245  1.00  0.00     0.074 A 
ATOM     41  C   UNL A   1      43.186  27.541  27.004  1.00  0.00     0.049 A 
ATOM     42  N   UNL A   1      41.867  24.742  28.151  1.00  0.00    -0.248 NA
ATOM     43  C   UNL A   1      41.256  25.139  25.958  1.00  0.00     0.031 C 
ATOM     44  C   UNL A   1      43.646  28.913  26.762  1.00  0.00     0.029 A 
ATOM     45  N   UNL A   1      44.243  26.798  26.512  1.00  0.00    -0.354 N 
ATOM     46  C   UNL A   1      41.706  23.540  27.484  1.00  0.00     0.074 A 
ATOM     47  C   UNL A   1      41.052  23.852  26.243  1.00  0.00     0.031 C 
ATOM     48  C   UNL A   1      44.774  28.899  26.000  1.00  0.00     0.029 A 
ATOM     49  C   UNL A   1      45.231  27.528  25.844  1.00  0.00     0.049 A 
ATOM     50  H   UNL A   1      44.297  25.820  26.625  1.00  0.00     0.167 HD
ATOM     51  C   UNL A   1      42.415  22.433  27.832  1.00  0.00     0.031 A 
ATOM     52  C   UNL A   1      46.383  27.060  25.289  1.00  0.00     0.031 A 
ATOM     53  C   UNL A   1      43.246  22.684  28.988  1.00  0.00     0.049 A 
ATOM     54  C   UNL A   1      46.756  25.867  26.076  1.00  0.00     0.074 A 
ATOM     55  C   UNL A   1      43.022  23.162  30.263  1.00  0.00     0.029 A 
ATOM     56  N   UNL A   1      44.586  22.864  28.733  1.00  0.00    -0.354 N 
ATOM     57  N   UNL A   1      47.157  25.939  27.311  1.00  0.00    -0.248 NA
ATOM     58  C   UNL A   1      46.511  24.523  25.578  1.00  0.00     0.031 C 
ATOM     59  C   UNL A   1      44.149  23.980  30.566  1.00  0.00     0.029 A 
ATOM     60  C   UNL A   1      45.060  23.894  29.512  1.00  0.00     0.049 A 
ATOM     61  H   UNL A   1      45.122  22.339  28.095  1.00  0.00     0.167 HD
ATOM     62  C   UNL A   1      46.696  24.769  27.867  1.00  0.00     0.074 A 
ATOM     63  C   UNL A   1      46.546  23.861  26.739  1.00  0.00     0.031 C 
ATOM     64  C   UNL A   1      46.140  24.781  29.114  1.00  0.00     0.031 A 
BRANCH  51  65
ATOM     65  C   UNL A   1      42.659  21.258  26.926  1.00  0.00    -0.014 A 
ATOM     66  C   UNL A   1      43.607  21.240  25.887  1.00  0.00     0.009 A 
ATOM     67  C   UNL A   1      42.033  20.039  27.236  1.00  0.00     0.009 A 
ATOM     68  C   UNL A   1      43.873  20.083  25.149  1.00  0.00     0.001 A 
ATOM     69  C   UNL A   1      42.331  18.868  26.531  1.00  0.00     0.001 A 
ATOM     70  C   UNL A   1      43.241  18.893  25.479  1.00  0.00     0.000 A 
ENDBRANCH  51  65
BRANCH  52  71
ATOM     71  C   UNL A   1      47.343  27.523  24.254  1.00  0.00    -0.014 A 
ATOM     72  C   UNL A   1      46.890  28.229  23.130  1.00  0.00     0.009 A 
ATOM     73  C   UNL A   1      48.638  26.962  24.186  1.00  0.00     0.009 A 
ATOM     74  C   UNL A   1      47.666  28.301  21.961  1.00  0.00     0.001 A 
ATOM     75  C   UNL A   1      49.410  27.029  23.018  1.00  0.00     0.001 A 
ATOM     76  C   UNL A   1      48.913  27.680  21.896  1.00  0.00     0.000 A 
ENDBRANCH  52  71
BRANCH  64  77
ATOM     77  C   UNL A   1      46.455  25.954  30.030  1.00  0.00    -0.014 A 
ATOM     78  C   UNL A   1      45.824  27.183  29.776  1.00  0.00     0.009 A 
ATOM     79  C   UNL A   1      47.426  25.928  31.049  1.00  0.00     0.009 A 
ATOM     80  C   UNL A   1      46.161  28.336  30.493  1.00  0.00     0.001 A 
ATOM     81  C   UNL A   1      47.738  27.070  31.796  1.00  0.00     0.001 A 
ATOM     82  C   UNL A   1      47.113  28.278  31.507  1.00  0.00     0.000 A 
ENDBRANCH  64  77
ENDBRANCH  38  39
ENDBRANCH  31  33
ENDBRANCH  30  31
ENDBRANCH  29  30
ENDBRANCH  28  29
ENDBRANCH  27  28
ENDBRANCH  26  27
ENDBRANCH  25  26
ENDBRANCH  24  25
ENDBRANCH   1  24
TORSDOF 23
ENDMDL
MODEL 2
REMARK VINA RESULT:      -9.4      4.478      7.838
REMARK SMILES CC[N@@H+](C)CCn1c(SCC(=O)OCCOCCOCCOC(=O)c2ccc(-c3c4nc(c(-c5ccccc5)c5ccc([nH]5)c(-c5ccccc5)c5nc(c(-c6ccccc6)c6ccc3[nH]6)C=C5)C=C4)cc2)nc2cnccc21
REMARK SMILES IDX 15 1 14 2 13 3 11 4 12 5 10 6 9 7 8 8 7 9 79 10 73 11 74 12
REMARK SMILES IDX 78 13 75 14 77 15 76 16 6 17 5 18 3 19 4 20 2 22 1 23 16 24
REMARK SMILES IDX 17 25 18 26 19 27 20 28 21 29 22 30 23 31 24 32 25 33 26 34
REMARK SMILES IDX 72 35 27 36 71 37 28 38 29 39 30 40 65 41 31 42 70 43 64 44
REMARK SMILES IDX 66 45 32 46 69 47 63 48 62 49 33 51 55 52 40 53 54 54 41 55
REMARK SMILES IDX 44 56 53 57 67 58 42 59 43 60 52 62 68 63 45 64 34 65 35 66
REMARK SMILES IDX 39 67 36 68 38 69 37 70 56 71 57 72 61 73 58 74 60 75 59 76
REMARK SMILES IDX 46 77 47 78 51 79 48 80 50 81 49 82
REMARK H PARENT 3 21 66 50 44 61
REMARK Flexibility Score: inf
ROOT
ATOM      1  C   UNL A   1      33.498  30.247  26.483  1.00  0.00     0.202 C 
ENDROOT
BRANCH   1   2
ATOM      2  C   UNL A   1      32.890  28.967  27.071  1.00  0.00     0.261 C 
BRANCH   2   3
ATOM      3  O   UNL A   1      31.712  28.546  26.332  1.00  0.00    -0.463 OA
BRANCH   3   4
ATOM      4  C   UNL A   1      31.582  27.211  26.122  1.00  0.00     0.316 C 
ATOM      5  O   UNL A   1      31.430  26.403  27.036  1.00  0.00    -0.251 OA
BRANCH   4   6
ATOM      6  C   UNL A   1      31.434  26.770  24.669  1.00  0.00     0.200 C 
BRANCH   6   7
ATOM      7  S   UNL A   1      32.921  26.402  23.739  1.00  0.00    -0.076 SA
BRANCH   7   8
ATOM      8  C   UNL A   1      33.755  24.991  24.367  1.00  0.00     0.169 A 
ATOM      9  N   UNL A   1      34.031  23.805  23.722  1.00  0.00    -0.313 N 
ATOM     10  C   UNL A   1      35.272  23.369  24.148  1.00  0.00     0.072 A 
ATOM     11  N   UNL A   1      34.547  25.104  25.419  1.00  0.00    -0.221 NA
ATOM     12  C   UNL A   1      35.508  24.121  25.289  1.00  0.00     0.108 A 
ATOM     13  C   UNL A   1      36.158  22.385  23.697  1.00  0.00     0.049 A 
ATOM     14  C   UNL A   1      36.634  23.815  26.058  1.00  0.00     0.141 A 
ATOM     15  C   UNL A   1      37.255  22.169  24.512  1.00  0.00     0.113 A 
ATOM     16  N   UNL A   1      37.494  22.830  25.667  1.00  0.00    -0.262 NA
BRANCH   9  17
ATOM     17  C   UNL A   1      33.235  23.028  22.816  1.00  0.00     0.186 C 
BRANCH  17  18
ATOM     18  C   UNL A   1      32.082  22.239  23.432  1.00  0.00     0.284 C 
BRANCH  18  19
ATOM     19  N   UNL A   1      32.109  21.017  24.229  1.00  0.00    -0.336 N 
ATOM     20  C   UNL A   1      32.602  21.328  25.574  1.00  0.00     0.332 C 
ATOM     21  H   UNL A   1      31.130  20.731  24.231  1.00  0.00     0.347 HD
BRANCH  19  22
ATOM     22  C   UNL A   1      32.669  19.792  23.687  1.00  0.00     0.258 C 
ATOM     23  C   UNL A   1      33.735  19.216  24.611  1.00  0.00     0.071 C 
ENDBRANCH  19  22
ENDBRANCH  18  19
ENDBRANCH  17  18
ENDBRANCH   9  17
ENDBRANCH   7   8
ENDBRANCH   6   7
ENDBRANCH   4   6
ENDBRANCH   3   4
ENDBRANCH   2   3
ENDBRANCH   1   2
BRANCH   1  24
ATOM     24  O   UNL A   1      34.503  30.851  27.290  1.00  0.00    -0.376 OA
BRANCH  24  25
ATOM     25  C   UNL A   1      34.032  31.622  28.376  1.00  0.00     0.188 C 
BRANCH  25  26
ATOM     26  C   UNL A   1      34.314  33.125  28.403  1.00  0.00     0.188 C 
BRANCH  26  27
ATOM     27  O   UNL A   1      33.238  33.980  28.116  1.00  0.00    -0.376 OA
BRANCH  27  28
ATOM     28  C   UNL A   1      32.842  34.943  29.079  1.00  0.00     0.202 C 
BRANCH  28  29
ATOM     29  C   UNL A   1      33.881  35.611  29.996  1.00  0.00     0.261 C 
BRANCH  29  30
ATOM     30  O   UNL A   1      33.286  36.287  31.127  1.00  0.00    -0.460 OA
BRANCH  30  31
ATOM     31  C   UNL A   1      33.030  35.454  32.187  1.00  0.00     0.338 C 
ATOM     32  O   UNL A   1      31.940  35.145  32.573  1.00  0.00    -0.246 OA
BRANCH  31  33
ATOM     33  C   UNL A   1      34.273  34.686  32.560  1.00  0.00     0.060 A 
ATOM     34  C   UNL A   1      35.524  35.239  32.862  1.00  0.00     0.016 A 
ATOM     35  C   UNL A   1      34.192  33.313  32.372  1.00  0.00     0.016 A 
ATOM     36  C   UNL A   1      36.709  34.474  32.711  1.00  0.00     0.010 A 
ATOM     37  C   UNL A   1      35.360  32.557  32.261  1.00  0.00     0.010 A 
ATOM     38  C   UNL A   1      36.644  33.136  32.310  1.00  0.00    -0.014 A 
BRANCH  38  39
ATOM     39  C   UNL A   1      37.826  32.280  31.972  1.00  0.00     0.031 A 
ATOM     40  C   UNL A   1      38.555  31.734  33.146  1.00  0.00     0.074 A 
ATOM     41  C   UNL A   1      38.217  31.729  30.786  1.00  0.00     0.049 A 
ATOM     42  N   UNL A   1      39.523  32.325  33.757  1.00  0.00    -0.248 NA
ATOM     43  C   UNL A   1      38.129  30.482  33.790  1.00  0.00     0.031 C 
ATOM     44  C   UNL A   1      37.554  31.775  29.478  1.00  0.00     0.029 A 
ATOM     45  N   UNL A   1      39.263  30.858  30.542  1.00  0.00    -0.354 N 
ATOM     46  C   UNL A   1      39.982  31.406  34.686  1.00  0.00     0.074 A 
ATOM     47  C   UNL A   1      38.925  30.447  34.860  1.00  0.00     0.031 C 
ATOM     48  C   UNL A   1      38.083  30.830  28.654  1.00  0.00     0.029 A 
ATOM     49  C   UNL A   1      39.240  30.228  29.294  1.00  0.00     0.049 A 
ATOM     50  H   UNL A   1      39.975  30.693  31.202  1.00  0.00     0.167 HD
ATOM     51  C   UNL A   1      41.303  31.300  34.989  1.00  0.00     0.031 A 
ATOM     52  C   UNL A   1      40.151  29.353  28.784  1.00  0.00     0.031 A 
ATOM     53  C   UNL A   1      42.084  32.293  34.287  1.00  0.00     0.049 A 
ATOM     54  C   UNL A   1      41.442  29.703  29.408  1.00  0.00     0.074 A 
ATOM     55  C   UNL A   1      42.035  33.668  34.174  1.00  0.00     0.029 A 
ATOM     56  N   UNL A   1      42.797  31.837  33.202  1.00  0.00    -0.354 N 
ATOM     57  N   UNL A   1      42.072  30.809  29.140  1.00  0.00    -0.248 NA
ATOM     58  C   UNL A   1      41.991  28.924  30.505  1.00  0.00     0.031 C 
ATOM     59  C   UNL A   1      42.368  33.950  32.818  1.00  0.00     0.029 A 
ATOM     60  C   UNL A   1      42.700  32.753  32.181  1.00  0.00     0.049 A 
ATOM     61  H   UNL A   1      43.297  30.990  33.163  1.00  0.00     0.167 HD
ATOM     62  C   UNL A   1      42.706  31.113  30.322  1.00  0.00     0.074 A 
ATOM     63  C   UNL A   1      42.828  29.835  31.011  1.00  0.00     0.031 C 
ATOM     64  C   UNL A   1      42.726  32.402  30.772  1.00  0.00     0.031 A 
BRANCH  51  65
ATOM     65  C   UNL A   1      41.941  30.084  35.601  1.00  0.00    -0.014 A 
ATOM     66  C   UNL A   1      41.726  28.766  35.159  1.00  0.00     0.009 A 
ATOM     67  C   UNL A   1      42.950  30.275  36.560  1.00  0.00     0.009 A 
ATOM     68  C   UNL A   1      42.432  27.683  35.690  1.00  0.00     0.001 A 
ATOM     69  C   UNL A   1      43.692  29.199  37.059  1.00  0.00     0.001 A 
ATOM     70  C   UNL A   1      43.424  27.902  36.634  1.00  0.00     0.000 A 
ENDBRANCH  51  65
BRANCH  52  71
ATOM     71  C   UNL A   1      40.164  28.310  27.726  1.00  0.00    -0.014 A 
ATOM     72  C   UNL A   1      39.599  27.048  27.965  1.00  0.00     0.009 A 
ATOM     73  C   UNL A   1      41.041  28.428  26.625  1.00  0.00     0.009 A 
ATOM     74  C   UNL A   1      39.961  25.936  27.185  1.00  0.00     0.001 A 
ATOM     75  C   UNL A   1      41.407  27.318  25.851  1.00  0.00     0.001 A 
ATOM     76  C   UNL A   1      40.883  26.066  26.147  1.00  0.00     0.000 A 
ENDBRANCH  52  71
BRANCH  64  77
ATOM     77  C   UNL A   1      42.474  33.517  29.767  1.00  0.00    -0.014 A 
ATOM     78  C   UNL A   1      43.538  33.923  28.946  1.00  0.00     0.009 A 
ATOM     79  C   UNL A   1      41.276  34.251  29.680  1.00  0.00     0.009 A 
ATOM     80  C   UNL A   1      43.418  35.025  28.092  1.00  0.00     0.001 A 
ATOM     81  C   UNL A   1      41.138  35.328  28.797  1.00  0.00     0.001 A 
ATOM     82  C   UNL A   1      42.217  35.724  28.013  1.00  0.00     0.000 A 
ENDBRANCH  64  77
ENDBRANCH  38  39
ENDBRANCH  31  33
ENDBRANCH  30  31
ENDBRANCH  29  30
ENDBRANCH  28  29
ENDBRANCH  27  28
ENDBRANCH  26  27
ENDBRANCH  25  26
ENDBRANCH  24  25
ENDBRANCH   1  24
TORSDOF 23
ENDMDL
MODEL 3
REMARK VINA RESULT:      -9.1      3.086      5.681
REMARK SMILES CC[N@@H+](C)CCn1c(SCC(=O)OCCOCCOCCOC(=O)c2ccc(-c3c4nc(c(-c5ccccc5)c5ccc([nH]5)c(-c5ccccc5)c5nc(c(-c6ccccc6)c6ccc3[nH]6)C=C5)C=C4)cc2)nc2cnccc21
REMARK SMILES IDX 15 1 14 2 13 3 11 4 12 5 10 6 9 7 8 8 7 9 79 10 73 11 74 12
REMARK SMILES IDX 78 13 75 14 77 15 76 16 6 17 5 18 3 19 4 20 2 22 1 23 16 24
REMARK SMILES IDX 17 25 18 26 19 27 20 28 21 29 22 30 23 31 24 32 25 33 26 34
REMARK SMILES IDX 72 35 27 36 71 37 28 38 29 39 30 40 65 41 31 42 70 43 64 44
REMARK SMILES IDX 66 45 32 46 69 47 63 48 62 49 33 51 55 52 40 53 54 54 41 55
REMARK SMILES IDX 44 56 53 57 67 58 42 59 43 60 52 62 68 63 45 64 34 65 35 66
REMARK SMILES IDX 39 67 36 68 38 69 37 70 56 71 57 72 61 73 58 74 60 75 59 76
REMARK SMILES IDX 46 77 47 78 51 79 48 80 50 81 49 82
REMARK H PARENT 3 21 66 50 44 61
REMARK Flexibility Score: inf
ROOT
ATOM      1  C   UNL A   1      33.487  31.164  27.184  1.00  0.00     0.202 C 
ENDROOT
BRANCH   1   2
ATOM      2  C   UNL A   1      32.099  30.628  26.810  1.00  0.00     0.261 C 
BRANCH   2   3
ATOM      3  O   UNL A   1      31.976  29.210  27.100  1.00  0.00    -0.463 OA
BRANCH   3   4
ATOM      4  C   UNL A   1      32.817  28.385  26.426  1.00  0.00     0.316 C 
ATOM      5  O   UNL A   1      33.943  28.105  26.831  1.00  0.00    -0.251 OA
BRANCH   4   6
ATOM      6  C   UNL A   1      32.223  27.653  25.226  1.00  0.00     0.200 C 
BRANCH   6   7
ATOM      7  S   UNL A   1      33.345  27.017  23.982  1.00  0.00    -0.076 SA
BRANCH   7   8
ATOM      8  C   UNL A   1      33.972  25.434  24.409  1.00  0.00     0.169 A 
ATOM      9  N   UNL A   1      34.099  24.321  23.608  1.00  0.00    -0.313 N 
ATOM     10  C   UNL A   1      35.263  23.668  23.971  1.00  0.00     0.072 A 
ATOM     11  N   UNL A   1      34.751  25.296  25.468  1.00  0.00    -0.221 NA
ATOM     12  C   UNL A   1      35.575  24.220  25.204  1.00  0.00     0.108 A 
ATOM     13  C   UNL A   1      36.017  22.644  23.389  1.00  0.00     0.049 A 
ATOM     14  C   UNL A   1      36.635  23.662  25.925  1.00  0.00     0.141 A 
ATOM     15  C   UNL A   1      37.061  22.174  24.167  1.00  0.00     0.113 A 
ATOM     16  N   UNL A   1      37.363  22.633  25.402  1.00  0.00    -0.262 NA
BRANCH   9  17
ATOM     17  C   UNL A   1      33.224  23.789  22.604  1.00  0.00     0.186 C 
BRANCH  17  18
ATOM     18  C   UNL A   1      31.985  23.051  23.105  1.00  0.00     0.284 C 
BRANCH  18  19
ATOM     19  N   UNL A   1      31.884  21.889  23.983  1.00  0.00    -0.336 N 
ATOM     20  C   UNL A   1      31.701  22.342  25.365  1.00  0.00     0.332 C 
ATOM     21  H   UNL A   1      31.061  21.407  23.621  1.00  0.00     0.347 HD
BRANCH  19  22
ATOM     22  C   UNL A   1      32.822  20.788  23.866  1.00  0.00     0.258 C 
ATOM     23  C   UNL A   1      32.566  19.727  24.929  1.00  0.00     0.071 C 
ENDBRANCH  19  22
ENDBRANCH  18  19
ENDBRANCH  17  18
ENDBRANCH   9  17
ENDBRANCH   7   8
ENDBRANCH   6   7
ENDBRANCH   4   6
ENDBRANCH   3   4
ENDBRANCH   2   3
ENDBRANCH   1   2
BRANCH   1  24
ATOM     24  O   UNL A   1      33.494  32.083  28.271  1.00  0.00    -0.376 OA
BRANCH  24  25
ATOM     25  C   UNL A   1      33.887  33.402  27.953  1.00  0.00     0.188 C 
BRANCH  25  26
ATOM     26  C   UNL A   1      32.952  34.563  28.299  1.00  0.00     0.188 C 
BRANCH  26  27
ATOM     27  O   UNL A   1      32.617  34.728  29.652  1.00  0.00    -0.376 OA
BRANCH  27  28
ATOM     28  C   UNL A   1      33.389  35.607  30.455  1.00  0.00     0.202 C 
BRANCH  28  29
ATOM     29  C   UNL A   1      34.296  35.062  31.571  1.00  0.00     0.261 C 
BRANCH  29  30
ATOM     30  O   UNL A   1      35.414  34.296  31.070  1.00  0.00    -0.460 OA
BRANCH  30  31
ATOM     31  C   UNL A   1      35.277  32.943  31.261  1.00  0.00     0.338 C 
ATOM     32  O   UNL A   1      34.295  32.402  31.680  1.00  0.00    -0.246 OA
BRANCH  31  33
ATOM     33  C   UNL A   1      36.365  32.200  30.529  1.00  0.00     0.060 A 
ATOM     34  C   UNL A   1      36.185  31.100  29.681  1.00  0.00     0.016 A 
ATOM     35  C   UNL A   1      37.659  32.523  30.918  1.00  0.00     0.016 A 
ATOM     36  C   UNL A   1      37.244  30.185  29.448  1.00  0.00     0.010 A 
ATOM     37  C   UNL A   1      38.705  31.638  30.652  1.00  0.00     0.010 A 
ATOM     38  C   UNL A   1      38.503  30.396  30.017  1.00  0.00    -0.014 A 
BRANCH  38  39
ATOM     39  C   UNL A   1      39.645  29.426  29.967  1.00  0.00     0.031 A 
ATOM     40  C   UNL A   1      40.028  28.848  31.281  1.00  0.00     0.074 A 
ATOM     41  C   UNL A   1      40.244  28.809  28.907  1.00  0.00     0.049 A 
ATOM     42  N   UNL A   1      40.881  29.365  32.097  1.00  0.00    -0.248 NA
ATOM     43  C   UNL A   1      39.348  27.659  31.817  1.00  0.00     0.031 C 
ATOM     44  C   UNL A   1      39.907  28.879  27.481  1.00  0.00     0.029 A 
ATOM     45  N   UNL A   1      41.231  27.840  28.918  1.00  0.00    -0.354 N 
ATOM     46  C   UNL A   1      41.024  28.435  33.113  1.00  0.00     0.074 A 
ATOM     47  C   UNL A   1      39.869  27.582  33.042  1.00  0.00     0.031 C 
ATOM     48  C   UNL A   1      40.520  27.868  26.807  1.00  0.00     0.029 A 
ATOM     49  C   UNL A   1      41.436  27.181  27.702  1.00  0.00     0.049 A 
ATOM     50  H   UNL A   1      41.753  27.630  29.726  1.00  0.00     0.167 HD
ATOM     51  C   UNL A   1      42.223  28.218  33.714  1.00  0.00     0.031 A 
ATOM     52  C   UNL A   1      42.352  26.212  27.423  1.00  0.00     0.031 A 
ATOM     53  C   UNL A   1      43.236  29.116  33.206  1.00  0.00     0.049 A 
ATOM     54  C   UNL A   1      43.493  26.461  28.327  1.00  0.00     0.074 A 
ATOM     55  C   UNL A   1      43.345  30.486  33.077  1.00  0.00     0.029 A 
ATOM     56  N   UNL A   1      44.133  28.567  32.319  1.00  0.00    -0.354 N 
ATOM     57  N   UNL A   1      44.270  27.498  28.206  1.00  0.00    -0.248 NA
ATOM     58  C   UNL A   1      43.698  25.666  29.526  1.00  0.00     0.031 C 
ATOM     59  C   UNL A   1      44.007  30.699  31.834  1.00  0.00     0.029 A 
ATOM     60  C   UNL A   1      44.362  29.460  31.298  1.00  0.00     0.049 A 
ATOM     61  H   UNL A   1      44.546  27.677  32.402  1.00  0.00     0.167 HD
ATOM     62  C   UNL A   1      44.639  27.775  29.501  1.00  0.00     0.074 A 
ATOM     63  C   UNL A   1      44.478  26.511  30.207  1.00  0.00     0.031 C 
ATOM     64  C   UNL A   1      44.678  29.068  29.935  1.00  0.00     0.031 A 
BRANCH  51  65
ATOM     65  C   UNL A   1      42.586  26.966  34.465  1.00  0.00    -0.014 A 
ATOM     66  C   UNL A   1      42.135  26.660  35.762  1.00  0.00     0.009 A 
ATOM     67  C   UNL A   1      43.273  25.953  33.776  1.00  0.00     0.009 A 
ATOM     68  C   UNL A   1      42.409  25.432  36.370  1.00  0.00     0.001 A 
ATOM     69  C   UNL A   1      43.508  24.705  34.363  1.00  0.00     0.001 A 
ATOM     70  C   UNL A   1      43.088  24.450  35.664  1.00  0.00     0.000 A 
ENDBRANCH  51  65
BRANCH  52  71
ATOM     71  C   UNL A   1      42.510  25.144  26.402  1.00  0.00    -0.014 A 
ATOM     72  C   UNL A   1      41.899  23.894  26.583  1.00  0.00     0.009 A 
ATOM     73  C   UNL A   1      43.543  25.227  25.443  1.00  0.00     0.009 A 
ATOM     74  C   UNL A   1      42.360  22.760  25.892  1.00  0.00     0.001 A 
ATOM     75  C   UNL A   1      44.006  24.094  24.758  1.00  0.00     0.001 A 
ATOM     76  C   UNL A   1      43.428  22.855  25.000  1.00  0.00     0.000 A 
ENDBRANCH  52  71
BRANCH  64  77
ATOM     77  C   UNL A   1      44.771  30.173  28.893  1.00  0.00    -0.014 A 
ATOM     78  C   UNL A   1      43.606  30.523  28.192  1.00  0.00     0.009 A 
ATOM     79  C   UNL A   1      45.971  30.795  28.499  1.00  0.00     0.009 A 
ATOM     80  C   UNL A   1      43.641  31.436  27.132  1.00  0.00     0.001 A 
ATOM     81  C   UNL A   1      46.004  31.739  27.466  1.00  0.00     0.001 A 
ATOM     82  C   UNL A   1      44.838  32.048  26.773  1.00  0.00     0.000 A 
ENDBRANCH  64  77
ENDBRANCH  38  39
ENDBRANCH  31  33
ENDBRANCH  30  31
ENDBRANCH  29  30
ENDBRANCH  28  29
ENDBRANCH  27  28
ENDBRANCH  26  27
ENDBRANCH  25  26
ENDBRANCH  24  25
ENDBRANCH   1  24
TORSDOF 23
ENDMDL
