MODEL 1
REMARK VINA RESULT:     -10.1      0.000      0.000
REMARK SMILES O=C(OCCOCCOCCOC(=O)C1(C/C=C/c2ccccc2)CCCCC1)c1ccc(-c2c3nc(c(-c4ccccc4)c4ccc([nH]4)c(-c4ccccc4)c4nc(c(-c5ccccc5)c5ccc2[nH]5)C=C4)C=C3)cc1
REMARK SMILES IDX 8 1 7 2 6 3 5 4 4 5 3 6 2 7 1 8 30 9 31 10 77 11 32 12 76 13
REMARK SMILES IDX 33 14 34 15 35 16 70 17 36 18 75 19 69 20 71 21 37 22 74 23
REMARK SMILES IDX 68 24 67 25 38 27 60 28 45 29 59 30 46 31 49 32 58 33 72 34
REMARK SMILES IDX 47 35 48 36 57 38 73 39 50 40 39 41 40 42 44 43 41 44 43 45
REMARK SMILES IDX 42 46 61 47 62 48 66 49 63 50 65 51 64 52 51 53 52 54 56 55
REMARK SMILES IDX 53 56 55 57 54 58 9 59 10 60 11 61 12 62 13 63 14 64 15 65
REMARK SMILES IDX 25 66 29 67 26 68 28 69 27 70 16 71 17 72 18 73 19 74 20 75
REMARK SMILES IDX 24 76 21 77 23 78 22 79
REMARK H PARENT 71 26 49 37
REMARK Flexibility Score: inf
ROOT
ATOM      1  C   UNL A   1      35.379  22.658  25.440  1.00  0.00     0.188 C 
ENDROOT
BRANCH   1   2
ATOM      2  C   UNL A   1      36.213  21.411  25.153  1.00  0.00     0.188 C 
BRANCH   2   3
ATOM      3  O   UNL A   1      37.606  21.580  24.947  1.00  0.00    -0.376 OA
BRANCH   3   4
ATOM      4  C   UNL A   1      38.418  20.415  25.134  1.00  0.00     0.202 C 
BRANCH   4   5
ATOM      5  C   UNL A   1      39.636  20.488  26.087  1.00  0.00     0.261 C 
BRANCH   5   6
ATOM      6  O   UNL A   1      40.755  19.640  25.747  1.00  0.00    -0.460 OA
BRANCH   6   7
ATOM      7  C   UNL A   1      42.077  19.883  25.966  1.00  0.00     0.338 C 
ATOM      8  O   UNL A   1      42.920  19.006  25.814  1.00  0.00    -0.246 OA
BRANCH   7   9
ATOM      9  C   UNL A   1      42.544  21.227  26.361  1.00  0.00     0.060 A 
ATOM     10  C   UNL A   1      42.303  21.904  28.083  1.00  0.00     0.016 A 
ATOM     11  C   UNL A   1      43.104  22.387  24.984  1.00  0.00     0.016 A 
ATOM     12  C   UNL A   1      42.577  23.703  28.448  1.00  0.00     0.010 A 
ATOM     13  C   UNL A   1      43.366  24.195  25.375  1.00  0.00     0.010 A 
ATOM     14  C   UNL A   1      43.104  24.844  27.095  1.00  0.00    -0.014 A 
BRANCH  14  15
ATOM     15  C   UNL A   1      43.407  26.265  27.464  1.00  0.00     0.031 A 
ATOM     16  C   UNL A   1      44.796  26.770  27.709  1.00  0.00     0.074 A 
ATOM     17  C   UNL A   1      42.425  27.191  27.469  1.00  0.00     0.049 A 
ATOM     18  N   UNL A   1      45.158  27.968  28.097  1.00  0.00    -0.248 NA
ATOM     19  C   UNL A   1      45.919  25.896  27.344  1.00  0.00     0.031 C 
ATOM     20  C   UNL A   1      41.134  27.072  26.823  1.00  0.00     0.029 A 
ATOM     21  N   UNL A   1      42.317  28.399  28.111  1.00  0.00    -0.354 N 
ATOM     22  C   UNL A   1      46.536  28.020  27.965  1.00  0.00     0.074 A 
ATOM     23  C   UNL A   1      46.958  26.715  27.493  1.00  0.00     0.031 C 
ATOM     24  C   UNL A   1      40.264  27.941  27.344  1.00  0.00     0.029 A 
ATOM     25  C   UNL A   1      40.998  28.788  28.253  1.00  0.00     0.049 A 
ATOM     26  H   UNL A   1      43.085  28.926  28.432  1.00  0.00     0.167 HD
ATOM     27  C   UNL A   1      47.349  29.078  28.201  1.00  0.00     0.031 A 
ATOM     28  C   UNL A   1      40.427  29.730  29.019  1.00  0.00     0.031 A 
ATOM     29  C   UNL A   1      46.886  30.351  28.706  1.00  0.00     0.049 A 
ATOM     30  C   UNL A   1      41.346  30.754  29.577  1.00  0.00     0.074 A 
ATOM     31  C   UNL A   1      47.627  31.479  29.017  1.00  0.00     0.029 A 
ATOM     32  N   UNL A   1      45.564  30.655  29.002  1.00  0.00    -0.354 N 
ATOM     33  N   UNL A   1      42.650  30.795  29.468  1.00  0.00    -0.248 NA
ATOM     34  C   UNL A   1      40.743  31.909  30.243  1.00  0.00     0.031 C 
ATOM     35  C   UNL A   1      46.769  32.423  29.591  1.00  0.00     0.029 A 
ATOM     36  C   UNL A   1      45.480  31.914  29.578  1.00  0.00     0.049 A 
ATOM     37  H   UNL A   1      44.796  30.063  28.829  1.00  0.00     0.167 HD
ATOM     38  C   UNL A   1      43.028  32.011  29.991  1.00  0.00     0.074 A 
ATOM     39  C   UNL A   1      41.810  32.673  30.428  1.00  0.00     0.031 C 
ATOM     40  C   UNL A   1      44.273  32.536  30.065  1.00  0.00     0.031 A 
BRANCH  27  41
ATOM     41  C   UNL A   1      48.830  28.889  28.008  1.00  0.00    -0.014 A 
ATOM     42  C   UNL A   1      49.476  29.210  26.803  1.00  0.00     0.009 A 
ATOM     43  C   UNL A   1      49.606  28.448  29.093  1.00  0.00     0.009 A 
ATOM     44  C   UNL A   1      50.864  29.074  26.687  1.00  0.00     0.001 A 
ATOM     45  C   UNL A   1      50.993  28.331  28.980  1.00  0.00     0.001 A 
ATOM     46  C   UNL A   1      51.620  28.639  27.775  1.00  0.00     0.000 A 
ENDBRANCH  27  41
BRANCH  28  47
ATOM     47  C   UNL A   1      38.958  29.741  29.230  1.00  0.00    -0.014 A 
ATOM     48  C   UNL A   1      38.075  30.336  28.320  1.00  0.00     0.009 A 
ATOM     49  C   UNL A   1      38.427  29.114  30.373  1.00  0.00     0.009 A 
ATOM     50  C   UNL A   1      36.698  30.337  28.570  1.00  0.00     0.001 A 
ATOM     51  C   UNL A   1      37.051  29.101  30.611  1.00  0.00     0.001 A 
ATOM     52  C   UNL A   1      36.188  29.722  29.714  1.00  0.00     0.000 A 
ENDBRANCH  28  47
BRANCH  40  53
ATOM     53  C   UNL A   1      44.366  33.889  30.695  1.00  0.00    -0.014 A 
ATOM     54  C   UNL A   1      44.609  34.017  32.071  1.00  0.00     0.009 A 
ATOM     55  C   UNL A   1      44.204  35.042  29.914  1.00  0.00     0.009 A 
ATOM     56  C   UNL A   1      44.652  35.276  32.662  1.00  0.00     0.001 A 
ATOM     57  C   UNL A   1      44.282  36.303  30.502  1.00  0.00     0.001 A 
ATOM     58  C   UNL A   1      44.495  36.418  31.876  1.00  0.00     0.000 A 
ENDBRANCH  40  53
ENDBRANCH  14  15
ENDBRANCH   7   9
ENDBRANCH   6   7
ENDBRANCH   5   6
ENDBRANCH   4   5
ENDBRANCH   3   4
ENDBRANCH   2   3
ENDBRANCH   1   2
BRANCH   1  59
ATOM     59  O   UNL A   1      34.990  22.927  26.768  1.00  0.00    -0.376 OA
BRANCH  59  60
ATOM     60  C   UNL A   1      34.179  21.959  27.418  1.00  0.00     0.202 C 
BRANCH  60  61
ATOM     61  C   UNL A   1      32.711  22.285  27.766  1.00  0.00     0.261 C 
BRANCH  61  62
ATOM     62  O   UNL A   1      32.255  23.664  27.750  1.00  0.00    -0.463 OA
BRANCH  62  63
ATOM     63  C   UNL A   1      31.203  23.894  26.920  1.00  0.00     0.312 C 
ATOM     64  O   UNL A   1      30.075  23.458  27.156  1.00  0.00    -0.252 OA
BRANCH  63  65
ATOM     65  C   UNL A   1      31.516  24.587  25.566  1.00  0.00     0.071 C 
ATOM     66  C   UNL A   1      30.242  25.516  25.412  1.00  0.00     0.019 C 
ATOM     67  C   UNL A   1      32.771  25.470  25.782  1.00  0.00     0.019 C 
ATOM     68  C   UNL A   1      30.413  26.721  24.489  1.00  0.00     0.001 C 
ATOM     69  C   UNL A   1      32.890  26.645  24.812  1.00  0.00     0.001 C 
ATOM     70  C   UNL A   1      31.647  27.527  24.849  1.00  0.00     0.000 C 
BRANCH  65  71
ATOM     71  C   UNL A   1      31.562  23.692  24.252  1.00  0.00     0.046 C 
BRANCH  71  72
ATOM     72  C   UNL A   1      32.203  22.145  24.107  1.00  0.00    -0.025 C 
ATOM     73  C   UNL A   1      32.080  20.389  24.585  1.00  0.00     0.004 C 
BRANCH  73  74
ATOM     74  C   UNL A   1      32.922  18.865  24.780  1.00  0.00    -0.026 A 
ATOM     75  C   UNL A   1      33.545  18.367  23.612  1.00  0.00     0.008 A 
ATOM     76  C   UNL A   1      32.752  17.888  25.803  1.00  0.00     0.008 A 
ATOM     77  C   UNL A   1      33.812  16.995  23.428  1.00  0.00     0.001 A 
ATOM     78  C   UNL A   1      32.990  16.518  25.614  1.00  0.00     0.001 A 
ATOM     79  C   UNL A   1      33.487  16.065  24.409  1.00  0.00     0.000 A 
ENDBRANCH  73  74
ENDBRANCH  71  72
ENDBRANCH  65  71
ENDBRANCH  63  65
ENDBRANCH  62  63
ENDBRANCH  61  62
ENDBRANCH  60  61
ENDBRANCH  59  60
ENDBRANCH   1  59
TORSDOF 20
ENDMDL
MODEL 2
REMARK VINA RESULT:     -10.1      3.318      8.305
REMARK SMILES O=C(OCCOCCOCCOC(=O)C1(C/C=C/c2ccccc2)CCCCC1)c1ccc(-c2c3nc(c(-c4ccccc4)c4ccc([nH]4)c(-c4ccccc4)c4nc(c(-c5ccccc5)c5ccc2[nH]5)C=C4)C=C3)cc1
REMARK SMILES IDX 8 1 7 2 6 3 5 4 4 5 3 6 2 7 1 8 30 9 31 10 77 11 32 12 76 13
REMARK SMILES IDX 33 14 34 15 35 16 70 17 36 18 75 19 69 20 71 21 37 22 74 23
REMARK SMILES IDX 68 24 67 25 38 27 60 28 45 29 59 30 46 31 49 32 58 33 72 34
REMARK SMILES IDX 47 35 48 36 57 38 73 39 50 40 39 41 40 42 44 43 41 44 43 45
REMARK SMILES IDX 42 46 61 47 62 48 66 49 63 50 65 51 64 52 51 53 52 54 56 55
REMARK SMILES IDX 53 56 55 57 54 58 9 59 10 60 11 61 12 62 13 63 14 64 15 65
REMARK SMILES IDX 25 66 29 67 26 68 28 69 27 70 16 71 17 72 18 73 19 74 20 75
REMARK SMILES IDX 24 76 21 77 23 78 22 79
REMARK H PARENT 71 26 49 37
REMARK Flexibility Score: inf
ROOT
ATOM      1  C   UNL A   1      36.202  20.661  25.076  1.00  0.00     0.188 C 
ENDROOT
BRANCH   1   2
ATOM      2  C   UNL A   1      37.572  21.307  25.269  1.00  0.00     0.188 C 
BRANCH   2   3
ATOM      3  O   UNL A   1      37.702  22.685  24.958  1.00  0.00    -0.376 OA
BRANCH   3   4
ATOM      4  C   UNL A   1      37.785  23.579  26.074  1.00  0.00     0.202 C 
BRANCH   4   5
ATOM      5  C   UNL A   1      39.167  24.137  26.494  1.00  0.00     0.261 C 
BRANCH   5   6
ATOM      6  O   UNL A   1      40.048  23.204  27.157  1.00  0.00    -0.460 OA
BRANCH   6   7
ATOM      7  C   UNL A   1      41.336  22.904  26.829  1.00  0.00     0.338 C 
ATOM      8  O   UNL A   1      41.645  21.793  26.414  1.00  0.00    -0.246 OA
BRANCH   7   9
ATOM      9  C   UNL A   1      42.399  23.923  26.929  1.00  0.00     0.060 A 
ATOM     10  C   UNL A   1      42.724  24.881  28.497  1.00  0.00     0.016 A 
ATOM     11  C   UNL A   1      43.219  24.478  25.324  1.00  0.00     0.016 A 
ATOM     12  C   UNL A   1      43.814  26.383  28.489  1.00  0.00     0.010 A 
ATOM     13  C   UNL A   1      44.306  25.996  25.340  1.00  0.00     0.010 A 
ATOM     14  C   UNL A   1      44.599  26.939  26.913  1.00  0.00    -0.014 A 
BRANCH  14  15
ATOM     15  C   UNL A   1      45.547  28.098  26.982  1.00  0.00     0.031 A 
ATOM     16  C   UNL A   1      45.106  29.526  26.871  1.00  0.00     0.074 A 
ATOM     17  C   UNL A   1      46.848  27.896  27.276  1.00  0.00     0.049 A 
ATOM     18  N   UNL A   1      45.857  30.599  26.853  1.00  0.00    -0.248 NA
ATOM     19  C   UNL A   1      43.666  29.806  26.934  1.00  0.00     0.031 C 
ATOM     20  C   UNL A   1      47.415  26.709  27.883  1.00  0.00     0.029 A 
ATOM     21  N   UNL A   1      47.966  28.655  27.028  1.00  0.00    -0.354 N 
ATOM     22  C   UNL A   1      44.996  31.678  26.966  1.00  0.00     0.074 A 
ATOM     23  C   UNL A   1      43.652  31.135  27.015  1.00  0.00     0.031 C 
ATOM     24  C   UNL A   1      48.731  26.649  27.664  1.00  0.00     0.029 A 
ATOM     25  C   UNL A   1      49.117  27.890  27.037  1.00  0.00     0.049 A 
ATOM     26  H   UNL A   1      47.950  29.626  26.864  1.00  0.00     0.167 HD
ATOM     27  C   UNL A   1      45.323  32.992  27.042  1.00  0.00     0.031 A 
ATOM     28  C   UNL A   1      50.359  28.148  26.601  1.00  0.00     0.031 A 
ATOM     29  C   UNL A   1      46.677  33.489  26.952  1.00  0.00     0.049 A 
ATOM     30  C   UNL A   1      50.674  29.579  26.357  1.00  0.00     0.074 A 
ATOM     31  C   UNL A   1      47.119  34.802  26.979  1.00  0.00     0.029 A 
ATOM     32  N   UNL A   1      47.806  32.697  26.788  1.00  0.00    -0.354 N 
ATOM     33  N   UNL A   1      49.857  30.598  26.446  1.00  0.00    -0.248 NA
ATOM     34  C   UNL A   1      52.068  29.924  26.081  1.00  0.00     0.031 C 
ATOM     35  C   UNL A   1      48.497  34.806  26.732  1.00  0.00     0.029 A 
ATOM     36  C   UNL A   1      48.929  33.493  26.618  1.00  0.00     0.049 A 
ATOM     37  H   UNL A   1      47.810  31.712  26.792  1.00  0.00     0.167 HD
ATOM     38  C   UNL A   1      50.644  31.719  26.305  1.00  0.00     0.074 A 
ATOM     39  C   UNL A   1      52.005  31.248  26.112  1.00  0.00     0.031 C 
ATOM     40  C   UNL A   1      50.267  33.017  26.366  1.00  0.00     0.031 A 
BRANCH  27  41
ATOM     41  C   UNL A   1      44.205  33.994  27.139  1.00  0.00    -0.014 A 
ATOM     42  C   UNL A   1      43.672  34.634  26.008  1.00  0.00     0.009 A 
ATOM     43  C   UNL A   1      43.623  34.244  28.393  1.00  0.00     0.009 A 
ATOM     44  C   UNL A   1      42.592  35.516  26.138  1.00  0.00     0.001 A 
ATOM     45  C   UNL A   1      42.535  35.111  28.517  1.00  0.00     0.001 A 
ATOM     46  C   UNL A   1      42.023  35.750  27.390  1.00  0.00     0.000 A 
ENDBRANCH  27  41
BRANCH  28  47
ATOM     47  C   UNL A   1      51.344  27.050  26.434  1.00  0.00    -0.014 A 
ATOM     48  C   UNL A   1      51.335  26.200  25.322  1.00  0.00     0.009 A 
ATOM     49  C   UNL A   1      52.336  26.867  27.415  1.00  0.00     0.009 A 
ATOM     50  C   UNL A   1      52.273  25.167  25.215  1.00  0.00     0.001 A 
ATOM     51  C   UNL A   1      53.282  25.847  27.298  1.00  0.00     0.001 A 
ATOM     52  C   UNL A   1      53.244  24.991  26.202  1.00  0.00     0.000 A 
ENDBRANCH  28  47
BRANCH  40  53
ATOM     53  C   UNL A   1      51.361  34.017  26.170  1.00  0.00    -0.014 A 
ATOM     54  C   UNL A   1      52.091  34.496  27.269  1.00  0.00     0.009 A 
ATOM     55  C   UNL A   1      51.660  34.489  24.885  1.00  0.00     0.009 A 
ATOM     56  C   UNL A   1      53.079  35.459  27.088  1.00  0.00     0.001 A 
ATOM     57  C   UNL A   1      52.674  35.429  24.702  1.00  0.00     0.001 A 
ATOM     58  C   UNL A   1      53.374  35.920  25.804  1.00  0.00     0.000 A 
ENDBRANCH  40  53
ENDBRANCH  14  15
ENDBRANCH   7   9
ENDBRANCH   6   7
ENDBRANCH   5   6
ENDBRANCH   4   5
ENDBRANCH   3   4
ENDBRANCH   2   3
ENDBRANCH   1   2
BRANCH   1  59
ATOM     59  O   UNL A   1      35.070  21.489  24.934  1.00  0.00    -0.376 OA
BRANCH  59  60
ATOM     60  C   UNL A   1      34.193  21.589  26.047  1.00  0.00     0.202 C 
BRANCH  60  61
ATOM     61  C   UNL A   1      32.979  22.541  25.995  1.00  0.00     0.261 C 
BRANCH  61  62
ATOM     62  O   UNL A   1      33.045  23.832  26.658  1.00  0.00    -0.463 OA
BRANCH  62  63
ATOM     63  C   UNL A   1      31.924  24.589  26.518  1.00  0.00     0.312 C 
ATOM     64  O   UNL A   1      30.807  24.165  26.814  1.00  0.00    -0.252 OA
BRANCH  63  65
ATOM     65  C   UNL A   1      32.088  25.958  25.804  1.00  0.00     0.071 C 
ATOM     66  C   UNL A   1      31.504  26.934  26.906  1.00  0.00     0.019 C 
ATOM     67  C   UNL A   1      33.608  26.215  25.645  1.00  0.00     0.019 C 
ATOM     68  C   UNL A   1      31.958  28.389  26.806  1.00  0.00     0.001 C 
ATOM     69  C   UNL A   1      33.990  27.690  25.530  1.00  0.00     0.001 C 
ATOM     70  C   UNL A   1      33.470  28.495  26.714  1.00  0.00     0.000 C 
BRANCH  65  71
ATOM     71  C   UNL A   1      31.236  26.231  24.488  1.00  0.00     0.046 C 
BRANCH  71  72
ATOM     72  C   UNL A   1      30.156  27.492  24.230  1.00  0.00    -0.025 C 
ATOM     73  C   UNL A   1      29.195  28.458  23.016  1.00  0.00     0.004 C 
BRANCH  73  74
ATOM     74  C   UNL A   1      28.399  29.977  22.659  1.00  0.00    -0.026 A 
ATOM     75  C   UNL A   1      28.238  30.264  21.284  1.00  0.00     0.008 A 
ATOM     76  C   UNL A   1      28.244  31.113  23.506  1.00  0.00     0.008 A 
ATOM     77  C   UNL A   1      28.106  31.582  20.800  1.00  0.00     0.001 A 
ATOM     78  C   UNL A   1      28.141  32.427  23.028  1.00  0.00     0.001 A 
ATOM     79  C   UNL A   1      28.109  32.667  21.670  1.00  0.00     0.000 A 
ENDBRANCH  73  74
ENDBRANCH  71  72
ENDBRANCH  65  71
ENDBRANCH  63  65
ENDBRANCH  62  63
ENDBRANCH  61  62
ENDBRANCH  60  61
ENDBRANCH  59  60
ENDBRANCH   1  59
TORSDOF 20
ENDMDL
MODEL 3
REMARK VINA RESULT:      -9.9      3.138      7.507
REMARK SMILES O=C(OCCOCCOCCOC(=O)C1(C/C=C/c2ccccc2)CCCCC1)c1ccc(-c2c3nc(c(-c4ccccc4)c4ccc([nH]4)c(-c4ccccc4)c4nc(c(-c5ccccc5)c5ccc2[nH]5)C=C4)C=C3)cc1
REMARK SMILES IDX 8 1 7 2 6 3 5 4 4 5 3 6 2 7 1 8 30 9 31 10 77 11 32 12 76 13
REMARK SMILES IDX 33 14 34 15 35 16 70 17 36 18 75 19 69 20 71 21 37 22 74 23
REMARK SMILES IDX 68 24 67 25 38 27 60 28 45 29 59 30 46 31 49 32 58 33 72 34
REMARK SMILES IDX 47 35 48 36 57 38 73 39 50 40 39 41 40 42 44 43 41 44 43 45
REMARK SMILES IDX 42 46 61 47 62 48 66 49 63 50 65 51 64 52 51 53 52 54 56 55
REMARK SMILES IDX 53 56 55 57 54 58 9 59 10 60 11 61 12 62 13 63 14 64 15 65
REMARK SMILES IDX 25 66 29 67 26 68 28 69 27 70 16 71 17 72 18 73 19 74 20 75
REMARK SMILES IDX 24 76 21 77 23 78 22 79
REMARK H PARENT 71 26 49 37
REMARK Flexibility Score: inf
ROOT
ATOM      1  C   UNL A   1      36.061  21.584  25.779  1.00  0.00     0.188 C 
ENDROOT
BRANCH   1   2
ATOM      2  C   UNL A   1      37.211  20.881  25.061  1.00  0.00     0.188 C 
BRANCH   2   3
ATOM      3  O   UNL A   1      38.534  21.199  25.464  1.00  0.00    -0.376 OA
BRANCH   3   4
ATOM      4  C   UNL A   1      38.700  22.435  26.168  1.00  0.00     0.202 C 
BRANCH   4   5
ATOM      5  C   UNL A   1      40.012  22.688  26.950  1.00  0.00     0.261 C 
BRANCH   5   6
ATOM      6  O   UNL A   1      41.233  22.581  26.185  1.00  0.00    -0.460 OA
BRANCH   6   7
ATOM      7  C   UNL A   1      42.511  22.707  26.641  1.00  0.00     0.338 C 
ATOM      8  O   UNL A   1      43.136  21.738  27.057  1.00  0.00    -0.246 OA
BRANCH   7   9
ATOM      9  C   UNL A   1      43.200  24.012  26.612  1.00  0.00     0.060 A 
ATOM     10  C   UNL A   1      44.109  24.631  25.104  1.00  0.00     0.016 A 
ATOM     11  C   UNL A   1      43.424  24.908  28.256  1.00  0.00     0.016 A 
ATOM     12  C   UNL A   1      45.248  26.092  25.210  1.00  0.00     0.010 A 
ATOM     13  C   UNL A   1      44.581  26.372  28.338  1.00  0.00     0.010 A 
ATOM     14  C   UNL A   1      45.485  26.956  26.824  1.00  0.00    -0.014 A 
BRANCH  14  15
ATOM     15  C   UNL A   1      46.338  28.189  26.833  1.00  0.00     0.031 A 
ATOM     16  C   UNL A   1      45.776  29.575  26.735  1.00  0.00     0.074 A 
ATOM     17  C   UNL A   1      47.664  28.097  27.058  1.00  0.00     0.049 A 
ATOM     18  N   UNL A   1      46.435  30.705  26.668  1.00  0.00    -0.248 NA
ATOM     19  C   UNL A   1      44.323  29.738  26.871  1.00  0.00     0.031 C 
ATOM     20  C   UNL A   1      48.357  26.967  27.643  1.00  0.00     0.029 A 
ATOM     21  N   UNL A   1      48.701  28.940  26.745  1.00  0.00    -0.354 N 
ATOM     22  C   UNL A   1      45.496  31.712  26.818  1.00  0.00     0.074 A 
ATOM     23  C   UNL A   1      44.206  31.062  26.943  1.00  0.00     0.031 C 
ATOM     24  C   UNL A   1      49.660  27.011  27.356  1.00  0.00     0.029 A 
ATOM     25  C   UNL A   1      49.910  28.272  26.699  1.00  0.00     0.049 A 
ATOM     26  H   UNL A   1      48.598  29.905  26.575  1.00  0.00     0.167 HD
ATOM     27  C   UNL A   1      45.718  33.049  26.867  1.00  0.00     0.031 A 
ATOM     28  C   UNL A   1      51.103  28.624  26.196  1.00  0.00     0.031 A 
ATOM     29  C   UNL A   1      47.021  33.653  26.701  1.00  0.00     0.049 A 
ATOM     30  C   UNL A   1      51.286  30.073  25.924  1.00  0.00     0.074 A 
ATOM     31  C   UNL A   1      47.355  34.998  26.694  1.00  0.00     0.029 A 
ATOM     32  N   UNL A   1      48.200  32.953  26.483  1.00  0.00    -0.354 N 
ATOM     33  N   UNL A   1      50.394  31.023  26.049  1.00  0.00    -0.248 NA
ATOM     34  C   UNL A   1      52.632  30.527  25.572  1.00  0.00     0.031 C 
ATOM     35  C   UNL A   1      48.713  35.110  26.374  1.00  0.00     0.029 A 
ATOM     36  C   UNL A   1      49.244  33.836  26.248  1.00  0.00     0.049 A 
ATOM     37  H   UNL A   1      48.284  31.972  26.494  1.00  0.00     0.167 HD
ATOM     38  C   UNL A   1      51.079  32.203  25.857  1.00  0.00     0.074 A 
ATOM     39  C   UNL A   1      52.462  31.842  25.595  1.00  0.00     0.031 C 
ATOM     40  C   UNL A   1      50.601  33.466  25.928  1.00  0.00     0.031 A 
BRANCH  27  41
ATOM     41  C   UNL A   1      44.528  33.959  27.015  1.00  0.00    -0.014 A 
ATOM     42  C   UNL A   1      44.058  34.379  28.269  1.00  0.00     0.009 A 
ATOM     43  C   UNL A   1      43.913  34.466  25.859  1.00  0.00     0.009 A 
ATOM     44  C   UNL A   1      42.985  35.273  28.358  1.00  0.00     0.001 A 
ATOM     45  C   UNL A   1      42.854  35.372  25.950  1.00  0.00     0.001 A 
ATOM     46  C   UNL A   1      42.387  35.771  27.201  1.00  0.00     0.000 A 
ENDBRANCH  27  41
BRANCH  28  47
ATOM     47  C   UNL A   1      52.163  27.608  25.985  1.00  0.00    -0.014 A 
ATOM     48  C   UNL A   1      53.119  27.308  26.963  1.00  0.00     0.009 A 
ATOM     49  C   UNL A   1      52.200  26.902  24.768  1.00  0.00     0.009 A 
ATOM     50  C   UNL A   1      54.111  26.354  26.713  1.00  0.00     0.001 A 
ATOM     51  C   UNL A   1      53.181  25.937  24.527  1.00  0.00     0.001 A 
ATOM     52  C   UNL A   1      54.142  25.671  25.496  1.00  0.00     0.000 A 
ENDBRANCH  28  47
BRANCH  40  53
ATOM     53  C   UNL A   1      51.598  34.549  25.666  1.00  0.00    -0.014 A 
ATOM     54  C   UNL A   1      51.770  35.057  24.369  1.00  0.00     0.009 A 
ATOM     55  C   UNL A   1      52.374  35.060  26.715  1.00  0.00     0.009 A 
ATOM     56  C   UNL A   1      52.729  36.035  24.120  1.00  0.00     0.001 A 
ATOM     57  C   UNL A   1      53.310  36.064  26.469  1.00  0.00     0.001 A 
ATOM     58  C   UNL A   1      53.493  36.542  25.171  1.00  0.00     0.000 A 
ENDBRANCH  40  53
ENDBRANCH  14  15
ENDBRANCH   7   9
ENDBRANCH   6   7
ENDBRANCH   5   6
ENDBRANCH   4   5
ENDBRANCH   3   4
ENDBRANCH   2   3
ENDBRANCH   1   2
BRANCH   1  59
ATOM     59  O   UNL A   1      35.273  22.509  25.065  1.00  0.00    -0.376 OA
BRANCH  59  60
ATOM     60  C   UNL A   1      35.242  23.846  25.545  1.00  0.00     0.202 C 
BRANCH  60  61
ATOM     61  C   UNL A   1      33.936  24.434  26.119  1.00  0.00     0.261 C 
BRANCH  61  62
ATOM     62  O   UNL A   1      33.451  25.717  25.640  1.00  0.00    -0.463 OA
BRANCH  62  63
ATOM     63  C   UNL A   1      32.095  25.831  25.626  1.00  0.00     0.312 C 
ATOM     64  O   UNL A   1      31.412  25.634  26.632  1.00  0.00    -0.252 OA
BRANCH  63  65
ATOM     65  C   UNL A   1      31.425  26.054  24.244  1.00  0.00     0.071 C 
ATOM     66  C   UNL A   1      29.905  25.806  24.613  1.00  0.00     0.019 C 
ATOM     67  C   UNL A   1      31.625  27.545  23.871  1.00  0.00     0.019 C 
ATOM     68  C   UNL A   1      28.885  26.430  23.662  1.00  0.00     0.001 C 
ATOM     69  C   UNL A   1      30.582  28.098  22.900  1.00  0.00     0.001 C 
ATOM     70  C   UNL A   1      29.168  27.903  23.431  1.00  0.00     0.000 C 
BRANCH  65  71
ATOM     71  C   UNL A   1      31.758  25.034  23.069  1.00  0.00     0.046 C 
BRANCH  71  72
ATOM     72  C   UNL A   1      32.303  23.452  23.231  1.00  0.00    -0.025 C 
ATOM     73  C   UNL A   1      32.021  21.692  22.848  1.00  0.00     0.004 C 
BRANCH  73  74
ATOM     74  C   UNL A   1      32.322  20.029  23.311  1.00  0.00    -0.026 A 
ATOM     75  C   UNL A   1      33.101  19.860  24.479  1.00  0.00     0.008 A 
ATOM     76  C   UNL A   1      32.236  18.859  22.502  1.00  0.00     0.008 A 
ATOM     77  C   UNL A   1      33.854  18.692  24.719  1.00  0.00     0.001 A 
ATOM     78  C   UNL A   1      33.004  17.706  22.723  1.00  0.00     0.001 A 
ATOM     79  C   UNL A   1      33.844  17.636  23.816  1.00  0.00     0.000 A 
ENDBRANCH  73  74
ENDBRANCH  71  72
ENDBRANCH  65  71
ENDBRANCH  63  65
ENDBRANCH  62  63
ENDBRANCH  61  62
ENDBRANCH  60  61
ENDBRANCH  59  60
ENDBRANCH   1  59
TORSDOF 20
ENDMDL
