MODEL 1
REMARK VINA RESULT:      -8.6      0.000      0.000
REMARK SMILES CCCNC(=O)[C@H](C)[NH2+][C@H](C)[C@@H](C)C(=O)OCCOCCOCCOC(=O)c1ccc(-c2c3nc(c(-c4ccccc4)c4ccc([nH]4)c(-c4ccccc4)c4nc(c(-c5ccccc5)c5ccc2[nH]5)C=C4)C=C3)cc1
REMARK SMILES IDX 18 1 17 2 16 3 14 4 15 5 12 6 13 7 10 8 11 9 9 10 7 13 8 14
REMARK SMILES IDX 5 15 4 16 6 18 3 19 2 20 1 21 19 22 20 23 21 24 22 25 23 26
REMARK SMILES IDX 24 27 25 28 26 29 27 30 28 31 29 32 75 33 30 34 74 35 31 36
REMARK SMILES IDX 32 37 33 38 68 39 34 40 73 41 67 42 69 43 35 44 72 45 66 46
REMARK SMILES IDX 65 47 36 49 58 50 43 51 57 52 44 53 47 54 56 55 70 56 45 57
REMARK SMILES IDX 46 58 55 60 71 61 48 62 37 63 38 64 42 65 39 66 41 67 40 68
REMARK SMILES IDX 59 69 60 70 64 71 61 72 63 73 62 74 49 75 50 76 54 77 51 78
REMARK SMILES IDX 53 79 52 80
REMARK H PARENT 9 11 9 12 4 17 69 48 47 59
REMARK Flexibility Score: inf
ROOT
ATOM      1  C   UNL A   1      34.344  31.366  27.889  1.00  0.00     0.202 C 
ENDROOT
BRANCH   1   2
ATOM      2  C   UNL A   1      33.065  30.892  27.178  1.00  0.00     0.261 C 
BRANCH   2   3
ATOM      3  O   UNL A   1      33.265  29.753  26.300  1.00  0.00    -0.463 OA
BRANCH   3   4
ATOM      4  C   UNL A   1      32.943  28.544  26.823  1.00  0.00     0.314 C 
ATOM      5  O   UNL A   1      32.633  28.359  27.996  1.00  0.00    -0.252 OA
BRANCH   4   6
ATOM      6  C   UNL A   1      33.080  27.380  25.858  1.00  0.00     0.154 C 
ATOM      7  C   UNL A   1      32.928  27.965  24.447  1.00  0.00     0.026 C 
BRANCH   6   8
ATOM      8  C   UNL A   1      32.179  26.127  25.994  1.00  0.00     0.193 C 
ATOM      9  C   UNL A   1      30.712  26.530  25.689  1.00  0.00     0.076 C 
BRANCH   8  10
ATOM     10  N   UNL A   1      32.468  24.983  25.130  1.00  0.00    -0.333 N 
ATOM     11  H   UNL A   1      32.476  25.296  24.159  1.00  0.00     0.347 HD
ATOM     12  H   UNL A   1      33.375  24.602  25.400  1.00  0.00     0.347 HD
BRANCH  10  13
ATOM     13  C   UNL A   1      31.454  23.911  25.279  1.00  0.00     0.269 C 
ATOM     14  C   UNL A   1      31.255  23.187  23.943  1.00  0.00     0.086 C 
BRANCH  13  15
ATOM     15  C   UNL A   1      31.898  22.857  26.314  1.00  0.00     0.277 C 
ATOM     16  N   UNL A   1      32.319  21.639  25.847  1.00  0.00    -0.351 N 
ATOM     17  H   UNL A   1      31.765  21.149  25.195  1.00  0.00     0.163 HD
ATOM     18  O   UNL A   1      31.936  23.095  27.515  1.00  0.00    -0.268 OA
BRANCH  16  19
ATOM     19  C   UNL A   1      33.568  21.066  26.305  1.00  0.00     0.116 C 
BRANCH  19  20
ATOM     20  C   UNL A   1      34.476  20.406  25.265  1.00  0.00     0.018 C 
ATOM     21  C   UNL A   1      35.786  21.141  25.054  1.00  0.00     0.006 C 
ENDBRANCH  19  20
ENDBRANCH  16  19
ENDBRANCH  13  15
ENDBRANCH  10  13
ENDBRANCH   8  10
ENDBRANCH   6   8
ENDBRANCH   4   6
ENDBRANCH   3   4
ENDBRANCH   2   3
ENDBRANCH   1   2
BRANCH   1  22
ATOM     22  O   UNL A   1      34.746  32.687  27.530  1.00  0.00    -0.376 OA
BRANCH  22  23
ATOM     23  C   UNL A   1      34.830  33.591  28.624  1.00  0.00     0.188 C 
BRANCH  23  24
ATOM     24  C   UNL A   1      33.580  34.442  28.795  1.00  0.00     0.188 C 
BRANCH  24  25
ATOM     25  O   UNL A   1      33.255  34.619  30.177  1.00  0.00    -0.376 OA
BRANCH  25  26
ATOM     26  C   UNL A   1      34.086  33.874  31.074  1.00  0.00     0.202 C 
BRANCH  26  27
ATOM     27  C   UNL A   1      34.829  34.738  32.099  1.00  0.00     0.261 C 
BRANCH  27  28
ATOM     28  O   UNL A   1      36.205  34.366  32.173  1.00  0.00    -0.460 OA
BRANCH  28  29
ATOM     29  C   UNL A   1      36.440  33.242  32.899  1.00  0.00     0.338 C 
ATOM     30  O   UNL A   1      35.831  32.847  33.880  1.00  0.00    -0.246 OA
BRANCH  29  31
ATOM     31  C   UNL A   1      37.445  32.440  32.170  1.00  0.00     0.060 A 
ATOM     32  C   UNL A   1      38.199  31.505  32.897  1.00  0.00     0.016 A 
ATOM     33  C   UNL A   1      37.533  32.493  30.774  1.00  0.00     0.016 A 
ATOM     34  C   UNL A   1      39.060  30.635  32.228  1.00  0.00     0.010 A 
ATOM     35  C   UNL A   1      38.396  31.630  30.108  1.00  0.00     0.010 A 
ATOM     36  C   UNL A   1      39.186  30.723  30.835  1.00  0.00    -0.014 A 
BRANCH  36  37
ATOM     37  C   UNL A   1      40.334  30.102  30.143  1.00  0.00     0.031 A 
ATOM     38  C   UNL A   1      41.536  30.977  29.922  1.00  0.00     0.074 A 
ATOM     39  C   UNL A   1      40.290  28.848  29.664  1.00  0.00     0.049 A 
ATOM     40  N   UNL A   1      42.608  30.755  29.211  1.00  0.00    -0.248 NA
ATOM     41  C   UNL A   1      41.509  32.296  30.582  1.00  0.00     0.031 C 
ATOM     42  C   UNL A   1      39.193  27.902  29.847  1.00  0.00     0.029 A 
ATOM     43  N   UNL A   1      41.202  28.168  28.896  1.00  0.00    -0.354 N 
ATOM     44  C   UNL A   1      43.369  31.912  29.321  1.00  0.00     0.074 A 
ATOM     45  C   UNL A   1      42.632  32.840  30.145  1.00  0.00     0.031 C 
ATOM     46  C   UNL A   1      39.487  26.765  29.188  1.00  0.00     0.029 A 
ATOM     47  C   UNL A   1      40.771  26.923  28.507  1.00  0.00     0.049 A 
ATOM     48  H   UNL A   1      42.080  28.536  28.647  1.00  0.00     0.167 HD
ATOM     49  C   UNL A   1      44.577  32.180  28.777  1.00  0.00     0.031 A 
ATOM     50  C   UNL A   1      41.341  26.035  27.668  1.00  0.00     0.031 A 
ATOM     51  C   UNL A   1      45.291  31.264  27.936  1.00  0.00     0.049 A 
ATOM     52  C   UNL A   1      42.661  26.382  27.023  1.00  0.00     0.074 A 
ATOM     53  C   UNL A   1      46.528  31.426  27.338  1.00  0.00     0.029 A 
ATOM     54  N   UNL A   1      44.822  30.013  27.566  1.00  0.00    -0.354 N 
ATOM     55  N   UNL A   1      43.389  27.465  27.154  1.00  0.00    -0.248 NA
ATOM     56  C   UNL A   1      43.236  25.379  26.114  1.00  0.00     0.031 C 
ATOM     57  C   UNL A   1      46.782  30.292  26.561  1.00  0.00     0.029 A 
ATOM     58  C   UNL A   1      45.733  29.399  26.728  1.00  0.00     0.049 A 
ATOM     59  H   UNL A   1      43.968  29.620  27.858  1.00  0.00     0.167 HD
ATOM     60  C   UNL A   1      44.520  27.262  26.372  1.00  0.00     0.074 A 
ATOM     61  C   UNL A   1      44.387  25.947  25.780  1.00  0.00     0.031 C 
ATOM     62  C   UNL A   1      45.576  28.086  26.160  1.00  0.00     0.031 A 
BRANCH  49  63
ATOM     63  C   UNL A   1      45.162  33.538  29.043  1.00  0.00    -0.014 A 
ATOM     64  C   UNL A   1      46.016  33.765  30.135  1.00  0.00     0.009 A 
ATOM     65  C   UNL A   1      44.852  34.606  28.188  1.00  0.00     0.009 A 
ATOM     66  C   UNL A   1      46.520  35.043  30.383  1.00  0.00     0.001 A 
ATOM     67  C   UNL A   1      45.381  35.876  28.421  1.00  0.00     0.001 A 
ATOM     68  C   UNL A   1      46.206  36.095  29.523  1.00  0.00     0.000 A 
ENDBRANCH  49  63
BRANCH  50  69
ATOM     69  C   UNL A   1      40.665  24.746  27.361  1.00  0.00    -0.014 A 
ATOM     70  C   UNL A   1      41.139  23.540  27.902  1.00  0.00     0.009 A 
ATOM     71  C   UNL A   1      39.559  24.708  26.497  1.00  0.00     0.009 A 
ATOM     72  C   UNL A   1      40.539  22.324  27.562  1.00  0.00     0.001 A 
ATOM     73  C   UNL A   1      38.943  23.493  26.182  1.00  0.00     0.001 A 
ATOM     74  C   UNL A   1      39.439  22.302  26.707  1.00  0.00     0.000 A 
ENDBRANCH  50  69
BRANCH  62  75
ATOM     75  C   UNL A   1      46.691  27.572  25.292  1.00  0.00    -0.014 A 
ATOM     76  C   UNL A   1      46.792  27.930  23.940  1.00  0.00     0.009 A 
ATOM     77  C   UNL A   1      47.690  26.764  25.861  1.00  0.00     0.009 A 
ATOM     78  C   UNL A   1      47.856  27.462  23.165  1.00  0.00     0.001 A 
ATOM     79  C   UNL A   1      48.766  26.324  25.092  1.00  0.00     0.001 A 
ATOM     80  C   UNL A   1      48.844  26.665  23.743  1.00  0.00     0.000 A 
ENDBRANCH  62  75
ENDBRANCH  36  37
ENDBRANCH  29  31
ENDBRANCH  28  29
ENDBRANCH  27  28
ENDBRANCH  26  27
ENDBRANCH  25  26
ENDBRANCH  24  25
ENDBRANCH  23  24
ENDBRANCH  22  23
ENDBRANCH   1  22
TORSDOF 23
ENDMDL
MODEL 2
REMARK VINA RESULT:      -8.3      3.494      5.151
REMARK SMILES CCCNC(=O)[C@H](C)[NH2+][C@H](C)[C@@H](C)C(=O)OCCOCCOCCOC(=O)c1ccc(-c2c3nc(c(-c4ccccc4)c4ccc([nH]4)c(-c4ccccc4)c4nc(c(-c5ccccc5)c5ccc2[nH]5)C=C4)C=C3)cc1
REMARK SMILES IDX 18 1 17 2 16 3 14 4 15 5 12 6 13 7 10 8 11 9 9 10 7 13 8 14
REMARK SMILES IDX 5 15 4 16 6 18 3 19 2 20 1 21 19 22 20 23 21 24 22 25 23 26
REMARK SMILES IDX 24 27 25 28 26 29 27 30 28 31 29 32 75 33 30 34 74 35 31 36
REMARK SMILES IDX 32 37 33 38 68 39 34 40 73 41 67 42 69 43 35 44 72 45 66 46
REMARK SMILES IDX 65 47 36 49 58 50 43 51 57 52 44 53 47 54 56 55 70 56 45 57
REMARK SMILES IDX 46 58 55 60 71 61 48 62 37 63 38 64 42 65 39 66 41 67 40 68
REMARK SMILES IDX 59 69 60 70 64 71 61 72 63 73 62 74 49 75 50 76 54 77 51 78
REMARK SMILES IDX 53 79 52 80
REMARK H PARENT 9 11 9 12 4 17 69 48 47 59
REMARK Flexibility Score: inf
ROOT
ATOM      1  C   UNL A   1      33.856  28.795  23.453  1.00  0.00     0.202 C 
ENDROOT
BRANCH   1   2
ATOM      2  C   UNL A   1      33.527  27.883  22.259  1.00  0.00     0.261 C 
BRANCH   2   3
ATOM      3  O   UNL A   1      33.340  26.489  22.616  1.00  0.00    -0.463 OA
BRANCH   3   4
ATOM      4  C   UNL A   1      32.164  25.935  22.228  1.00  0.00     0.314 C 
ATOM      5  O   UNL A   1      31.428  26.410  21.368  1.00  0.00    -0.252 OA
BRANCH   4   6
ATOM      6  C   UNL A   1      31.757  24.698  23.008  1.00  0.00     0.154 C 
ATOM      7  C   UNL A   1      31.353  25.182  24.408  1.00  0.00     0.026 C 
BRANCH   6   8
ATOM      8  C   UNL A   1      32.718  23.490  23.140  1.00  0.00     0.193 C 
ATOM      9  C   UNL A   1      33.094  22.990  21.720  1.00  0.00     0.076 C 
BRANCH   8  10
ATOM     10  N   UNL A   1      33.986  23.702  23.839  1.00  0.00    -0.333 N 
ATOM     11  H   UNL A   1      34.454  24.513  23.435  1.00  0.00     0.347 HD
ATOM     12  H   UNL A   1      33.783  23.851  24.828  1.00  0.00     0.347 HD
BRANCH  10  13
ATOM     13  C   UNL A   1      34.880  22.524  23.724  1.00  0.00     0.269 C 
ATOM     14  C   UNL A   1      36.333  22.943  23.970  1.00  0.00     0.086 C 
BRANCH  13  15
ATOM     15  C   UNL A   1      34.527  21.446  24.769  1.00  0.00     0.277 C 
ATOM     16  N   UNL A   1      33.537  20.550  24.455  1.00  0.00    -0.351 N 
ATOM     17  H   UNL A   1      32.673  20.878  24.114  1.00  0.00     0.163 HD
ATOM     18  O   UNL A   1      35.132  21.339  25.828  1.00  0.00    -0.268 OA
BRANCH  16  19
ATOM     19  C   UNL A   1      33.753  19.127  24.624  1.00  0.00     0.116 C 
BRANCH  19  20
ATOM     20  C   UNL A   1      33.242  18.192  23.525  1.00  0.00     0.018 C 
ATOM     21  C   UNL A   1      34.018  16.893  23.427  1.00  0.00     0.006 C 
ENDBRANCH  19  20
ENDBRANCH  16  19
ENDBRANCH  13  15
ENDBRANCH  10  13
ENDBRANCH   8  10
ENDBRANCH   6   8
ENDBRANCH   4   6
ENDBRANCH   3   4
ENDBRANCH   2   3
ENDBRANCH   1   2
BRANCH   1  22
ATOM     22  O   UNL A   1      32.759  28.999  24.342  1.00  0.00    -0.376 OA
BRANCH  22  23
ATOM     23  C   UNL A   1      33.015  28.616  25.687  1.00  0.00     0.188 C 
BRANCH  23  24
ATOM     24  C   UNL A   1      32.935  29.778  26.666  1.00  0.00     0.188 C 
BRANCH  24  25
ATOM     25  O   UNL A   1      31.601  30.284  26.767  1.00  0.00    -0.376 OA
BRANCH  25  26
ATOM     26  C   UNL A   1      31.474  31.672  26.435  1.00  0.00     0.202 C 
BRANCH  26  27
ATOM     27  C   UNL A   1      31.753  32.620  27.607  1.00  0.00     0.261 C 
BRANCH  27  28
ATOM     28  O   UNL A   1      32.836  33.497  27.301  1.00  0.00    -0.460 OA
BRANCH  28  29
ATOM     29  C   UNL A   1      33.239  34.270  28.343  1.00  0.00     0.338 C 
ATOM     30  O   UNL A   1      32.624  35.178  28.879  1.00  0.00    -0.246 OA
BRANCH  29  31
ATOM     31  C   UNL A   1      34.487  33.685  28.878  1.00  0.00     0.060 A 
ATOM     32  C   UNL A   1      35.680  33.912  28.172  1.00  0.00     0.016 A 
ATOM     33  C   UNL A   1      34.510  33.060  30.130  1.00  0.00     0.016 A 
ATOM     34  C   UNL A   1      36.897  33.495  28.711  1.00  0.00     0.010 A 
ATOM     35  C   UNL A   1      35.722  32.639  30.664  1.00  0.00     0.010 A 
ATOM     36  C   UNL A   1      36.913  32.824  29.941  1.00  0.00    -0.014 A 
BRANCH  36  37
ATOM     37  C   UNL A   1      38.098  32.047  30.358  1.00  0.00     0.031 A 
ATOM     38  C   UNL A   1      39.040  32.723  31.315  1.00  0.00     0.074 A 
ATOM     39  C   UNL A   1      38.371  30.831  29.859  1.00  0.00     0.049 A 
ATOM     40  N   UNL A   1      40.225  32.353  31.719  1.00  0.00    -0.248 NA
ATOM     41  C   UNL A   1      38.583  34.009  31.874  1.00  0.00     0.031 C 
ATOM     42  C   UNL A   1      37.517  30.068  28.952  1.00  0.00     0.029 A 
ATOM     43  N   UNL A   1      39.476  30.036  30.034  1.00  0.00    -0.354 N 
ATOM     44  C   UNL A   1      40.661  33.369  32.560  1.00  0.00     0.074 A 
ATOM     45  C   UNL A   1      39.630  34.379  32.593  1.00  0.00     0.031 C 
ATOM     46  C   UNL A   1      38.141  28.919  28.633  1.00  0.00     0.029 A 
ATOM     47  C   UNL A   1      39.452  28.888  29.280  1.00  0.00     0.049 A 
ATOM     48  H   UNL A   1      40.215  30.265  30.642  1.00  0.00     0.167 HD
ATOM     49  C   UNL A   1      41.824  33.455  33.243  1.00  0.00     0.031 A 
ATOM     50  C   UNL A   1      40.400  27.945  29.112  1.00  0.00     0.031 A 
ATOM     51  C   UNL A   1      42.856  32.461  33.184  1.00  0.00     0.049 A 
ATOM     52  C   UNL A   1      41.716  28.094  29.835  1.00  0.00     0.074 A 
ATOM     53  C   UNL A   1      44.072  32.439  33.843  1.00  0.00     0.029 A 
ATOM     54  N   UNL A   1      42.794  31.313  32.410  1.00  0.00    -0.354 N 
ATOM     55  N   UNL A   1      42.111  29.041  30.652  1.00  0.00    -0.248 NA
ATOM     56  C   UNL A   1      42.716  27.039  29.613  1.00  0.00     0.031 C 
ATOM     57  C   UNL A   1      44.769  31.303  33.423  1.00  0.00     0.029 A 
ATOM     58  C   UNL A   1      43.959  30.585  32.554  1.00  0.00     0.049 A 
ATOM     59  H   UNL A   1      42.031  31.054  31.842  1.00  0.00     0.167 HD
ATOM     60  C   UNL A   1      43.389  28.682  31.064  1.00  0.00     0.074 A 
ATOM     61  C   UNL A   1      43.698  27.423  30.418  1.00  0.00     0.031 C 
ATOM     62  C   UNL A   1      44.235  29.331  31.903  1.00  0.00     0.031 A 
BRANCH  49  63
ATOM     63  C   UNL A   1      42.047  34.692  34.065  1.00  0.00    -0.014 A 
ATOM     64  C   UNL A   1      42.626  35.845  33.509  1.00  0.00     0.009 A 
ATOM     65  C   UNL A   1      41.673  34.703  35.418  1.00  0.00     0.009 A 
ATOM     66  C   UNL A   1      42.856  36.971  34.301  1.00  0.00     0.001 A 
ATOM     67  C   UNL A   1      41.878  35.841  36.199  1.00  0.00     0.001 A 
ATOM     68  C   UNL A   1      42.478  36.970  35.643  1.00  0.00     0.000 A 
ENDBRANCH  49  63
BRANCH  50  69
ATOM     69  C   UNL A   1      40.163  26.791  28.203  1.00  0.00    -0.014 A 
ATOM     70  C   UNL A   1      39.473  25.653  28.653  1.00  0.00     0.009 A 
ATOM     71  C   UNL A   1      40.655  26.804  26.888  1.00  0.00     0.009 A 
ATOM     72  C   UNL A   1      39.307  24.546  27.816  1.00  0.00     0.001 A 
ATOM     73  C   UNL A   1      40.460  25.707  26.045  1.00  0.00     0.001 A 
ATOM     74  C   UNL A   1      39.795  24.576  26.512  1.00  0.00     0.000 A 
ENDBRANCH  50  69
BRANCH  62  75
ATOM     75  C   UNL A   1      45.550  28.671  32.206  1.00  0.00    -0.014 A 
ATOM     76  C   UNL A   1      45.680  27.739  33.247  1.00  0.00     0.009 A 
ATOM     77  C   UNL A   1      46.662  28.945  31.393  1.00  0.00     0.009 A 
ATOM     78  C   UNL A   1      46.908  27.118  33.486  1.00  0.00     0.001 A 
ATOM     79  C   UNL A   1      47.878  28.300  31.616  1.00  0.00     0.001 A 
ATOM     80  C   UNL A   1      48.003  27.394  32.668  1.00  0.00     0.000 A 
ENDBRANCH  62  75
ENDBRANCH  36  37
ENDBRANCH  29  31
ENDBRANCH  28  29
ENDBRANCH  27  28
ENDBRANCH  26  27
ENDBRANCH  25  26
ENDBRANCH  24  25
ENDBRANCH  23  24
ENDBRANCH  22  23
ENDBRANCH   1  22
TORSDOF 23
ENDMDL
MODEL 3
REMARK VINA RESULT:      -8.2      4.022      9.766
REMARK SMILES CCCNC(=O)[C@H](C)[NH2+][C@H](C)[C@@H](C)C(=O)OCCOCCOCCOC(=O)c1ccc(-c2c3nc(c(-c4ccccc4)c4ccc([nH]4)c(-c4ccccc4)c4nc(c(-c5ccccc5)c5ccc2[nH]5)C=C4)C=C3)cc1
REMARK SMILES IDX 18 1 17 2 16 3 14 4 15 5 12 6 13 7 10 8 11 9 9 10 7 13 8 14
REMARK SMILES IDX 5 15 4 16 6 18 3 19 2 20 1 21 19 22 20 23 21 24 22 25 23 26
REMARK SMILES IDX 24 27 25 28 26 29 27 30 28 31 29 32 75 33 30 34 74 35 31 36
REMARK SMILES IDX 32 37 33 38 68 39 34 40 73 41 67 42 69 43 35 44 72 45 66 46
REMARK SMILES IDX 65 47 36 49 58 50 43 51 57 52 44 53 47 54 56 55 70 56 45 57
REMARK SMILES IDX 46 58 55 60 71 61 48 62 37 63 38 64 42 65 39 66 41 67 40 68
REMARK SMILES IDX 59 69 60 70 64 71 61 72 63 73 62 74 49 75 50 76 54 77 51 78
REMARK SMILES IDX 53 79 52 80
REMARK H PARENT 9 11 9 12 4 17 69 48 47 59
REMARK Flexibility Score: inf
ROOT
ATOM      1  C   UNL A   1      38.443  22.754  25.762  1.00  0.00     0.202 C 
ENDROOT
BRANCH   1   2
ATOM      2  C   UNL A   1      36.953  22.687  25.388  1.00  0.00     0.261 C 
BRANCH   2   3
ATOM      3  O   UNL A   1      36.202  21.688  26.126  1.00  0.00    -0.463 OA
BRANCH   3   4
ATOM      4  C   UNL A   1      35.694  20.671  25.388  1.00  0.00     0.314 C 
ATOM      5  O   UNL A   1      36.372  19.907  24.706  1.00  0.00    -0.252 OA
BRANCH   4   6
ATOM      6  C   UNL A   1      34.178  20.583  25.385  1.00  0.00     0.154 C 
ATOM      7  C   UNL A   1      33.820  19.287  24.644  1.00  0.00     0.026 C 
BRANCH   6   8
ATOM      8  C   UNL A   1      33.317  21.746  24.831  1.00  0.00     0.193 C 
ATOM      9  C   UNL A   1      32.762  22.570  26.022  1.00  0.00     0.076 C 
BRANCH   8  10
ATOM     10  N   UNL A   1      33.965  22.710  23.942  1.00  0.00    -0.333 N 
ATOM     11  H   UNL A   1      33.894  23.640  24.356  1.00  0.00     0.347 HD
ATOM     12  H   UNL A   1      34.940  22.432  23.828  1.00  0.00     0.347 HD
BRANCH  10  13
ATOM     13  C   UNL A   1      33.331  22.734  22.601  1.00  0.00     0.269 C 
ATOM     14  C   UNL A   1      32.086  21.841  22.594  1.00  0.00     0.086 C 
BRANCH  13  15
ATOM     15  C   UNL A   1      32.879  24.159  22.220  1.00  0.00     0.277 C 
ATOM     16  N   UNL A   1      31.610  24.543  22.569  1.00  0.00    -0.351 N 
ATOM     17  H   UNL A   1      30.847  23.960  22.353  1.00  0.00     0.163 HD
ATOM     18  O   UNL A   1      33.628  24.958  21.672  1.00  0.00    -0.268 OA
BRANCH  16  19
ATOM     19  C   UNL A   1      31.385  25.802  23.252  1.00  0.00     0.116 C 
BRANCH  19  20
ATOM     20  C   UNL A   1      31.641  25.853  24.760  1.00  0.00     0.018 C 
ATOM     21  C   UNL A   1      33.052  26.275  25.119  1.00  0.00     0.006 C 
ENDBRANCH  19  20
ENDBRANCH  16  19
ENDBRANCH  13  15
ENDBRANCH  10  13
ENDBRANCH   8  10
ENDBRANCH   6   8
ENDBRANCH   4   6
ENDBRANCH   3   4
ENDBRANCH   2   3
ENDBRANCH   1   2
BRANCH   1  22
ATOM     22  O   UNL A   1      39.015  21.485  26.077  1.00  0.00    -0.376 OA
BRANCH  22  23
ATOM     23  C   UNL A   1      40.430  21.497  26.212  1.00  0.00     0.188 C 
BRANCH  23  24
ATOM     24  C   UNL A   1      40.916  20.818  27.484  1.00  0.00     0.188 C 
BRANCH  24  25
ATOM     25  O   UNL A   1      42.162  20.147  27.274  1.00  0.00    -0.376 OA
BRANCH  25  26
ATOM     26  C   UNL A   1      42.246  19.444  26.029  1.00  0.00     0.202 C 
BRANCH  26  27
ATOM     27  C   UNL A   1      43.537  19.712  25.247  1.00  0.00     0.261 C 
BRANCH  27  28
ATOM     28  O   UNL A   1      44.197  20.875  25.744  1.00  0.00    -0.460 OA
BRANCH  28  29
ATOM     29  C   UNL A   1      44.217  21.919  24.875  1.00  0.00     0.338 C 
ATOM     30  O   UNL A   1      44.161  21.876  23.656  1.00  0.00    -0.246 OA
BRANCH  29  31
ATOM     31  C   UNL A   1      44.102  23.163  25.665  1.00  0.00     0.060 A 
ATOM     32  C   UNL A   1      44.027  24.382  24.973  1.00  0.00     0.016 A 
ATOM     33  C   UNL A   1      43.912  23.120  27.051  1.00  0.00     0.016 A 
ATOM     34  C   UNL A   1      43.783  25.565  25.671  1.00  0.00     0.010 A 
ATOM     35  C   UNL A   1      43.675  24.299  27.747  1.00  0.00     0.010 A 
ATOM     36  C   UNL A   1      43.644  25.527  27.065  1.00  0.00    -0.014 A 
BRANCH  36  37
ATOM     37  C   UNL A   1      43.762  26.763  27.866  1.00  0.00     0.031 A 
ATOM     38  C   UNL A   1      42.479  27.471  28.199  1.00  0.00     0.074 A 
ATOM     39  C   UNL A   1      44.951  27.277  28.219  1.00  0.00     0.049 A 
ATOM     40  N   UNL A   1      42.291  28.644  28.740  1.00  0.00    -0.248 NA
ATOM     41  C   UNL A   1      41.236  26.758  27.851  1.00  0.00     0.031 C 
ATOM     42  C   UNL A   1      46.254  26.662  27.979  1.00  0.00     0.029 A 
ATOM     43  N   UNL A   1      45.245  28.465  28.842  1.00  0.00    -0.354 N 
ATOM     44  C   UNL A   1      40.913  28.817  28.775  1.00  0.00     0.074 A 
ATOM     45  C   UNL A   1      40.313  27.644  28.184  1.00  0.00     0.031 C 
ATOM     46  C   UNL A   1      47.214  27.490  28.431  1.00  0.00     0.029 A 
ATOM     47  C   UNL A   1      46.593  28.707  28.953  1.00  0.00     0.049 A 
ATOM     48  H   UNL A   1      44.557  29.084  29.176  1.00  0.00     0.167 HD
ATOM     49  C   UNL A   1      40.209  29.865  29.254  1.00  0.00     0.031 A 
ATOM     50  C   UNL A   1      47.240  29.803  29.397  1.00  0.00     0.031 A 
ATOM     51  C   UNL A   1      40.813  31.040  29.815  1.00  0.00     0.049 A 
ATOM     52  C   UNL A   1      46.432  30.987  29.869  1.00  0.00     0.074 A 
ATOM     53  C   UNL A   1      40.196  32.160  30.341  1.00  0.00     0.029 A 
ATOM     54  N   UNL A   1      42.180  31.247  29.912  1.00  0.00    -0.354 N 
ATOM     55  N   UNL A   1      45.130  31.133  29.927  1.00  0.00    -0.248 NA
ATOM     56  C   UNL A   1      47.188  32.158  30.339  1.00  0.00     0.031 C 
ATOM     57  C   UNL A   1      41.192  33.069  30.707  1.00  0.00     0.029 A 
ATOM     58  C   UNL A   1      42.429  32.487  30.467  1.00  0.00     0.049 A 
ATOM     59  H   UNL A   1      42.871  30.604  29.627  1.00  0.00     0.167 HD
ATOM     60  C   UNL A   1      44.911  32.395  30.468  1.00  0.00     0.074 A 
ATOM     61  C   UNL A   1      46.214  32.968  30.731  1.00  0.00     0.031 C 
ATOM     62  C   UNL A   1      43.738  33.027  30.725  1.00  0.00     0.031 A 
BRANCH  49  63
ATOM     63  C   UNL A   1      38.713  29.797  29.140  1.00  0.00    -0.014 A 
ATOM     64  C   UNL A   1      37.909  29.458  30.241  1.00  0.00     0.009 A 
ATOM     65  C   UNL A   1      38.098  30.073  27.908  1.00  0.00     0.009 A 
ATOM     66  C   UNL A   1      36.523  29.364  30.101  1.00  0.00     0.001 A 
ATOM     67  C   UNL A   1      36.710  30.008  27.780  1.00  0.00     0.001 A 
ATOM     68  C   UNL A   1      35.926  29.644  28.873  1.00  0.00     0.000 A 
ENDBRANCH  49  63
BRANCH  50  69
ATOM     69  C   UNL A   1      48.727  29.855  29.393  1.00  0.00    -0.014 A 
ATOM     70  C   UNL A   1      49.463  29.433  30.512  1.00  0.00     0.009 A 
ATOM     71  C   UNL A   1      49.420  30.359  28.281  1.00  0.00     0.009 A 
ATOM     72  C   UNL A   1      50.856  29.541  30.527  1.00  0.00     0.001 A 
ATOM     73  C   UNL A   1      50.816  30.438  28.289  1.00  0.00     0.001 A 
ATOM     74  C   UNL A   1      51.532  30.038  29.415  1.00  0.00     0.000 A 
ENDBRANCH  50  69
BRANCH  62  75
ATOM     75  C   UNL A   1      43.810  34.386  31.364  1.00  0.00    -0.014 A 
ATOM     76  C   UNL A   1      43.916  35.553  30.594  1.00  0.00     0.009 A 
ATOM     77  C   UNL A   1      43.709  34.495  32.761  1.00  0.00     0.009 A 
ATOM     78  C   UNL A   1      43.950  36.804  31.215  1.00  0.00     0.001 A 
ATOM     79  C   UNL A   1      43.712  35.748  33.374  1.00  0.00     0.001 A 
ATOM     80  C   UNL A   1      43.843  36.900  32.601  1.00  0.00     0.000 A 
ENDBRANCH  62  75
ENDBRANCH  36  37
ENDBRANCH  29  31
ENDBRANCH  28  29
ENDBRANCH  27  28
ENDBRANCH  26  27
ENDBRANCH  25  26
ENDBRANCH  24  25
ENDBRANCH  23  24
ENDBRANCH  22  23
ENDBRANCH   1  22
TORSDOF 23
ENDMDL
