MODEL 1
REMARK VINA RESULT:     -10.0      0.000      0.000
REMARK SMILES O=C(CCN1C(=O)/C(=C/c2cc(Br)cc(Br)c2O)SC1=S)OCCOCCOCCOC(=O)c1ccc(-c2c3nc(c(-c4ccccc4)c4ccc([nH]4)c(-c4ccccc4)c4nc(c(-c5ccccc5)c5ccc2[nH]5)C=C4)C=C3)cc1
REMARK SMILES IDX 26 1 25 2 24 3 23 4 22 5 2 6 1 7 3 8 4 9 5 10 6 11 20 12
REMARK SMILES IDX 7 13 8 14 19 15 21 16 9 17 10 18 11 19 17 20 12 21 15 22
REMARK SMILES IDX 13 23 14 24 16 25 18 26 27 28 28 29 29 30 30 31 31 32 32 33
REMARK SMILES IDX 33 34 34 35 35 36 81 37 36 38 80 39 37 40 38 41 39 42 74 43
REMARK SMILES IDX 40 44 79 45 73 46 75 47 41 48 78 49 72 50 71 51 42 53 64 54
REMARK SMILES IDX 49 55 63 56 50 57 53 58 62 59 76 60 51 61 52 62 61 64 77 65
REMARK SMILES IDX 54 66 43 67 44 68 48 69 45 70 47 71 46 72 65 73 66 74 70 75
REMARK SMILES IDX 67 76 69 77 68 78 55 79 56 80 60 81 57 82 59 83 58 84
REMARK H PARENT 18 27 75 52 53 63
REMARK Flexibility Score: inf
ROOT
ATOM      1  C   UNL A   1      35.120  32.809  29.267  1.00  0.00     0.188 C 
ENDROOT
BRANCH   1   2
ATOM      2  O   UNL A   1      34.264  32.109  28.378  1.00  0.00    -0.376 OA
BRANCH   2   3
ATOM      3  C   UNL A   1      34.650  30.806  27.966  1.00  0.00     0.202 C 
BRANCH   3   4
ATOM      4  C   UNL A   1      33.767  30.090  26.945  1.00  0.00     0.261 C 
BRANCH   4   5
ATOM      5  O   UNL A   1      32.466  29.587  27.335  1.00  0.00    -0.463 OA
BRANCH   5   6
ATOM      6  C   UNL A   1      31.788  28.459  27.074  1.00  0.00     0.307 C 
ATOM      7  O   UNL A   1      31.023  28.006  27.925  1.00  0.00    -0.252 OA
BRANCH   6   8
ATOM      8  C   UNL A   1      31.905  27.781  25.746  1.00  0.00     0.144 C 
BRANCH   8   9
ATOM      9  C   UNL A   1      30.789  26.773  25.502  1.00  0.00     0.139 C 
BRANCH   9  10
ATOM     10  N   UNL A   1      31.282  25.457  25.085  1.00  0.00    -0.292 N 
ATOM     11  C   UNL A   1      31.459  24.478  26.047  1.00  0.00     0.266 C 
ATOM     12  C   UNL A   1      31.601  25.105  23.787  1.00  0.00     0.148 C 
ATOM     13  O   UNL A   1      31.135  24.548  27.224  1.00  0.00    -0.268 OA
ATOM     14  C   UNL A   1      32.205  23.332  25.471  1.00  0.00     0.081 C 
ATOM     15  S   UNL A   1      32.224  23.457  23.759  1.00  0.00    -0.054 SA
ATOM     16  S   UNL A   1      31.483  26.022  22.403  1.00  0.00    -0.052 S 
ATOM     17  C   UNL A   1      32.866  22.459  26.245  1.00  0.00     0.033 C 
BRANCH  17  18
ATOM     18  C   UNL A   1      33.744  21.393  25.739  1.00  0.00     0.020 A 
ATOM     19  C   UNL A   1      35.130  21.619  25.694  1.00  0.00     0.027 A 
ATOM     20  C   UNL A   1      33.238  20.168  25.280  1.00  0.00     0.137 A 
ATOM     21  C   UNL A   1      35.983  20.654  25.159  1.00  0.00     0.019 A 
ATOM     22  C   UNL A   1      34.106  19.208  24.742  1.00  0.00     0.061 A 
ATOM     23  Br  UNL A   1      37.842  20.993  25.080  1.00  0.00    -0.051 Br
ATOM     24  C   UNL A   1      35.480  19.452  24.675  1.00  0.00     0.035 A 
ATOM     25  Br  UNL A   1      33.461  17.550  24.077  1.00  0.00    -0.047 Br
BRANCH  20  26
ATOM     26  O   UNL A   1      31.899  19.879  25.337  1.00  0.00    -0.506 OA
ATOM     27  H   UNL A   1      31.459  19.549  24.579  1.00  0.00     0.293 HD
ENDBRANCH  20  26
ENDBRANCH  17  18
ENDBRANCH   9  10
ENDBRANCH   8   9
ENDBRANCH   6   8
ENDBRANCH   5   6
ENDBRANCH   4   5
ENDBRANCH   3   4
ENDBRANCH   2   3
ENDBRANCH   1   2
BRANCH   1  28
ATOM     28  C   UNL A   1      35.390  34.292  28.991  1.00  0.00     0.188 C 
BRANCH  28  29
ATOM     29  O   UNL A   1      34.452  34.903  28.111  1.00  0.00    -0.376 OA
BRANCH  29  30
ATOM     30  C   UNL A   1      33.963  36.163  28.579  1.00  0.00     0.202 C 
BRANCH  30  31
ATOM     31  C   UNL A   1      32.720  36.055  29.475  1.00  0.00     0.261 C 
BRANCH  31  32
ATOM     32  O   UNL A   1      32.793  35.079  30.529  1.00  0.00    -0.460 OA
BRANCH  32  33
ATOM     33  C   UNL A   1      32.872  35.551  31.791  1.00  0.00     0.338 C 
ATOM     34  O   UNL A   1      32.087  36.296  32.346  1.00  0.00    -0.246 OA
BRANCH  33  35
ATOM     35  C   UNL A   1      34.020  34.913  32.466  1.00  0.00     0.060 A 
ATOM     36  C   UNL A   1      35.264  35.552  32.423  1.00  0.00     0.016 A 
ATOM     37  C   UNL A   1      33.889  33.666  33.083  1.00  0.00     0.016 A 
ATOM     38  C   UNL A   1      36.383  34.939  32.988  1.00  0.00     0.010 A 
ATOM     39  C   UNL A   1      35.017  33.040  33.629  1.00  0.00     0.010 A 
ATOM     40  C   UNL A   1      36.275  33.663  33.560  1.00  0.00    -0.014 A 
BRANCH  40  41
ATOM     41  C   UNL A   1      37.513  32.930  33.926  1.00  0.00     0.031 A 
ATOM     42  C   UNL A   1      38.065  31.914  32.963  1.00  0.00     0.074 A 
ATOM     43  C   UNL A   1      38.174  33.196  35.067  1.00  0.00     0.049 A 
ATOM     44  N   UNL A   1      39.173  31.219  33.033  1.00  0.00    -0.248 NA
ATOM     45  C   UNL A   1      37.264  31.653  31.756  1.00  0.00     0.031 C 
ATOM     46  C   UNL A   1      37.765  34.167  36.079  1.00  0.00     0.029 A 
ATOM     47  N   UNL A   1      39.343  32.667  35.558  1.00  0.00    -0.354 N 
ATOM     48  C   UNL A   1      39.214  30.460  31.871  1.00  0.00     0.074 A 
ATOM     49  C   UNL A   1      38.001  30.742  31.136  1.00  0.00     0.031 C 
ATOM     50  C   UNL A   1      38.669  34.163  37.075  1.00  0.00     0.029 A 
ATOM     51  C   UNL A   1      39.712  33.182  36.776  1.00  0.00     0.049 A 
ATOM     52  H   UNL A   1      39.866  31.983  35.081  1.00  0.00     0.167 HD
ATOM     53  C   UNL A   1      40.180  29.612  31.443  1.00  0.00     0.031 A 
ATOM     54  C   UNL A   1      40.770  32.894  37.560  1.00  0.00     0.031 A 
ATOM     55  C   UNL A   1      41.371  29.291  32.182  1.00  0.00     0.049 A 
ATOM     56  C   UNL A   1      41.793  31.890  37.096  1.00  0.00     0.074 A 
ATOM     57  C   UNL A   1      42.401  28.436  31.829  1.00  0.00     0.029 A 
ATOM     58  N   UNL A   1      41.686  29.802  33.431  1.00  0.00    -0.354 N 
ATOM     59  N   UNL A   1      41.841  31.213  35.974  1.00  0.00    -0.248 NA
ATOM     60  C   UNL A   1      42.919  31.625  38.005  1.00  0.00     0.031 C 
ATOM     61  C   UNL A   1      43.317  28.392  32.887  1.00  0.00     0.029 A 
ATOM     62  C   UNL A   1      42.883  29.264  33.873  1.00  0.00     0.049 A 
ATOM     63  H   UNL A   1      41.140  30.451  33.929  1.00  0.00     0.167 HD
ATOM     64  C   UNL A   1      43.011  30.463  36.033  1.00  0.00     0.074 A 
ATOM     65  C   UNL A   1      43.655  30.787  37.289  1.00  0.00     0.031 C 
ATOM     66  C   UNL A   1      43.509  29.585  35.128  1.00  0.00     0.031 A 
BRANCH  53  67
ATOM     67  C   UNL A   1      39.975  28.959  30.106  1.00  0.00    -0.014 A 
ATOM     68  C   UNL A   1      39.385  27.688  30.009  1.00  0.00     0.009 A 
ATOM     69  C   UNL A   1      40.342  29.631  28.932  1.00  0.00     0.009 A 
ATOM     70  C   UNL A   1      39.190  27.094  28.761  1.00  0.00     0.001 A 
ATOM     71  C   UNL A   1      40.124  29.044  27.684  1.00  0.00     0.001 A 
ATOM     72  C   UNL A   1      39.556  27.774  27.600  1.00  0.00     0.000 A 
ENDBRANCH  53  67
BRANCH  54  73
ATOM     73  C   UNL A   1      40.921  33.552  38.886  1.00  0.00    -0.014 A 
ATOM     74  C   UNL A   1      40.328  33.006  40.034  1.00  0.00     0.009 A 
ATOM     75  C   UNL A   1      41.621  34.764  38.994  1.00  0.00     0.009 A 
ATOM     76  C   UNL A   1      40.404  33.678  41.256  1.00  0.00     0.001 A 
ATOM     77  C   UNL A   1      41.719  35.418  40.223  1.00  0.00     0.001 A 
ATOM     78  C   UNL A   1      41.101  34.882  41.351  1.00  0.00     0.000 A 
ENDBRANCH  54  73
BRANCH  66  79
ATOM     79  C   UNL A   1      44.823  28.930  35.457  1.00  0.00    -0.014 A 
ATOM     80  C   UNL A   1      44.876  27.688  36.110  1.00  0.00     0.009 A 
ATOM     81  C   UNL A   1      46.024  29.556  35.089  1.00  0.00     0.009 A 
ATOM     82  C   UNL A   1      46.107  27.109  36.426  1.00  0.00     0.001 A 
ATOM     83  C   UNL A   1      47.253  28.960  35.381  1.00  0.00     0.001 A 
ATOM     84  C   UNL A   1      47.293  27.744  36.060  1.00  0.00     0.000 A 
ENDBRANCH  66  79
ENDBRANCH  40  41
ENDBRANCH  33  35
ENDBRANCH  32  33
ENDBRANCH  31  32
ENDBRANCH  30  31
ENDBRANCH  29  30
ENDBRANCH  28  29
ENDBRANCH   1  28
TORSDOF 21
ENDMDL
MODEL 2
REMARK VINA RESULT:      -9.9      4.287      7.771
REMARK SMILES O=C(CCN1C(=O)/C(=C/c2cc(Br)cc(Br)c2O)SC1=S)OCCOCCOCCOC(=O)c1ccc(-c2c3nc(c(-c4ccccc4)c4ccc([nH]4)c(-c4ccccc4)c4nc(c(-c5ccccc5)c5ccc2[nH]5)C=C4)C=C3)cc1
REMARK SMILES IDX 26 1 25 2 24 3 23 4 22 5 2 6 1 7 3 8 4 9 5 10 6 11 20 12
REMARK SMILES IDX 7 13 8 14 19 15 21 16 9 17 10 18 11 19 17 20 12 21 15 22
REMARK SMILES IDX 13 23 14 24 16 25 18 26 27 28 28 29 29 30 30 31 31 32 32 33
REMARK SMILES IDX 33 34 34 35 35 36 81 37 36 38 80 39 37 40 38 41 39 42 74 43
REMARK SMILES IDX 40 44 79 45 73 46 75 47 41 48 78 49 72 50 71 51 42 53 64 54
REMARK SMILES IDX 49 55 63 56 50 57 53 58 62 59 76 60 51 61 52 62 61 64 77 65
REMARK SMILES IDX 54 66 43 67 44 68 48 69 45 70 47 71 46 72 65 73 66 74 70 75
REMARK SMILES IDX 67 76 69 77 68 78 55 79 56 80 60 81 57 82 59 83 58 84
REMARK H PARENT 18 27 75 52 53 63
REMARK Flexibility Score: inf
ROOT
ATOM      1  C   UNL A   1      34.910  33.193  28.063  1.00  0.00     0.188 C 
ENDROOT
BRANCH   1   2
ATOM      2  O   UNL A   1      33.946  32.193  27.774  1.00  0.00    -0.376 OA
BRANCH   2   3
ATOM      3  C   UNL A   1      34.389  30.846  27.679  1.00  0.00     0.202 C 
BRANCH   3   4
ATOM      4  C   UNL A   1      33.398  29.804  27.163  1.00  0.00     0.261 C 
BRANCH   4   5
ATOM      5  O   UNL A   1      33.804  28.855  26.147  1.00  0.00    -0.463 OA
BRANCH   5   6
ATOM      6  C   UNL A   1      33.473  28.673  24.859  1.00  0.00     0.307 C 
ATOM      7  O   UNL A   1      34.310  28.215  24.082  1.00  0.00    -0.252 OA
BRANCH   6   8
ATOM      8  C   UNL A   1      32.089  28.961  24.373  1.00  0.00     0.144 C 
BRANCH   8   9
ATOM      9  C   UNL A   1      31.050  28.018  24.970  1.00  0.00     0.139 C 
BRANCH   9  10
ATOM     10  N   UNL A   1      31.340  26.604  24.711  1.00  0.00    -0.292 N 
ATOM     11  C   UNL A   1      31.522  25.755  25.789  1.00  0.00     0.266 C 
ATOM     12  C   UNL A   1      31.458  26.036  23.458  1.00  0.00     0.148 C 
ATOM     13  O   UNL A   1      31.353  26.030  26.968  1.00  0.00    -0.268 OA
ATOM     14  C   UNL A   1      32.060  24.454  25.322  1.00  0.00     0.081 C 
ATOM     15  S   UNL A   1      31.885  24.334  23.619  1.00  0.00    -0.054 SA
ATOM     16  S   UNL A   1      31.277  26.758  21.968  1.00  0.00    -0.052 S 
ATOM     17  C   UNL A   1      32.708  23.620  26.149  1.00  0.00     0.033 C 
BRANCH  17  18
ATOM     18  C   UNL A   1      33.395  22.391  25.725  1.00  0.00     0.020 A 
ATOM     19  C   UNL A   1      34.773  22.440  25.457  1.00  0.00     0.027 A 
ATOM     20  C   UNL A   1      32.711  21.177  25.559  1.00  0.00     0.137 A 
ATOM     21  C   UNL A   1      35.440  21.307  24.991  1.00  0.00     0.019 A 
ATOM     22  C   UNL A   1      33.393  20.047  25.087  1.00  0.00     0.061 A 
ATOM     23  Br  UNL A   1      37.289  21.405  24.606  1.00  0.00    -0.051 Br
ATOM     24  C   UNL A   1      34.757  20.112  24.795  1.00  0.00     0.035 A 
ATOM     25  Br  UNL A   1      32.500  18.394  24.813  1.00  0.00    -0.047 Br
BRANCH  20  26
ATOM     26  O   UNL A   1      31.375  21.063  25.843  1.00  0.00    -0.506 OA
ATOM     27  H   UNL A   1      30.947  20.234  25.757  1.00  0.00     0.293 HD
ENDBRANCH  20  26
ENDBRANCH  17  18
ENDBRANCH   9  10
ENDBRANCH   8   9
ENDBRANCH   6   8
ENDBRANCH   5   6
ENDBRANCH   4   5
ENDBRANCH   3   4
ENDBRANCH   2   3
ENDBRANCH   1   2
BRANCH   1  28
ATOM     28  C   UNL A   1      34.407  34.579  28.480  1.00  0.00     0.188 C 
BRANCH  28  29
ATOM     29  O   UNL A   1      33.645  34.588  29.683  1.00  0.00    -0.376 OA
BRANCH  29  30
ATOM     30  C   UNL A   1      34.445  34.662  30.867  1.00  0.00     0.202 C 
BRANCH  30  31
ATOM     31  C   UNL A   1      34.077  33.619  31.934  1.00  0.00     0.261 C 
BRANCH  31  32
ATOM     32  O   UNL A   1      34.770  32.362  31.844  1.00  0.00    -0.460 OA
BRANCH  32  33
ATOM     33  C   UNL A   1      35.833  32.194  32.658  1.00  0.00     0.338 C 
ATOM     34  O   UNL A   1      35.918  32.513  33.830  1.00  0.00    -0.246 OA
BRANCH  33  35
ATOM     35  C   UNL A   1      36.869  31.428  31.936  1.00  0.00     0.060 A 
ATOM     36  C   UNL A   1      37.907  30.846  32.672  1.00  0.00     0.016 A 
ATOM     37  C   UNL A   1      36.853  31.336  30.542  1.00  0.00     0.016 A 
ATOM     38  C   UNL A   1      38.940  30.179  32.012  1.00  0.00     0.010 A 
ATOM     39  C   UNL A   1      37.902  30.687  29.879  1.00  0.00     0.010 A 
ATOM     40  C   UNL A   1      38.965  30.128  30.610  1.00  0.00    -0.014 A 
BRANCH  40  41
ATOM     41  C   UNL A   1      40.189  29.637  29.928  1.00  0.00     0.031 A 
ATOM     42  C   UNL A   1      41.351  30.578  29.758  1.00  0.00     0.074 A 
ATOM     43  C   UNL A   1      40.297  28.362  29.514  1.00  0.00     0.049 A 
ATOM     44  N   UNL A   1      42.544  30.345  29.273  1.00  0.00    -0.248 NA
ATOM     45  C   UNL A   1      41.140  31.966  30.203  1.00  0.00     0.031 C 
ATOM     46  C   UNL A   1      39.260  27.339  29.633  1.00  0.00     0.029 A 
ATOM     47  N   UNL A   1      41.347  27.712  28.912  1.00  0.00    -0.354 N 
ATOM     48  C   UNL A   1      43.233  31.547  29.376  1.00  0.00     0.074 A 
ATOM     49  C   UNL A   1      42.313  32.518  29.927  1.00  0.00     0.031 C 
ATOM     50  C   UNL A   1      39.725  26.188  29.116  1.00  0.00     0.029 A 
ATOM     51  C   UNL A   1      41.086  26.396  28.621  1.00  0.00     0.049 A 
ATOM     52  H   UNL A   1      42.205  28.148  28.708  1.00  0.00     0.167 HD
ATOM     53  C   UNL A   1      44.521  31.819  29.057  1.00  0.00     0.031 A 
ATOM     54  C   UNL A   1      41.855  25.465  28.022  1.00  0.00     0.031 A 
ATOM     55  C   UNL A   1      45.434  30.875  28.472  1.00  0.00     0.049 A 
ATOM     56  C   UNL A   1      43.261  25.815  27.605  1.00  0.00     0.074 A 
ATOM     57  C   UNL A   1      46.756  31.066  28.107  1.00  0.00     0.029 A 
ATOM     58  N   UNL A   1      45.117  29.564  28.153  1.00  0.00    -0.354 N 
ATOM     59  N   UNL A   1      43.913  26.943  27.750  1.00  0.00    -0.248 NA
ATOM     60  C   UNL A   1      44.042  24.750  26.956  1.00  0.00     0.031 C 
ATOM     61  C   UNL A   1      47.224  29.883  27.522  1.00  0.00     0.029 A 
ATOM     62  C   UNL A   1      46.210  28.941  27.576  1.00  0.00     0.049 A 
ATOM     63  H   UNL A   1      44.244  29.139  28.314  1.00  0.00     0.167 HD
ATOM     64  C   UNL A   1      45.185  26.716  27.234  1.00  0.00     0.074 A 
ATOM     65  C   UNL A   1      45.219  25.336  26.795  1.00  0.00     0.031 C 
ATOM     66  C   UNL A   1      46.231  27.572  27.133  1.00  0.00     0.031 A 
BRANCH  53  67
ATOM     67  C   UNL A   1      45.014  33.212  29.326  1.00  0.00    -0.014 A 
ATOM     68  C   UNL A   1      45.641  33.533  30.540  1.00  0.00     0.009 A 
ATOM     69  C   UNL A   1      44.881  34.205  28.344  1.00  0.00     0.009 A 
ATOM     70  C   UNL A   1      46.103  34.829  30.776  1.00  0.00     0.001 A 
ATOM     71  C   UNL A   1      45.365  35.494  28.574  1.00  0.00     0.001 A 
ATOM     72  C   UNL A   1      45.969  35.807  29.791  1.00  0.00     0.000 A 
ENDBRANCH  53  67
BRANCH  54  73
ATOM     73  C   UNL A   1      41.318  24.104  27.757  1.00  0.00    -0.014 A 
ATOM     74  C   UNL A   1      41.843  22.981  28.413  1.00  0.00     0.009 A 
ATOM     75  C   UNL A   1      40.306  23.921  26.802  1.00  0.00     0.009 A 
ATOM     76  C   UNL A   1      41.390  21.699  28.092  1.00  0.00     0.001 A 
ATOM     77  C   UNL A   1      39.835  22.641  26.504  1.00  0.00     0.001 A 
ATOM     78  C   UNL A   1      40.385  21.529  27.140  1.00  0.00     0.000 A 
ENDBRANCH  54  73
BRANCH  66  79
ATOM     79  C   UNL A   1      47.505  27.033  26.543  1.00  0.00    -0.014 A 
ATOM     80  C   UNL A   1      47.772  27.132  25.168  1.00  0.00     0.009 A 
ATOM     81  C   UNL A   1      48.462  26.436  27.379  1.00  0.00     0.009 A 
ATOM     82  C   UNL A   1      48.951  26.603  24.638  1.00  0.00     0.001 A 
ATOM     83  C   UNL A   1      49.653  25.936  26.850  1.00  0.00     0.001 A 
ATOM     84  C   UNL A   1      49.891  26.009  25.478  1.00  0.00     0.000 A 
ENDBRANCH  66  79
ENDBRANCH  40  41
ENDBRANCH  33  35
ENDBRANCH  32  33
ENDBRANCH  31  32
ENDBRANCH  30  31
ENDBRANCH  29  30
ENDBRANCH  28  29
ENDBRANCH   1  28
TORSDOF 21
ENDMDL
MODEL 3
REMARK VINA RESULT:      -9.9      0.533      5.734
REMARK SMILES O=C(CCN1C(=O)/C(=C/c2cc(Br)cc(Br)c2O)SC1=S)OCCOCCOCCOC(=O)c1ccc(-c2c3nc(c(-c4ccccc4)c4ccc([nH]4)c(-c4ccccc4)c4nc(c(-c5ccccc5)c5ccc2[nH]5)C=C4)C=C3)cc1
REMARK SMILES IDX 26 1 25 2 24 3 23 4 22 5 2 6 1 7 3 8 4 9 5 10 6 11 20 12
REMARK SMILES IDX 7 13 8 14 19 15 21 16 9 17 10 18 11 19 17 20 12 21 15 22
REMARK SMILES IDX 13 23 14 24 16 25 18 26 27 28 28 29 29 30 30 31 31 32 32 33
REMARK SMILES IDX 33 34 34 35 35 36 81 37 36 38 80 39 37 40 38 41 39 42 74 43
REMARK SMILES IDX 40 44 79 45 73 46 75 47 41 48 78 49 72 50 71 51 42 53 64 54
REMARK SMILES IDX 49 55 63 56 50 57 53 58 62 59 76 60 51 61 52 62 61 64 77 65
REMARK SMILES IDX 54 66 43 67 44 68 48 69 45 70 47 71 46 72 65 73 66 74 70 75
REMARK SMILES IDX 67 76 69 77 68 78 55 79 56 80 60 81 57 82 59 83 58 84
REMARK H PARENT 18 27 75 52 53 63
REMARK Flexibility Score: inf
ROOT
ATOM      1  C   UNL A   1      35.283  32.988  29.294  1.00  0.00     0.188 C 
ENDROOT
BRANCH   1   2
ATOM      2  O   UNL A   1      34.242  32.182  28.767  1.00  0.00    -0.376 OA
BRANCH   2   3
ATOM      3  C   UNL A   1      34.585  30.906  28.242  1.00  0.00     0.202 C 
BRANCH   3   4
ATOM      4  C   UNL A   1      33.702  30.329  27.137  1.00  0.00     0.261 C 
BRANCH   4   5
ATOM      5  O   UNL A   1      32.442  29.697  27.470  1.00  0.00    -0.463 OA
BRANCH   5   6
ATOM      6  C   UNL A   1      31.825  28.578  27.059  1.00  0.00     0.307 C 
ATOM      7  O   UNL A   1      31.088  27.976  27.838  1.00  0.00    -0.252 OA
BRANCH   6   8
ATOM      8  C   UNL A   1      31.976  28.089  25.653  1.00  0.00     0.144 C 
BRANCH   8   9
ATOM      9  C   UNL A   1      30.873  27.118  25.249  1.00  0.00     0.139 C 
BRANCH   9  10
ATOM     10  N   UNL A   1      31.382  25.799  24.860  1.00  0.00    -0.292 N 
ATOM     11  C   UNL A   1      31.409  24.791  25.809  1.00  0.00     0.266 C 
ATOM     12  C   UNL A   1      31.856  25.470  23.605  1.00  0.00     0.148 C 
ATOM     13  O   UNL A   1      30.939  24.840  26.936  1.00  0.00    -0.268 OA
ATOM     14  C   UNL A   1      32.192  23.639  25.299  1.00  0.00     0.081 C 
ATOM     15  S   UNL A   1      32.434  23.806  23.608  1.00  0.00    -0.054 SA
ATOM     16  S   UNL A   1      31.940  26.425  22.244  1.00  0.00    -0.052 S 
ATOM     17  C   UNL A   1      32.726  22.727  26.126  1.00  0.00     0.033 C 
BRANCH  17  18
ATOM     18  C   UNL A   1      33.633  21.649  25.705  1.00  0.00     0.020 A 
ATOM     19  C   UNL A   1      35.013  21.908  25.647  1.00  0.00     0.027 A 
ATOM     20  C   UNL A   1      33.162  20.379  25.341  1.00  0.00     0.137 A 
ATOM     21  C   UNL A   1      35.894  20.927  25.190  1.00  0.00     0.019 A 
ATOM     22  C   UNL A   1      34.057  19.404  24.881  1.00  0.00     0.061 A 
ATOM     23  Br  UNL A   1      37.743  21.307  25.089  1.00  0.00    -0.051 Br
ATOM     24  C   UNL A   1      35.424  19.678  24.798  1.00  0.00     0.035 A 
ATOM     25  Br  UNL A   1      33.459  17.684  24.343  1.00  0.00    -0.047 Br
BRANCH  20  26
ATOM     26  O   UNL A   1      31.831  20.060  25.417  1.00  0.00    -0.506 OA
ATOM     27  H   UNL A   1      31.553  19.176  25.285  1.00  0.00     0.293 HD
ENDBRANCH  20  26
ENDBRANCH  17  18
ENDBRANCH   9  10
ENDBRANCH   8   9
ENDBRANCH   6   8
ENDBRANCH   5   6
ENDBRANCH   4   5
ENDBRANCH   3   4
ENDBRANCH   2   3
ENDBRANCH   1   2
BRANCH   1  28
ATOM     28  C   UNL A   1      35.580  34.324  28.603  1.00  0.00     0.188 C 
BRANCH  28  29
ATOM     29  O   UNL A   1      34.432  34.972  28.066  1.00  0.00    -0.376 OA
BRANCH  29  30
ATOM     30  C   UNL A   1      34.042  36.141  28.792  1.00  0.00     0.202 C 
BRANCH  30  31
ATOM     31  C   UNL A   1      32.756  35.964  29.615  1.00  0.00     0.261 C 
BRANCH  31  32
ATOM     32  O   UNL A   1      32.805  34.957  30.641  1.00  0.00    -0.460 OA
BRANCH  32  33
ATOM     33  C   UNL A   1      33.023  35.385  31.902  1.00  0.00     0.338 C 
ATOM     34  O   UNL A   1      32.304  36.108  32.567  1.00  0.00    -0.246 OA
BRANCH  33  35
ATOM     35  C   UNL A   1      34.238  34.727  32.424  1.00  0.00     0.060 A 
ATOM     36  C   UNL A   1      35.469  35.373  32.272  1.00  0.00     0.016 A 
ATOM     37  C   UNL A   1      34.174  33.456  33.003  1.00  0.00     0.016 A 
ATOM     38  C   UNL A   1      36.643  34.744  32.689  1.00  0.00     0.010 A 
ATOM     39  C   UNL A   1      35.355  32.815  33.399  1.00  0.00     0.010 A 
ATOM     40  C   UNL A   1      36.598  33.446  33.219  1.00  0.00    -0.014 A 
BRANCH  40  41
ATOM     41  C   UNL A   1      37.868  32.705  33.421  1.00  0.00     0.031 A 
ATOM     42  C   UNL A   1      38.669  32.966  34.668  1.00  0.00     0.074 A 
ATOM     43  C   UNL A   1      38.282  31.771  32.545  1.00  0.00     0.049 A 
ATOM     44  N   UNL A   1      39.758  32.377  35.094  1.00  0.00    -0.248 NA
ATOM     45  C   UNL A   1      38.169  34.028  35.556  1.00  0.00     0.031 C 
ATOM     46  C   UNL A   1      37.596  31.402  31.309  1.00  0.00     0.029 A 
ATOM     47  N   UNL A   1      39.388  30.956  32.575  1.00  0.00    -0.354 N 
ATOM     48  C   UNL A   1      40.059  32.978  36.309  1.00  0.00     0.074 A 
ATOM     49  C   UNL A   1      39.067  34.008  36.531  1.00  0.00     0.031 C 
ATOM     50  C   UNL A   1      38.300  30.434  30.695  1.00  0.00     0.029 A 
ATOM     51  C   UNL A   1      39.489  30.124  31.488  1.00  0.00     0.049 A 
ATOM     52  H   UNL A   1      40.046  30.969  33.307  1.00  0.00     0.167 HD
ATOM     53  C   UNL A   1      41.062  32.693  37.174  1.00  0.00     0.031 A 
ATOM     54  C   UNL A   1      40.433  29.216  31.169  1.00  0.00     0.031 A 
ATOM     55  C   UNL A   1      42.078  31.701  36.947  1.00  0.00     0.049 A 
ATOM     56  C   UNL A   1      41.583  28.971  32.112  1.00  0.00     0.074 A 
ATOM     57  C   UNL A   1      43.139  31.351  37.765  1.00  0.00     0.029 A 
ATOM     58  N   UNL A   1      42.169  30.910  35.814  1.00  0.00    -0.354 N 
ATOM     59  N   UNL A   1      41.829  29.516  33.279  1.00  0.00    -0.248 NA
ATOM     60  C   UNL A   1      42.575  27.968  31.697  1.00  0.00     0.031 C 
ATOM     61  C   UNL A   1      43.900  30.379  37.104  1.00  0.00     0.029 A 
ATOM     62  C   UNL A   1      43.279  30.087  35.900  1.00  0.00     0.049 A 
ATOM     63  H   UNL A   1      41.537  30.929  35.059  1.00  0.00     0.167 HD
ATOM     64  C   UNL A   1      42.988  28.906  33.746  1.00  0.00     0.074 A 
ATOM     65  C   UNL A   1      43.382  27.933  32.748  1.00  0.00     0.031 C 
ATOM     66  C   UNL A   1      43.667  29.130  34.897  1.00  0.00     0.031 A 
BRANCH  53  67
ATOM     67  C   UNL A   1      41.112  33.485  38.449  1.00  0.00    -0.014 A 
ATOM     68  C   UNL A   1      41.748  34.736  38.496  1.00  0.00     0.009 A 
ATOM     69  C   UNL A   1      40.491  32.993  39.606  1.00  0.00     0.009 A 
ATOM     70  C   UNL A   1      41.781  35.467  39.684  1.00  0.00     0.001 A 
ATOM     71  C   UNL A   1      40.505  33.738  40.787  1.00  0.00     0.001 A 
ATOM     72  C   UNL A   1      41.156  34.970  40.827  1.00  0.00     0.000 A 
ENDBRANCH  53  67
BRANCH  54  73
ATOM     73  C   UNL A   1      40.352  28.471  29.885  1.00  0.00    -0.014 A 
ATOM     74  C   UNL A   1      40.909  28.996  28.709  1.00  0.00     0.009 A 
ATOM     75  C   UNL A   1      39.667  27.247  29.823  1.00  0.00     0.009 A 
ATOM     76  C   UNL A   1      40.752  28.328  27.492  1.00  0.00     0.001 A 
ATOM     77  C   UNL A   1      39.536  26.568  28.611  1.00  0.00     0.001 A 
ATOM     78  C   UNL A   1      40.067  27.114  27.444  1.00  0.00     0.000 A 
ENDBRANCH  54  73
BRANCH  66  79
ATOM     79  C   UNL A   1      44.892  28.294  35.148  1.00  0.00    -0.014 A 
ATOM     80  C   UNL A   1      46.057  28.459  34.383  1.00  0.00     0.009 A 
ATOM     81  C   UNL A   1      44.885  27.340  36.179  1.00  0.00     0.009 A 
ATOM     82  C   UNL A   1      47.175  27.654  34.617  1.00  0.00     0.001 A 
ATOM     83  C   UNL A   1      46.015  26.559  36.429  1.00  0.00     0.001 A 
ATOM     84  C   UNL A   1      47.154  26.708  35.640  1.00  0.00     0.000 A 
ENDBRANCH  66  79
ENDBRANCH  40  41
ENDBRANCH  33  35
ENDBRANCH  32  33
ENDBRANCH  31  32
ENDBRANCH  30  31
ENDBRANCH  29  30
ENDBRANCH  28  29
ENDBRANCH   1  28
TORSDOF 21
ENDMDL
