MODEL 1
REMARK VINA RESULT:     -10.8      0.000      0.000
REMARK SMILES Cc1cc2c(c(C)c1Cl)C=C(C(=O)OCCOCCOCCOC(=O)c1ccc(-c3c4nc(c(-c5ccccc5)c5ccc([nH]5)c(-c5ccccc5)c5nc(c(-c6ccccc6)c6ccc3[nH]6)C=C5)C=C4)cc1)[C@@H](C(F)(F)F)O2
REMARK SMILES IDX 19 1 18 2 17 3 16 4 15 5 14 6 12 7 13 8 11 9 1 10 2 11 3 12
REMARK SMILES IDX 8 13 4 14 6 15 9 16 5 17 79 18 7 19 10 20 74 21 75 22 76 23
REMARK SMILES IDX 77 24 78 25 20 26 21 27 22 28 23 29 24 30 25 31 26 32 27 33
REMARK SMILES IDX 73 34 28 35 72 36 29 37 30 38 31 39 66 40 32 41 71 42 65 43
REMARK SMILES IDX 67 44 33 45 70 46 64 47 63 48 34 50 56 51 41 52 55 53 42 54
REMARK SMILES IDX 45 55 54 56 68 57 43 58 44 59 53 61 69 62 46 63 35 64 36 65
REMARK SMILES IDX 40 66 37 67 39 68 38 69 57 70 58 71 62 72 59 73 61 74 60 75
REMARK SMILES IDX 47 76 48 77 52 78 49 79 51 80 50 81
REMARK H PARENT 67 49 45 60
REMARK Flexibility Score: inf
ROOT
ATOM      1  C   UNL A   1      34.084  34.015  29.042  1.00  0.00     0.188 C 
ENDROOT
BRANCH   1   2
ATOM      2  C   UNL A   1      34.260  32.499  28.827  1.00  0.00     0.188 C 
BRANCH   2   3
ATOM      3  O   UNL A   1      33.673  31.854  27.713  1.00  0.00    -0.376 OA
BRANCH   3   4
ATOM      4  C   UNL A   1      34.040  30.529  27.363  1.00  0.00     0.202 C 
BRANCH   4   5
ATOM      5  C   UNL A   1      33.339  29.743  26.244  1.00  0.00     0.261 C 
BRANCH   5   6
ATOM      6  O   UNL A   1      33.325  28.319  26.408  1.00  0.00    -0.460 OA
BRANCH   6   7
ATOM      7  C   UNL A   1      32.148  27.797  26.826  1.00  0.00     0.338 C 
ATOM      8  O   UNL A   1      31.381  28.279  27.644  1.00  0.00    -0.246 OA
BRANCH   7   9
ATOM      9  C   UNL A   1      31.827  26.599  26.025  1.00  0.00     0.087 C 
ATOM     10  C   UNL A   1      32.023  21.267  22.387  1.00  0.00     0.046 C 
ATOM     11  C   UNL A   1      32.153  22.283  23.490  1.00  0.00    -0.028 A 
ATOM     12  C   UNL A   1      31.284  23.380  23.477  1.00  0.00     0.052 A 
ATOM     13  C   UNL A   1      33.079  22.162  24.545  1.00  0.00     0.047 A 
ATOM     14  C   UNL A   1      31.408  24.402  24.416  1.00  0.00     0.128 A 
ATOM     15  C   UNL A   1      33.209  23.181  25.519  1.00  0.00    -0.021 A 
ATOM     16  Cl  UNL A   1      34.071  20.738  24.624  1.00  0.00    -0.084 Cl
ATOM     17  C   UNL A   1      32.397  24.340  25.402  1.00  0.00     0.022 A 
ATOM     18  O   UNL A   1      30.512  25.423  24.278  1.00  0.00    -0.475 OA
ATOM     19  C   UNL A   1      34.190  23.070  26.664  1.00  0.00     0.047 C 
ATOM     20  C   UNL A   1      32.598  25.523  26.235  1.00  0.00     0.027 C 
ATOM     21  C   UNL A   1      30.690  26.640  25.047  1.00  0.00     0.316 C 
BRANCH  21  22
ATOM     22  C   UNL A   1      30.799  27.815  24.066  1.00  0.00     0.430 C 
ATOM     23  F   UNL A   1      30.485  28.988  24.667  1.00  0.00    -0.167 F 
ATOM     24  F   UNL A   1      32.057  27.952  23.583  1.00  0.00    -0.167 F 
ATOM     25  F   UNL A   1      29.973  27.667  23.006  1.00  0.00    -0.167 F 
ENDBRANCH  21  22
ENDBRANCH   7   9
ENDBRANCH   6   7
ENDBRANCH   5   6
ENDBRANCH   4   5
ENDBRANCH   3   4
ENDBRANCH   2   3
ENDBRANCH   1   2
BRANCH   1  26
ATOM     26  O   UNL A   1      33.322  34.446  30.141  1.00  0.00    -0.376 OA
BRANCH  26  27
ATOM     27  C   UNL A   1      33.956  34.942  31.310  1.00  0.00     0.202 C 
BRANCH  27  28
ATOM     28  C   UNL A   1      34.386  34.114  32.538  1.00  0.00     0.261 C 
BRANCH  28  29
ATOM     29  O   UNL A   1      34.945  32.817  32.323  1.00  0.00    -0.460 OA
BRANCH  29  30
ATOM     30  C   UNL A   1      36.001  32.498  33.112  1.00  0.00     0.338 C 
ATOM     31  O   UNL A   1      36.094  32.633  34.318  1.00  0.00    -0.246 OA
BRANCH  30  32
ATOM     32  C   UNL A   1      36.989  31.763  32.299  1.00  0.00     0.060 A 
ATOM     33  C   UNL A   1      37.948  30.979  32.953  1.00  0.00     0.016 A 
ATOM     34  C   UNL A   1      36.981  31.867  30.908  1.00  0.00     0.016 A 
ATOM     35  C   UNL A   1      38.918  30.303  32.214  1.00  0.00     0.010 A 
ATOM     36  C   UNL A   1      37.970  31.213  30.170  1.00  0.00     0.010 A 
ATOM     37  C   UNL A   1      38.956  30.448  30.821  1.00  0.00    -0.014 A 
BRANCH  37  38
ATOM     38  C   UNL A   1      40.120  29.945  30.057  1.00  0.00     0.031 A 
ATOM     39  C   UNL A   1      41.296  30.861  29.854  1.00  0.00     0.074 A 
ATOM     40  C   UNL A   1      40.145  28.695  29.564  1.00  0.00     0.049 A 
ATOM     41  N   UNL A   1      42.389  30.664  29.165  1.00  0.00    -0.248 NA
ATOM     42  C   UNL A   1      41.229  32.171  30.522  1.00  0.00     0.031 C 
ATOM     43  C   UNL A   1      39.101  27.689  29.749  1.00  0.00     0.029 A 
ATOM     44  N   UNL A   1      41.091  28.063  28.796  1.00  0.00    -0.354 N 
ATOM     45  C   UNL A   1      43.140  31.823  29.315  1.00  0.00     0.074 A 
ATOM     46  C   UNL A   1      42.368  32.728  30.138  1.00  0.00     0.031 C 
ATOM     47  C   UNL A   1      39.462  26.564  29.105  1.00  0.00     0.029 A 
ATOM     48  C   UNL A   1      40.740  26.786  28.430  1.00  0.00     0.049 A 
ATOM     49  H   UNL A   1      41.942  28.485  28.534  1.00  0.00     0.167 HD
ATOM     50  C   UNL A   1      44.366  32.106  28.818  1.00  0.00     0.031 A 
ATOM     51  C   UNL A   1      41.368  25.908  27.624  1.00  0.00     0.031 A 
ATOM     52  C   UNL A   1      45.125  31.217  27.980  1.00  0.00     0.049 A 
ATOM     53  C   UNL A   1      42.681  26.291  26.990  1.00  0.00     0.074 A 
ATOM     54  C   UNL A   1      46.371  31.423  27.415  1.00  0.00     0.029 A 
ATOM     55  N   UNL A   1      44.707  29.956  27.586  1.00  0.00    -0.354 N 
ATOM     56  N   UNL A   1      43.379  27.392  27.131  1.00  0.00    -0.248 NA
ATOM     57  C   UNL A   1      43.294  25.305  26.085  1.00  0.00     0.031 C 
ATOM     58  C   UNL A   1      46.682  30.310  26.630  1.00  0.00     0.029 A 
ATOM     59  C   UNL A   1      45.662  29.382  26.765  1.00  0.00     0.049 A 
ATOM     60  H   UNL A   1      43.858  29.533  27.849  1.00  0.00     0.167 HD
ATOM     61  C   UNL A   1      44.527  27.216  26.366  1.00  0.00     0.074 A 
ATOM     62  C   UNL A   1      44.436  25.901  25.769  1.00  0.00     0.031 C 
ATOM     63  C   UNL A   1      45.565  28.069  26.181  1.00  0.00     0.031 A 
BRANCH  50  64
ATOM     64  C   UNL A   1      44.959  33.448  29.143  1.00  0.00    -0.014 A 
ATOM     65  C   UNL A   1      44.721  34.564  28.326  1.00  0.00     0.009 A 
ATOM     66  C   UNL A   1      45.709  33.612  30.319  1.00  0.00     0.009 A 
ATOM     67  C   UNL A   1      45.237  35.814  28.673  1.00  0.00     0.001 A 
ATOM     68  C   UNL A   1      46.198  34.869  30.677  1.00  0.00     0.001 A 
ATOM     69  C   UNL A   1      45.966  35.968  29.851  1.00  0.00     0.000 A 
ENDBRANCH  50  64
BRANCH  51  70
ATOM     70  C   UNL A   1      40.760  24.577  27.356  1.00  0.00    -0.014 A 
ATOM     71  C   UNL A   1      39.634  24.462  26.525  1.00  0.00     0.009 A 
ATOM     72  C   UNL A   1      41.296  23.416  27.935  1.00  0.00     0.009 A 
ATOM     73  C   UNL A   1      39.048  23.215  26.296  1.00  0.00     0.001 A 
ATOM     74  C   UNL A   1      40.725  22.167  27.679  1.00  0.00     0.001 A 
ATOM     75  C   UNL A   1      39.598  22.068  26.866  1.00  0.00     0.000 A 
ENDBRANCH  51  70
BRANCH  63  76
ATOM     76  C   UNL A   1      46.718  27.598  25.336  1.00  0.00    -0.014 A 
ATOM     77  C   UNL A   1      46.813  27.928  23.976  1.00  0.00     0.009 A 
ATOM     78  C   UNL A   1      47.765  26.878  25.935  1.00  0.00     0.009 A 
ATOM     79  C   UNL A   1      47.921  27.523  23.228  1.00  0.00     0.001 A 
ATOM     80  C   UNL A   1      48.885  26.502  25.193  1.00  0.00     0.001 A 
ATOM     81  C   UNL A   1      48.959  26.819  23.838  1.00  0.00     0.000 A 
ENDBRANCH  63  76
ENDBRANCH  37  38
ENDBRANCH  30  32
ENDBRANCH  29  30
ENDBRANCH  28  29
ENDBRANCH  27  28
ENDBRANCH  26  27
ENDBRANCH   1  26
TORSDOF 18
ENDMDL
MODEL 2
REMARK VINA RESULT:     -10.2      5.324     11.326
REMARK SMILES Cc1cc2c(c(C)c1Cl)C=C(C(=O)OCCOCCOCCOC(=O)c1ccc(-c3c4nc(c(-c5ccccc5)c5ccc([nH]5)c(-c5ccccc5)c5nc(c(-c6ccccc6)c6ccc3[nH]6)C=C5)C=C4)cc1)[C@@H](C(F)(F)F)O2
REMARK SMILES IDX 19 1 18 2 17 3 16 4 15 5 14 6 12 7 13 8 11 9 1 10 2 11 3 12
REMARK SMILES IDX 8 13 4 14 6 15 9 16 5 17 79 18 7 19 10 20 74 21 75 22 76 23
REMARK SMILES IDX 77 24 78 25 20 26 21 27 22 28 23 29 24 30 25 31 26 32 27 33
REMARK SMILES IDX 73 34 28 35 72 36 29 37 30 38 31 39 66 40 32 41 71 42 65 43
REMARK SMILES IDX 67 44 33 45 70 46 64 47 63 48 34 50 56 51 41 52 55 53 42 54
REMARK SMILES IDX 45 55 54 56 68 57 43 58 44 59 53 61 69 62 46 63 35 64 36 65
REMARK SMILES IDX 40 66 37 67 39 68 38 69 57 70 58 71 62 72 59 73 61 74 60 75
REMARK SMILES IDX 47 76 48 77 52 78 49 79 51 80 50 81
REMARK H PARENT 67 49 45 60
REMARK Flexibility Score: inf
ROOT
ATOM      1  C   UNL A   1      43.277  22.194  26.080  1.00  0.00     0.188 C 
ENDROOT
BRANCH   1   2
ATOM      2  C   UNL A   1      41.932  21.593  26.533  1.00  0.00     0.188 C 
BRANCH   2   3
ATOM      3  O   UNL A   1      40.712  22.243  26.232  1.00  0.00    -0.376 OA
BRANCH   3   4
ATOM      4  C   UNL A   1      40.016  22.979  27.226  1.00  0.00     0.202 C 
BRANCH   4   5
ATOM      5  C   UNL A   1      39.721  24.481  27.089  1.00  0.00     0.261 C 
BRANCH   5   6
ATOM      6  O   UNL A   1      39.758  25.228  28.312  1.00  0.00    -0.460 OA
BRANCH   6   7
ATOM      7  C   UNL A   1      40.971  25.728  28.646  1.00  0.00     0.338 C 
ATOM      8  O   UNL A   1      42.050  25.168  28.539  1.00  0.00    -0.246 OA
BRANCH   7   9
ATOM      9  C   UNL A   1      40.832  27.148  29.028  1.00  0.00     0.087 C 
ATOM     10  C   UNL A   1      38.757  32.877  31.165  1.00  0.00     0.046 C 
ATOM     11  C   UNL A   1      39.206  31.446  31.038  1.00  0.00    -0.028 A 
ATOM     12  C   UNL A   1      39.985  31.100  29.927  1.00  0.00     0.052 A 
ATOM     13  C   UNL A   1      38.911  30.456  31.995  1.00  0.00     0.047 A 
ATOM     14  C   UNL A   1      40.360  29.778  29.701  1.00  0.00     0.128 A 
ATOM     15  C   UNL A   1      39.297  29.109  31.792  1.00  0.00    -0.021 A 
ATOM     16  Cl  UNL A   1      38.049  30.918  33.432  1.00  0.00    -0.084 Cl
ATOM     17  C   UNL A   1      39.976  28.772  30.593  1.00  0.00     0.022 A 
ATOM     18  O   UNL A   1      41.099  29.573  28.571  1.00  0.00    -0.475 OA
ATOM     19  C   UNL A   1      38.996  28.032  32.809  1.00  0.00     0.047 C 
ATOM     20  C   UNL A   1      40.236  27.387  30.204  1.00  0.00     0.027 C 
ATOM     21  C   UNL A   1      41.347  28.219  28.114  1.00  0.00     0.316 C 
BRANCH  21  22
ATOM     22  C   UNL A   1      40.802  28.089  26.685  1.00  0.00     0.430 C 
ATOM     23  F   UNL A   1      40.920  29.256  26.006  1.00  0.00    -0.167 F 
ATOM     24  F   UNL A   1      41.477  27.157  25.972  1.00  0.00    -0.167 F 
ATOM     25  F   UNL A   1      39.496  27.741  26.672  1.00  0.00    -0.167 F 
ENDBRANCH  21  22
ENDBRANCH   7   9
ENDBRANCH   6   7
ENDBRANCH   5   6
ENDBRANCH   4   5
ENDBRANCH   3   4
ENDBRANCH   2   3
ENDBRANCH   1   2
BRANCH   1  26
ATOM     26  O   UNL A   1      43.637  22.070  24.727  1.00  0.00    -0.376 OA
BRANCH  26  27
ATOM     27  C   UNL A   1      44.557  22.976  24.138  1.00  0.00     0.202 C 
BRANCH  27  28
ATOM     28  C   UNL A   1      46.092  22.943  24.283  1.00  0.00     0.261 C 
BRANCH  28  29
ATOM     29  O   UNL A   1      46.688  23.630  25.386  1.00  0.00    -0.460 OA
BRANCH  29  30
ATOM     30  C   UNL A   1      46.955  24.944  25.180  1.00  0.00     0.338 C 
ATOM     31  O   UNL A   1      47.452  25.454  24.193  1.00  0.00    -0.246 OA
BRANCH  30  32
ATOM     32  C   UNL A   1      46.366  25.721  26.287  1.00  0.00     0.060 A 
ATOM     33  C   UNL A   1      44.994  26.002  26.253  1.00  0.00     0.016 A 
ATOM     34  C   UNL A   1      47.164  26.186  27.332  1.00  0.00     0.016 A 
ATOM     35  C   UNL A   1      44.414  26.767  27.266  1.00  0.00     0.010 A 
ATOM     36  C   UNL A   1      46.588  26.975  28.330  1.00  0.00     0.010 A 
ATOM     37  C   UNL A   1      45.217  27.288  28.288  1.00  0.00    -0.014 A 
BRANCH  37  38
ATOM     38  C   UNL A   1      44.664  28.299  29.219  1.00  0.00     0.031 A 
ATOM     39  C   UNL A   1      44.157  27.840  30.558  1.00  0.00     0.074 A 
ATOM     40  C   UNL A   1      44.624  29.602  28.892  1.00  0.00     0.049 A 
ATOM     41  N   UNL A   1      43.572  28.528  31.502  1.00  0.00    -0.248 NA
ATOM     42  C   UNL A   1      44.342  26.413  30.875  1.00  0.00     0.031 C 
ATOM     43  C   UNL A   1      45.144  30.183  27.656  1.00  0.00     0.029 A 
ATOM     44  N   UNL A   1      44.113  30.674  29.581  1.00  0.00    -0.354 N 
ATOM     45  C   UNL A   1      43.317  27.622  32.524  1.00  0.00     0.074 A 
ATOM     46  C   UNL A   1      43.787  26.330  32.075  1.00  0.00     0.031 C 
ATOM     47  C   UNL A   1      44.919  31.509  27.671  1.00  0.00     0.029 A 
ATOM     48  C   UNL A   1      44.203  31.861  28.897  1.00  0.00     0.049 A 
ATOM     49  H   UNL A   1      43.719  30.598  30.481  1.00  0.00     0.167 HD
ATOM     50  C   UNL A   1      42.748  27.847  33.731  1.00  0.00     0.031 A 
ATOM     51  C   UNL A   1      43.740  33.086  29.215  1.00  0.00     0.031 A 
ATOM     52  C   UNL A   1      42.259  29.126  34.169  1.00  0.00     0.049 A 
ATOM     53  C   UNL A   1      43.009  33.288  30.517  1.00  0.00     0.074 A 
ATOM     54  C   UNL A   1      41.653  29.449  35.370  1.00  0.00     0.029 A 
ATOM     55  N   UNL A   1      42.318  30.292  33.422  1.00  0.00    -0.354 N 
ATOM     56  N   UNL A   1      42.765  32.423  31.473  1.00  0.00    -0.248 NA
ATOM     57  C   UNL A   1      42.490  34.639  30.785  1.00  0.00     0.031 C 
ATOM     58  C   UNL A   1      41.291  30.797  35.327  1.00  0.00     0.029 A 
ATOM     59  C   UNL A   1      41.737  31.330  34.128  1.00  0.00     0.049 A 
ATOM     60  H   UNL A   1      42.712  30.369  32.524  1.00  0.00     0.167 HD
ATOM     61  C   UNL A   1      42.101  33.132  32.467  1.00  0.00     0.074 A 
ATOM     62  C   UNL A   1      41.986  34.498  32.004  1.00  0.00     0.031 C 
ATOM     63  C   UNL A   1      41.634  32.689  33.661  1.00  0.00     0.031 A 
BRANCH  50  64
ATOM     64  C   UNL A   1      42.597  26.676  34.661  1.00  0.00    -0.014 A 
ATOM     65  C   UNL A   1      43.697  26.162  35.365  1.00  0.00     0.009 A 
ATOM     66  C   UNL A   1      41.326  26.126  34.887  1.00  0.00     0.009 A 
ATOM     67  C   UNL A   1      43.527  25.108  36.265  1.00  0.00     0.001 A 
ATOM     68  C   UNL A   1      41.155  25.092  35.809  1.00  0.00     0.001 A 
ATOM     69  C   UNL A   1      42.257  24.581  36.493  1.00  0.00     0.000 A 
ENDBRANCH  50  64
BRANCH  51  70
ATOM     70  C   UNL A   1      43.942  34.224  28.278  1.00  0.00    -0.014 A 
ATOM     71  C   UNL A   1      42.996  34.502  27.279  1.00  0.00     0.009 A 
ATOM     72  C   UNL A   1      45.084  35.035  28.373  1.00  0.00     0.009 A 
ATOM     73  C   UNL A   1      43.201  35.554  26.383  1.00  0.00     0.001 A 
ATOM     74  C   UNL A   1      45.270  36.105  27.495  1.00  0.00     0.001 A 
ATOM     75  C   UNL A   1      44.332  36.359  26.496  1.00  0.00     0.000 A 
ENDBRANCH  51  70
BRANCH  63  76
ATOM     76  C   UNL A   1      40.993  33.693  34.581  1.00  0.00    -0.014 A 
ATOM     77  C   UNL A   1      39.603  33.869  34.621  1.00  0.00     0.009 A 
ATOM     78  C   UNL A   1      41.796  34.417  35.478  1.00  0.00     0.009 A 
ATOM     79  C   UNL A   1      39.032  34.770  35.523  1.00  0.00     0.001 A 
ATOM     80  C   UNL A   1      41.220  35.293  36.400  1.00  0.00     0.001 A 
ATOM     81  C   UNL A   1      39.839  35.474  36.416  1.00  0.00     0.000 A 
ENDBRANCH  63  76
ENDBRANCH  37  38
ENDBRANCH  30  32
ENDBRANCH  29  30
ENDBRANCH  28  29
ENDBRANCH  27  28
ENDBRANCH  26  27
ENDBRANCH   1  26
TORSDOF 18
ENDMDL
MODEL 3
REMARK VINA RESULT:     -10.2     11.471     15.554
REMARK SMILES Cc1cc2c(c(C)c1Cl)C=C(C(=O)OCCOCCOCCOC(=O)c1ccc(-c3c4nc(c(-c5ccccc5)c5ccc([nH]5)c(-c5ccccc5)c5nc(c(-c6ccccc6)c6ccc3[nH]6)C=C5)C=C4)cc1)[C@@H](C(F)(F)F)O2
REMARK SMILES IDX 19 1 18 2 17 3 16 4 15 5 14 6 12 7 13 8 11 9 1 10 2 11 3 12
REMARK SMILES IDX 8 13 4 14 6 15 9 16 5 17 79 18 7 19 10 20 74 21 75 22 76 23
REMARK SMILES IDX 77 24 78 25 20 26 21 27 22 28 23 29 24 30 25 31 26 32 27 33
REMARK SMILES IDX 73 34 28 35 72 36 29 37 30 38 31 39 66 40 32 41 71 42 65 43
REMARK SMILES IDX 67 44 33 45 70 46 64 47 63 48 34 50 56 51 41 52 55 53 42 54
REMARK SMILES IDX 45 55 54 56 68 57 43 58 44 59 53 61 69 62 46 63 35 64 36 65
REMARK SMILES IDX 40 66 37 67 39 68 38 69 57 70 58 71 62 72 59 73 61 74 60 75
REMARK SMILES IDX 47 76 48 77 52 78 49 79 51 80 50 81
REMARK H PARENT 67 49 45 60
REMARK Flexibility Score: inf
ROOT
ATOM      1  C   UNL A   1      48.159  20.307  38.482  1.00  0.00     0.188 C 
ENDROOT
BRANCH   1   2
ATOM      2  C   UNL A   1      47.020  19.446  37.899  1.00  0.00     0.188 C 
BRANCH   2   3
ATOM      3  O   UNL A   1      45.915  19.072  38.699  1.00  0.00    -0.376 OA
BRANCH   3   4
ATOM      4  C   UNL A   1      45.960  17.902  39.500  1.00  0.00     0.202 C 
BRANCH   4   5
ATOM      5  C   UNL A   1      46.129  17.949  41.026  1.00  0.00     0.261 C 
BRANCH   5   6
ATOM      6  O   UNL A   1      45.562  16.844  41.742  1.00  0.00    -0.460 OA
BRANCH   6   7
ATOM      7  C   UNL A   1      44.348  17.076  42.295  1.00  0.00     0.338 C 
ATOM      8  O   UNL A   1      43.814  18.160  42.463  1.00  0.00    -0.246 OA
BRANCH   7   9
ATOM      9  C   UNL A   1      43.663  15.791  42.541  1.00  0.00     0.087 C 
ATOM     10  C   UNL A   1      42.175   9.605  43.645  1.00  0.00     0.046 C 
ATOM     11  C   UNL A   1      42.683  11.019  43.737  1.00  0.00    -0.028 A 
ATOM     12  C   UNL A   1      42.074  11.987  42.929  1.00  0.00     0.052 A 
ATOM     13  C   UNL A   1      43.710  11.417  44.614  1.00  0.00     0.047 A 
ATOM     14  C   UNL A   1      42.551  13.296  42.897  1.00  0.00     0.128 A 
ATOM     15  C   UNL A   1      44.199  12.745  44.610  1.00  0.00    -0.021 A 
ATOM     16  Cl  UNL A   1      44.379  10.237  45.701  1.00  0.00    -0.084 Cl
ATOM     17  C   UNL A   1      43.642  13.670  43.688  1.00  0.00     0.022 A 
ATOM     18  O   UNL A   1      41.881  14.133  42.052  1.00  0.00    -0.475 OA
ATOM     19  C   UNL A   1      45.295  13.195  45.548  1.00  0.00     0.047 C 
ATOM     20  C   UNL A   1      44.212  14.997  43.470  1.00  0.00     0.027 C 
ATOM     21  C   UNL A   1      42.427  15.446  41.765  1.00  0.00     0.316 C 
BRANCH  21  22
ATOM     22  C   UNL A   1      42.632  15.557  40.248  1.00  0.00     0.430 C 
ATOM     23  F   UNL A   1      41.741  14.790  39.574  1.00  0.00    -0.167 F 
ATOM     24  F   UNL A   1      42.459  16.826  39.809  1.00  0.00    -0.167 F 
ATOM     25  F   UNL A   1      43.870  15.165  39.875  1.00  0.00    -0.167 F 
ENDBRANCH  21  22
ENDBRANCH   7   9
ENDBRANCH   6   7
ENDBRANCH   5   6
ENDBRANCH   4   5
ENDBRANCH   3   4
ENDBRANCH   2   3
ENDBRANCH   1   2
BRANCH   1  26
ATOM     26  O   UNL A   1      48.208  21.668  38.135  1.00  0.00    -0.376 OA
BRANCH  26  27
ATOM     27  C   UNL A   1      47.055  22.328  37.637  1.00  0.00     0.202 C 
BRANCH  27  28
ATOM     28  C   UNL A   1      46.360  23.553  38.266  1.00  0.00     0.261 C 
BRANCH  28  29
ATOM     29  O   UNL A   1      45.493  24.340  37.447  1.00  0.00    -0.460 OA
BRANCH  29  30
ATOM     30  C   UNL A   1      45.906  25.611  37.211  1.00  0.00     0.338 C 
ATOM     31  O   UNL A   1      46.912  26.153  37.630  1.00  0.00    -0.246 OA
BRANCH  30  32
ATOM     32  C   UNL A   1      45.028  26.206  36.187  1.00  0.00     0.060 A 
ATOM     33  C   UNL A   1      45.409  27.419  35.598  1.00  0.00     0.016 A 
ATOM     34  C   UNL A   1      43.830  25.586  35.831  1.00  0.00     0.016 A 
ATOM     35  C   UNL A   1      44.582  28.026  34.653  1.00  0.00     0.010 A 
ATOM     36  C   UNL A   1      42.989  26.209  34.906  1.00  0.00     0.010 A 
ATOM     37  C   UNL A   1      43.350  27.442  34.332  1.00  0.00    -0.014 A 
BRANCH  37  38
ATOM     38  C   UNL A   1      42.361  28.197  33.530  1.00  0.00     0.031 A 
ATOM     39  C   UNL A   1      41.503  29.219  34.224  1.00  0.00     0.074 A 
ATOM     40  C   UNL A   1      42.233  27.995  32.207  1.00  0.00     0.049 A 
ATOM     41  N   UNL A   1      40.529  29.947  33.744  1.00  0.00    -0.248 NA
ATOM     42  C   UNL A   1      41.787  29.453  35.650  1.00  0.00     0.031 C 
ATOM     43  C   UNL A   1      43.049  27.086  31.406  1.00  0.00     0.029 A 
ATOM     44  N   UNL A   1      41.356  28.546  31.306  1.00  0.00    -0.354 N 
ATOM     45  C   UNL A   1      40.083  30.724  34.806  1.00  0.00     0.074 A 
ATOM     46  C   UNL A   1      40.874  30.361  35.961  1.00  0.00     0.031 C 
ATOM     47  C   UNL A   1      42.629  27.136  30.129  1.00  0.00     0.029 A 
ATOM     48  C   UNL A   1      41.490  28.048  30.033  1.00  0.00     0.049 A 
ATOM     49  H   UNL A   1      40.694  29.234  31.550  1.00  0.00     0.167 HD
ATOM     50  C   UNL A   1      39.106  31.660  34.816  1.00  0.00     0.031 A 
ATOM     51  C   UNL A   1      40.761  28.286  28.925  1.00  0.00     0.031 A 
ATOM     52  C   UNL A   1      38.304  32.004  33.673  1.00  0.00     0.049 A 
ATOM     53  C   UNL A   1      39.605  29.250  28.989  1.00  0.00     0.074 A 
ATOM     54  C   UNL A   1      37.279  32.931  33.591  1.00  0.00     0.029 A 
ATOM     55  N   UNL A   1      38.433  31.435  32.417  1.00  0.00    -0.354 N 
ATOM     56  N   UNL A   1      39.185  29.974  30.000  1.00  0.00    -0.248 NA
ATOM     57  C   UNL A   1      38.822  29.433  27.757  1.00  0.00     0.031 C 
ATOM     58  C   UNL A   1      36.749  32.880  32.301  1.00  0.00     0.029 A 
ATOM     59  C   UNL A   1      37.491  31.974  31.559  1.00  0.00     0.049 A 
ATOM     60  H   UNL A   1      39.095  30.749  32.172  1.00  0.00     0.167 HD
ATOM     61  C   UNL A   1      38.118  30.722  29.516  1.00  0.00     0.074 A 
ATOM     62  C   UNL A   1      37.958  30.371  28.121  1.00  0.00     0.031 C 
ATOM     63  C   UNL A   1      37.344  31.623  30.170  1.00  0.00     0.031 A 
BRANCH  50  64
ATOM     64  C   UNL A   1      38.829  32.365  36.113  1.00  0.00    -0.014 A 
ATOM     65  C   UNL A   1      39.366  33.635  36.378  1.00  0.00     0.009 A 
ATOM     66  C   UNL A   1      37.964  31.782  37.053  1.00  0.00     0.009 A 
ATOM     67  C   UNL A   1      39.054  34.299  37.566  1.00  0.00     0.001 A 
ATOM     68  C   UNL A   1      37.632  32.461  38.226  1.00  0.00     0.001 A 
ATOM     69  C   UNL A   1      38.181  33.716  38.484  1.00  0.00     0.000 A 
ENDBRANCH  50  64
BRANCH  51  70
ATOM     70  C   UNL A   1      41.093  27.589  27.653  1.00  0.00    -0.014 A 
ATOM     71  C   UNL A   1      41.978  28.170  26.731  1.00  0.00     0.009 A 
ATOM     72  C   UNL A   1      40.520  26.344  27.349  1.00  0.00     0.009 A 
ATOM     73  C   UNL A   1      42.268  27.528  25.525  1.00  0.00     0.001 A 
ATOM     74  C   UNL A   1      40.836  25.690  26.155  1.00  0.00     0.001 A 
ATOM     75  C   UNL A   1      41.703  26.286  25.242  1.00  0.00     0.000 A 
ENDBRANCH  51  70
BRANCH  63  76
ATOM     76  C   UNL A   1      36.279  32.337  29.382  1.00  0.00    -0.014 A 
ATOM     77  C   UNL A   1      35.166  31.655  28.869  1.00  0.00     0.009 A 
ATOM     78  C   UNL A   1      36.357  33.730  29.220  1.00  0.00     0.009 A 
ATOM     79  C   UNL A   1      34.165  32.352  28.188  1.00  0.00     0.001 A 
ATOM     80  C   UNL A   1      35.340  34.428  28.567  1.00  0.00     0.001 A 
ATOM     81  C   UNL A   1      34.248  33.736  28.045  1.00  0.00     0.000 A 
ENDBRANCH  63  76
ENDBRANCH  37  38
ENDBRANCH  30  32
ENDBRANCH  29  30
ENDBRANCH  28  29
ENDBRANCH  27  28
ENDBRANCH  26  27
ENDBRANCH   1  26
TORSDOF 18
ENDMDL
