MODEL 1
REMARK VINA RESULT:     -10.4      0.000      0.000
REMARK SMILES Cn1c(COc2ccc(C(=O)OCCOCCOCCOC(=O)c3ccc(-c4c5nc(c(-c6ccccc6)c6ccc([nH]6)c(-c6ccccc6)c6nc(c(-c7ccccc7)c7ccc4[nH]7)C=C6)C=C5)cc3)cc2)nc2ccccc21
REMARK SMILES IDX 16 1 15 2 14 3 13 4 12 5 10 6 11 7 9 8 6 9 7 10 73 11 8 12
REMARK SMILES IDX 72 13 5 14 4 15 3 16 1 17 2 18 80 19 74 20 75 21 79 22 76 23
REMARK SMILES IDX 78 24 77 25 17 26 18 27 19 28 20 29 21 30 22 31 23 32 24 33
REMARK SMILES IDX 25 34 71 35 26 36 70 37 27 38 28 39 29 40 64 41 30 42 69 43
REMARK SMILES IDX 63 44 65 45 31 46 68 47 62 48 61 49 32 51 54 52 39 53 53 54
REMARK SMILES IDX 40 55 43 56 52 57 66 58 41 59 42 60 51 62 67 63 44 64 33 65
REMARK SMILES IDX 34 66 38 67 35 68 37 69 36 70 55 71 56 72 60 73 57 74 59 75
REMARK SMILES IDX 58 76 45 77 46 78 50 79 47 80 49 81 48 82
REMARK H PARENT 65 50 43 61
REMARK Flexibility Score: inf
ROOT
ATOM      1  C   UNL A   1      40.199  22.062  26.699  1.00  0.00     0.188 C 
ENDROOT
BRANCH   1   2
ATOM      2  O   UNL A   1      39.189  21.397  25.952  1.00  0.00    -0.376 OA
BRANCH   2   3
ATOM      3  C   UNL A   1      38.139  22.137  25.344  1.00  0.00     0.202 C 
BRANCH   3   4
ATOM      4  C   UNL A   1      36.859  21.448  24.846  1.00  0.00     0.261 C 
BRANCH   4   5
ATOM      5  O   UNL A   1      35.671  22.242  24.932  1.00  0.00    -0.460 OA
BRANCH   5   6
ATOM      6  C   UNL A   1      35.454  23.097  23.902  1.00  0.00     0.338 C 
ATOM      7  O   UNL A   1      35.782  22.943  22.738  1.00  0.00    -0.246 OA
BRANCH   6   8
ATOM      8  C   UNL A   1      34.597  24.219  24.354  1.00  0.00     0.060 A 
ATOM      9  C   UNL A   1      33.033  26.381  25.130  1.00  0.00     0.120 A 
ATOM     10  C   UNL A   1      33.576  26.361  23.851  1.00  0.00     0.047 A 
ATOM     11  C   UNL A   1      33.161  25.277  25.973  1.00  0.00     0.047 A 
ATOM     12  C   UNL A   1      34.362  25.277  23.462  1.00  0.00     0.019 A 
ATOM     13  C   UNL A   1      33.978  24.212  25.608  1.00  0.00     0.019 A 
BRANCH   9  14
ATOM     14  O   UNL A   1      32.348  27.493  25.544  1.00  0.00    -0.486 OA
BRANCH  14  15
ATOM     15  C   UNL A   1      32.535  28.600  24.626  1.00  0.00     0.304 C 
BRANCH  15  16
ATOM     16  C   UNL A   1      31.196  29.154  24.240  1.00  0.00     0.147 A 
ATOM     17  C   UNL A   1      30.578  27.463  22.447  1.00  0.00     0.151 C 
ATOM     18  N   UNL A   1      30.398  28.668  23.221  1.00  0.00    -0.328 N 
ATOM     19  C   UNL A   1      29.450  29.628  22.930  1.00  0.00     0.068 A 
ATOM     20  N   UNL A   1      30.694  30.282  24.715  1.00  0.00    -0.229 NA
ATOM     21  C   UNL A   1      29.666  30.619  23.879  1.00  0.00     0.089 A 
ATOM     22  C   UNL A   1      28.479  29.742  21.927  1.00  0.00     0.028 A 
ATOM     23  C   UNL A   1      28.902  31.794  23.842  1.00  0.00     0.030 A 
ATOM     24  C   UNL A   1      27.735  30.928  21.895  1.00  0.00     0.002 A 
ATOM     25  C   UNL A   1      27.944  31.941  22.834  1.00  0.00     0.002 A 
ENDBRANCH  15  16
ENDBRANCH  14  15
ENDBRANCH   9  14
ENDBRANCH   6   8
ENDBRANCH   5   6
ENDBRANCH   4   5
ENDBRANCH   3   4
ENDBRANCH   2   3
ENDBRANCH   1   2
BRANCH   1  26
ATOM     26  C   UNL A   1      41.141  21.263  27.625  1.00  0.00     0.188 C 
BRANCH  26  27
ATOM     27  O   UNL A   1      42.499  21.300  27.265  1.00  0.00    -0.376 OA
BRANCH  27  28
ATOM     28  C   UNL A   1      42.881  21.007  25.933  1.00  0.00     0.202 C 
BRANCH  28  29
ATOM     29  C   UNL A   1      43.608  21.975  24.972  1.00  0.00     0.261 C 
BRANCH  29  30
ATOM     30  O   UNL A   1      43.101  23.305  24.820  1.00  0.00    -0.460 OA
BRANCH  30  31
ATOM     31  C   UNL A   1      43.959  24.314  25.113  1.00  0.00     0.338 C 
ATOM     32  O   UNL A   1      45.046  24.529  24.612  1.00  0.00    -0.246 OA
BRANCH  31  33
ATOM     33  C   UNL A   1      43.287  25.239  26.046  1.00  0.00     0.060 A 
ATOM     34  C   UNL A   1      43.818  26.522  26.229  1.00  0.00     0.016 A 
ATOM     35  C   UNL A   1      42.159  24.830  26.758  1.00  0.00     0.016 A 
ATOM     36  C   UNL A   1      43.229  27.399  27.141  1.00  0.00     0.010 A 
ATOM     37  C   UNL A   1      41.583  25.702  27.687  1.00  0.00     0.010 A 
ATOM     38  C   UNL A   1      42.130  26.980  27.903  1.00  0.00    -0.014 A 
BRANCH  38  39
ATOM     39  C   UNL A   1      41.653  27.807  29.039  1.00  0.00     0.031 A 
ATOM     40  C   UNL A   1      42.368  27.700  30.359  1.00  0.00     0.074 A 
ATOM     41  C   UNL A   1      40.608  28.644  28.906  1.00  0.00     0.049 A 
ATOM     42  N   UNL A   1      42.092  28.274  31.502  1.00  0.00    -0.248 NA
ATOM     43  C   UNL A   1      43.549  26.825  30.392  1.00  0.00     0.031 C 
ATOM     44  C   UNL A   1      39.860  28.878  27.673  1.00  0.00     0.029 A 
ATOM     45  N   UNL A   1      39.992  29.447  29.834  1.00  0.00    -0.354 N 
ATOM     46  C   UNL A   1      43.059  27.823  32.392  1.00  0.00     0.074 A 
ATOM     47  C   UNL A   1      43.908  26.904  31.664  1.00  0.00     0.031 C 
ATOM     48  C   UNL A   1      38.877  29.761  27.924  1.00  0.00     0.029 A 
ATOM     49  C   UNL A   1      38.903  30.122  29.340  1.00  0.00     0.049 A 
ATOM     50  H   UNL A   1      40.302  29.530  30.766  1.00  0.00     0.167 HD
ATOM     51  C   UNL A   1      43.228  28.144  33.695  1.00  0.00     0.031 A 
ATOM     52  C   UNL A   1      38.014  30.919  29.966  1.00  0.00     0.031 A 
ATOM     53  C   UNL A   1      42.374  29.041  34.427  1.00  0.00     0.049 A 
ATOM     54  C   UNL A   1      38.168  31.187  31.441  1.00  0.00     0.074 A 
ATOM     55  C   UNL A   1      42.471  29.438  35.749  1.00  0.00     0.029 A 
ATOM     56  N   UNL A   1      41.256  29.670  33.901  1.00  0.00    -0.354 N 
ATOM     57  N   UNL A   1      39.100  30.776  32.267  1.00  0.00    -0.248 NA
ATOM     58  C   UNL A   1      37.145  32.038  32.070  1.00  0.00     0.031 C 
ATOM     59  C   UNL A   1      41.375  30.257  36.041  1.00  0.00     0.029 A 
ATOM     60  C   UNL A   1      40.638  30.428  34.881  1.00  0.00     0.049 A 
ATOM     61  H   UNL A   1      40.949  29.591  32.969  1.00  0.00     0.167 HD
ATOM     62  C   UNL A   1      38.797  31.343  33.499  1.00  0.00     0.074 A 
ATOM     63  C   UNL A   1      37.602  32.140  33.310  1.00  0.00     0.031 C 
ATOM     64  C   UNL A   1      39.450  31.220  34.681  1.00  0.00     0.031 A 
BRANCH  51  65
ATOM     65  C   UNL A   1      44.366  27.485  34.428  1.00  0.00    -0.014 A 
ATOM     66  C   UNL A   1      45.629  28.091  34.519  1.00  0.00     0.009 A 
ATOM     67  C   UNL A   1      44.159  26.250  35.063  1.00  0.00     0.009 A 
ATOM     68  C   UNL A   1      46.670  27.457  35.198  1.00  0.00     0.001 A 
ATOM     69  C   UNL A   1      45.193  25.633  35.769  1.00  0.00     0.001 A 
ATOM     70  C   UNL A   1      46.450  26.232  35.827  1.00  0.00     0.000 A 
ENDBRANCH  51  65
BRANCH  52  71
ATOM     71  C   UNL A   1      36.876  31.510  29.212  1.00  0.00    -0.014 A 
ATOM     72  C   UNL A   1      36.924  32.839  28.764  1.00  0.00     0.009 A 
ATOM     73  C   UNL A   1      35.717  30.756  28.966  1.00  0.00     0.009 A 
ATOM     74  C   UNL A   1      35.827  33.409  28.114  1.00  0.00     0.001 A 
ATOM     75  C   UNL A   1      34.634  31.318  28.287  1.00  0.00     0.001 A 
ATOM     76  C   UNL A   1      34.685  32.648  27.871  1.00  0.00     0.000 A 
ENDBRANCH  52  71
BRANCH  64  77
ATOM     77  C   UNL A   1      38.918  31.999  35.854  1.00  0.00    -0.014 A 
ATOM     78  C   UNL A   1      39.154  33.375  35.992  1.00  0.00     0.009 A 
ATOM     79  C   UNL A   1      38.127  31.348  36.815  1.00  0.00     0.009 A 
ATOM     80  C   UNL A   1      38.640  34.075  37.087  1.00  0.00     0.001 A 
ATOM     81  C   UNL A   1      37.587  32.055  37.889  1.00  0.00     0.001 A 
ATOM     82  C   UNL A   1      37.853  33.416  38.031  1.00  0.00     0.000 A 
ENDBRANCH  64  77
ENDBRANCH  38  39
ENDBRANCH  31  33
ENDBRANCH  30  31
ENDBRANCH  29  30
ENDBRANCH  28  29
ENDBRANCH  27  28
ENDBRANCH  26  27
ENDBRANCH   1  26
TORSDOF 20
ENDMDL
MODEL 2
REMARK VINA RESULT:     -10.2      5.158     12.005
REMARK SMILES Cn1c(COc2ccc(C(=O)OCCOCCOCCOC(=O)c3ccc(-c4c5nc(c(-c6ccccc6)c6ccc([nH]6)c(-c6ccccc6)c6nc(c(-c7ccccc7)c7ccc4[nH]7)C=C6)C=C5)cc3)cc2)nc2ccccc21
REMARK SMILES IDX 16 1 15 2 14 3 13 4 12 5 10 6 11 7 9 8 6 9 7 10 73 11 8 12
REMARK SMILES IDX 72 13 5 14 4 15 3 16 1 17 2 18 80 19 74 20 75 21 79 22 76 23
REMARK SMILES IDX 78 24 77 25 17 26 18 27 19 28 20 29 21 30 22 31 23 32 24 33
REMARK SMILES IDX 25 34 71 35 26 36 70 37 27 38 28 39 29 40 64 41 30 42 69 43
REMARK SMILES IDX 63 44 65 45 31 46 68 47 62 48 61 49 32 51 54 52 39 53 53 54
REMARK SMILES IDX 40 55 43 56 52 57 66 58 41 59 42 60 51 62 67 63 44 64 33 65
REMARK SMILES IDX 34 66 38 67 35 68 37 69 36 70 55 71 56 72 60 73 57 74 59 75
REMARK SMILES IDX 58 76 45 77 46 78 50 79 47 80 49 81 48 82
REMARK H PARENT 65 50 43 61
REMARK Flexibility Score: inf
ROOT
ATOM      1  C   UNL A   1      33.401  35.604  30.456  1.00  0.00     0.188 C 
ENDROOT
BRANCH   1   2
ATOM      2  O   UNL A   1      33.108  34.927  31.671  1.00  0.00    -0.376 OA
BRANCH   2   3
ATOM      3  C   UNL A   1      34.129  34.701  32.633  1.00  0.00     0.202 C 
BRANCH   3   4
ATOM      4  C   UNL A   1      34.384  33.302  33.216  1.00  0.00     0.261 C 
BRANCH   4   5
ATOM      5  O   UNL A   1      35.407  33.240  34.215  1.00  0.00    -0.460 OA
BRANCH   5   6
ATOM      6  C   UNL A   1      36.626  33.704  33.844  1.00  0.00     0.338 C 
ATOM      7  O   UNL A   1      36.924  34.857  33.584  1.00  0.00    -0.246 OA
BRANCH   6   8
ATOM      8  C   UNL A   1      37.629  32.618  33.950  1.00  0.00     0.060 A 
ATOM      9  C   UNL A   1      39.584  30.653  34.154  1.00  0.00     0.120 A 
ATOM     10  C   UNL A   1      39.858  31.934  34.622  1.00  0.00     0.047 A 
ATOM     11  C   UNL A   1      38.306  30.319  33.706  1.00  0.00     0.047 A 
ATOM     12  C   UNL A   1      38.877  32.920  34.518  1.00  0.00     0.019 A 
ATOM     13  C   UNL A   1      37.337  31.307  33.560  1.00  0.00     0.019 A 
BRANCH   9  14
ATOM     14  O   UNL A   1      40.582  29.716  34.163  1.00  0.00    -0.486 OA
BRANCH  14  15
ATOM     15  C   UNL A   1      41.088  29.496  35.504  1.00  0.00     0.304 C 
BRANCH  15  16
ATOM     16  C   UNL A   1      41.720  28.137  35.579  1.00  0.00     0.147 A 
ATOM     17  C   UNL A   1      43.903  28.659  34.388  1.00  0.00     0.151 C 
ATOM     18  N   UNL A   1      42.931  27.791  35.007  1.00  0.00    -0.328 N 
ATOM     19  C   UNL A   1      43.002  26.414  34.969  1.00  0.00     0.068 A 
ATOM     20  N   UNL A   1      41.114  27.062  36.054  1.00  0.00    -0.229 NA
ATOM     21  C   UNL A   1      41.854  25.993  35.628  1.00  0.00     0.089 A 
ATOM     22  C   UNL A   1      43.915  25.518  34.397  1.00  0.00     0.028 A 
ATOM     23  C   UNL A   1      41.571  24.623  35.725  1.00  0.00     0.030 A 
ATOM     24  C   UNL A   1      43.610  24.154  34.491  1.00  0.00     0.002 A 
ATOM     25  C   UNL A   1      42.455  23.711  35.140  1.00  0.00     0.002 A 
ENDBRANCH  15  16
ENDBRANCH  14  15
ENDBRANCH   9  14
ENDBRANCH   6   8
ENDBRANCH   5   6
ENDBRANCH   4   5
ENDBRANCH   3   4
ENDBRANCH   2   3
ENDBRANCH   1   2
BRANCH   1  26
ATOM     26  C   UNL A   1      32.926  35.029  29.105  1.00  0.00     0.188 C 
BRANCH  26  27
ATOM     27  O   UNL A   1      33.955  34.644  28.228  1.00  0.00    -0.376 OA
BRANCH  27  28
ATOM     28  C   UNL A   1      35.238  34.336  28.745  1.00  0.00     0.202 C 
BRANCH  28  29
ATOM     29  C   UNL A   1      35.592  33.090  29.588  1.00  0.00     0.261 C 
BRANCH  29  30
ATOM     30  O   UNL A   1      34.685  31.983  29.596  1.00  0.00    -0.460 OA
BRANCH  30  31
ATOM     31  C   UNL A   1      34.790  31.110  28.563  1.00  0.00     0.338 C 
ATOM     32  O   UNL A   1      34.049  31.006  27.605  1.00  0.00    -0.246 OA
BRANCH  31  33
ATOM     33  C   UNL A   1      36.071  30.389  28.692  1.00  0.00     0.060 A 
ATOM     34  C   UNL A   1      36.365  29.740  29.899  1.00  0.00     0.016 A 
ATOM     35  C   UNL A   1      36.988  30.380  27.640  1.00  0.00     0.016 A 
ATOM     36  C   UNL A   1      37.590  29.091  30.063  1.00  0.00     0.010 A 
ATOM     37  C   UNL A   1      38.223  29.748  27.814  1.00  0.00     0.010 A 
ATOM     38  C   UNL A   1      38.541  29.124  29.035  1.00  0.00    -0.014 A 
BRANCH  38  39
ATOM     39  C   UNL A   1      39.926  28.653  29.286  1.00  0.00     0.031 A 
ATOM     40  C   UNL A   1      40.881  29.572  29.999  1.00  0.00     0.074 A 
ATOM     41  C   UNL A   1      40.333  27.432  28.897  1.00  0.00     0.049 A 
ATOM     42  N   UNL A   1      42.150  29.403  30.270  1.00  0.00    -0.248 NA
ATOM     43  C   UNL A   1      40.329  30.855  30.462  1.00  0.00     0.031 C 
ATOM     44  C   UNL A   1      39.497  26.428  28.242  1.00  0.00     0.029 A 
ATOM     45  N   UNL A   1      41.566  26.836  28.991  1.00  0.00    -0.354 N 
ATOM     46  C   UNL A   1      42.550  30.560  30.928  1.00  0.00     0.074 A 
ATOM     47  C   UNL A   1      41.399  31.435  30.985  1.00  0.00     0.031 C 
ATOM     48  C   UNL A   1      40.246  25.341  27.985  1.00  0.00     0.029 A 
ATOM     49  C   UNL A   1      41.619  25.589  28.421  1.00  0.00     0.049 A 
ATOM     50  H   UNL A   1      42.340  27.264  29.427  1.00  0.00     0.167 HD
ATOM     51  C   UNL A   1      43.765  30.868  31.440  1.00  0.00     0.031 A 
ATOM     52  C   UNL A   1      42.663  24.754  28.246  1.00  0.00     0.031 A 
ATOM     53  C   UNL A   1      44.916  30.009  31.366  1.00  0.00     0.049 A 
ATOM     54  C   UNL A   1      44.028  25.159  28.741  1.00  0.00     0.074 A 
ATOM     55  C   UNL A   1      46.188  30.228  31.866  1.00  0.00     0.029 A 
ATOM     56  N   UNL A   1      44.939  28.772  30.742  1.00  0.00    -0.354 N 
ATOM     57  N   UNL A   1      44.390  26.243  29.383  1.00  0.00    -0.248 NA
ATOM     58  C   UNL A   1      45.130  24.217  28.489  1.00  0.00     0.031 C 
ATOM     59  C   UNL A   1      46.998  29.152  31.488  1.00  0.00     0.029 A 
ATOM     60  C   UNL A   1      46.211  28.230  30.817  1.00  0.00     0.049 A 
ATOM     61  H   UNL A   1      44.166  28.342  30.310  1.00  0.00     0.167 HD
ATOM     62  C   UNL A   1      45.748  26.099  29.642  1.00  0.00     0.074 A 
ATOM     63  C   UNL A   1      46.143  24.815  29.100  1.00  0.00     0.031 C 
ATOM     64  C   UNL A   1      46.593  26.950  30.275  1.00  0.00     0.031 A 
BRANCH  51  65
ATOM     65  C   UNL A   1      43.919  32.214  32.094  1.00  0.00    -0.014 A 
ATOM     66  C   UNL A   1      43.714  32.388  33.472  1.00  0.00     0.009 A 
ATOM     67  C   UNL A   1      44.304  33.321  31.321  1.00  0.00     0.009 A 
ATOM     68  C   UNL A   1      43.856  33.648  34.055  1.00  0.00     0.001 A 
ATOM     69  C   UNL A   1      44.477  34.574  31.912  1.00  0.00     0.001 A 
ATOM     70  C   UNL A   1      44.243  34.738  33.276  1.00  0.00     0.000 A 
ENDBRANCH  51  65
BRANCH  52  71
ATOM     71  C   UNL A   1      42.475  23.453  27.549  1.00  0.00    -0.014 A 
ATOM     72  C   UNL A   1      42.752  23.326  26.180  1.00  0.00     0.009 A 
ATOM     73  C   UNL A   1      41.981  22.337  28.245  1.00  0.00     0.009 A 
ATOM     74  C   UNL A   1      42.511  22.121  25.516  1.00  0.00     0.001 A 
ATOM     75  C   UNL A   1      41.773  21.124  27.585  1.00  0.00     0.001 A 
ATOM     76  C   UNL A   1      42.027  21.019  26.219  1.00  0.00     0.000 A 
ENDBRANCH  52  71
BRANCH  64  77
ATOM     77  C   UNL A   1      48.019  26.504  30.461  1.00  0.00    -0.014 A 
ATOM     78  C   UNL A   1      48.429  25.807  31.607  1.00  0.00     0.009 A 
ATOM     79  C   UNL A   1      48.958  26.750  29.445  1.00  0.00     0.009 A 
ATOM     80  C   UNL A   1      49.758  25.398  31.749  1.00  0.00     0.001 A 
ATOM     81  C   UNL A   1      50.276  26.310  29.574  1.00  0.00     0.001 A 
ATOM     82  C   UNL A   1      50.677  25.645  30.730  1.00  0.00     0.000 A 
ENDBRANCH  64  77
ENDBRANCH  38  39
ENDBRANCH  31  33
ENDBRANCH  30  31
ENDBRANCH  29  30
ENDBRANCH  28  29
ENDBRANCH  27  28
ENDBRANCH  26  27
ENDBRANCH   1  26
TORSDOF 20
ENDMDL
MODEL 3
REMARK VINA RESULT:      -9.9      1.659      2.169
REMARK SMILES Cn1c(COc2ccc(C(=O)OCCOCCOCCOC(=O)c3ccc(-c4c5nc(c(-c6ccccc6)c6ccc([nH]6)c(-c6ccccc6)c6nc(c(-c7ccccc7)c7ccc4[nH]7)C=C6)C=C5)cc3)cc2)nc2ccccc21
REMARK SMILES IDX 16 1 15 2 14 3 13 4 12 5 10 6 11 7 9 8 6 9 7 10 73 11 8 12
REMARK SMILES IDX 72 13 5 14 4 15 3 16 1 17 2 18 80 19 74 20 75 21 79 22 76 23
REMARK SMILES IDX 78 24 77 25 17 26 18 27 19 28 20 29 21 30 22 31 23 32 24 33
REMARK SMILES IDX 25 34 71 35 26 36 70 37 27 38 28 39 29 40 64 41 30 42 69 43
REMARK SMILES IDX 63 44 65 45 31 46 68 47 62 48 61 49 32 51 54 52 39 53 53 54
REMARK SMILES IDX 40 55 43 56 52 57 66 58 41 59 42 60 51 62 67 63 44 64 33 65
REMARK SMILES IDX 34 66 38 67 35 68 37 69 36 70 55 71 56 72 60 73 57 74 59 75
REMARK SMILES IDX 58 76 45 77 46 78 50 79 47 80 49 81 48 82
REMARK H PARENT 65 50 43 61
REMARK Flexibility Score: inf
ROOT
ATOM      1  C   UNL A   1      40.728  20.580  26.555  1.00  0.00     0.188 C 
ENDROOT
BRANCH   1   2
ATOM      2  O   UNL A   1      39.734  19.895  25.806  1.00  0.00    -0.376 OA
BRANCH   2   3
ATOM      3  C   UNL A   1      38.461  20.487  25.589  1.00  0.00     0.202 C 
BRANCH   3   4
ATOM      4  C   UNL A   1      37.372  19.769  24.776  1.00  0.00     0.261 C 
BRANCH   4   5
ATOM      5  O   UNL A   1      36.092  20.409  24.779  1.00  0.00    -0.460 OA
BRANCH   5   6
ATOM      6  C   UNL A   1      36.106  21.761  24.681  1.00  0.00     0.338 C 
ATOM      7  O   UNL A   1      36.846  22.439  23.988  1.00  0.00    -0.246 OA
BRANCH   6   8
ATOM      8  C   UNL A   1      34.961  22.330  25.430  1.00  0.00     0.060 A 
ATOM      9  C   UNL A   1      32.773  23.303  26.842  1.00  0.00     0.120 A 
ATOM     10  C   UNL A   1      33.103  21.956  26.944  1.00  0.00     0.047 A 
ATOM     11  C   UNL A   1      33.599  24.185  26.145  1.00  0.00     0.047 A 
ATOM     12  C   UNL A   1      34.200  21.468  26.234  1.00  0.00     0.019 A 
ATOM     13  C   UNL A   1      34.670  23.698  25.401  1.00  0.00     0.019 A 
BRANCH   9  14
ATOM     14  O   UNL A   1      31.637  23.757  27.457  1.00  0.00    -0.486 OA
BRANCH  14  15
ATOM     15  C   UNL A   1      30.583  24.015  26.495  1.00  0.00     0.304 C 
BRANCH  15  16
ATOM     16  C   UNL A   1      30.646  25.450  26.064  1.00  0.00     0.147 A 
ATOM     17  C   UNL A   1      30.444  25.112  23.554  1.00  0.00     0.151 C 
ATOM     18  N   UNL A   1      30.657  25.887  24.752  1.00  0.00    -0.328 N 
ATOM     19  C   UNL A   1      31.083  27.199  24.747  1.00  0.00     0.068 A 
ATOM     20  N   UNL A   1      30.871  26.463  26.885  1.00  0.00    -0.229 NA
ATOM     21  C   UNL A   1      31.207  27.525  26.092  1.00  0.00     0.089 A 
ATOM     22  C   UNL A   1      31.404  28.098  23.721  1.00  0.00     0.028 A 
ATOM     23  C   UNL A   1      31.685  28.791  26.459  1.00  0.00     0.030 A 
ATOM     24  C   UNL A   1      31.893  29.352  24.105  1.00  0.00     0.002 A 
ATOM     25  C   UNL A   1      32.036  29.695  25.452  1.00  0.00     0.002 A 
ENDBRANCH  15  16
ENDBRANCH  14  15
ENDBRANCH   9  14
ENDBRANCH   6   8
ENDBRANCH   5   6
ENDBRANCH   4   5
ENDBRANCH   3   4
ENDBRANCH   2   3
ENDBRANCH   1   2
BRANCH   1  26
ATOM     26  C   UNL A   1      41.727  19.795  27.431  1.00  0.00     0.188 C 
BRANCH  26  27
ATOM     27  O   UNL A   1      43.049  19.773  26.952  1.00  0.00    -0.376 OA
BRANCH  27  28
ATOM     28  C   UNL A   1      43.291  19.845  25.558  1.00  0.00     0.202 C 
BRANCH  28  29
ATOM     29  C   UNL A   1      43.978  21.018  24.824  1.00  0.00     0.261 C 
BRANCH  29  30
ATOM     30  O   UNL A   1      43.418  22.329  24.946  1.00  0.00    -0.460 OA
BRANCH  30  31
ATOM     31  C   UNL A   1      44.282  23.326  25.261  1.00  0.00     0.338 C 
ATOM     32  O   UNL A   1      45.398  23.507  24.813  1.00  0.00    -0.246 OA
BRANCH  31  33
ATOM     33  C   UNL A   1      43.584  24.285  26.139  1.00  0.00     0.060 A 
ATOM     34  C   UNL A   1      43.944  25.638  26.088  1.00  0.00     0.016 A 
ATOM     35  C   UNL A   1      42.603  23.845  27.029  1.00  0.00     0.016 A 
ATOM     36  C   UNL A   1      43.331  26.557  26.941  1.00  0.00     0.010 A 
ATOM     37  C   UNL A   1      42.006  24.764  27.898  1.00  0.00     0.010 A 
ATOM     38  C   UNL A   1      42.386  26.119  27.878  1.00  0.00    -0.014 A 
BRANCH  38  39
ATOM     39  C   UNL A   1      41.914  27.036  28.945  1.00  0.00     0.031 A 
ATOM     40  C   UNL A   1      42.679  27.090  30.240  1.00  0.00     0.074 A 
ATOM     41  C   UNL A   1      40.830  27.813  28.772  1.00  0.00     0.049 A 
ATOM     42  N   UNL A   1      42.419  27.763  31.330  1.00  0.00    -0.248 NA
ATOM     43  C   UNL A   1      43.898  26.269  30.312  1.00  0.00     0.031 C 
ATOM     44  C   UNL A   1      40.030  27.893  27.552  1.00  0.00     0.029 A 
ATOM     45  N   UNL A   1      40.213  28.680  29.640  1.00  0.00    -0.354 N 
ATOM     46  C   UNL A   1      43.435  27.441  32.222  1.00  0.00     0.074 A 
ATOM     47  C   UNL A   1      44.297  26.489  31.555  1.00  0.00     0.031 C 
ATOM     48  C   UNL A   1      39.019  28.758  27.753  1.00  0.00     0.029 A 
ATOM     49  C   UNL A   1      39.079  29.259  29.125  1.00  0.00     0.049 A 
ATOM     50  H   UNL A   1      40.552  28.868  30.546  1.00  0.00     0.167 HD
ATOM     51  C   UNL A   1      43.637  27.898  33.480  1.00  0.00     0.031 A 
ATOM     52  C   UNL A   1      38.179  30.079  29.704  1.00  0.00     0.031 A 
ATOM     53  C   UNL A   1      42.771  28.829  34.152  1.00  0.00     0.049 A 
ATOM     54  C   UNL A   1      38.374  30.498  31.139  1.00  0.00     0.074 A 
ATOM     55  C   UNL A   1      42.897  29.360  35.424  1.00  0.00     0.029 A 
ATOM     56  N   UNL A   1      41.610  29.358  33.612  1.00  0.00    -0.354 N 
ATOM     57  N   UNL A   1      39.351  30.209  31.964  1.00  0.00    -0.248 NA
ATOM     58  C   UNL A   1      37.338  31.367  31.721  1.00  0.00     0.031 C 
ATOM     59  C   UNL A   1      41.779  30.160  35.677  1.00  0.00     0.029 A 
ATOM     60  C   UNL A   1      40.994  30.185  34.536  1.00  0.00     0.049 A 
ATOM     61  H   UNL A   1      41.273  29.174  32.705  1.00  0.00     0.167 HD
ATOM     62  C   UNL A   1      39.067  30.884  33.145  1.00  0.00     0.074 A 
ATOM     63  C   UNL A   1      37.834  31.610  32.925  1.00  0.00     0.031 C 
ATOM     64  C   UNL A   1      39.766  30.905  34.306  1.00  0.00     0.031 A 
BRANCH  51  65
ATOM     65  C   UNL A   1      44.827  27.361  34.229  1.00  0.00    -0.014 A 
ATOM     66  C   UNL A   1      44.739  26.194  35.004  1.00  0.00     0.009 A 
ATOM     67  C   UNL A   1      46.063  28.020  34.131  1.00  0.00     0.009 A 
ATOM     68  C   UNL A   1      45.855  25.719  35.695  1.00  0.00     0.001 A 
ATOM     69  C   UNL A   1      47.185  27.525  34.797  1.00  0.00     0.001 A 
ATOM     70  C   UNL A   1      47.078  26.382  35.587  1.00  0.00     0.000 A 
ENDBRANCH  51  65
BRANCH  52  71
ATOM     71  C   UNL A   1      36.991  30.546  28.941  1.00  0.00    -0.014 A 
ATOM     72  C   UNL A   1      36.877  31.885  28.539  1.00  0.00     0.009 A 
ATOM     73  C   UNL A   1      35.944  29.659  28.640  1.00  0.00     0.009 A 
ATOM     74  C   UNL A   1      35.730  32.333  27.881  1.00  0.00     0.001 A 
ATOM     75  C   UNL A   1      34.812  30.103  27.952  1.00  0.00     0.001 A 
ATOM     76  C   UNL A   1      34.701  31.442  27.583  1.00  0.00     0.000 A 
ENDBRANCH  52  71
BRANCH  64  77
ATOM     77  C   UNL A   1      39.243  31.776  35.417  1.00  0.00    -0.014 A 
ATOM     78  C   UNL A   1      39.577  33.136  35.506  1.00  0.00     0.009 A 
ATOM     79  C   UNL A   1      38.363  31.231  36.367  1.00  0.00     0.009 A 
ATOM     80  C   UNL A   1      39.069  33.923  36.543  1.00  0.00     0.001 A 
ATOM     81  C   UNL A   1      37.830  32.027  37.381  1.00  0.00     0.001 A 
ATOM     82  C   UNL A   1      38.193  33.369  37.476  1.00  0.00     0.000 A 
ENDBRANCH  64  77
ENDBRANCH  38  39
ENDBRANCH  31  33
ENDBRANCH  30  31
ENDBRANCH  29  30
ENDBRANCH  28  29
ENDBRANCH  27  28
ENDBRANCH  26  27
ENDBRANCH   1  26
TORSDOF 20
ENDMDL
