MODEL 1
REMARK VINA RESULT:      -9.5      0.000      0.000
REMARK SMILES Cc1nn(C)c(=O)c(C(=O)N[C@H](C)CC(=O)OCCOCCOCCOC(=O)c2ccc(-c3c4nc(c(-c5ccccc5)c5ccc([nH]5)c(-c5ccccc5)c5nc(c(-c6ccccc6)c6ccc3[nH]6)C=C5)C=C4)cc2)c1C
REMARK SMILES IDX 21 1 20 2 19 3 18 4 17 5 15 6 16 7 14 8 12 9 13 10 11 11
REMARK SMILES IDX 9 12 10 13 8 15 1 16 2 17 3 18 77 19 4 20 78 21 5 22 6 23
REMARK SMILES IDX 7 24 22 25 23 26 24 27 25 28 26 29 27 30 28 31 29 32 30 33
REMARK SMILES IDX 76 34 31 35 75 36 32 37 33 38 34 39 69 40 35 41 74 42 68 43
REMARK SMILES IDX 70 44 36 45 73 46 67 47 66 48 37 50 59 51 44 52 58 53 45 54
REMARK SMILES IDX 48 55 57 56 71 57 46 58 47 59 56 61 72 62 49 63 38 64 39 65
REMARK SMILES IDX 43 66 40 67 42 68 41 69 60 70 61 71 65 72 62 73 64 74 63 75
REMARK SMILES IDX 50 76 51 77 55 78 52 79 54 80 53 81
REMARK H PARENT 11 14 70 49 48 60
REMARK Flexibility Score: inf
ROOT
ATOM      1  C   UNL A   1      40.502  20.787  26.206  1.00  0.00     0.188 C 
ENDROOT
BRANCH   1   2
ATOM      2  O   UNL A   1      39.479  21.615  26.708  1.00  0.00    -0.376 OA
BRANCH   2   3
ATOM      3  C   UNL A   1      38.543  22.144  25.782  1.00  0.00     0.202 C 
BRANCH   3   4
ATOM      4  C   UNL A   1      38.242  23.654  25.772  1.00  0.00     0.261 C 
BRANCH   4   5
ATOM      5  O   UNL A   1      36.924  24.079  26.214  1.00  0.00    -0.463 OA
BRANCH   5   6
ATOM      6  C   UNL A   1      35.886  23.613  25.464  1.00  0.00     0.307 C 
ATOM      7  O   UNL A   1      35.611  24.042  24.347  1.00  0.00    -0.252 OA
BRANCH   6   8
ATOM      8  C   UNL A   1      35.001  22.564  26.123  1.00  0.00     0.147 C 
BRANCH   8   9
ATOM      9  C   UNL A   1      33.543  22.440  25.672  1.00  0.00     0.090 C 
ATOM     10  C   UNL A   1      33.037  20.989  25.786  1.00  0.00     0.031 C 
BRANCH   9  11
ATOM     11  N   UNL A   1      32.611  23.382  26.348  1.00  0.00    -0.349 N 
ATOM     12  C   UNL A   1      31.935  24.540  26.042  1.00  0.00     0.257 C 
ATOM     13  O   UNL A   1      31.028  24.830  26.826  1.00  0.00    -0.269 OA
ATOM     14  H   UNL A   1      32.427  23.097  27.272  1.00  0.00     0.164 HD
BRANCH  12  15
ATOM     15  C   UNL A   1      32.245  25.443  24.882  1.00  0.00     0.111 A 
ATOM     16  C   UNL A   1      33.265  28.933  24.094  1.00  0.00     0.069 C 
ATOM     17  C   UNL A   1      33.073  27.457  23.832  1.00  0.00     0.062 A 
ATOM     18  N   UNL A   1      32.961  27.054  22.615  1.00  0.00    -0.175 NA
ATOM     19  C   UNL A   1      33.000  26.542  24.993  1.00  0.00    -0.010 A 
ATOM     20  N   UNL A   1      32.622  25.741  22.449  1.00  0.00    -0.232 N 
ATOM     21  C   UNL A   1      33.857  26.905  26.126  1.00  0.00     0.047 C 
ATOM     22  C   UNL A   1      32.806  25.236  21.098  1.00  0.00     0.178 C 
ATOM     23  C   UNL A   1      32.045  24.958  23.460  1.00  0.00     0.279 A 
ATOM     24  O   UNL A   1      31.480  23.893  23.222  1.00  0.00    -0.267 OA
ENDBRANCH  12  15
ENDBRANCH   9  11
ENDBRANCH   8   9
ENDBRANCH   6   8
ENDBRANCH   5   6
ENDBRANCH   4   5
ENDBRANCH   3   4
ENDBRANCH   2   3
ENDBRANCH   1   2
BRANCH   1  25
ATOM     25  C   UNL A   1      41.975  21.243  26.294  1.00  0.00     0.188 C 
BRANCH  25  26
ATOM     26  O   UNL A   1      42.939  20.762  25.381  1.00  0.00    -0.376 OA
BRANCH  26  27
ATOM     27  C   UNL A   1      44.191  21.421  25.313  1.00  0.00     0.202 C 
BRANCH  27  28
ATOM     28  C   UNL A   1      44.373  22.502  24.243  1.00  0.00     0.261 C 
BRANCH  28  29
ATOM     29  O   UNL A   1      43.626  23.713  24.487  1.00  0.00    -0.460 OA
BRANCH  29  30
ATOM     30  C   UNL A   1      44.333  24.744  25.012  1.00  0.00     0.338 C 
ATOM     31  O   UNL A   1      45.421  25.158  24.626  1.00  0.00    -0.246 OA
BRANCH  30  32
ATOM     32  C   UNL A   1      43.539  25.465  26.031  1.00  0.00     0.060 A 
ATOM     33  C   UNL A   1      43.902  26.784  26.326  1.00  0.00     0.016 A 
ATOM     34  C   UNL A   1      42.491  24.866  26.733  1.00  0.00     0.016 A 
ATOM     35  C   UNL A   1      43.181  27.527  27.268  1.00  0.00     0.010 A 
ATOM     36  C   UNL A   1      41.807  25.594  27.724  1.00  0.00     0.010 A 
ATOM     37  C   UNL A   1      42.139  26.933  27.994  1.00  0.00    -0.014 A 
BRANCH  37  38
ATOM     38  C   UNL A   1      41.543  27.674  29.142  1.00  0.00     0.031 A 
ATOM     39  C   UNL A   1      42.244  27.621  30.470  1.00  0.00     0.074 A 
ATOM     40  C   UNL A   1      40.441  28.438  29.017  1.00  0.00     0.049 A 
ATOM     41  N   UNL A   1      41.934  28.212  31.595  1.00  0.00    -0.248 NA
ATOM     42  C   UNL A   1      43.454  26.786  30.538  1.00  0.00     0.031 C 
ATOM     43  C   UNL A   1      39.682  28.619  27.787  1.00  0.00     0.029 A 
ATOM     44  N   UNL A   1      39.784  29.231  29.931  1.00  0.00    -0.354 N 
ATOM     45  C   UNL A   1      42.908  27.824  32.503  1.00  0.00     0.074 A 
ATOM     46  C   UNL A   1      43.812  26.936  31.804  1.00  0.00     0.031 C 
ATOM     47  C   UNL A   1      38.706  29.520  27.998  1.00  0.00     0.029 A 
ATOM     48  C   UNL A   1      38.716  29.922  29.403  1.00  0.00     0.049 A 
ATOM     49  H   UNL A   1      40.053  29.298  30.876  1.00  0.00     0.167 HD
ATOM     50  C   UNL A   1      43.036  28.163  33.806  1.00  0.00     0.031 A 
ATOM     51  C   UNL A   1      37.832  30.761  29.984  1.00  0.00     0.031 A 
ATOM     52  C   UNL A   1      42.118  29.002  34.526  1.00  0.00     0.049 A 
ATOM     53  C   UNL A   1      37.932  31.031  31.465  1.00  0.00     0.074 A 
ATOM     54  C   UNL A   1      42.157  29.366  35.860  1.00  0.00     0.029 A 
ATOM     55  N   UNL A   1      40.991  29.595  33.980  1.00  0.00    -0.354 N 
ATOM     56  N   UNL A   1      38.858  30.655  32.314  1.00  0.00    -0.248 NA
ATOM     57  C   UNL A   1      36.849  31.821  32.076  1.00  0.00     0.031 C 
ATOM     58  C   UNL A   1      41.019  30.127  36.139  1.00  0.00     0.029 A 
ATOM     59  C   UNL A   1      40.308  30.294  34.961  1.00  0.00     0.049 A 
ATOM     60  H   UNL A   1      40.717  29.529  33.037  1.00  0.00     0.167 HD
ATOM     61  C   UNL A   1      38.476  31.167  33.549  1.00  0.00     0.074 A 
ATOM     62  C   UNL A   1      37.248  31.903  33.338  1.00  0.00     0.031 C 
ATOM     63  C   UNL A   1      39.087  31.027  34.750  1.00  0.00     0.031 A 
BRANCH  50  64
ATOM     64  C   UNL A   1      44.198  27.579  34.555  1.00  0.00    -0.014 A 
ATOM     65  C   UNL A   1      45.424  28.257  34.635  1.00  0.00     0.009 A 
ATOM     66  C   UNL A   1      44.050  26.352  35.220  1.00  0.00     0.009 A 
ATOM     67  C   UNL A   1      46.488  27.703  35.348  1.00  0.00     0.001 A 
ATOM     68  C   UNL A   1      45.107  25.816  35.956  1.00  0.00     0.001 A 
ATOM     69  C   UNL A   1      46.327  26.489  36.013  1.00  0.00     0.000 A 
ENDBRANCH  50  64
BRANCH  51  70
ATOM     70  C   UNL A   1      36.734  31.379  29.187  1.00  0.00    -0.014 A 
ATOM     71  C   UNL A   1      35.619  30.621  28.793  1.00  0.00     0.009 A 
ATOM     72  C   UNL A   1      36.808  32.723  28.783  1.00  0.00     0.009 A 
ATOM     73  C   UNL A   1      34.615  31.190  28.003  1.00  0.00     0.001 A 
ATOM     74  C   UNL A   1      35.785  33.298  28.024  1.00  0.00     0.001 A 
ATOM     75  C   UNL A   1      34.694  32.529  27.626  1.00  0.00     0.000 A 
ENDBRANCH  51  70
BRANCH  63  76
ATOM     76  C   UNL A   1      38.460  31.684  35.949  1.00  0.00    -0.014 A 
ATOM     77  C   UNL A   1      37.864  30.922  36.965  1.00  0.00     0.009 A 
ATOM     78  C   UNL A   1      38.570  33.074  36.119  1.00  0.00     0.009 A 
ATOM     79  C   UNL A   1      37.385  31.538  38.123  1.00  0.00     0.001 A 
ATOM     80  C   UNL A   1      38.117  33.684  37.291  1.00  0.00     0.001 A 
ATOM     81  C   UNL A   1      37.523  32.916  38.290  1.00  0.00     0.000 A 
ENDBRANCH  63  76
ENDBRANCH  37  38
ENDBRANCH  30  32
ENDBRANCH  29  30
ENDBRANCH  28  29
ENDBRANCH  27  28
ENDBRANCH  26  27
ENDBRANCH  25  26
ENDBRANCH   1  25
TORSDOF 20
ENDMDL
MODEL 2
REMARK VINA RESULT:      -9.4      3.364      8.710
REMARK SMILES Cc1nn(C)c(=O)c(C(=O)N[C@H](C)CC(=O)OCCOCCOCCOC(=O)c2ccc(-c3c4nc(c(-c5ccccc5)c5ccc([nH]5)c(-c5ccccc5)c5nc(c(-c6ccccc6)c6ccc3[nH]6)C=C5)C=C4)cc2)c1C
REMARK SMILES IDX 21 1 20 2 19 3 18 4 17 5 15 6 16 7 14 8 12 9 13 10 11 11
REMARK SMILES IDX 9 12 10 13 8 15 1 16 2 17 3 18 77 19 4 20 78 21 5 22 6 23
REMARK SMILES IDX 7 24 22 25 23 26 24 27 25 28 26 29 27 30 28 31 29 32 30 33
REMARK SMILES IDX 76 34 31 35 75 36 32 37 33 38 34 39 69 40 35 41 74 42 68 43
REMARK SMILES IDX 70 44 36 45 73 46 67 47 66 48 37 50 59 51 44 52 58 53 45 54
REMARK SMILES IDX 48 55 57 56 71 57 46 58 47 59 56 61 72 62 49 63 38 64 39 65
REMARK SMILES IDX 43 66 40 67 42 68 41 69 60 70 61 71 65 72 62 73 64 74 63 75
REMARK SMILES IDX 50 76 51 77 55 78 52 79 54 80 53 81
REMARK H PARENT 11 14 70 49 48 60
REMARK Flexibility Score: inf
ROOT
ATOM      1  C   UNL A   1      34.052  32.795  28.688  1.00  0.00     0.188 C 
ENDROOT
BRANCH   1   2
ATOM      2  O   UNL A   1      34.472  31.539  28.206  1.00  0.00    -0.376 OA
BRANCH   2   3
ATOM      3  C   UNL A   1      33.704  30.935  27.179  1.00  0.00     0.202 C 
BRANCH   3   4
ATOM      4  C   UNL A   1      33.023  29.576  27.426  1.00  0.00     0.261 C 
BRANCH   4   5
ATOM      5  O   UNL A   1      33.816  28.377  27.208  1.00  0.00    -0.463 OA
BRANCH   5   6
ATOM      6  C   UNL A   1      33.499  27.672  26.086  1.00  0.00     0.307 C 
ATOM      7  O   UNL A   1      33.976  27.906  24.979  1.00  0.00    -0.252 OA
BRANCH   6   8
ATOM      8  C   UNL A   1      32.430  26.599  26.249  1.00  0.00     0.147 C 
BRANCH   8   9
ATOM      9  C   UNL A   1      32.708  25.193  25.712  1.00  0.00     0.090 C 
ATOM     10  C   UNL A   1      31.445  24.312  25.752  1.00  0.00     0.031 C 
BRANCH   9  11
ATOM     11  N   UNL A   1      33.333  25.166  24.362  1.00  0.00    -0.349 N 
ATOM     12  C   UNL A   1      33.933  24.244  23.536  1.00  0.00     0.257 C 
ATOM     13  O   UNL A   1      34.049  24.601  22.362  1.00  0.00    -0.269 OA
ATOM     14  H   UNL A   1      33.310  26.056  23.942  1.00  0.00     0.164 HD
BRANCH  12  15
ATOM     15  C   UNL A   1      34.456  22.904  23.970  1.00  0.00     0.111 A 
ATOM     16  C   UNL A   1      37.609  21.175  24.923  1.00  0.00     0.069 C 
ATOM     17  C   UNL A   1      36.113  21.377  24.845  1.00  0.00     0.062 A 
ATOM     18  N   UNL A   1      35.345  20.349  24.936  1.00  0.00    -0.175 NA
ATOM     19  C   UNL A   1      35.602  22.751  24.645  1.00  0.00    -0.010 A 
ATOM     20  N   UNL A   1      34.019  20.572  24.691  1.00  0.00    -0.232 N 
ATOM     21  C   UNL A   1      36.376  23.807  25.305  1.00  0.00     0.047 C 
ATOM     22  C   UNL A   1      33.140  19.488  25.099  1.00  0.00     0.178 C 
ATOM     23  C   UNL A   1      33.537  21.699  24.009  1.00  0.00     0.279 A 
ATOM     24  O   UNL A   1      32.402  21.746  23.539  1.00  0.00    -0.267 OA
ENDBRANCH  12  15
ENDBRANCH   9  11
ENDBRANCH   8   9
ENDBRANCH   6   8
ENDBRANCH   5   6
ENDBRANCH   4   5
ENDBRANCH   3   4
ENDBRANCH   2   3
ENDBRANCH   1   2
BRANCH   1  25
ATOM     25  C   UNL A   1      34.368  34.073  27.881  1.00  0.00     0.188 C 
BRANCH  25  26
ATOM     26  O   UNL A   1      34.550  35.314  28.530  1.00  0.00    -0.376 OA
BRANCH  26  27
ATOM     27  C   UNL A   1      33.408  35.990  29.025  1.00  0.00     0.202 C 
BRANCH  27  28
ATOM     28  C   UNL A   1      32.971  35.699  30.464  1.00  0.00     0.261 C 
BRANCH  28  29
ATOM     29  O   UNL A   1      34.061  35.576  31.403  1.00  0.00    -0.460 OA
BRANCH  29  30
ATOM     30  C   UNL A   1      34.033  34.475  32.195  1.00  0.00     0.338 C 
ATOM     31  O   UNL A   1      33.085  34.080  32.866  1.00  0.00    -0.246 OA
BRANCH  30  32
ATOM     32  C   UNL A   1      35.260  33.667  32.023  1.00  0.00     0.060 A 
ATOM     33  C   UNL A   1      35.321  32.430  32.673  1.00  0.00     0.016 A 
ATOM     34  C   UNL A   1      36.359  34.113  31.286  1.00  0.00     0.016 A 
ATOM     35  C   UNL A   1      36.446  31.609  32.536  1.00  0.00     0.010 A 
ATOM     36  C   UNL A   1      37.514  33.313  31.200  1.00  0.00     0.010 A 
ATOM     37  C   UNL A   1      37.564  32.051  31.816  1.00  0.00    -0.014 A 
BRANCH  37  38
ATOM     38  C   UNL A   1      38.824  31.258  31.877  1.00  0.00     0.031 A 
ATOM     39  C   UNL A   1      39.790  31.530  32.996  1.00  0.00     0.074 A 
ATOM     40  C   UNL A   1      39.098  30.265  31.008  1.00  0.00     0.049 A 
ATOM     41  N   UNL A   1      40.926  30.944  33.272  1.00  0.00    -0.248 NA
ATOM     42  C   UNL A   1      39.426  32.613  33.925  1.00  0.00     0.031 C 
ATOM     43  C   UNL A   1      38.241  29.860  29.903  1.00  0.00     0.029 A 
ATOM     44  N   UNL A   1      40.163  29.395  30.938  1.00  0.00    -0.354 N 
ATOM     45  C   UNL A   1      41.412  31.582  34.404  1.00  0.00     0.074 A 
ATOM     46  C   UNL A   1      40.456  32.609  34.757  1.00  0.00     0.031 C 
ATOM     47  C   UNL A   1      38.773  28.778  29.304  1.00  0.00     0.029 A 
ATOM     48  C   UNL A   1      40.053  28.461  29.932  1.00  0.00     0.049 A 
ATOM     49  H   UNL A   1      40.933  29.436  31.550  1.00  0.00     0.167 HD
ATOM     50  C   UNL A   1      42.556  31.346  35.085  1.00  0.00     0.031 A 
ATOM     51  C   UNL A   1      40.895  27.479  29.542  1.00  0.00     0.031 A 
ATOM     52  C   UNL A   1      43.539  30.364  34.717  1.00  0.00     0.049 A 
ATOM     53  C   UNL A   1      42.217  27.314  30.249  1.00  0.00     0.074 A 
ATOM     54  C   UNL A   1      44.744  30.085  35.336  1.00  0.00     0.029 A 
ATOM     55  N   UNL A   1      43.438  29.512  33.630  1.00  0.00    -0.354 N 
ATOM     56  N   UNL A   1      42.665  27.926  31.319  1.00  0.00    -0.248 NA
ATOM     57  C   UNL A   1      43.163  26.338  29.682  1.00  0.00     0.031 C 
ATOM     58  C   UNL A   1      45.405  29.110  34.585  1.00  0.00     0.029 A 
ATOM     59  C   UNL A   1      44.579  28.731  33.539  1.00  0.00     0.049 A 
ATOM     60  H   UNL A   1      42.673  29.468  33.013  1.00  0.00     0.167 HD
ATOM     61  C   UNL A   1      43.933  27.406  31.554  1.00  0.00     0.074 A 
ATOM     62  C   UNL A   1      44.176  26.409  30.534  1.00  0.00     0.031 C 
ATOM     63  C   UNL A   1      44.818  27.737  32.525  1.00  0.00     0.031 A 
BRANCH  50  64
ATOM     64  C   UNL A   1      42.831  32.208  36.282  1.00  0.00    -0.014 A 
ATOM     65  C   UNL A   1      43.562  33.401  36.165  1.00  0.00     0.009 A 
ATOM     66  C   UNL A   1      42.319  31.840  37.536  1.00  0.00     0.009 A 
ATOM     67  C   UNL A   1      43.795  34.195  37.288  1.00  0.00     0.001 A 
ATOM     68  C   UNL A   1      42.529  32.652  38.651  1.00  0.00     0.001 A 
ATOM     69  C   UNL A   1      43.273  33.825  38.527  1.00  0.00     0.000 A 
ENDBRANCH  50  64
BRANCH  51  70
ATOM     70  C   UNL A   1      40.550  26.595  28.391  1.00  0.00    -0.014 A 
ATOM     71  C   UNL A   1      41.067  26.852  27.111  1.00  0.00     0.009 A 
ATOM     72  C   UNL A   1      39.673  25.510  28.556  1.00  0.00     0.009 A 
ATOM     73  C   UNL A   1      40.703  26.051  26.023  1.00  0.00     0.001 A 
ATOM     74  C   UNL A   1      39.339  24.690  27.474  1.00  0.00     0.001 A 
ATOM     75  C   UNL A   1      39.846  24.967  26.207  1.00  0.00     0.000 A 
ENDBRANCH  51  70
BRANCH  63  76
ATOM     76  C   UNL A   1      46.140  27.021  32.558  1.00  0.00    -0.014 A 
ATOM     77  C   UNL A   1      47.265  27.543  31.901  1.00  0.00     0.009 A 
ATOM     78  C   UNL A   1      46.291  25.872  33.352  1.00  0.00     0.009 A 
ATOM     79  C   UNL A   1      48.511  26.926  32.034  1.00  0.00     0.001 A 
ATOM     80  C   UNL A   1      47.543  25.274  33.506  1.00  0.00     0.001 A 
ATOM     81  C   UNL A   1      48.651  25.800  32.845  1.00  0.00     0.000 A 
ENDBRANCH  63  76
ENDBRANCH  37  38
ENDBRANCH  30  32
ENDBRANCH  29  30
ENDBRANCH  28  29
ENDBRANCH  27  28
ENDBRANCH  26  27
ENDBRANCH  25  26
ENDBRANCH   1  25
TORSDOF 20
ENDMDL
MODEL 3
REMARK VINA RESULT:      -9.3      4.121      9.797
REMARK SMILES Cc1nn(C)c(=O)c(C(=O)N[C@H](C)CC(=O)OCCOCCOCCOC(=O)c2ccc(-c3c4nc(c(-c5ccccc5)c5ccc([nH]5)c(-c5ccccc5)c5nc(c(-c6ccccc6)c6ccc3[nH]6)C=C5)C=C4)cc2)c1C
REMARK SMILES IDX 21 1 20 2 19 3 18 4 17 5 15 6 16 7 14 8 12 9 13 10 11 11
REMARK SMILES IDX 9 12 10 13 8 15 1 16 2 17 3 18 77 19 4 20 78 21 5 22 6 23
REMARK SMILES IDX 7 24 22 25 23 26 24 27 25 28 26 29 27 30 28 31 29 32 30 33
REMARK SMILES IDX 76 34 31 35 75 36 32 37 33 38 34 39 69 40 35 41 74 42 68 43
REMARK SMILES IDX 70 44 36 45 73 46 67 47 66 48 37 50 59 51 44 52 58 53 45 54
REMARK SMILES IDX 48 55 57 56 71 57 46 58 47 59 56 61 72 62 49 63 38 64 39 65
REMARK SMILES IDX 43 66 40 67 42 68 41 69 60 70 61 71 65 72 62 73 64 74 63 75
REMARK SMILES IDX 50 76 51 77 55 78 52 79 54 80 53 81
REMARK H PARENT 11 14 70 49 48 60
REMARK Flexibility Score: inf
ROOT
ATOM      1  C   UNL A   1      33.599  31.991  28.016  1.00  0.00     0.188 C 
ENDROOT
BRANCH   1   2
ATOM      2  O   UNL A   1      33.560  30.637  27.628  1.00  0.00    -0.376 OA
BRANCH   2   3
ATOM      3  C   UNL A   1      32.808  30.301  26.474  1.00  0.00     0.202 C 
BRANCH   3   4
ATOM      4  C   UNL A   1      32.013  28.983  26.431  1.00  0.00     0.261 C 
BRANCH   4   5
ATOM      5  O   UNL A   1      32.628  27.807  27.024  1.00  0.00    -0.463 OA
BRANCH   5   6
ATOM      6  C   UNL A   1      32.975  26.830  26.140  1.00  0.00     0.307 C 
ATOM      7  O   UNL A   1      33.942  26.908  25.387  1.00  0.00    -0.252 OA
BRANCH   6   8
ATOM      8  C   UNL A   1      32.035  25.634  26.060  1.00  0.00     0.147 C 
BRANCH   8   9
ATOM      9  C   UNL A   1      31.317  25.347  24.739  1.00  0.00     0.090 C 
ATOM     10  C   UNL A   1      30.205  26.378  24.464  1.00  0.00     0.031 C 
BRANCH   9  11
ATOM     11  N   UNL A   1      32.223  25.218  23.566  1.00  0.00    -0.349 N 
ATOM     12  C   UNL A   1      33.053  24.267  23.021  1.00  0.00     0.257 C 
ATOM     13  O   UNL A   1      33.398  24.488  21.858  1.00  0.00    -0.269 OA
ATOM     14  H   UNL A   1      32.229  26.043  23.030  1.00  0.00     0.164 HD
BRANCH  12  15
ATOM     15  C   UNL A   1      33.563  23.049  23.738  1.00  0.00     0.111 A 
ATOM     16  C   UNL A   1      32.528  19.631  24.778  1.00  0.00     0.069 C 
ATOM     17  C   UNL A   1      33.500  20.742  24.457  1.00  0.00     0.062 A 
ATOM     18  N   UNL A   1      34.669  20.714  24.993  1.00  0.00    -0.175 NA
ATOM     19  C   UNL A   1      33.053  21.825  23.554  1.00  0.00    -0.010 A 
ATOM     20  N   UNL A   1      35.441  21.826  24.800  1.00  0.00    -0.232 N 
ATOM     21  C   UNL A   1      32.151  21.406  22.476  1.00  0.00     0.047 C 
ATOM     22  C   UNL A   1      36.844  21.652  25.138  1.00  0.00     0.178 C 
ATOM     23  C   UNL A   1      34.921  23.070  24.411  1.00  0.00     0.279 A 
ATOM     24  O   UNL A   1      35.560  24.113  24.528  1.00  0.00    -0.267 OA
ENDBRANCH  12  15
ENDBRANCH   9  11
ENDBRANCH   8   9
ENDBRANCH   6   8
ENDBRANCH   5   6
ENDBRANCH   4   5
ENDBRANCH   3   4
ENDBRANCH   2   3
ENDBRANCH   1   2
BRANCH   1  25
ATOM     25  C   UNL A   1      34.931  32.770  27.962  1.00  0.00     0.188 C 
BRANCH  25  26
ATOM     26  O   UNL A   1      35.238  33.749  28.932  1.00  0.00    -0.376 OA
BRANCH  26  27
ATOM     27  C   UNL A   1      34.268  34.048  29.920  1.00  0.00     0.202 C 
BRANCH  27  28
ATOM     28  C   UNL A   1      34.407  33.370  31.287  1.00  0.00     0.261 C 
BRANCH  28  29
ATOM     29  O   UNL A   1      35.006  32.058  31.243  1.00  0.00    -0.460 OA
BRANCH  29  30
ATOM     30  C   UNL A   1      36.024  31.846  32.113  1.00  0.00     0.338 C 
ATOM     31  O   UNL A   1      35.980  31.959  33.333  1.00  0.00    -0.246 OA
BRANCH  30  32
ATOM     32  C   UNL A   1      37.199  31.269  31.423  1.00  0.00     0.060 A 
ATOM     33  C   UNL A   1      38.255  30.804  32.214  1.00  0.00     0.016 A 
ATOM     34  C   UNL A   1      37.307  31.221  30.032  1.00  0.00     0.016 A 
ATOM     35  C   UNL A   1      39.387  30.230  31.624  1.00  0.00     0.010 A 
ATOM     36  C   UNL A   1      38.473  30.701  29.439  1.00  0.00     0.010 A 
ATOM     37  C   UNL A   1      39.519  30.193  30.230  1.00  0.00    -0.014 A 
BRANCH  37  38
ATOM     38  C   UNL A   1      40.824  29.786  29.637  1.00  0.00     0.031 A 
ATOM     39  C   UNL A   1      40.973  28.381  29.126  1.00  0.00     0.074 A 
ATOM     40  C   UNL A   1      41.850  30.647  29.484  1.00  0.00     0.049 A 
ATOM     41  N   UNL A   1      41.998  27.816  28.541  1.00  0.00    -0.248 NA
ATOM     42  C   UNL A   1      39.812  27.494  29.304  1.00  0.00     0.031 C 
ATOM     43  C   UNL A   1      41.837  32.045  29.890  1.00  0.00     0.029 A 
ATOM     44  N   UNL A   1      43.093  30.478  28.915  1.00  0.00    -0.354 N 
ATOM     45  C   UNL A   1      41.606  26.511  28.279  1.00  0.00     0.074 A 
ATOM     46  C   UNL A   1      40.257  26.363  28.780  1.00  0.00     0.031 C 
ATOM     47  C   UNL A   1      42.983  32.630  29.499  1.00  0.00     0.029 A 
ATOM     48  C   UNL A   1      43.851  31.627  28.884  1.00  0.00     0.049 A 
ATOM     49  H   UNL A   1      43.410  29.616  28.563  1.00  0.00     0.167 HD
ATOM     50  C   UNL A   1      42.307  25.518  27.686  1.00  0.00     0.031 A 
ATOM     51  C   UNL A   1      45.106  31.845  28.438  1.00  0.00     0.031 A 
ATOM     52  C   UNL A   1      43.665  25.636  27.230  1.00  0.00     0.049 A 
ATOM     53  C   UNL A   1      45.906  30.692  27.886  1.00  0.00     0.074 A 
ATOM     54  C   UNL A   1      44.461  24.665  26.649  1.00  0.00     0.029 A 
ATOM     55  N   UNL A   1      44.432  26.787  27.315  1.00  0.00    -0.354 N 
ATOM     56  N   UNL A   1      45.524  29.461  27.646  1.00  0.00    -0.248 NA
ATOM     57  C   UNL A   1      47.321  30.949  27.566  1.00  0.00     0.031 C 
ATOM     58  C   UNL A   1      45.731  25.208  26.441  1.00  0.00     0.029 A 
ATOM     59  C   UNL A   1      45.705  26.538  26.828  1.00  0.00     0.049 A 
ATOM     60  H   UNL A   1      44.120  27.650  27.668  1.00  0.00     0.167 HD
ATOM     61  C   UNL A   1      46.642  28.805  27.141  1.00  0.00     0.074 A 
ATOM     62  C   UNL A   1      47.712  29.777  27.084  1.00  0.00     0.031 C 
ATOM     63  C   UNL A   1      46.768  27.508  26.770  1.00  0.00     0.031 A 
BRANCH  50  64
ATOM     64  C   UNL A   1      41.625  24.189  27.541  1.00  0.00    -0.014 A 
ATOM     65  C   UNL A   1      40.666  23.972  26.539  1.00  0.00     0.009 A 
ATOM     66  C   UNL A   1      41.974  23.132  28.395  1.00  0.00     0.009 A 
ATOM     67  C   UNL A   1      40.053  22.726  26.411  1.00  0.00     0.001 A 
ATOM     68  C   UNL A   1      41.380  21.878  28.245  1.00  0.00     0.001 A 
ATOM     69  C   UNL A   1      40.415  21.678  27.259  1.00  0.00     0.000 A 
ENDBRANCH  50  64
BRANCH  51  70
ATOM     70  C   UNL A   1      45.723  33.200  28.534  1.00  0.00    -0.014 A 
ATOM     71  C   UNL A   1      46.403  33.598  29.697  1.00  0.00     0.009 A 
ATOM     72  C   UNL A   1      45.605  34.120  27.478  1.00  0.00     0.009 A 
ATOM     73  C   UNL A   1      46.937  34.886  29.803  1.00  0.00     0.001 A 
ATOM     74  C   UNL A   1      46.170  35.394  27.574  1.00  0.00     0.001 A 
ATOM     75  C   UNL A   1      46.827  35.781  28.740  1.00  0.00     0.000 A 
ENDBRANCH  51  70
BRANCH  63  76
ATOM     76  C   UNL A   1      48.102  27.040  26.256  1.00  0.00    -0.014 A 
ATOM     77  C   UNL A   1      49.029  26.417  27.104  1.00  0.00     0.009 A 
ATOM     78  C   UNL A   1      48.386  27.120  24.883  1.00  0.00     0.009 A 
ATOM     79  C   UNL A   1      50.215  25.889  26.590  1.00  0.00     0.001 A 
ATOM     80  C   UNL A   1      49.559  26.565  24.366  1.00  0.00     0.001 A 
ATOM     81  C   UNL A   1      50.473  25.953  25.221  1.00  0.00     0.000 A 
ENDBRANCH  63  76
ENDBRANCH  37  38
ENDBRANCH  30  32
ENDBRANCH  29  30
ENDBRANCH  28  29
ENDBRANCH  27  28
ENDBRANCH  26  27
ENDBRANCH  25  26
ENDBRANCH   1  25
TORSDOF 20
ENDMDL
