MODEL 1
REMARK VINA RESULT:     -10.1      0.000      0.000
REMARK SMILES C[C@@H](C(=O)OCCOCCOCCOC(=O)c1ccc(-c2c3nc(c(-c4ccccc4)c4ccc([nH]4)c(-c4ccccc4)c4nc(c(-c5ccccc5)c5ccc2[nH]5)C=C4)C=C3)cc1)c1ccc(C[C@H]2CCC[C@@H]2O)cc1Br
REMARK SMILES IDX 9 1 8 2 7 3 6 4 5 5 3 6 4 7 2 8 1 9 65 10 66 11 77 12 67 13
REMARK SMILES IDX 76 14 78 15 68 16 69 17 70 18 71 19 74 20 72 21 73 22 75 23
REMARK SMILES IDX 10 25 11 26 12 27 13 28 14 29 15 30 16 31 17 32 18 33 64 34
REMARK SMILES IDX 19 35 63 36 20 37 21 38 22 39 57 40 23 41 62 42 56 43 58 44
REMARK SMILES IDX 24 45 61 46 55 47 54 48 25 50 47 51 32 52 46 53 33 54 36 55
REMARK SMILES IDX 45 56 59 57 34 58 35 59 44 61 60 62 37 63 26 64 27 65 31 66
REMARK SMILES IDX 28 67 30 68 29 69 48 70 49 71 53 72 50 73 52 74 51 75 38 76
REMARK SMILES IDX 39 77 43 78 40 79 42 80 41 81
REMARK H PARENT 75 24 58 49 36 60
REMARK Flexibility Score: inf
ROOT
ATOM      1  C   UNL A   1      34.620  31.527  27.722  1.00  0.00     0.188 C 
ENDROOT
BRANCH   1   2
ATOM      2  O   UNL A   1      33.639  30.500  27.652  1.00  0.00    -0.376 OA
BRANCH   2   3
ATOM      3  C   UNL A   1      32.567  30.801  26.775  1.00  0.00     0.202 C 
BRANCH   3   4
ATOM      4  C   UNL A   1      31.663  29.612  26.413  1.00  0.00     0.261 C 
BRANCH   4   5
ATOM      5  O   UNL A   1      31.944  28.942  25.169  1.00  0.00    -0.463 OA
BRANCH   5   6
ATOM      6  C   UNL A   1      30.943  28.799  24.256  1.00  0.00     0.313 C 
ATOM      7  O   UNL A   1      30.223  29.721  23.895  1.00  0.00    -0.252 OA
BRANCH   6   8
ATOM      8  C   UNL A   1      30.726  27.328  23.862  1.00  0.00     0.127 C 
ATOM      9  C   UNL A   1      29.353  26.703  24.182  1.00  0.00     0.025 C 
BRANCH   8  10
ATOM     10  C   UNL A   1      31.831  26.338  24.245  1.00  0.00    -0.020 A 
ATOM     11  C   UNL A   1      31.858  25.890  25.580  1.00  0.00     0.006 A 
ATOM     12  C   UNL A   1      32.893  25.917  23.431  1.00  0.00     0.022 A 
ATOM     13  C   UNL A   1      32.908  25.101  26.074  1.00  0.00     0.004 A 
ATOM     14  C   UNL A   1      34.006  25.267  23.973  1.00  0.00     0.019 A 
ATOM     15  Br  UNL A   1      32.903  25.929  21.547  1.00  0.00    -0.050 Br
ATOM     16  C   UNL A   1      34.029  24.836  25.293  1.00  0.00    -0.047 A 
BRANCH  16  17
ATOM     17  C   UNL A   1      35.212  24.027  25.768  1.00  0.00     0.041 C 
BRANCH  17  18
ATOM     18  C   UNL A   1      35.518  22.725  25.023  1.00  0.00     0.022 C 
ATOM     19  C   UNL A   1      36.753  22.724  24.107  1.00  0.00     0.007 C 
ATOM     20  C   UNL A   1      35.697  21.508  25.926  1.00  0.00     0.117 C 
ATOM     21  C   UNL A   1      37.391  21.339  24.278  1.00  0.00     0.003 C 
ATOM     22  C   UNL A   1      36.351  20.497  25.003  1.00  0.00     0.032 C 
BRANCH  20  23
ATOM     23  O   UNL A   1      34.450  21.067  26.426  1.00  0.00    -0.393 OA
ATOM     24  H   UNL A   1      34.396  20.102  26.354  1.00  0.00     0.210 HD
ENDBRANCH  20  23
ENDBRANCH  17  18
ENDBRANCH  16  17
ENDBRANCH   8  10
ENDBRANCH   6   8
ENDBRANCH   5   6
ENDBRANCH   4   5
ENDBRANCH   3   4
ENDBRANCH   2   3
ENDBRANCH   1   2
BRANCH   1  25
ATOM     25  C   UNL A   1      34.000  32.866  28.116  1.00  0.00     0.188 C 
BRANCH  25  26
ATOM     26  O   UNL A   1      34.728  33.784  28.910  1.00  0.00    -0.376 OA
BRANCH  26  27
ATOM     27  C   UNL A   1      34.050  34.425  29.972  1.00  0.00     0.202 C 
BRANCH  27  28
ATOM     28  C   UNL A   1      34.397  34.003  31.407  1.00  0.00     0.261 C 
BRANCH  28  29
ATOM     29  O   UNL A   1      34.688  32.614  31.600  1.00  0.00    -0.460 OA
BRANCH  29  30
ATOM     30  C   UNL A   1      35.663  32.338  32.510  1.00  0.00     0.338 C 
ATOM     31  O   UNL A   1      35.642  32.562  33.696  1.00  0.00    -0.246 OA
BRANCH  30  32
ATOM     32  C   UNL A   1      36.746  31.586  31.813  1.00  0.00     0.060 A 
ATOM     33  C   UNL A   1      37.762  31.006  32.580  1.00  0.00     0.016 A 
ATOM     34  C   UNL A   1      36.757  31.446  30.419  1.00  0.00     0.016 A 
ATOM     35  C   UNL A   1      38.808  30.319  31.953  1.00  0.00     0.010 A 
ATOM     36  C   UNL A   1      37.809  30.770  29.793  1.00  0.00     0.010 A 
ATOM     37  C   UNL A   1      38.856  30.226  30.553  1.00  0.00    -0.014 A 
BRANCH  37  38
ATOM     38  C   UNL A   1      40.084  29.729  29.881  1.00  0.00     0.031 A 
ATOM     39  C   UNL A   1      41.240  30.674  29.711  1.00  0.00     0.074 A 
ATOM     40  C   UNL A   1      40.187  28.469  29.420  1.00  0.00     0.049 A 
ATOM     41  N   UNL A   1      42.418  30.458  29.184  1.00  0.00    -0.248 NA
ATOM     42  C   UNL A   1      41.032  32.052  30.185  1.00  0.00     0.031 C 
ATOM     43  C   UNL A   1      39.139  27.460  29.490  1.00  0.00     0.029 A 
ATOM     44  N   UNL A   1      41.235  27.823  28.811  1.00  0.00    -0.354 N 
ATOM     45  C   UNL A   1      43.091  31.669  29.262  1.00  0.00     0.074 A 
ATOM     46  C   UNL A   1      42.184  32.621  29.868  1.00  0.00     0.031 C 
ATOM     47  C   UNL A   1      39.612  26.299  29.004  1.00  0.00     0.029 A 
ATOM     48  C   UNL A   1      40.975  26.505  28.517  1.00  0.00     0.049 A 
ATOM     49  H   UNL A   1      42.092  28.261  28.604  1.00  0.00     0.167 HD
ATOM     50  C   UNL A   1      44.348  31.971  28.860  1.00  0.00     0.031 A 
ATOM     51  C   UNL A   1      41.740  25.577  27.907  1.00  0.00     0.031 A 
ATOM     52  C   UNL A   1      45.235  31.053  28.198  1.00  0.00     0.049 A 
ATOM     53  C   UNL A   1      43.112  25.956  27.410  1.00  0.00     0.074 A 
ATOM     54  C   UNL A   1      46.520  31.278  27.737  1.00  0.00     0.029 A 
ATOM     55  N   UNL A   1      44.920  29.741  27.882  1.00  0.00    -0.354 N 
ATOM     56  N   UNL A   1      43.752  27.093  27.530  1.00  0.00    -0.248 NA
ATOM     57  C   UNL A   1      43.861  24.921  26.681  1.00  0.00     0.031 C 
ATOM     58  C   UNL A   1      46.962  30.119  27.089  1.00  0.00     0.029 A 
ATOM     59  C   UNL A   1      45.977  29.152  27.209  1.00  0.00     0.049 A 
ATOM     60  H   UNL A   1      44.072  29.293  28.106  1.00  0.00     0.167 HD
ATOM     61  C   UNL A   1      44.980  26.906  26.907  1.00  0.00     0.074 A 
ATOM     62  C   UNL A   1      45.008  25.538  26.433  1.00  0.00     0.031 C 
ATOM     63  C   UNL A   1      45.995  27.790  26.739  1.00  0.00     0.031 A 
BRANCH  50  64
ATOM     64  C   UNL A   1      44.810  33.383  29.082  1.00  0.00    -0.014 A 
ATOM     65  C   UNL A   1      45.473  33.751  30.264  1.00  0.00     0.009 A 
ATOM     66  C   UNL A   1      44.582  34.355  28.097  1.00  0.00     0.009 A 
ATOM     67  C   UNL A   1      45.863  35.076  30.470  1.00  0.00     0.001 A 
ATOM     68  C   UNL A   1      44.999  35.672  28.294  1.00  0.00     0.001 A 
ATOM     69  C   UNL A   1      45.628  36.034  29.483  1.00  0.00     0.000 A 
ENDBRANCH  50  64
BRANCH  51  70
ATOM     70  C   UNL A   1      41.223  24.197  27.689  1.00  0.00    -0.014 A 
ATOM     71  C   UNL A   1      41.806  23.102  28.346  1.00  0.00     0.009 A 
ATOM     72  C   UNL A   1      40.174  23.962  26.786  1.00  0.00     0.009 A 
ATOM     73  C   UNL A   1      41.368  21.801  28.081  1.00  0.00     0.001 A 
ATOM     74  C   UNL A   1      39.715  22.664  26.550  1.00  0.00     0.001 A 
ATOM     75  C   UNL A   1      40.321  21.584  27.188  1.00  0.00     0.000 A 
ENDBRANCH  51  70
BRANCH  63  76
ATOM     76  C   UNL A   1      47.235  27.303  26.040  1.00  0.00    -0.014 A 
ATOM     77  C   UNL A   1      48.315  26.762  26.754  1.00  0.00     0.009 A 
ATOM     78  C   UNL A   1      47.299  27.337  24.637  1.00  0.00     0.009 A 
ATOM     79  C   UNL A   1      49.446  26.295  26.078  1.00  0.00     0.001 A 
ATOM     80  C   UNL A   1      48.416  26.842  23.964  1.00  0.00     0.001 A 
ATOM     81  C   UNL A   1      49.493  26.329  24.686  1.00  0.00     0.000 A 
ENDBRANCH  63  76
ENDBRANCH  37  38
ENDBRANCH  30  32
ENDBRANCH  29  30
ENDBRANCH  28  29
ENDBRANCH  27  28
ENDBRANCH  26  27
ENDBRANCH  25  26
ENDBRANCH   1  25
TORSDOF 21
ENDMDL
MODEL 2
REMARK VINA RESULT:     -10.0      2.806      4.079
REMARK SMILES C[C@@H](C(=O)OCCOCCOCCOC(=O)c1ccc(-c2c3nc(c(-c4ccccc4)c4ccc([nH]4)c(-c4ccccc4)c4nc(c(-c5ccccc5)c5ccc2[nH]5)C=C4)C=C3)cc1)c1ccc(C[C@H]2CCC[C@@H]2O)cc1Br
REMARK SMILES IDX 9 1 8 2 7 3 6 4 5 5 3 6 4 7 2 8 1 9 65 10 66 11 77 12 67 13
REMARK SMILES IDX 76 14 78 15 68 16 69 17 70 18 71 19 74 20 72 21 73 22 75 23
REMARK SMILES IDX 10 25 11 26 12 27 13 28 14 29 15 30 16 31 17 32 18 33 64 34
REMARK SMILES IDX 19 35 63 36 20 37 21 38 22 39 57 40 23 41 62 42 56 43 58 44
REMARK SMILES IDX 24 45 61 46 55 47 54 48 25 50 47 51 32 52 46 53 33 54 36 55
REMARK SMILES IDX 45 56 59 57 34 58 35 59 44 61 60 62 37 63 26 64 27 65 31 66
REMARK SMILES IDX 28 67 30 68 29 69 48 70 49 71 53 72 50 73 52 74 51 75 38 76
REMARK SMILES IDX 39 77 43 78 40 79 42 80 41 81
REMARK H PARENT 75 24 58 49 36 60
REMARK Flexibility Score: inf
ROOT
ATOM      1  C   UNL A   1      30.298  29.020  23.580  1.00  0.00     0.188 C 
ENDROOT
BRANCH   1   2
ATOM      2  O   UNL A   1      30.110  27.763  22.945  1.00  0.00    -0.376 OA
BRANCH   2   3
ATOM      3  C   UNL A   1      29.135  26.949  23.576  1.00  0.00     0.202 C 
BRANCH   3   4
ATOM      4  C   UNL A   1      29.664  26.047  24.701  1.00  0.00     0.261 C 
BRANCH   4   5
ATOM      5  O   UNL A   1      31.092  25.870  24.770  1.00  0.00    -0.463 OA
BRANCH   5   6
ATOM      6  C   UNL A   1      31.690  25.797  25.992  1.00  0.00     0.313 C 
ATOM      7  O   UNL A   1      31.306  26.427  26.969  1.00  0.00    -0.252 OA
BRANCH   6   8
ATOM      8  C   UNL A   1      32.984  24.966  25.954  1.00  0.00     0.127 C 
ATOM      9  C   UNL A   1      34.212  25.596  25.265  1.00  0.00     0.025 C 
BRANCH   8  10
ATOM     10  C   UNL A   1      32.856  23.504  25.515  1.00  0.00    -0.020 A 
ATOM     11  C   UNL A   1      33.942  22.947  24.812  1.00  0.00     0.006 A 
ATOM     12  C   UNL A   1      31.720  22.692  25.638  1.00  0.00     0.022 A 
ATOM     13  C   UNL A   1      33.874  21.669  24.237  1.00  0.00     0.004 A 
ATOM     14  C   UNL A   1      31.608  21.492  24.930  1.00  0.00     0.019 A 
ATOM     15  Br  UNL A   1      30.331  22.931  26.888  1.00  0.00    -0.050 Br
ATOM     16  C   UNL A   1      32.681  20.952  24.232  1.00  0.00    -0.047 A 
BRANCH  16  17
ATOM     17  C   UNL A   1      32.521  19.590  23.602  1.00  0.00     0.041 C 
BRANCH  17  18
ATOM     18  C   UNL A   1      33.197  18.407  24.301  1.00  0.00     0.022 C 
ATOM     19  C   UNL A   1      32.726  18.084  25.728  1.00  0.00     0.007 C 
ATOM     20  C   UNL A   1      33.100  17.086  23.545  1.00  0.00     0.117 C 
ATOM     21  C   UNL A   1      32.718  16.553  25.822  1.00  0.00     0.003 C 
ATOM     22  C   UNL A   1      33.483  16.065  24.600  1.00  0.00     0.032 C 
BRANCH  20  23
ATOM     23  O   UNL A   1      33.972  17.079  22.433  1.00  0.00    -0.393 OA
ATOM     24  H   UNL A   1      33.805  16.290  21.896  1.00  0.00     0.210 HD
ENDBRANCH  20  23
ENDBRANCH  17  18
ENDBRANCH  16  17
ENDBRANCH   8  10
ENDBRANCH   6   8
ENDBRANCH   5   6
ENDBRANCH   4   5
ENDBRANCH   3   4
ENDBRANCH   2   3
ENDBRANCH   1   2
BRANCH   1  25
ATOM     25  C   UNL A   1      31.724  29.174  24.103  1.00  0.00     0.188 C 
BRANCH  25  26
ATOM     26  O   UNL A   1      31.963  29.330  25.490  1.00  0.00    -0.376 OA
BRANCH  26  27
ATOM     27  C   UNL A   1      31.879  30.633  26.034  1.00  0.00     0.202 C 
BRANCH  27  28
ATOM     28  C   UNL A   1      32.621  30.912  27.349  1.00  0.00     0.261 C 
BRANCH  28  29
ATOM     29  O   UNL A   1      34.010  30.563  27.374  1.00  0.00    -0.460 OA
BRANCH  29  30
ATOM     30  C   UNL A   1      34.739  31.119  28.381  1.00  0.00     0.338 C 
ATOM     31  O   UNL A   1      34.389  31.986  29.145  1.00  0.00    -0.246 OA
BRANCH  30  32
ATOM     32  C   UNL A   1      36.033  30.385  28.473  1.00  0.00     0.060 A 
ATOM     33  C   UNL A   1      36.348  29.728  29.667  1.00  0.00     0.016 A 
ATOM     34  C   UNL A   1      36.924  30.338  27.394  1.00  0.00     0.016 A 
ATOM     35  C   UNL A   1      37.569  29.055  29.796  1.00  0.00     0.010 A 
ATOM     36  C   UNL A   1      38.149  29.676  27.528  1.00  0.00     0.010 A 
ATOM     37  C   UNL A   1      38.492  29.053  28.738  1.00  0.00    -0.014 A 
BRANCH  37  38
ATOM     38  C   UNL A   1      39.879  28.568  28.959  1.00  0.00     0.031 A 
ATOM     39  C   UNL A   1      40.856  29.480  29.646  1.00  0.00     0.074 A 
ATOM     40  C   UNL A   1      40.281  27.348  28.562  1.00  0.00     0.049 A 
ATOM     41  N   UNL A   1      42.105  29.265  29.971  1.00  0.00    -0.248 NA
ATOM     42  C   UNL A   1      40.361  30.821  29.997  1.00  0.00     0.031 C 
ATOM     43  C   UNL A   1      39.452  26.376  27.862  1.00  0.00     0.029 A 
ATOM     44  N   UNL A   1      41.492  26.715  28.704  1.00  0.00    -0.354 N 
ATOM     45  C   UNL A   1      42.546  30.440  30.564  1.00  0.00     0.074 A 
ATOM     46  C   UNL A   1      41.438  31.371  30.535  1.00  0.00     0.031 C 
ATOM     47  C   UNL A   1      40.154  25.242  27.688  1.00  0.00     0.029 A 
ATOM     48  C   UNL A   1      41.510  25.436  28.199  1.00  0.00     0.049 A 
ATOM     49  H   UNL A   1      42.274  27.136  29.128  1.00  0.00     0.167 HD
ATOM     50  C   UNL A   1      43.764  30.727  31.080  1.00  0.00     0.031 A 
ATOM     51  C   UNL A   1      42.510  24.534  28.136  1.00  0.00     0.031 A 
ATOM     52  C   UNL A   1      44.891  29.834  31.056  1.00  0.00     0.049 A 
ATOM     53  C   UNL A   1      43.875  24.901  28.659  1.00  0.00     0.074 A 
ATOM     54  C   UNL A   1      46.170  30.049  31.538  1.00  0.00     0.029 A 
ATOM     55  N   UNL A   1      44.880  28.565  30.500  1.00  0.00    -0.354 N 
ATOM     56  N   UNL A   1      44.265  26.000  29.257  1.00  0.00    -0.248 NA
ATOM     57  C   UNL A   1      44.942  23.902  28.486  1.00  0.00     0.031 C 
ATOM     58  C   UNL A   1      46.950  28.931  31.221  1.00  0.00     0.029 A 
ATOM     59  C   UNL A   1      46.137  27.994  30.603  1.00  0.00     0.049 A 
ATOM     60  H   UNL A   1      44.094  28.132  30.093  1.00  0.00     0.167 HD
ATOM     61  C   UNL A   1      45.614  25.819  29.543  1.00  0.00     0.074 A 
ATOM     62  C   UNL A   1      45.969  24.495  29.078  1.00  0.00     0.031 C 
ATOM     63  C   UNL A   1      46.482  26.676  30.135  1.00  0.00     0.031 A 
BRANCH  50  64
ATOM     64  C   UNL A   1      43.946  32.098  31.667  1.00  0.00    -0.014 A 
ATOM     65  C   UNL A   1      43.710  32.339  33.030  1.00  0.00     0.009 A 
ATOM     66  C   UNL A   1      44.359  33.158  30.848  1.00  0.00     0.009 A 
ATOM     67  C   UNL A   1      43.848  33.627  33.552  1.00  0.00     0.001 A 
ATOM     68  C   UNL A   1      44.524  34.438  31.379  1.00  0.00     0.001 A 
ATOM     69  C   UNL A   1      44.258  34.674  32.726  1.00  0.00     0.000 A 
ENDBRANCH  50  64
BRANCH  51  70
ATOM     70  C   UNL A   1      42.283  23.197  27.520  1.00  0.00    -0.014 A 
ATOM     71  C   UNL A   1      41.672  22.166  28.252  1.00  0.00     0.009 A 
ATOM     72  C   UNL A   1      42.718  22.929  26.212  1.00  0.00     0.009 A 
ATOM     73  C   UNL A   1      41.529  20.891  27.697  1.00  0.00     0.001 A 
ATOM     74  C   UNL A   1      42.543  21.664  25.648  1.00  0.00     0.001 A 
ATOM     75  C   UNL A   1      41.960  20.643  26.395  1.00  0.00     0.000 A 
ENDBRANCH  51  70
BRANCH  63  76
ATOM     76  C   UNL A   1      47.895  26.202  30.344  1.00  0.00    -0.014 A 
ATOM     77  C   UNL A   1      48.856  26.287  29.325  1.00  0.00     0.009 A 
ATOM     78  C   UNL A   1      48.283  25.712  31.602  1.00  0.00     0.009 A 
ATOM     79  C   UNL A   1      50.167  25.861  29.553  1.00  0.00     0.001 A 
ATOM     80  C   UNL A   1      49.600  25.316  31.836  1.00  0.00     0.001 A 
ATOM     81  C   UNL A   1      50.540  25.383  30.808  1.00  0.00     0.000 A 
ENDBRANCH  63  76
ENDBRANCH  37  38
ENDBRANCH  30  32
ENDBRANCH  29  30
ENDBRANCH  28  29
ENDBRANCH  27  28
ENDBRANCH  26  27
ENDBRANCH  25  26
ENDBRANCH   1  25
TORSDOF 21
ENDMDL
MODEL 3
REMARK VINA RESULT:      -9.9      1.228      5.965
REMARK SMILES C[C@@H](C(=O)OCCOCCOCCOC(=O)c1ccc(-c2c3nc(c(-c4ccccc4)c4ccc([nH]4)c(-c4ccccc4)c4nc(c(-c5ccccc5)c5ccc2[nH]5)C=C4)C=C3)cc1)c1ccc(C[C@H]2CCC[C@@H]2O)cc1Br
REMARK SMILES IDX 9 1 8 2 7 3 6 4 5 5 3 6 4 7 2 8 1 9 65 10 66 11 77 12 67 13
REMARK SMILES IDX 76 14 78 15 68 16 69 17 70 18 71 19 74 20 72 21 73 22 75 23
REMARK SMILES IDX 10 25 11 26 12 27 13 28 14 29 15 30 16 31 17 32 18 33 64 34
REMARK SMILES IDX 19 35 63 36 20 37 21 38 22 39 57 40 23 41 62 42 56 43 58 44
REMARK SMILES IDX 24 45 61 46 55 47 54 48 25 50 47 51 32 52 46 53 33 54 36 55
REMARK SMILES IDX 45 56 59 57 34 58 35 59 44 61 60 62 37 63 26 64 27 65 31 66
REMARK SMILES IDX 28 67 30 68 29 69 48 70 49 71 53 72 50 73 52 74 51 75 38 76
REMARK SMILES IDX 39 77 43 78 40 79 42 80 41 81
REMARK H PARENT 75 24 58 49 36 60
REMARK Flexibility Score: inf
ROOT
ATOM      1  C   UNL A   1      34.204  33.159  28.230  1.00  0.00     0.188 C 
ENDROOT
BRANCH   1   2
ATOM      2  O   UNL A   1      33.465  32.097  27.642  1.00  0.00    -0.376 OA
BRANCH   2   3
ATOM      3  C   UNL A   1      33.975  30.811  27.953  1.00  0.00     0.202 C 
BRANCH   3   4
ATOM      4  C   UNL A   1      33.892  29.781  26.817  1.00  0.00     0.261 C 
BRANCH   4   5
ATOM      5  O   UNL A   1      33.536  28.435  27.189  1.00  0.00    -0.463 OA
BRANCH   5   6
ATOM      6  C   UNL A   1      32.277  27.988  26.926  1.00  0.00     0.313 C 
ATOM      7  O   UNL A   1      31.406  27.888  27.781  1.00  0.00    -0.252 OA
BRANCH   6   8
ATOM      8  C   UNL A   1      32.134  27.478  25.482  1.00  0.00     0.127 C 
ATOM      9  C   UNL A   1      30.735  27.557  24.837  1.00  0.00     0.025 C 
BRANCH   8  10
ATOM     10  C   UNL A   1      32.759  26.116  25.163  1.00  0.00    -0.020 A 
ATOM     11  C   UNL A   1      32.808  25.171  26.206  1.00  0.00     0.006 A 
ATOM     12  C   UNL A   1      33.396  25.750  23.969  1.00  0.00     0.022 A 
ATOM     13  C   UNL A   1      33.488  23.952  26.069  1.00  0.00     0.004 A 
ATOM     14  C   UNL A   1      34.199  24.608  23.898  1.00  0.00     0.019 A 
ATOM     15  Br  UNL A   1      33.107  26.542  22.284  1.00  0.00    -0.050 Br
ATOM     16  C   UNL A   1      34.249  23.684  24.935  1.00  0.00    -0.047 A 
BRANCH  16  17
ATOM     17  C   UNL A   1      35.036  22.412  24.731  1.00  0.00     0.041 C 
BRANCH  17  18
ATOM     18  C   UNL A   1      34.324  21.089  25.028  1.00  0.00     0.022 C 
ATOM     19  C   UNL A   1      32.895  20.934  24.485  1.00  0.00     0.007 C 
ATOM     20  C   UNL A   1      35.068  19.849  24.542  1.00  0.00     0.117 C 
ATOM     21  C   UNL A   1      32.786  19.475  24.025  1.00  0.00     0.003 C 
ATOM     22  C   UNL A   1      34.003  18.770  24.608  1.00  0.00     0.032 C 
BRANCH  20  23
ATOM     23  O   UNL A   1      36.179  19.573  25.370  1.00  0.00    -0.393 OA
ATOM     24  H   UNL A   1      36.680  20.389  25.523  1.00  0.00     0.210 HD
ENDBRANCH  20  23
ENDBRANCH  17  18
ENDBRANCH  16  17
ENDBRANCH   8  10
ENDBRANCH   6   8
ENDBRANCH   5   6
ENDBRANCH   4   5
ENDBRANCH   3   4
ENDBRANCH   2   3
ENDBRANCH   1   2
BRANCH   1  25
ATOM     25  C   UNL A   1      33.282  34.258  28.752  1.00  0.00     0.188 C 
BRANCH  25  26
ATOM     26  O   UNL A   1      33.541  34.873  30.001  1.00  0.00    -0.376 OA
BRANCH  26  27
ATOM     27  C   UNL A   1      34.642  34.405  30.755  1.00  0.00     0.202 C 
BRANCH  27  28
ATOM     28  C   UNL A   1      34.352  33.657  32.064  1.00  0.00     0.261 C 
BRANCH  28  29
ATOM     29  O   UNL A   1      34.839  32.312  32.141  1.00  0.00    -0.460 OA
BRANCH  29  30
ATOM     30  C   UNL A   1      35.963  32.135  32.891  1.00  0.00     0.338 C 
ATOM     31  O   UNL A   1      36.093  32.341  34.073  1.00  0.00    -0.246 OA
BRANCH  30  32
ATOM     32  C   UNL A   1      37.004  31.516  32.022  1.00  0.00     0.060 A 
ATOM     33  C   UNL A   1      37.997  30.732  32.620  1.00  0.00     0.016 A 
ATOM     34  C   UNL A   1      37.001  31.699  30.634  1.00  0.00     0.016 A 
ATOM     35  C   UNL A   1      39.006  30.161  31.836  1.00  0.00     0.010 A 
ATOM     36  C   UNL A   1      38.017  31.138  29.853  1.00  0.00     0.010 A 
ATOM     37  C   UNL A   1      39.041  30.389  30.451  1.00  0.00    -0.014 A 
BRANCH  37  38
ATOM     38  C   UNL A   1      40.241  30.006  29.662  1.00  0.00     0.031 A 
ATOM     39  C   UNL A   1      40.250  28.671  28.973  1.00  0.00     0.074 A 
ATOM     40  C   UNL A   1      41.312  30.813  29.553  1.00  0.00     0.049 A 
ATOM     41  N   UNL A   1      41.169  28.136  28.210  1.00  0.00    -0.248 NA
ATOM     42  C   UNL A   1      39.070  27.818  29.188  1.00  0.00     0.031 C 
ATOM     43  C   UNL A   1      41.451  32.116  30.189  1.00  0.00     0.029 A 
ATOM     44  N   UNL A   1      42.483  30.655  28.853  1.00  0.00    -0.354 N 
ATOM     45  C   UNL A   1      40.680  26.887  27.853  1.00  0.00     0.074 A 
ATOM     46  C   UNL A   1      39.394  26.735  28.500  1.00  0.00     0.031 C 
ATOM     47  C   UNL A   1      42.613  32.673  29.804  1.00  0.00     0.029 A 
ATOM     48  C   UNL A   1      43.335  31.730  28.951  1.00  0.00     0.049 A 
ATOM     49  H   UNL A   1      42.694  29.849  28.330  1.00  0.00     0.167 HD
ATOM     50  C   UNL A   1      41.250  25.944  27.067  1.00  0.00     0.031 A 
ATOM     51  C   UNL A   1      44.564  31.923  28.432  1.00  0.00     0.031 A 
ATOM     52  C   UNL A   1      42.555  26.056  26.473  1.00  0.00     0.049 A 
ATOM     53  C   UNL A   1      45.204  30.831  27.612  1.00  0.00     0.074 A 
ATOM     54  C   UNL A   1      43.220  25.142  25.677  1.00  0.00     0.029 A 
ATOM     55  N   UNL A   1      43.401  27.143  26.629  1.00  0.00    -0.354 N 
ATOM     56  N   UNL A   1      44.711  29.673  27.247  1.00  0.00    -0.248 NA
ATOM     57  C   UNL A   1      46.577  31.073  27.144  1.00  0.00     0.031 C 
ATOM     58  C   UNL A   1      44.494  25.649  25.400  1.00  0.00     0.029 A 
ATOM     59  C   UNL A   1      44.594  26.910  25.966  1.00  0.00     0.049 A 
ATOM     60  H   UNL A   1      43.186  27.960  27.135  1.00  0.00     0.167 HD
ATOM     61  C   UNL A   1      45.706  29.057  26.496  1.00  0.00     0.074 A 
ATOM     62  C   UNL A   1      46.819  29.979  26.435  1.00  0.00     0.031 C 
ATOM     63  C   UNL A   1      45.698  27.832  25.912  1.00  0.00     0.031 A 
BRANCH  50  64
ATOM     64  C   UNL A   1      40.471  24.677  26.855  1.00  0.00    -0.014 A 
ATOM     65  C   UNL A   1      39.200  24.700  26.258  1.00  0.00     0.009 A 
ATOM     66  C   UNL A   1      41.015  23.449  27.255  1.00  0.00     0.009 A 
ATOM     67  C   UNL A   1      38.474  23.517  26.102  1.00  0.00     0.001 A 
ATOM     68  C   UNL A   1      40.299  22.265  27.071  1.00  0.00     0.001 A 
ATOM     69  C   UNL A   1      39.025  22.301  26.506  1.00  0.00     0.000 A 
ENDBRANCH  50  64
BRANCH  51  70
ATOM     70  C   UNL A   1      45.304  33.189  28.694  1.00  0.00    -0.014 A 
ATOM     71  C   UNL A   1      45.342  34.209  27.730  1.00  0.00     0.009 A 
ATOM     72  C   UNL A   1      46.016  33.365  29.891  1.00  0.00     0.009 A 
ATOM     73  C   UNL A   1      46.100  35.363  27.948  1.00  0.00     0.001 A 
ATOM     74  C   UNL A   1      46.744  34.534  30.121  1.00  0.00     0.001 A 
ATOM     75  C   UNL A   1      46.796  35.526  29.145  1.00  0.00     0.000 A 
ENDBRANCH  51  70
BRANCH  63  76
ATOM     76  C   UNL A   1      46.918  27.427  25.130  1.00  0.00    -0.014 A 
ATOM     77  C   UNL A   1      47.906  26.600  25.687  1.00  0.00     0.009 A 
ATOM     78  C   UNL A   1      47.051  27.837  23.793  1.00  0.00     0.009 A 
ATOM     79  C   UNL A   1      49.017  26.220  24.930  1.00  0.00     0.001 A 
ATOM     80  C   UNL A   1      48.147  27.430  23.030  1.00  0.00     0.001 A 
ATOM     81  C   UNL A   1      49.134  26.629  23.602  1.00  0.00     0.000 A 
ENDBRANCH  63  76
ENDBRANCH  37  38
ENDBRANCH  30  32
ENDBRANCH  29  30
ENDBRANCH  28  29
ENDBRANCH  27  28
ENDBRANCH  26  27
ENDBRANCH  25  26
ENDBRANCH   1  25
TORSDOF 21
ENDMDL
