MODEL 1
REMARK VINA RESULT:      -9.4      0.000      0.000
REMARK SMILES CC[NH2+][C@]1(C(=O)OCCOCCOCCOC(=O)c2ccc(-c3c4nc(c(-c5ccccc5)c5ccc([nH]5)c(-c5ccccc5)c5nc(c(-c6ccccc6)c6ccc3[nH]6)C=C5)C=C4)cc2)CC[C@@H]([N@@H+]2CCO[C@@H](CC)C2)C1
REMARK SMILES IDX 11 1 10 2 9 3 8 4 7 5 5 6 6 7 4 8 67 9 78 10 68 11 69 12
REMARK SMILES IDX 3 13 2 16 1 17 70 18 71 19 77 20 72 22 74 23 73 24 75 25
REMARK SMILES IDX 76 26 12 27 13 28 14 29 15 30 16 31 17 32 18 33 19 34 20 35
REMARK SMILES IDX 66 36 21 37 65 38 22 39 23 40 24 41 59 42 25 43 64 44 58 45
REMARK SMILES IDX 60 46 26 47 63 48 57 49 56 50 27 52 49 53 34 54 48 55 35 56
REMARK SMILES IDX 38 57 47 58 61 59 36 60 37 61 46 63 62 64 39 65 28 66 29 67
REMARK SMILES IDX 33 68 30 69 32 70 31 71 50 72 51 73 55 74 52 75 54 76 53 77
REMARK SMILES IDX 40 78 41 79 45 80 42 81 44 82 43 83
REMARK H PARENT 3 14 3 15 70 21 60 51 38 62
REMARK Flexibility Score: inf
ROOT
ATOM      1  C   UNL A   1      35.267  32.040  28.016  1.00  0.00     0.188 C 
ENDROOT
BRANCH   1   2
ATOM      2  O   UNL A   1      34.610  30.800  27.780  1.00  0.00    -0.376 OA
BRANCH   2   3
ATOM      3  C   UNL A   1      33.271  30.876  27.290  1.00  0.00     0.202 C 
BRANCH   3   4
ATOM      4  C   UNL A   1      32.733  29.647  26.530  1.00  0.00     0.261 C 
BRANCH   4   5
ATOM      5  O   UNL A   1      33.204  29.510  25.167  1.00  0.00    -0.459 OA
BRANCH   5   6
ATOM      6  C   UNL A   1      33.093  28.262  24.629  1.00  0.00     0.368 C 
ATOM      7  O   UNL A   1      33.858  27.347  24.916  1.00  0.00    -0.245 OA
BRANCH   6   8
ATOM      8  C   UNL A   1      31.896  28.069  23.637  1.00  0.00     0.200 C 
ATOM      9  C   UNL A   1      32.350  27.015  22.610  1.00  0.00     0.087 C 
ATOM     10  C   UNL A   1      30.711  27.412  24.391  1.00  0.00     0.146 C 
ATOM     11  C   UNL A   1      31.173  26.083  22.372  1.00  0.00     0.072 C 
ATOM     12  C   UNL A   1      30.298  26.137  23.638  1.00  0.00     0.191 C 
BRANCH   8  13
ATOM     13  N   UNL A   1      31.402  29.364  23.103  1.00  0.00    -0.332 N 
ATOM     14  H   UNL A   1      31.810  30.110  23.667  1.00  0.00     0.347 HD
ATOM     15  H   UNL A   1      31.683  29.381  22.123  1.00  0.00     0.347 HD
BRANCH  13  16
ATOM     16  C   UNL A   1      29.954  29.546  23.101  1.00  0.00     0.257 C 
ATOM     17  C   UNL A   1      29.499  30.203  21.808  1.00  0.00     0.071 C 
ENDBRANCH  13  16
ENDBRANCH   8  13
BRANCH  12  18
ATOM     18  N   UNL A   1      30.215  24.874  24.381  1.00  0.00    -0.328 N 
ATOM     19  C   UNL A   1      30.298  24.998  25.849  1.00  0.00     0.291 C 
ATOM     20  C   UNL A   1      31.054  23.752  23.926  1.00  0.00     0.294 C 
ATOM     21  H   UNL A   1      29.260  24.617  24.130  1.00  0.00     0.348 HD
ATOM     22  C   UNL A   1      31.706  24.848  26.460  1.00  0.00     0.222 C 
ATOM     23  C   UNL A   1      32.477  23.745  24.515  1.00  0.00     0.173 C 
ATOM     24  O   UNL A   1      32.407  23.704  25.954  1.00  0.00    -0.367 OA
BRANCH  23  25
ATOM     25  C   UNL A   1      33.344  22.577  24.030  1.00  0.00     0.034 C 
ATOM     26  C   UNL A   1      34.546  22.987  23.189  1.00  0.00     0.007 C 
ENDBRANCH  23  25
ENDBRANCH  12  18
ENDBRANCH   6   8
ENDBRANCH   5   6
ENDBRANCH   4   5
ENDBRANCH   3   4
ENDBRANCH   2   3
ENDBRANCH   1   2
BRANCH   1  27
ATOM     27  C   UNL A   1      34.794  32.840  29.232  1.00  0.00     0.188 C 
BRANCH  27  28
ATOM     28  O   UNL A   1      35.066  34.234  29.179  1.00  0.00    -0.376 OA
BRANCH  28  29
ATOM     29  C   UNL A   1      34.090  35.067  28.557  1.00  0.00     0.202 C 
BRANCH  29  30
ATOM     30  C   UNL A   1      33.166  35.859  29.502  1.00  0.00     0.261 C 
BRANCH  30  31
ATOM     31  O   UNL A   1      32.618  35.104  30.601  1.00  0.00    -0.460 OA
BRANCH  31  32
ATOM     32  C   UNL A   1      32.792  35.602  31.846  1.00  0.00     0.338 C 
ATOM     33  O   UNL A   1      32.028  36.338  32.448  1.00  0.00    -0.246 OA
BRANCH  32  34
ATOM     34  C   UNL A   1      33.955  34.917  32.472  1.00  0.00     0.060 A 
ATOM     35  C   UNL A   1      35.170  35.614  32.540  1.00  0.00     0.016 A 
ATOM     36  C   UNL A   1      33.858  33.638  33.029  1.00  0.00     0.016 A 
ATOM     37  C   UNL A   1      36.306  35.004  33.073  1.00  0.00     0.010 A 
ATOM     38  C   UNL A   1      34.997  33.022  33.561  1.00  0.00     0.010 A 
ATOM     39  C   UNL A   1      36.239  33.680  33.524  1.00  0.00    -0.014 A 
BRANCH  39  40
ATOM     40  C   UNL A   1      37.500  32.907  33.659  1.00  0.00     0.031 A 
ATOM     41  C   UNL A   1      38.313  33.112  34.911  1.00  0.00     0.074 A 
ATOM     42  C   UNL A   1      37.898  32.003  32.748  1.00  0.00     0.049 A 
ATOM     43  N   UNL A   1      39.425  32.535  35.290  1.00  0.00    -0.248 NA
ATOM     44  C   UNL A   1      37.795  34.106  35.867  1.00  0.00     0.031 C 
ATOM     45  C   UNL A   1      37.196  31.672  31.511  1.00  0.00     0.029 A 
ATOM     46  N   UNL A   1      39.007  31.193  32.737  1.00  0.00    -0.354 N 
ATOM     47  C   UNL A   1      39.738  33.099  36.521  1.00  0.00     0.074 A 
ATOM     48  C   UNL A   1      38.728  34.094  36.802  1.00  0.00     0.031 C 
ATOM     49  C   UNL A   1      37.895  30.727  30.856  1.00  0.00     0.029 A 
ATOM     50  C   UNL A   1      39.104  30.404  31.617  1.00  0.00     0.049 A 
ATOM     51  H   UNL A   1      39.671  31.179  33.464  1.00  0.00     0.167 HD
ATOM     52  C   UNL A   1      40.764  32.813  37.357  1.00  0.00     0.031 A 
ATOM     53  C   UNL A   1      40.060  29.531  31.246  1.00  0.00     0.031 A 
ATOM     54  C   UNL A   1      41.789  31.845  37.078  1.00  0.00     0.049 A 
ATOM     55  C   UNL A   1      41.236  29.274  32.154  1.00  0.00     0.074 A 
ATOM     56  C   UNL A   1      42.870  31.483  37.862  1.00  0.00     0.029 A 
ATOM     57  N   UNL A   1      41.866  31.095  35.915  1.00  0.00    -0.354 N 
ATOM     58  N   UNL A   1      41.506  29.791  33.329  1.00  0.00    -0.248 NA
ATOM     59  C   UNL A   1      42.230  28.293  31.690  1.00  0.00     0.031 C 
ATOM     60  C   UNL A   1      43.635  30.555  37.147  1.00  0.00     0.029 A 
ATOM     61  C   UNL A   1      42.990  30.287  35.949  1.00  0.00     0.049 A 
ATOM     62  H   UNL A   1      41.219  31.132  35.173  1.00  0.00     0.167 HD
ATOM     63  C   UNL A   1      42.677  29.175  33.759  1.00  0.00     0.074 A 
ATOM     64  C   UNL A   1      43.060  28.238  32.722  1.00  0.00     0.031 C 
ATOM     65  C   UNL A   1      43.366  29.360  34.912  1.00  0.00     0.031 A 
BRANCH  52  66
ATOM     66  C   UNL A   1      40.838  33.606  38.633  1.00  0.00    -0.014 A 
ATOM     67  C   UNL A   1      40.146  33.202  39.787  1.00  0.00     0.009 A 
ATOM     68  C   UNL A   1      41.588  34.790  38.671  1.00  0.00     0.009 A 
ATOM     69  C   UNL A   1      40.160  33.999  40.935  1.00  0.00     0.001 A 
ATOM     70  C   UNL A   1      41.629  35.566  39.830  1.00  0.00     0.001 A 
ATOM     71  C   UNL A   1      40.903  35.178  40.955  1.00  0.00     0.000 A 
ENDBRANCH  52  66
BRANCH  53  72
ATOM     72  C   UNL A   1      39.951  28.831  29.938  1.00  0.00    -0.014 A 
ATOM     73  C   UNL A   1      40.370  29.452  28.751  1.00  0.00     0.009 A 
ATOM     74  C   UNL A   1      39.420  27.534  29.874  1.00  0.00     0.009 A 
ATOM     75  C   UNL A   1      40.241  28.793  27.526  1.00  0.00     0.001 A 
ATOM     76  C   UNL A   1      39.319  26.868  28.651  1.00  0.00     0.001 A 
ATOM     77  C   UNL A   1      39.723  27.500  27.477  1.00  0.00     0.000 A 
ENDBRANCH  53  72
BRANCH  65  78
ATOM     78  C   UNL A   1      44.580  28.498  35.146  1.00  0.00    -0.014 A 
ATOM     79  C   UNL A   1      44.491  27.254  35.789  1.00  0.00     0.009 A 
ATOM     80  C   UNL A   1      45.830  28.927  34.673  1.00  0.00     0.009 A 
ATOM     81  C   UNL A   1      45.637  26.479  35.991  1.00  0.00     0.001 A 
ATOM     82  C   UNL A   1      46.967  28.137  34.847  1.00  0.00     0.001 A 
ATOM     83  C   UNL A   1      46.872  26.919  35.516  1.00  0.00     0.000 A 
ENDBRANCH  65  78
ENDBRANCH  39  40
ENDBRANCH  32  34
ENDBRANCH  31  32
ENDBRANCH  30  31
ENDBRANCH  29  30
ENDBRANCH  28  29
ENDBRANCH  27  28
ENDBRANCH   1  27
TORSDOF 21
ENDMDL
MODEL 2
REMARK VINA RESULT:      -9.1      4.328      8.043
REMARK SMILES CC[NH2+][C@]1(C(=O)OCCOCCOCCOC(=O)c2ccc(-c3c4nc(c(-c5ccccc5)c5ccc([nH]5)c(-c5ccccc5)c5nc(c(-c6ccccc6)c6ccc3[nH]6)C=C5)C=C4)cc2)CC[C@@H]([N@@H+]2CCO[C@@H](CC)C2)C1
REMARK SMILES IDX 11 1 10 2 9 3 8 4 7 5 5 6 6 7 4 8 67 9 78 10 68 11 69 12
REMARK SMILES IDX 3 13 2 16 1 17 70 18 71 19 77 20 72 22 74 23 73 24 75 25
REMARK SMILES IDX 76 26 12 27 13 28 14 29 15 30 16 31 17 32 18 33 19 34 20 35
REMARK SMILES IDX 66 36 21 37 65 38 22 39 23 40 24 41 59 42 25 43 64 44 58 45
REMARK SMILES IDX 60 46 26 47 63 48 57 49 56 50 27 52 49 53 34 54 48 55 35 56
REMARK SMILES IDX 38 57 47 58 61 59 36 60 37 61 46 63 62 64 39 65 28 66 29 67
REMARK SMILES IDX 33 68 30 69 32 70 31 71 50 72 51 73 55 74 52 75 54 76 53 77
REMARK SMILES IDX 40 78 41 79 45 80 42 81 44 82 43 83
REMARK H PARENT 3 14 3 15 70 21 60 51 38 62
REMARK Flexibility Score: inf
ROOT
ATOM      1  C   UNL A   1      33.343  32.967  27.769  1.00  0.00     0.188 C 
ENDROOT
BRANCH   1   2
ATOM      2  O   UNL A   1      32.052  33.109  27.187  1.00  0.00    -0.376 OA
BRANCH   2   3
ATOM      3  C   UNL A   1      31.366  31.899  26.862  1.00  0.00     0.202 C 
BRANCH   3   4
ATOM      4  C   UNL A   1      32.231  30.701  26.422  1.00  0.00     0.261 C 
BRANCH   4   5
ATOM      5  O   UNL A   1      31.518  29.449  26.270  1.00  0.00    -0.459 OA
BRANCH   5   6
ATOM      6  C   UNL A   1      32.169  28.485  25.559  1.00  0.00     0.368 C 
ATOM      7  O   UNL A   1      32.870  27.630  26.091  1.00  0.00    -0.245 OA
BRANCH   6   8
ATOM      8  C   UNL A   1      31.934  28.526  24.011  1.00  0.00     0.200 C 
ATOM      9  C   UNL A   1      33.303  28.254  23.357  1.00  0.00     0.087 C 
ATOM     10  C   UNL A   1      31.046  27.325  23.599  1.00  0.00     0.146 C 
ATOM     11  C   UNL A   1      33.063  27.310  22.190  1.00  0.00     0.072 C 
ATOM     12  C   UNL A   1      31.776  26.527  22.505  1.00  0.00     0.191 C 
BRANCH   8  13
ATOM     13  N   UNL A   1      31.218  29.757  23.590  1.00  0.00    -0.332 N 
ATOM     14  H   UNL A   1      31.264  30.424  24.361  1.00  0.00     0.347 HD
ATOM     15  H   UNL A   1      31.686  30.070  22.739  1.00  0.00     0.347 HD
BRANCH  13  16
ATOM     16  C   UNL A   1      29.814  29.589  23.228  1.00  0.00     0.257 C 
ATOM     17  C   UNL A   1      29.030  30.857  23.524  1.00  0.00     0.071 C 
ENDBRANCH  13  16
ENDBRANCH   8  13
BRANCH  12  18
ATOM     18  N   UNL A   1      31.966  25.084  22.692  1.00  0.00    -0.328 N 
ATOM     19  C   UNL A   1      31.049  24.446  23.657  1.00  0.00     0.291 C 
ATOM     20  C   UNL A   1      33.338  24.593  22.906  1.00  0.00     0.294 C 
ATOM     21  H   UNL A   1      31.713  24.779  21.752  1.00  0.00     0.348 HD
ATOM     22  C   UNL A   1      31.565  24.336  25.106  1.00  0.00     0.222 C 
ATOM     23  C   UNL A   1      33.798  24.616  24.376  1.00  0.00     0.173 C 
ATOM     24  O   UNL A   1      32.901  23.821  25.177  1.00  0.00    -0.367 OA
BRANCH  23  25
ATOM     25  C   UNL A   1      35.229  24.109  24.588  1.00  0.00     0.034 C 
ATOM     26  C   UNL A   1      35.726  23.149  23.514  1.00  0.00     0.007 C 
ENDBRANCH  23  25
ENDBRANCH  12  18
ENDBRANCH   6   8
ENDBRANCH   5   6
ENDBRANCH   4   5
ENDBRANCH   3   4
ENDBRANCH   2   3
ENDBRANCH   1   2
BRANCH   1  27
ATOM     27  C   UNL A   1      33.828  34.127  28.640  1.00  0.00     0.188 C 
BRANCH  27  28
ATOM     28  O   UNL A   1      32.899  34.578  29.617  1.00  0.00    -0.376 OA
BRANCH  28  29
ATOM     29  C   UNL A   1      33.410  34.881  30.913  1.00  0.00     0.202 C 
BRANCH  29  30
ATOM     30  C   UNL A   1      34.773  34.260  31.272  1.00  0.00     0.261 C 
BRANCH  30  31
ATOM     31  O   UNL A   1      34.733  32.872  31.659  1.00  0.00    -0.460 OA
BRANCH  31  32
ATOM     32  C   UNL A   1      35.682  32.436  32.517  1.00  0.00     0.338 C 
ATOM     33  O   UNL A   1      35.640  32.487  33.735  1.00  0.00    -0.246 OA
BRANCH  32  34
ATOM     34  C   UNL A   1      36.694  31.660  31.750  1.00  0.00     0.060 A 
ATOM     35  C   UNL A   1      37.627  30.902  32.472  1.00  0.00     0.016 A 
ATOM     36  C   UNL A   1      36.707  31.627  30.352  1.00  0.00     0.016 A 
ATOM     37  C   UNL A   1      38.628  30.193  31.807  1.00  0.00     0.010 A 
ATOM     38  C   UNL A   1      37.713  30.920  29.682  1.00  0.00     0.010 A 
ATOM     39  C   UNL A   1      38.714  30.254  30.411  1.00  0.00    -0.014 A 
BRANCH  39  40
ATOM     40  C   UNL A   1      39.998  29.891  29.759  1.00  0.00     0.031 A 
ATOM     41  C   UNL A   1      40.082  28.546  29.084  1.00  0.00     0.074 A 
ATOM     42  C   UNL A   1      41.045  30.732  29.699  1.00  0.00     0.049 A 
ATOM     43  N   UNL A   1      41.069  28.007  28.414  1.00  0.00    -0.248 NA
ATOM     44  C   UNL A   1      38.884  27.695  29.181  1.00  0.00     0.031 C 
ATOM     45  C   UNL A   1      41.094  32.075  30.271  1.00  0.00     0.029 A 
ATOM     46  N   UNL A   1      42.277  30.565  29.114  1.00  0.00    -0.354 N 
ATOM     47  C   UNL A   1      40.610  26.757  28.015  1.00  0.00     0.074 A 
ATOM     48  C   UNL A   1      39.280  26.599  28.558  1.00  0.00     0.031 C 
ATOM     49  C   UNL A   1      42.301  32.611  30.012  1.00  0.00     0.029 A 
ATOM     50  C   UNL A   1      43.115  31.641  29.276  1.00  0.00     0.049 A 
ATOM     51  H   UNL A   1      42.535  29.750  28.626  1.00  0.00     0.167 HD
ATOM     52  C   UNL A   1      41.228  25.822  27.256  1.00  0.00     0.031 A 
ATOM     53  C   UNL A   1      44.391  31.818  28.884  1.00  0.00     0.031 A 
ATOM     54  C   UNL A   1      42.560  25.955  26.733  1.00  0.00     0.049 A 
ATOM     55  C   UNL A   1      45.092  30.738  28.099  1.00  0.00     0.074 A 
ATOM     56  C   UNL A   1      43.273  25.064  25.951  1.00  0.00     0.029 A 
ATOM     57  N   UNL A   1      43.385  27.048  26.951  1.00  0.00    -0.354 N 
ATOM     58  N   UNL A   1      44.639  29.572  27.702  1.00  0.00    -0.248 NA
ATOM     59  C   UNL A   1      46.479  31.011  27.689  1.00  0.00     0.031 C 
ATOM     60  C   UNL A   1      44.552  25.591  25.746  1.00  0.00     0.029 A 
ATOM     61  C   UNL A   1      44.610  26.842  26.338  1.00  0.00     0.049 A 
ATOM     62  H   UNL A   1      43.137  27.849  27.467  1.00  0.00     0.167 HD
ATOM     63  C   UNL A   1      45.668  28.991  26.970  1.00  0.00     0.074 A 
ATOM     64  C   UNL A   1      46.766  29.936  26.968  1.00  0.00     0.031 C 
ATOM     65  C   UNL A   1      45.698  27.787  26.345  1.00  0.00     0.031 A 
BRANCH  52  66
ATOM     66  C   UNL A   1      40.465  24.552  26.995  1.00  0.00    -0.014 A 
ATOM     67  C   UNL A   1      39.294  24.546  26.219  1.00  0.00     0.009 A 
ATOM     68  C   UNL A   1      40.911  23.348  27.559  1.00  0.00     0.009 A 
ATOM     69  C   UNL A   1      38.556  23.371  26.061  1.00  0.00     0.001 A 
ATOM     70  C   UNL A   1      40.191  22.167  27.370  1.00  0.00     0.001 A 
ATOM     71  C   UNL A   1      39.007  22.183  26.635  1.00  0.00     0.000 A 
ENDBRANCH  52  66
BRANCH  53  72
ATOM     72  C   UNL A   1      45.102  33.076  29.235  1.00  0.00    -0.014 A 
ATOM     73  C   UNL A   1      45.860  33.172  30.413  1.00  0.00     0.009 A 
ATOM     74  C   UNL A   1      45.020  34.193  28.389  1.00  0.00     0.009 A 
ATOM     75  C   UNL A   1      46.504  34.367  30.743  1.00  0.00     0.001 A 
ATOM     76  C   UNL A   1      45.687  35.377  28.709  1.00  0.00     0.001 A 
ATOM     77  C   UNL A   1      46.423  35.465  29.888  1.00  0.00     0.000 A 
ENDBRANCH  53  72
BRANCH  65  78
ATOM     78  C   UNL A   1      46.936  27.438  25.560  1.00  0.00    -0.014 A 
ATOM     79  C   UNL A   1      47.993  26.712  26.130  1.00  0.00     0.009 A 
ATOM     80  C   UNL A   1      47.023  27.812  24.209  1.00  0.00     0.009 A 
ATOM     81  C   UNL A   1      49.128  26.407  25.374  1.00  0.00     0.001 A 
ATOM     82  C   UNL A   1      48.144  27.477  23.448  1.00  0.00     0.001 A 
ATOM     83  C   UNL A   1      49.201  26.785  24.034  1.00  0.00     0.000 A 
ENDBRANCH  65  78
ENDBRANCH  39  40
ENDBRANCH  32  34
ENDBRANCH  31  32
ENDBRANCH  30  31
ENDBRANCH  29  30
ENDBRANCH  28  29
ENDBRANCH  27  28
ENDBRANCH   1  27
TORSDOF 21
ENDMDL
MODEL 3
REMARK VINA RESULT:      -9.1      3.581      8.663
REMARK SMILES CC[NH2+][C@]1(C(=O)OCCOCCOCCOC(=O)c2ccc(-c3c4nc(c(-c5ccccc5)c5ccc([nH]5)c(-c5ccccc5)c5nc(c(-c6ccccc6)c6ccc3[nH]6)C=C5)C=C4)cc2)CC[C@@H]([N@@H+]2CCO[C@@H](CC)C2)C1
REMARK SMILES IDX 11 1 10 2 9 3 8 4 7 5 5 6 6 7 4 8 67 9 78 10 68 11 69 12
REMARK SMILES IDX 3 13 2 16 1 17 70 18 71 19 77 20 72 22 74 23 73 24 75 25
REMARK SMILES IDX 76 26 12 27 13 28 14 29 15 30 16 31 17 32 18 33 19 34 20 35
REMARK SMILES IDX 66 36 21 37 65 38 22 39 23 40 24 41 59 42 25 43 64 44 58 45
REMARK SMILES IDX 60 46 26 47 63 48 57 49 56 50 27 52 49 53 34 54 48 55 35 56
REMARK SMILES IDX 38 57 47 58 61 59 36 60 37 61 46 63 62 64 39 65 28 66 29 67
REMARK SMILES IDX 33 68 30 69 32 70 31 71 50 72 51 73 55 74 52 75 54 76 53 77
REMARK SMILES IDX 40 78 41 79 45 80 42 81 44 82 43 83
REMARK H PARENT 3 14 3 15 70 21 60 51 38 62
REMARK Flexibility Score: inf
ROOT
ATOM      1  C   UNL A   1      39.740  21.699  26.073  1.00  0.00     0.188 C 
ENDROOT
BRANCH   1   2
ATOM      2  O   UNL A   1      38.832  22.777  26.268  1.00  0.00    -0.376 OA
BRANCH   2   3
ATOM      3  C   UNL A   1      37.829  22.950  25.266  1.00  0.00     0.202 C 
BRANCH   3   4
ATOM      4  C   UNL A   1      36.406  23.289  25.751  1.00  0.00     0.261 C 
BRANCH   4   5
ATOM      5  O   UNL A   1      35.705  24.280  24.960  1.00  0.00    -0.459 OA
BRANCH   5   6
ATOM      6  C   UNL A   1      35.147  23.822  23.804  1.00  0.00     0.368 C 
ATOM      7  O   UNL A   1      35.817  23.467  22.840  1.00  0.00    -0.245 OA
BRANCH   6   8
ATOM      8  C   UNL A   1      33.582  23.751  23.803  1.00  0.00     0.200 C 
ATOM      9  C   UNL A   1      33.196  22.697  22.747  1.00  0.00     0.087 C 
ATOM     10  C   UNL A   1      33.099  23.162  25.153  1.00  0.00     0.146 C 
ATOM     11  C   UNL A   1      32.068  21.864  23.334  1.00  0.00     0.072 C 
ATOM     12  C   UNL A   1      32.203  21.945  24.866  1.00  0.00     0.191 C 
BRANCH   8  13
ATOM     13  N   UNL A   1      32.964  25.095  23.673  1.00  0.00    -0.332 N 
ATOM     14  H   UNL A   1      32.759  25.436  24.612  1.00  0.00     0.347 HD
ATOM     15  H   UNL A   1      33.642  25.660  23.162  1.00  0.00     0.347 HD
BRANCH  13  16
ATOM     16  C   UNL A   1      31.731  25.160  22.895  1.00  0.00     0.257 C 
ATOM     17  C   UNL A   1      31.591  26.519  22.227  1.00  0.00     0.071 C 
ENDBRANCH  13  16
ENDBRANCH   8  13
BRANCH  12  18
ATOM     18  N   UNL A   1      32.512  20.670  25.522  1.00  0.00    -0.328 N 
ATOM     19  C   UNL A   1      33.858  20.579  26.122  1.00  0.00     0.291 C 
ATOM     20  C   UNL A   1      32.206  19.428  24.792  1.00  0.00     0.294 C 
ATOM     21  H   UNL A   1      31.824  20.719  26.273  1.00  0.00     0.348 HD
ATOM     22  C   UNL A   1      34.956  19.971  25.226  1.00  0.00     0.222 C 
ATOM     23  C   UNL A   1      33.325  18.955  23.846  1.00  0.00     0.173 C 
ATOM     24  O   UNL A   1      34.540  18.752  24.595  1.00  0.00    -0.367 OA
BRANCH  23  25
ATOM     25  C   UNL A   1      32.994  17.665  23.086  1.00  0.00     0.034 C 
ATOM     26  C   UNL A   1      34.022  16.553  23.247  1.00  0.00     0.007 C 
ENDBRANCH  23  25
ENDBRANCH  12  18
ENDBRANCH   6   8
ENDBRANCH   5   6
ENDBRANCH   4   5
ENDBRANCH   3   4
ENDBRANCH   2   3
ENDBRANCH   1   2
BRANCH   1  27
ATOM     27  C   UNL A   1      40.520  21.235  27.305  1.00  0.00     0.188 C 
BRANCH  27  28
ATOM     28  O   UNL A   1      41.927  21.425  27.235  1.00  0.00    -0.376 OA
BRANCH  28  29
ATOM     29  C   UNL A   1      42.596  20.931  26.076  1.00  0.00     0.202 C 
BRANCH  29  30
ATOM     30  C   UNL A   1      43.726  21.814  25.512  1.00  0.00     0.261 C 
BRANCH  30  31
ATOM     31  O   UNL A   1      44.083  22.948  26.327  1.00  0.00    -0.460 OA
BRANCH  31  32
ATOM     32  C   UNL A   1      44.148  24.155  25.721  1.00  0.00     0.338 C 
ATOM     33  O   UNL A   1      44.630  24.394  24.627  1.00  0.00    -0.246 OA
BRANCH  32  34
ATOM     34  C   UNL A   1      43.317  25.118  26.493  1.00  0.00     0.060 A 
ATOM     35  C   UNL A   1      43.764  26.444  26.587  1.00  0.00     0.016 A 
ATOM     36  C   UNL A   1      42.099  24.754  27.077  1.00  0.00     0.016 A 
ATOM     37  C   UNL A   1      43.051  27.379  27.338  1.00  0.00     0.010 A 
ATOM     38  C   UNL A   1      41.384  25.689  27.834  1.00  0.00     0.010 A 
ATOM     39  C   UNL A   1      41.893  26.986  28.020  1.00  0.00    -0.014 A 
BRANCH  39  40
ATOM     40  C   UNL A   1      41.407  27.826  29.145  1.00  0.00     0.031 A 
ATOM     41  C   UNL A   1      42.155  27.743  30.450  1.00  0.00     0.074 A 
ATOM     42  C   UNL A   1      40.383  28.687  29.019  1.00  0.00     0.049 A 
ATOM     43  N   UNL A   1      41.961  28.396  31.568  1.00  0.00    -0.248 NA
ATOM     44  C   UNL A   1      43.277  26.789  30.497  1.00  0.00     0.031 C 
ATOM     45  C   UNL A   1      39.593  28.902  27.809  1.00  0.00     0.029 A 
ATOM     46  N   UNL A   1      39.836  29.547  29.940  1.00  0.00    -0.354 N 
ATOM     47  C   UNL A   1      42.932  27.929  32.446  1.00  0.00     0.074 A 
ATOM     48  C   UNL A   1      43.680  26.907  31.750  1.00  0.00     0.031 C 
ATOM     49  C   UNL A   1      38.657  29.835  28.064  1.00  0.00     0.029 A 
ATOM     50  C   UNL A   1      38.769  30.265  29.459  1.00  0.00     0.049 A 
ATOM     51  H   UNL A   1      40.178  29.640  30.859  1.00  0.00     0.167 HD
ATOM     52  C   UNL A   1      43.194  28.317  33.717  1.00  0.00     0.031 A 
ATOM     53  C   UNL A   1      37.970  31.157  30.077  1.00  0.00     0.031 A 
ATOM     54  C   UNL A   1      42.442  29.313  34.430  1.00  0.00     0.049 A 
ATOM     55  C   UNL A   1      38.229  31.528  31.515  1.00  0.00     0.074 A 
ATOM     56  C   UNL A   1      42.631  29.777  35.719  1.00  0.00     0.029 A 
ATOM     57  N   UNL A   1      41.347  29.988  33.915  1.00  0.00    -0.354 N 
ATOM     58  N   UNL A   1      39.168  31.102  32.326  1.00  0.00    -0.248 NA
ATOM     59  C   UNL A   1      37.327  32.523  32.115  1.00  0.00     0.031 C 
ATOM     60  C   UNL A   1      41.612  30.691  36.006  1.00  0.00     0.029 A 
ATOM     61  C   UNL A   1      40.834  30.850  34.871  1.00  0.00     0.049 A 
ATOM     62  H   UNL A   1      40.986  29.872  33.007  1.00  0.00     0.167 HD
ATOM     63  C   UNL A   1      38.991  31.801  33.516  1.00  0.00     0.074 A 
ATOM     64  C   UNL A   1      37.861  32.685  33.317  1.00  0.00     0.031 C 
ATOM     65  C   UNL A   1      39.707  31.724  34.666  1.00  0.00     0.031 A 
BRANCH  52  66
ATOM     66  C   UNL A   1      44.323  27.613  34.419  1.00  0.00    -0.014 A 
ATOM     67  C   UNL A   1      45.640  28.097  34.356  1.00  0.00     0.009 A 
ATOM     68  C   UNL A   1      44.067  26.432  35.131  1.00  0.00     0.009 A 
ATOM     69  C   UNL A   1      46.686  27.381  34.945  1.00  0.00     0.001 A 
ATOM     70  C   UNL A   1      45.108  25.738  35.748  1.00  0.00     0.001 A 
ATOM     71  C   UNL A   1      46.418  26.204  35.641  1.00  0.00     0.000 A 
ENDBRANCH  52  66
BRANCH  53  72
ATOM     72  C   UNL A   1      36.833  31.764  29.335  1.00  0.00    -0.014 A 
ATOM     73  C   UNL A   1      36.986  32.980  28.650  1.00  0.00     0.009 A 
ATOM     74  C   UNL A   1      35.582  31.128  29.316  1.00  0.00     0.009 A 
ATOM     75  C   UNL A   1      35.904  33.552  27.977  1.00  0.00     0.001 A 
ATOM     76  C   UNL A   1      34.510  31.690  28.620  1.00  0.00     0.001 A 
ATOM     77  C   UNL A   1      34.670  32.904  27.956  1.00  0.00     0.000 A 
ENDBRANCH  53  72
BRANCH  65  78
ATOM     78  C   UNL A   1      39.328  32.656  35.787  1.00  0.00    -0.014 A 
ATOM     79  C   UNL A   1      38.408  32.285  36.780  1.00  0.00     0.009 A 
ATOM     80  C   UNL A   1      39.938  33.919  35.869  1.00  0.00     0.009 A 
ATOM     81  C   UNL A   1      38.078  33.175  37.805  1.00  0.00     0.001 A 
ATOM     82  C   UNL A   1      39.630  34.792  36.912  1.00  0.00     0.001 A 
ATOM     83  C   UNL A   1      38.691  34.425  37.873  1.00  0.00     0.000 A 
ENDBRANCH  65  78
ENDBRANCH  39  40
ENDBRANCH  32  34
ENDBRANCH  31  32
ENDBRANCH  30  31
ENDBRANCH  29  30
ENDBRANCH  28  29
ENDBRANCH  27  28
ENDBRANCH   1  27
TORSDOF 21
ENDMDL
