MODEL 1
REMARK VINA RESULT:      -8.0      0.000      0.000
REMARK SMILES Cc1sc(C(=O)OCCOCCOCCOC(=O)c2ccc(-c3c4nc(c(-c5ccccc5)c5ccc([nH]5)c(-c5ccccc5)c5nc(c(-c6ccccc6)c6ccc3[nH]6)C=C5)C=C4)cc2)cc1Br
REMARK SMILES IDX 12 1 11 2 10 3 9 4 8 5 7 6 5 7 6 8 4 9 1 10 2 11 3 12 68 13
REMARK SMILES IDX 67 14 69 15 13 16 14 17 15 18 16 19 17 20 18 21 19 22 20 23
REMARK SMILES IDX 66 24 21 25 65 26 22 27 23 28 24 29 59 30 25 31 64 32 58 33
REMARK SMILES IDX 60 34 26 35 63 36 57 37 56 38 27 40 49 41 34 42 48 43 35 44
REMARK SMILES IDX 38 45 47 46 61 47 36 48 37 49 46 51 62 52 39 53 28 54 29 55
REMARK SMILES IDX 33 56 30 57 32 58 31 59 50 60 51 61 55 62 52 63 54 64 53 65
REMARK SMILES IDX 40 66 41 67 45 68 42 69 44 70 43 71
REMARK H PARENT 60 39 38 50
REMARK Flexibility Score: inf
ROOT
ATOM      1  C   UNL A   1      46.510  20.530  24.598  1.00  0.00     0.188 C 
ENDROOT
BRANCH   1   2
ATOM      2  C   UNL A   1      45.847  21.505  25.590  1.00  0.00     0.188 C 
BRANCH   2   3
ATOM      3  O   UNL A   1      46.300  22.851  25.691  1.00  0.00    -0.376 OA
BRANCH   3   4
ATOM      4  C   UNL A   1      46.403  23.656  24.524  1.00  0.00     0.202 C 
BRANCH   4   5
ATOM      5  C   UNL A   1      47.180  24.971  24.639  1.00  0.00     0.261 C 
BRANCH   5   6
ATOM      6  O   UNL A   1      46.940  25.670  25.870  1.00  0.00    -0.459 OA
BRANCH   6   7
ATOM      7  C   UNL A   1      47.524  26.904  25.975  1.00  0.00     0.348 C 
ATOM      8  O   UNL A   1      48.670  27.157  25.644  1.00  0.00    -0.245 OA
BRANCH   7   9
ATOM      9  C   UNL A   1      46.540  27.870  26.431  1.00  0.00     0.114 A 
ATOM     10  C   UNL A   1      45.348  31.285  27.972  1.00  0.00     0.057 C 
ATOM     11  C   UNL A   1      45.525  29.936  27.360  1.00  0.00     0.017 A 
ATOM     12  S   UNL A   1      47.094  29.254  27.278  1.00  0.00    -0.132 S 
ATOM     13  C   UNL A   1      44.599  29.088  26.798  1.00  0.00     0.032 A 
ATOM     14  C   UNL A   1      45.168  27.903  26.260  1.00  0.00     0.043 A 
ATOM     15  Br  UNL A   1      42.740  29.409  26.676  1.00  0.00    -0.050 Br
ENDBRANCH   7   9
ENDBRANCH   6   7
ENDBRANCH   5   6
ENDBRANCH   4   5
ENDBRANCH   3   4
ENDBRANCH   2   3
ENDBRANCH   1   2
BRANCH   1  16
ATOM     16  O   UNL A   1      45.738  19.375  24.313  1.00  0.00    -0.376 OA
BRANCH  16  17
ATOM     17  C   UNL A   1      45.448  18.526  25.413  1.00  0.00     0.202 C 
BRANCH  17  18
ATOM     18  C   UNL A   1      43.961  18.444  25.772  1.00  0.00     0.261 C 
BRANCH  18  19
ATOM     19  O   UNL A   1      43.133  19.457  25.178  1.00  0.00    -0.460 OA
BRANCH  19  20
ATOM     20  C   UNL A   1      41.930  19.678  25.752  1.00  0.00     0.338 C 
ATOM     21  O   UNL A   1      41.015  18.886  25.876  1.00  0.00    -0.246 OA
BRANCH  20  22
ATOM     22  C   UNL A   1      41.962  21.026  26.355  1.00  0.00     0.060 A 
ATOM     23  C   UNL A   1      42.319  22.120  25.559  1.00  0.00     0.016 A 
ATOM     24  C   UNL A   1      41.641  21.207  27.703  1.00  0.00     0.016 A 
ATOM     25  C   UNL A   1      42.376  23.399  26.118  1.00  0.00     0.010 A 
ATOM     26  C   UNL A   1      41.715  22.485  28.265  1.00  0.00     0.010 A 
ATOM     27  C   UNL A   1      42.106  23.584  27.482  1.00  0.00    -0.014 A 
BRANCH  27  28
ATOM     28  C   UNL A   1      42.379  24.891  28.128  1.00  0.00     0.031 A 
ATOM     29  C   UNL A   1      43.762  25.164  28.654  1.00  0.00     0.074 A 
ATOM     30  C   UNL A   1      41.419  25.826  28.251  1.00  0.00     0.049 A 
ATOM     31  N   UNL A   1      44.219  26.218  29.280  1.00  0.00    -0.248 NA
ATOM     32  C   UNL A   1      44.763  24.105  28.442  1.00  0.00     0.031 C 
ATOM     33  C   UNL A   1      40.049  25.707  27.758  1.00  0.00     0.029 A 
ATOM     34  N   UNL A   1      41.459  27.066  28.841  1.00  0.00    -0.354 N 
ATOM     35  C   UNL A   1      45.558  25.952  29.536  1.00  0.00     0.074 A 
ATOM     36  C   UNL A   1      45.834  24.628  29.021  1.00  0.00     0.031 C 
ATOM     37  C   UNL A   1      39.374  26.826  28.076  1.00  0.00     0.029 A 
ATOM     38  C   UNL A   1      40.255  27.727  28.817  1.00  0.00     0.049 A 
ATOM     39  H   UNL A   1      42.274  27.445  29.243  1.00  0.00     0.167 HD
ATOM     40  C   UNL A   1      46.480  26.738  30.140  1.00  0.00     0.031 A 
ATOM     41  C   UNL A   1      39.902  28.913  29.349  1.00  0.00     0.031 A 
ATOM     42  C   UNL A   1      46.210  28.043  30.678  1.00  0.00     0.049 A 
ATOM     43  C   UNL A   1      40.924  29.730  30.094  1.00  0.00     0.074 A 
ATOM     44  C   UNL A   1      47.085  28.916  31.302  1.00  0.00     0.029 A 
ATOM     45  N   UNL A   1      44.970  28.658  30.666  1.00  0.00    -0.354 N 
ATOM     46  N   UNL A   1      42.195  29.482  30.298  1.00  0.00    -0.248 NA
ATOM     47  C   UNL A   1      40.460  30.999  30.679  1.00  0.00     0.031 C 
ATOM     48  C   UNL A   1      46.361  30.042  31.711  1.00  0.00     0.029 A 
ATOM     49  C   UNL A   1      45.049  29.889  31.295  1.00  0.00     0.049 A 
ATOM     50  H   UNL A   1      44.153  28.277  30.270  1.00  0.00     0.167 HD
ATOM     51  C   UNL A   1      42.687  30.572  31.008  1.00  0.00     0.074 A 
ATOM     52  C   UNL A   1      41.581  31.489  31.189  1.00  0.00     0.031 C 
ATOM     53  C   UNL A   1      43.943  30.794  31.466  1.00  0.00     0.031 A 
BRANCH  40  54
ATOM     54  C   UNL A   1      47.869  26.186  30.276  1.00  0.00    -0.014 A 
ATOM     55  C   UNL A   1      48.755  26.177  29.187  1.00  0.00     0.009 A 
ATOM     56  C   UNL A   1      48.308  25.696  31.516  1.00  0.00     0.009 A 
ATOM     57  C   UNL A   1      50.045  25.662  29.332  1.00  0.00     0.001 A 
ATOM     58  C   UNL A   1      49.605  25.204  31.662  1.00  0.00     0.001 A 
ATOM     59  C   UNL A   1      50.470  25.180  30.569  1.00  0.00     0.000 A 
ENDBRANCH  40  54
BRANCH  41  60
ATOM     60  C   UNL A   1      38.503  29.403  29.226  1.00  0.00    -0.014 A 
ATOM     61  C   UNL A   1      37.609  29.289  30.301  1.00  0.00     0.009 A 
ATOM     62  C   UNL A   1      38.046  29.948  28.017  1.00  0.00     0.009 A 
ATOM     63  C   UNL A   1      36.277  29.687  30.158  1.00  0.00     0.001 A 
ATOM     64  C   UNL A   1      36.721  30.371  27.886  1.00  0.00     0.001 A 
ATOM     65  C   UNL A   1      35.835  30.231  28.953  1.00  0.00     0.000 A 
ENDBRANCH  41  60
BRANCH  53  66
ATOM     66  C   UNL A   1      44.200  32.092  32.176  1.00  0.00    -0.014 A 
ATOM     67  C   UNL A   1      44.227  32.166  33.577  1.00  0.00     0.009 A 
ATOM     68  C   UNL A   1      44.467  33.250  31.428  1.00  0.00     0.009 A 
ATOM     69  C   UNL A   1      44.487  33.380  34.215  1.00  0.00     0.001 A 
ATOM     70  C   UNL A   1      44.752  34.458  32.069  1.00  0.00     0.001 A 
ATOM     71  C   UNL A   1      44.754  34.523  33.461  1.00  0.00     0.000 A 
ENDBRANCH  53  66
ENDBRANCH  27  28
ENDBRANCH  20  22
ENDBRANCH  19  20
ENDBRANCH  18  19
ENDBRANCH  17  18
ENDBRANCH  16  17
ENDBRANCH   1  16
TORSDOF 17
ENDMDL
MODEL 2
REMARK VINA RESULT:      -7.7      3.418      7.899
REMARK SMILES Cc1sc(C(=O)OCCOCCOCCOC(=O)c2ccc(-c3c4nc(c(-c5ccccc5)c5ccc([nH]5)c(-c5ccccc5)c5nc(c(-c6ccccc6)c6ccc3[nH]6)C=C5)C=C4)cc2)cc1Br
REMARK SMILES IDX 12 1 11 2 10 3 9 4 8 5 7 6 5 7 6 8 4 9 1 10 2 11 3 12 68 13
REMARK SMILES IDX 67 14 69 15 13 16 14 17 15 18 16 19 17 20 18 21 19 22 20 23
REMARK SMILES IDX 66 24 21 25 65 26 22 27 23 28 24 29 59 30 25 31 64 32 58 33
REMARK SMILES IDX 60 34 26 35 63 36 57 37 56 38 27 40 49 41 34 42 48 43 35 44
REMARK SMILES IDX 38 45 47 46 61 47 36 48 37 49 46 51 62 52 39 53 28 54 29 55
REMARK SMILES IDX 33 56 30 57 32 58 31 59 50 60 51 61 55 62 52 63 54 64 53 65
REMARK SMILES IDX 40 66 41 67 45 68 42 69 44 70 43 71
REMARK H PARENT 60 39 38 50
REMARK Flexibility Score: inf
ROOT
ATOM      1  C   UNL A   1      42.083  19.078  26.326  1.00  0.00     0.188 C 
ENDROOT
BRANCH   1   2
ATOM      2  C   UNL A   1      43.327  18.170  26.373  1.00  0.00     0.188 C 
BRANCH   2   3
ATOM      3  O   UNL A   1      44.276  18.191  25.312  1.00  0.00    -0.376 OA
BRANCH   3   4
ATOM      4  C   UNL A   1      44.601  19.418  24.672  1.00  0.00     0.202 C 
BRANCH   4   5
ATOM      5  C   UNL A   1      46.051  19.901  24.766  1.00  0.00     0.261 C 
BRANCH   5   6
ATOM      6  O   UNL A   1      46.217  21.050  25.612  1.00  0.00    -0.459 OA
BRANCH   6   7
ATOM      7  C   UNL A   1      45.997  22.262  25.014  1.00  0.00     0.348 C 
ATOM      8  O   UNL A   1      45.787  22.418  23.823  1.00  0.00    -0.245 OA
BRANCH   7   9
ATOM      9  C   UNL A   1      45.946  23.301  26.028  1.00  0.00     0.114 A 
ATOM     10  C   UNL A   1      46.317  26.970  27.392  1.00  0.00     0.057 C 
ATOM     11  C   UNL A   1      46.087  25.519  27.135  1.00  0.00     0.017 A 
ATOM     12  S   UNL A   1      46.586  24.844  25.642  1.00  0.00    -0.132 S 
ATOM     13  C   UNL A   1      45.496  24.560  27.925  1.00  0.00     0.032 A 
ATOM     14  C   UNL A   1      45.407  23.287  27.301  1.00  0.00     0.043 A 
ATOM     15  Br  UNL A   1      44.807  24.835  29.664  1.00  0.00    -0.050 Br
ENDBRANCH   7   9
ENDBRANCH   6   7
ENDBRANCH   5   6
ENDBRANCH   4   5
ENDBRANCH   3   4
ENDBRANCH   2   3
ENDBRANCH   1   2
BRANCH   1  16
ATOM     16  O   UNL A   1      41.952  19.944  27.441  1.00  0.00    -0.376 OA
BRANCH  16  17
ATOM     17  C   UNL A   1      42.419  21.272  27.262  1.00  0.00     0.202 C 
BRANCH  17  18
ATOM     18  C   UNL A   1      41.751  22.026  26.108  1.00  0.00     0.261 C 
BRANCH  18  19
ATOM     19  O   UNL A   1      41.228  23.321  26.446  1.00  0.00    -0.460 OA
BRANCH  19  20
ATOM     20  C   UNL A   1      42.012  24.387  26.176  1.00  0.00     0.338 C 
ATOM     21  O   UNL A   1      42.782  24.521  25.244  1.00  0.00    -0.246 OA
BRANCH  20  22
ATOM     22  C   UNL A   1      41.664  25.455  27.137  1.00  0.00     0.060 A 
ATOM     23  C   UNL A   1      42.469  26.598  27.206  1.00  0.00     0.016 A 
ATOM     24  C   UNL A   1      40.546  25.326  27.966  1.00  0.00     0.016 A 
ATOM     25  C   UNL A   1      42.168  27.607  28.124  1.00  0.00     0.010 A 
ATOM     26  C   UNL A   1      40.256  26.329  28.895  1.00  0.00     0.010 A 
ATOM     27  C   UNL A   1      41.078  27.464  28.996  1.00  0.00    -0.014 A 
BRANCH  27  28
ATOM     28  C   UNL A   1      40.885  28.418  30.115  1.00  0.00     0.031 A 
ATOM     29  C   UNL A   1      39.791  29.445  30.009  1.00  0.00     0.074 A 
ATOM     30  C   UNL A   1      41.667  28.382  31.210  1.00  0.00     0.049 A 
ATOM     31  N   UNL A   1      39.461  30.396  30.847  1.00  0.00    -0.248 NA
ATOM     32  C   UNL A   1      38.956  29.390  28.798  1.00  0.00     0.031 C 
ATOM     33  C   UNL A   1      42.740  27.421  31.455  1.00  0.00     0.029 A 
ATOM     34  N   UNL A   1      41.675  29.189  32.321  1.00  0.00    -0.354 N 
ATOM     35  C   UNL A   1      38.382  31.050  30.266  1.00  0.00     0.074 A 
ATOM     36  C   UNL A   1      38.128  30.406  28.995  1.00  0.00     0.031 C 
ATOM     37  C   UNL A   1      43.311  27.701  32.641  1.00  0.00     0.029 A 
ATOM     38  C   UNL A   1      42.662  28.876  33.223  1.00  0.00     0.049 A 
ATOM     39  H   UNL A   1      41.033  29.923  32.458  1.00  0.00     0.167 HD
ATOM     40  C   UNL A   1      37.661  32.090  30.747  1.00  0.00     0.031 A 
ATOM     41  C   UNL A   1      43.013  29.479  34.375  1.00  0.00     0.031 A 
ATOM     42  C   UNL A   1      37.920  32.753  31.995  1.00  0.00     0.049 A 
ATOM     43  C   UNL A   1      42.250  30.690  34.845  1.00  0.00     0.074 A 
ATOM     44  C   UNL A   1      37.236  33.812  32.567  1.00  0.00     0.029 A 
ATOM     45  N   UNL A   1      38.952  32.428  32.859  1.00  0.00    -0.354 N 
ATOM     46  N   UNL A   1      41.211  31.276  34.304  1.00  0.00    -0.248 NA
ATOM     47  C   UNL A   1      42.710  31.319  36.094  1.00  0.00     0.031 C 
ATOM     48  C   UNL A   1      37.886  34.159  33.757  1.00  0.00     0.029 A 
ATOM     49  C   UNL A   1      38.941  33.282  33.948  1.00  0.00     0.049 A 
ATOM     50  H   UNL A   1      39.599  31.698  32.720  1.00  0.00     0.167 HD
ATOM     51  C   UNL A   1      40.876  32.322  35.157  1.00  0.00     0.074 A 
ATOM     52  C   UNL A   1      41.816  32.283  36.258  1.00  0.00     0.031 C 
ATOM     53  C   UNL A   1      39.879  33.232  35.039  1.00  0.00     0.031 A 
BRANCH  40  54
ATOM     54  C   UNL A   1      36.532  32.594  29.895  1.00  0.00    -0.014 A 
ATOM     55  C   UNL A   1      35.259  32.006  29.958  1.00  0.00     0.009 A 
ATOM     56  C   UNL A   1      36.736  33.689  29.042  1.00  0.00     0.009 A 
ATOM     57  C   UNL A   1      34.220  32.488  29.160  1.00  0.00     0.001 A 
ATOM     58  C   UNL A   1      35.689  34.184  28.264  1.00  0.00     0.001 A 
ATOM     59  C   UNL A   1      34.434  33.579  28.318  1.00  0.00     0.000 A 
ENDBRANCH  40  54
BRANCH  41  60
ATOM     60  C   UNL A   1      44.165  28.971  35.167  1.00  0.00    -0.014 A 
ATOM     61  C   UNL A   1      45.468  29.414  34.897  1.00  0.00     0.009 A 
ATOM     62  C   UNL A   1      43.968  28.008  36.168  1.00  0.00     0.009 A 
ATOM     63  C   UNL A   1      46.555  28.882  35.598  1.00  0.00     0.001 A 
ATOM     64  C   UNL A   1      45.053  27.498  36.885  1.00  0.00     0.001 A 
ATOM     65  C   UNL A   1      46.346  27.928  36.592  1.00  0.00     0.000 A 
ENDBRANCH  41  60
BRANCH  53  66
ATOM     66  C   UNL A   1      39.726  34.238  36.144  1.00  0.00    -0.014 A 
ATOM     67  C   UNL A   1      39.010  33.934  37.312  1.00  0.00     0.009 A 
ATOM     68  C   UNL A   1      40.350  35.490  36.034  1.00  0.00     0.009 A 
ATOM     69  C   UNL A   1      38.897  34.878  38.335  1.00  0.00     0.001 A 
ATOM     70  C   UNL A   1      40.257  36.423  37.069  1.00  0.00     0.001 A 
ATOM     71  C   UNL A   1      39.524  36.119  38.215  1.00  0.00     0.000 A 
ENDBRANCH  53  66
ENDBRANCH  27  28
ENDBRANCH  20  22
ENDBRANCH  19  20
ENDBRANCH  18  19
ENDBRANCH  17  18
ENDBRANCH  16  17
ENDBRANCH   1  16
TORSDOF 17
ENDMDL
MODEL 3
REMARK VINA RESULT:      -7.5      2.223      3.747
REMARK SMILES Cc1sc(C(=O)OCCOCCOCCOC(=O)c2ccc(-c3c4nc(c(-c5ccccc5)c5ccc([nH]5)c(-c5ccccc5)c5nc(c(-c6ccccc6)c6ccc3[nH]6)C=C5)C=C4)cc2)cc1Br
REMARK SMILES IDX 12 1 11 2 10 3 9 4 8 5 7 6 5 7 6 8 4 9 1 10 2 11 3 12 68 13
REMARK SMILES IDX 67 14 69 15 13 16 14 17 15 18 16 19 17 20 18 21 19 22 20 23
REMARK SMILES IDX 66 24 21 25 65 26 22 27 23 28 24 29 59 30 25 31 64 32 58 33
REMARK SMILES IDX 60 34 26 35 63 36 57 37 56 38 27 40 49 41 34 42 48 43 35 44
REMARK SMILES IDX 38 45 47 46 61 47 36 48 37 49 46 51 62 52 39 53 28 54 29 55
REMARK SMILES IDX 33 56 30 57 32 58 31 59 50 60 51 61 55 62 52 63 54 64 53 65
REMARK SMILES IDX 40 66 41 67 45 68 42 69 44 70 43 71
REMARK H PARENT 60 39 38 50
REMARK Flexibility Score: inf
ROOT
ATOM      1  C   UNL A   1      42.320  19.219  26.128  1.00  0.00     0.188 C 
ENDROOT
BRANCH   1   2
ATOM      2  C   UNL A   1      43.679  19.096  25.413  1.00  0.00     0.188 C 
BRANCH   2   3
ATOM      3  O   UNL A   1      44.063  20.046  24.425  1.00  0.00    -0.376 OA
BRANCH   3   4
ATOM      4  C   UNL A   1      44.899  21.140  24.777  1.00  0.00     0.202 C 
BRANCH   4   5
ATOM      5  C   UNL A   1      44.434  22.543  24.375  1.00  0.00     0.261 C 
BRANCH   5   6
ATOM      6  O   UNL A   1      44.683  23.537  25.381  1.00  0.00    -0.459 OA
BRANCH   6   7
ATOM      7  C   UNL A   1      45.531  24.549  25.017  1.00  0.00     0.348 C 
ATOM      8  O   UNL A   1      46.534  24.401  24.340  1.00  0.00    -0.245 OA
BRANCH   7   9
ATOM      9  C   UNL A   1      44.992  25.820  25.468  1.00  0.00     0.114 A 
ATOM     10  C   UNL A   1      45.162  29.360  27.170  1.00  0.00     0.057 C 
ATOM     11  C   UNL A   1      44.829  28.085  26.471  1.00  0.00     0.017 A 
ATOM     12  S   UNL A   1      45.976  26.813  26.461  1.00  0.00    -0.132 S 
ATOM     13  C   UNL A   1      43.700  27.724  25.774  1.00  0.00     0.032 A 
ATOM     14  C   UNL A   1      43.782  26.430  25.193  1.00  0.00     0.043 A 
ATOM     15  Br  UNL A   1      42.162  28.797  25.531  1.00  0.00    -0.050 Br
ENDBRANCH   7   9
ENDBRANCH   6   7
ENDBRANCH   5   6
ENDBRANCH   4   5
ENDBRANCH   3   4
ENDBRANCH   2   3
ENDBRANCH   1   2
BRANCH   1  16
ATOM     16  O   UNL A   1      42.220  20.336  26.997  1.00  0.00    -0.376 OA
BRANCH  16  17
ATOM     17  C   UNL A   1      41.573  21.484  26.472  1.00  0.00     0.202 C 
BRANCH  17  18
ATOM     18  C   UNL A   1      40.145  21.233  25.975  1.00  0.00     0.261 C 
BRANCH  18  19
ATOM     19  O   UNL A   1      39.118  21.945  26.683  1.00  0.00    -0.460 OA
BRANCH  19  20
ATOM     20  C   UNL A   1      38.617  23.049  26.087  1.00  0.00     0.338 C 
ATOM     21  O   UNL A   1      37.775  23.097  25.210  1.00  0.00    -0.246 OA
BRANCH  20  22
ATOM     22  C   UNL A   1      39.160  24.227  26.794  1.00  0.00     0.060 A 
ATOM     23  C   UNL A   1      38.837  24.421  28.142  1.00  0.00     0.016 A 
ATOM     24  C   UNL A   1      39.986  25.136  26.127  1.00  0.00     0.016 A 
ATOM     25  C   UNL A   1      39.323  25.541  28.820  1.00  0.00     0.010 A 
ATOM     26  C   UNL A   1      40.458  26.265  26.803  1.00  0.00     0.010 A 
ATOM     27  C   UNL A   1      40.110  26.487  28.146  1.00  0.00    -0.014 A 
BRANCH  27  28
ATOM     28  C   UNL A   1      40.442  27.780  28.791  1.00  0.00     0.031 A 
ATOM     29  C   UNL A   1      41.804  27.954  29.406  1.00  0.00     0.074 A 
ATOM     30  C   UNL A   1      39.552  28.789  28.837  1.00  0.00     0.049 A 
ATOM     31  N   UNL A   1      42.300  28.981  30.048  1.00  0.00    -0.248 NA
ATOM     32  C   UNL A   1      42.730  26.817  29.277  1.00  0.00     0.031 C 
ATOM     33  C   UNL A   1      38.212  28.767  28.255  1.00  0.00     0.029 A 
ATOM     34  N   UNL A   1      39.651  30.033  29.412  1.00  0.00    -0.354 N 
ATOM     35  C   UNL A   1      43.594  28.616  30.397  1.00  0.00     0.074 A 
ATOM     36  C   UNL A   1      43.799  27.265  29.920  1.00  0.00     0.031 C 
ATOM     37  C   UNL A   1      37.608  29.940  28.511  1.00  0.00     0.029 A 
ATOM     38  C   UNL A   1      38.507  30.784  29.298  1.00  0.00     0.049 A 
ATOM     39  H   UNL A   1      40.464  30.354  29.864  1.00  0.00     0.167 HD
ATOM     40  C   UNL A   1      44.533  29.340  31.052  1.00  0.00     0.031 A 
ATOM     41  C   UNL A   1      38.214  32.003  29.789  1.00  0.00     0.031 A 
ATOM     42  C   UNL A   1      44.332  30.671  31.553  1.00  0.00     0.049 A 
ATOM     43  C   UNL A   1      39.245  32.753  30.591  1.00  0.00     0.074 A 
ATOM     44  C   UNL A   1      45.229  31.485  32.223  1.00  0.00     0.029 A 
ATOM     45  N   UNL A   1      43.147  31.380  31.449  1.00  0.00    -0.354 N 
ATOM     46  N   UNL A   1      40.476  32.411  30.884  1.00  0.00    -0.248 NA
ATOM     47  C   UNL A   1      38.845  34.064  31.127  1.00  0.00     0.031 C 
ATOM     48  C   UNL A   1      44.570  32.671  32.568  1.00  0.00     0.029 A 
ATOM     49  C   UNL A   1      43.280  32.612  32.066  1.00  0.00     0.049 A 
ATOM     50  H   UNL A   1      42.330  31.057  31.004  1.00  0.00     0.167 HD
ATOM     51  C   UNL A   1      41.004  33.472  31.611  1.00  0.00     0.074 A 
ATOM     52  C   UNL A   1      39.964  34.475  31.705  1.00  0.00     0.031 C 
ATOM     53  C   UNL A   1      42.240  33.603  32.150  1.00  0.00     0.031 A 
BRANCH  40  54
ATOM     54  C   UNL A   1      45.862  28.684  31.289  1.00  0.00    -0.014 A 
ATOM     55  C   UNL A   1      46.065  27.837  32.391  1.00  0.00     0.009 A 
ATOM     56  C   UNL A   1      46.914  28.889  30.384  1.00  0.00     0.009 A 
ATOM     57  C   UNL A   1      47.307  27.233  32.596  1.00  0.00     0.001 A 
ATOM     58  C   UNL A   1      48.147  28.265  30.580  1.00  0.00     0.001 A 
ATOM     59  C   UNL A   1      48.345  27.444  31.689  1.00  0.00     0.000 A 
ENDBRANCH  40  54
BRANCH  41  60
ATOM     60  C   UNL A   1      36.868  32.598  29.566  1.00  0.00    -0.014 A 
ATOM     61  C   UNL A   1      36.596  33.332  28.402  1.00  0.00     0.009 A 
ATOM     62  C   UNL A   1      35.865  32.466  30.537  1.00  0.00     0.009 A 
ATOM     63  C   UNL A   1      35.353  33.947  28.229  1.00  0.00     0.001 A 
ATOM     64  C   UNL A   1      34.614  33.059  30.348  1.00  0.00     0.001 A 
ATOM     65  C   UNL A   1      34.362  33.807  29.200  1.00  0.00     0.000 A 
ENDBRANCH  41  60
BRANCH  53  66
ATOM     66  C   UNL A   1      42.551  34.891  32.859  1.00  0.00    -0.014 A 
ATOM     67  C   UNL A   1      43.285  35.910  32.231  1.00  0.00     0.009 A 
ATOM     68  C   UNL A   1      42.061  35.106  34.156  1.00  0.00     0.009 A 
ATOM     69  C   UNL A   1      43.547  37.106  32.902  1.00  0.00     0.001 A 
ATOM     70  C   UNL A   1      42.303  36.313  34.815  1.00  0.00     0.001 A 
ATOM     71  C   UNL A   1      43.051  37.309  34.190  1.00  0.00     0.000 A 
ENDBRANCH  53  66
ENDBRANCH  27  28
ENDBRANCH  20  22
ENDBRANCH  19  20
ENDBRANCH  18  19
ENDBRANCH  17  18
ENDBRANCH  16  17
ENDBRANCH   1  16
TORSDOF 17
ENDMDL
