MODEL 1
REMARK VINA RESULT:      -9.2      0.000      0.000
REMARK SMILES CC(C)CC(=O)N[C@@H](CC(=O)OCCOCCOCCOC(=O)c1ccc(-c2c3nc(c(-c4ccccc4)c4ccc([nH]4)c(-c4ccccc4)c4nc(c(-c5ccccc5)c5ccc2[nH]5)C=C4)C=C3)cc1)c1ccccc1Cl
REMARK SMILES IDX 16 1 15 2 14 3 13 4 12 5 10 6 11 7 9 8 8 9 7 10 5 11 6 12
REMARK SMILES IDX 4 14 2 15 1 16 3 17 72 18 73 19 77 20 74 21 76 22 78 23
REMARK SMILES IDX 75 24 17 25 18 26 19 27 20 28 21 29 22 30 23 31 24 32 25 33
REMARK SMILES IDX 71 34 26 35 70 36 27 37 28 38 29 39 64 40 30 41 69 42 63 43
REMARK SMILES IDX 65 44 31 45 68 46 62 47 61 48 32 50 54 51 39 52 53 53 40 54
REMARK SMILES IDX 43 55 52 56 66 57 41 58 42 59 51 61 67 62 44 63 33 64 34 65
REMARK SMILES IDX 38 66 35 67 37 68 36 69 55 70 56 71 60 72 57 73 59 74 58 75
REMARK SMILES IDX 45 76 46 77 50 78 47 79 49 80 48 81
REMARK H PARENT 7 13 65 49 43 60
REMARK Flexibility Score: inf
ROOT
ATOM      1  C   UNL A   1      41.021  20.273  26.123  1.00  0.00     0.188 C 
ENDROOT
BRANCH   1   2
ATOM      2  O   UNL A   1      40.337  20.996  27.141  1.00  0.00    -0.376 OA
BRANCH   2   3
ATOM      3  C   UNL A   1      39.712  22.216  26.795  1.00  0.00     0.202 C 
BRANCH   3   4
ATOM      4  C   UNL A   1      38.517  21.977  25.868  1.00  0.00     0.261 C 
BRANCH   4   5
ATOM      5  O   UNL A   1      37.639  23.116  25.719  1.00  0.00    -0.463 OA
BRANCH   5   6
ATOM      6  C   UNL A   1      36.476  22.869  25.053  1.00  0.00     0.308 C 
ATOM      7  O   UNL A   1      35.670  23.719  24.696  1.00  0.00    -0.252 OA
BRANCH   6   8
ATOM      8  C   UNL A   1      36.143  21.408  24.986  1.00  0.00     0.152 C 
BRANCH   8   9
ATOM      9  C   UNL A   1      34.724  20.866  25.222  1.00  0.00     0.125 C 
BRANCH   9  10
ATOM     10  N   UNL A   1      34.317  21.199  26.586  1.00  0.00    -0.349 N 
ATOM     11  C   UNL A   1      33.373  22.103  26.980  1.00  0.00     0.220 C 
ATOM     12  O   UNL A   1      33.313  22.416  28.169  1.00  0.00    -0.275 OA
ATOM     13  H   UNL A   1      34.780  20.714  27.308  1.00  0.00     0.164 HD
BRANCH  11  14
ATOM     14  C   UNL A   1      32.386  22.660  25.964  1.00  0.00     0.103 C 
BRANCH  14  15
ATOM     15  C   UNL A   1      31.850  24.076  26.259  1.00  0.00    -0.008 C 
ATOM     16  C   UNL A   1      32.896  25.188  26.159  1.00  0.00     0.008 C 
ATOM     17  C   UNL A   1      30.731  24.399  25.265  1.00  0.00     0.008 C 
ENDBRANCH  14  15
ENDBRANCH  11  14
ENDBRANCH   9  10
BRANCH   9  18
ATOM     18  C   UNL A   1      34.160  19.537  24.712  1.00  0.00    -0.006 A 
ATOM     19  C   UNL A   1      32.834  19.476  24.214  1.00  0.00     0.007 A 
ATOM     20  C   UNL A   1      34.962  18.401  24.483  1.00  0.00     0.046 A 
ATOM     21  C   UNL A   1      32.339  18.354  23.536  1.00  0.00     0.000 A 
ATOM     22  C   UNL A   1      34.467  17.287  23.782  1.00  0.00     0.021 A 
ATOM     23  Cl  UNL A   1      36.607  18.288  24.983  1.00  0.00    -0.084 Cl
ATOM     24  C   UNL A   1      33.157  17.257  23.317  1.00  0.00     0.002 A 
ENDBRANCH   9  18
ENDBRANCH   8   9
ENDBRANCH   6   8
ENDBRANCH   5   6
ENDBRANCH   4   5
ENDBRANCH   3   4
ENDBRANCH   2   3
ENDBRANCH   1   2
BRANCH   1  25
ATOM     25  C   UNL A   1      42.409  19.682  26.433  1.00  0.00     0.188 C 
BRANCH  25  26
ATOM     26  O   UNL A   1      43.553  20.420  26.011  1.00  0.00    -0.376 OA
BRANCH  26  27
ATOM     27  C   UNL A   1      43.294  21.649  25.332  1.00  0.00     0.202 C 
BRANCH  27  28
ATOM     28  C   UNL A   1      43.891  22.895  25.993  1.00  0.00     0.261 C 
BRANCH  28  29
ATOM     29  O   UNL A   1      42.857  23.824  26.372  1.00  0.00    -0.460 OA
BRANCH  29  30
ATOM     30  C   UNL A   1      43.113  25.111  26.040  1.00  0.00     0.338 C 
ATOM     31  O   UNL A   1      43.755  25.498  25.080  1.00  0.00    -0.246 OA
BRANCH  30  32
ATOM     32  C   UNL A   1      42.499  26.032  27.023  1.00  0.00     0.060 A 
ATOM     33  C   UNL A   1      43.006  27.315  27.235  1.00  0.00     0.016 A 
ATOM     34  C   UNL A   1      41.486  25.549  27.850  1.00  0.00     0.016 A 
ATOM     35  C   UNL A   1      42.555  28.089  28.309  1.00  0.00     0.010 A 
ATOM     36  C   UNL A   1      40.992  26.349  28.887  1.00  0.00     0.010 A 
ATOM     37  C   UNL A   1      41.548  27.613  29.154  1.00  0.00    -0.014 A 
BRANCH  37  38
ATOM     38  C   UNL A   1      41.122  28.373  30.364  1.00  0.00     0.031 A 
ATOM     39  C   UNL A   1      39.945  29.309  30.271  1.00  0.00     0.074 A 
ATOM     40  C   UNL A   1      41.758  28.245  31.545  1.00  0.00     0.049 A 
ATOM     41  N   UNL A   1      39.592  30.284  31.070  1.00  0.00    -0.248 NA
ATOM     42  C   UNL A   1      39.047  29.121  29.119  1.00  0.00     0.031 C 
ATOM     43  C   UNL A   1      42.829  27.296  31.843  1.00  0.00     0.029 A 
ATOM     44  N   UNL A   1      41.589  28.936  32.722  1.00  0.00    -0.354 N 
ATOM     45  C   UNL A   1      38.479  30.871  30.481  1.00  0.00     0.074 A 
ATOM     46  C   UNL A   1      38.200  30.130  29.269  1.00  0.00     0.031 C 
ATOM     47  C   UNL A   1      43.211  27.451  33.120  1.00  0.00     0.029 A 
ATOM     48  C   UNL A   1      42.493  28.583  33.695  1.00  0.00     0.049 A 
ATOM     49  H   UNL A   1      40.889  29.615  32.854  1.00  0.00     0.167 HD
ATOM     50  C   UNL A   1      37.768  31.944  30.902  1.00  0.00     0.031 A 
ATOM     51  C   UNL A   1      42.773  29.152  34.884  1.00  0.00     0.031 A 
ATOM     52  C   UNL A   1      38.029  32.656  32.126  1.00  0.00     0.049 A 
ATOM     53  C   UNL A   1      42.049  30.406  35.288  1.00  0.00     0.074 A 
ATOM     54  C   UNL A   1      37.387  33.773  32.632  1.00  0.00     0.029 A 
ATOM     55  N   UNL A   1      39.005  32.305  33.044  1.00  0.00    -0.354 N 
ATOM     56  N   UNL A   1      41.079  31.035  34.671  1.00  0.00    -0.248 NA
ATOM     57  C   UNL A   1      42.488  31.049  36.535  1.00  0.00     0.031 C 
ATOM     58  C   UNL A   1      38.005  34.125  33.836  1.00  0.00     0.029 A 
ATOM     59  C   UNL A   1      38.998  33.196  34.104  1.00  0.00     0.049 A 
ATOM     60  H   UNL A   1      39.614  31.537  32.957  1.00  0.00     0.167 HD
ATOM     61  C   UNL A   1      40.791  32.146  35.454  1.00  0.00     0.074 A 
ATOM     62  C   UNL A   1      41.670  32.090  36.603  1.00  0.00     0.031 C 
ATOM     63  C   UNL A   1      39.885  33.130  35.235  1.00  0.00     0.031 A 
BRANCH  50  64
ATOM     64  C   UNL A   1      36.686  32.460  29.997  1.00  0.00    -0.014 A 
ATOM     65  C   UNL A   1      35.342  32.095  30.164  1.00  0.00     0.009 A 
ATOM     66  C   UNL A   1      37.025  33.357  28.969  1.00  0.00     0.009 A 
ATOM     67  C   UNL A   1      34.364  32.596  29.300  1.00  0.00     0.001 A 
ATOM     68  C   UNL A   1      36.042  33.875  28.125  1.00  0.00     0.001 A 
ATOM     69  C   UNL A   1      34.714  33.488  28.286  1.00  0.00     0.000 A 
ENDBRANCH  50  64
BRANCH  51  70
ATOM     70  C   UNL A   1      43.867  28.602  35.729  1.00  0.00    -0.014 A 
ATOM     71  C   UNL A   1      43.599  27.637  36.711  1.00  0.00     0.009 A 
ATOM     72  C   UNL A   1      45.189  29.043  35.555  1.00  0.00     0.009 A 
ATOM     73  C   UNL A   1      44.633  27.130  37.504  1.00  0.00     0.001 A 
ATOM     74  C   UNL A   1      46.225  28.511  36.325  1.00  0.00     0.001 A 
ATOM     75  C   UNL A   1      45.945  27.560  37.303  1.00  0.00     0.000 A 
ENDBRANCH  51  70
BRANCH  63  76
ATOM     76  C   UNL A   1      39.788  34.211  36.271  1.00  0.00    -0.014 A 
ATOM     77  C   UNL A   1      39.041  34.025  37.444  1.00  0.00     0.009 A 
ATOM     78  C   UNL A   1      40.482  35.417  36.088  1.00  0.00     0.009 A 
ATOM     79  C   UNL A   1      38.969  35.039  38.401  1.00  0.00     0.001 A 
ATOM     80  C   UNL A   1      40.427  36.419  37.057  1.00  0.00     0.001 A 
ATOM     81  C   UNL A   1      39.664  36.232  38.209  1.00  0.00     0.000 A 
ENDBRANCH  63  76
ENDBRANCH  37  38
ENDBRANCH  30  32
ENDBRANCH  29  30
ENDBRANCH  28  29
ENDBRANCH  27  28
ENDBRANCH  26  27
ENDBRANCH  25  26
ENDBRANCH   1  25
TORSDOF 22
ENDMDL
MODEL 2
REMARK VINA RESULT:      -8.6      1.794      2.397
REMARK SMILES CC(C)CC(=O)N[C@@H](CC(=O)OCCOCCOCCOC(=O)c1ccc(-c2c3nc(c(-c4ccccc4)c4ccc([nH]4)c(-c4ccccc4)c4nc(c(-c5ccccc5)c5ccc2[nH]5)C=C4)C=C3)cc1)c1ccccc1Cl
REMARK SMILES IDX 16 1 15 2 14 3 13 4 12 5 10 6 11 7 9 8 8 9 7 10 5 11 6 12
REMARK SMILES IDX 4 14 2 15 1 16 3 17 72 18 73 19 77 20 74 21 76 22 78 23
REMARK SMILES IDX 75 24 17 25 18 26 19 27 20 28 21 29 22 30 23 31 24 32 25 33
REMARK SMILES IDX 71 34 26 35 70 36 27 37 28 38 29 39 64 40 30 41 69 42 63 43
REMARK SMILES IDX 65 44 31 45 68 46 62 47 61 48 32 50 54 51 39 52 53 53 40 54
REMARK SMILES IDX 43 55 52 56 66 57 41 58 42 59 51 61 67 62 44 63 33 64 34 65
REMARK SMILES IDX 38 66 35 67 37 68 36 69 55 70 56 71 60 72 57 73 59 74 58 75
REMARK SMILES IDX 45 76 46 77 50 78 47 79 49 80 48 81
REMARK H PARENT 7 13 65 49 43 60
REMARK Flexibility Score: inf
ROOT
ATOM      1  C   UNL A   1      40.428  21.472  26.235  1.00  0.00     0.188 C 
ENDROOT
BRANCH   1   2
ATOM      2  O   UNL A   1      39.400  22.204  26.893  1.00  0.00    -0.376 OA
BRANCH   2   3
ATOM      3  C   UNL A   1      38.632  23.117  26.132  1.00  0.00     0.202 C 
BRANCH   3   4
ATOM      4  C   UNL A   1      37.546  22.389  25.334  1.00  0.00     0.261 C 
BRANCH   4   5
ATOM      5  O   UNL A   1      36.373  23.186  25.057  1.00  0.00    -0.463 OA
BRANCH   5   6
ATOM      6  C   UNL A   1      35.436  23.202  26.047  1.00  0.00     0.308 C 
ATOM      7  O   UNL A   1      35.109  22.237  26.728  1.00  0.00    -0.252 OA
BRANCH   6   8
ATOM      8  C   UNL A   1      34.655  24.481  26.089  1.00  0.00     0.152 C 
BRANCH   8   9
ATOM      9  C   UNL A   1      33.411  24.726  25.220  1.00  0.00     0.125 C 
BRANCH   9  10
ATOM     10  N   UNL A   1      32.328  25.206  26.077  1.00  0.00    -0.349 N 
ATOM     11  C   UNL A   1      31.715  26.426  26.046  1.00  0.00     0.220 C 
ATOM     12  O   UNL A   1      30.977  26.741  26.979  1.00  0.00    -0.275 OA
ATOM     13  H   UNL A   1      32.003  24.575  26.760  1.00  0.00     0.164 HD
BRANCH  11  14
ATOM     14  C   UNL A   1      31.908  27.341  24.844  1.00  0.00     0.103 C 
BRANCH  14  15
ATOM     15  C   UNL A   1      30.827  27.243  23.749  1.00  0.00    -0.008 C 
ATOM     16  C   UNL A   1      29.642  26.341  24.100  1.00  0.00     0.008 C 
ATOM     17  C   UNL A   1      30.279  28.644  23.466  1.00  0.00     0.008 C 
ENDBRANCH  14  15
ENDBRANCH  11  14
ENDBRANCH   9  10
BRANCH   9  18
ATOM     18  C   UNL A   1      32.937  23.867  24.044  1.00  0.00    -0.006 A 
ATOM     19  C   UNL A   1      33.285  24.230  22.718  1.00  0.00     0.007 A 
ATOM     20  C   UNL A   1      32.367  22.589  24.209  1.00  0.00     0.046 A 
ATOM     21  C   UNL A   1      33.073  23.375  21.628  1.00  0.00     0.000 A 
ATOM     22  C   UNL A   1      32.178  21.727  23.115  1.00  0.00     0.021 A 
ATOM     23  Cl  UNL A   1      31.902  21.951  25.741  1.00  0.00    -0.084 Cl
ATOM     24  C   UNL A   1      32.520  22.120  21.825  1.00  0.00     0.002 A 
ENDBRANCH   9  18
ENDBRANCH   8   9
ENDBRANCH   6   8
ENDBRANCH   5   6
ENDBRANCH   4   5
ENDBRANCH   3   4
ENDBRANCH   2   3
ENDBRANCH   1   2
BRANCH   1  25
ATOM     25  C   UNL A   1      41.672  21.047  27.039  1.00  0.00     0.188 C 
BRANCH  25  26
ATOM     26  O   UNL A   1      42.939  21.536  26.607  1.00  0.00    -0.376 OA
BRANCH  26  27
ATOM     27  C   UNL A   1      42.935  22.334  25.423  1.00  0.00     0.202 C 
BRANCH  27  28
ATOM     28  C   UNL A   1      43.396  23.783  25.614  1.00  0.00     0.261 C 
BRANCH  28  29
ATOM     29  O   UNL A   1      42.483  24.507  26.460  1.00  0.00    -0.460 OA
BRANCH  29  30
ATOM     30  C   UNL A   1      41.997  25.645  25.911  1.00  0.00     0.338 C 
ATOM     31  O   UNL A   1      41.976  25.928  24.727  1.00  0.00    -0.246 OA
BRANCH  30  32
ATOM     32  C   UNL A   1      41.473  26.545  26.963  1.00  0.00     0.060 A 
ATOM     33  C   UNL A   1      42.026  27.808  27.183  1.00  0.00     0.016 A 
ATOM     34  C   UNL A   1      40.505  26.059  27.839  1.00  0.00     0.016 A 
ATOM     35  C   UNL A   1      41.668  28.554  28.310  1.00  0.00     0.010 A 
ATOM     36  C   UNL A   1      40.101  26.834  28.933  1.00  0.00     0.010 A 
ATOM     37  C   UNL A   1      40.707  28.074  29.205  1.00  0.00    -0.014 A 
BRANCH  37  38
ATOM     38  C   UNL A   1      40.381  28.801  30.465  1.00  0.00     0.031 A 
ATOM     39  C   UNL A   1      39.272  29.820  30.464  1.00  0.00     0.074 A 
ATOM     40  C   UNL A   1      41.050  28.570  31.612  1.00  0.00     0.049 A 
ATOM     41  N   UNL A   1      39.021  30.777  31.321  1.00  0.00    -0.248 NA
ATOM     42  C   UNL A   1      38.321  29.754  29.341  1.00  0.00     0.031 C 
ATOM     43  C   UNL A   1      42.061  27.535  31.821  1.00  0.00     0.029 A 
ATOM     44  N   UNL A   1      40.975  29.212  32.826  1.00  0.00    -0.354 N 
ATOM     45  C   UNL A   1      37.932  31.469  30.805  1.00  0.00     0.074 A 
ATOM     46  C   UNL A   1      37.556  30.811  29.572  1.00  0.00     0.031 C 
ATOM     47  C   UNL A   1      42.499  27.599  33.088  1.00  0.00     0.029 A 
ATOM     48  C   UNL A   1      41.887  28.749  33.744  1.00  0.00     0.049 A 
ATOM     49  H   UNL A   1      40.331  29.932  33.018  1.00  0.00     0.167 HD
ATOM     50  C   UNL A   1      37.316  32.567  31.305  1.00  0.00     0.031 A 
ATOM     51  C   UNL A   1      42.251  29.238  34.946  1.00  0.00     0.031 A 
ATOM     52  C   UNL A   1      37.673  33.197  32.549  1.00  0.00     0.049 A 
ATOM     53  C   UNL A   1      41.635  30.517  35.437  1.00  0.00     0.074 A 
ATOM     54  C   UNL A   1      37.132  34.331  33.132  1.00  0.00     0.029 A 
ATOM     55  N   UNL A   1      38.655  32.734  33.410  1.00  0.00    -0.354 N 
ATOM     56  N   UNL A   1      40.691  31.243  34.890  1.00  0.00    -0.248 NA
ATOM     57  C   UNL A   1      42.165  31.065  36.694  1.00  0.00     0.031 C 
ATOM     58  C   UNL A   1      37.819  34.578  34.326  1.00  0.00     0.029 A 
ATOM     59  C   UNL A   1      38.751  33.570  34.510  1.00  0.00     0.049 A 
ATOM     60  H   UNL A   1      39.203  31.930  33.262  1.00  0.00     0.167 HD
ATOM     61  C   UNL A   1      40.512  32.331  35.735  1.00  0.00     0.074 A 
ATOM     62  C   UNL A   1      41.427  32.156  36.844  1.00  0.00     0.031 C 
ATOM     63  C   UNL A   1      39.672  33.386  35.599  1.00  0.00     0.031 A 
BRANCH  50  64
ATOM     64  C   UNL A   1      36.241  33.202  30.469  1.00  0.00    -0.014 A 
ATOM     65  C   UNL A   1      34.925  33.342  30.934  1.00  0.00     0.009 A 
ATOM     66  C   UNL A   1      36.569  33.697  29.195  1.00  0.00     0.009 A 
ATOM     67  C   UNL A   1      33.953  33.939  30.127  1.00  0.00     0.001 A 
ATOM     68  C   UNL A   1      35.601  34.314  28.402  1.00  0.00     0.001 A 
ATOM     69  C   UNL A   1      34.293  34.427  28.864  1.00  0.00     0.000 A 
ENDBRANCH  50  64
BRANCH  51  70
ATOM     70  C   UNL A   1      43.333  28.570  35.719  1.00  0.00    -0.014 A 
ATOM     71  C   UNL A   1      43.042  27.520  36.603  1.00  0.00     0.009 A 
ATOM     72  C   UNL A   1      44.667  28.985  35.575  1.00  0.00     0.009 A 
ATOM     73  C   UNL A   1      44.065  26.904  37.329  1.00  0.00     0.001 A 
ATOM     74  C   UNL A   1      45.691  28.345  36.277  1.00  0.00     0.001 A 
ATOM     75  C   UNL A   1      45.388  27.310  37.158  1.00  0.00     0.000 A 
ENDBRANCH  51  70
BRANCH  63  76
ATOM     76  C   UNL A   1      39.692  34.419  36.688  1.00  0.00    -0.014 A 
ATOM     77  C   UNL A   1      40.453  35.590  36.560  1.00  0.00     0.009 A 
ATOM     78  C   UNL A   1      38.911  34.233  37.839  1.00  0.00     0.009 A 
ATOM     79  C   UNL A   1      40.453  36.544  37.579  1.00  0.00     0.001 A 
ATOM     80  C   UNL A   1      38.895  35.199  38.845  1.00  0.00     0.001 A 
ATOM     81  C   UNL A   1      39.672  36.350  38.718  1.00  0.00     0.000 A 
ENDBRANCH  63  76
ENDBRANCH  37  38
ENDBRANCH  30  32
ENDBRANCH  29  30
ENDBRANCH  28  29
ENDBRANCH  27  28
ENDBRANCH  26  27
ENDBRANCH  25  26
ENDBRANCH   1  25
TORSDOF 22
ENDMDL
MODEL 3
REMARK VINA RESULT:      -8.3      4.049      5.692
REMARK SMILES CC(C)CC(=O)N[C@@H](CC(=O)OCCOCCOCCOC(=O)c1ccc(-c2c3nc(c(-c4ccccc4)c4ccc([nH]4)c(-c4ccccc4)c4nc(c(-c5ccccc5)c5ccc2[nH]5)C=C4)C=C3)cc1)c1ccccc1Cl
REMARK SMILES IDX 16 1 15 2 14 3 13 4 12 5 10 6 11 7 9 8 8 9 7 10 5 11 6 12
REMARK SMILES IDX 4 14 2 15 1 16 3 17 72 18 73 19 77 20 74 21 76 22 78 23
REMARK SMILES IDX 75 24 17 25 18 26 19 27 20 28 21 29 22 30 23 31 24 32 25 33
REMARK SMILES IDX 71 34 26 35 70 36 27 37 28 38 29 39 64 40 30 41 69 42 63 43
REMARK SMILES IDX 65 44 31 45 68 46 62 47 61 48 32 50 54 51 39 52 53 53 40 54
REMARK SMILES IDX 43 55 52 56 66 57 41 58 42 59 51 61 67 62 44 63 33 64 34 65
REMARK SMILES IDX 38 66 35 67 37 68 36 69 55 70 56 71 60 72 57 73 59 74 58 75
REMARK SMILES IDX 45 76 46 77 50 78 47 79 49 80 48 81
REMARK H PARENT 7 13 65 49 43 60
REMARK Flexibility Score: inf
ROOT
ATOM      1  C   UNL A   1      38.893  21.353  25.774  1.00  0.00     0.188 C 
ENDROOT
BRANCH   1   2
ATOM      2  O   UNL A   1      37.738  22.080  25.370  1.00  0.00    -0.376 OA
BRANCH   2   3
ATOM      3  C   UNL A   1      36.814  21.449  24.506  1.00  0.00     0.202 C 
BRANCH   3   4
ATOM      4  C   UNL A   1      35.815  20.598  25.296  1.00  0.00     0.261 C 
BRANCH   4   5
ATOM      5  O   UNL A   1      34.506  20.498  24.692  1.00  0.00    -0.463 OA
BRANCH   5   6
ATOM      6  C   UNL A   1      33.480  20.292  25.565  1.00  0.00     0.308 C 
ATOM      7  O   UNL A   1      32.840  19.253  25.672  1.00  0.00    -0.252 OA
BRANCH   6   8
ATOM      8  C   UNL A   1      33.036  21.550  26.250  1.00  0.00     0.152 C 
BRANCH   8   9
ATOM      9  C   UNL A   1      32.971  22.910  25.534  1.00  0.00     0.125 C 
BRANCH   9  10
ATOM     10  N   UNL A   1      34.155  23.687  25.897  1.00  0.00    -0.349 N 
ATOM     11  C   UNL A   1      34.979  24.391  25.067  1.00  0.00     0.220 C 
ATOM     12  O   UNL A   1      36.052  24.804  25.509  1.00  0.00    -0.275 OA
ATOM     13  H   UNL A   1      34.387  23.704  26.854  1.00  0.00     0.164 HD
BRANCH  11  14
ATOM     14  C   UNL A   1      34.539  24.698  23.642  1.00  0.00     0.103 C 
BRANCH  14  15
ATOM     15  C   UNL A   1      34.179  26.170  23.356  1.00  0.00    -0.008 C 
ATOM     16  C   UNL A   1      33.170  26.372  22.224  1.00  0.00     0.008 C 
ATOM     17  C   UNL A   1      33.586  26.791  24.624  1.00  0.00     0.008 C 
ENDBRANCH  14  15
ENDBRANCH  11  14
ENDBRANCH   9  10
BRANCH   9  18
ATOM     18  C   UNL A   1      31.718  23.758  25.303  1.00  0.00    -0.006 A 
ATOM     19  C   UNL A   1      31.280  24.660  26.305  1.00  0.00     0.007 A 
ATOM     20  C   UNL A   1      31.093  23.877  24.045  1.00  0.00     0.046 A 
ATOM     21  C   UNL A   1      30.280  25.614  26.069  1.00  0.00     0.000 A 
ATOM     22  C   UNL A   1      30.108  24.850  23.808  1.00  0.00     0.021 A 
ATOM     23  Cl  UNL A   1      31.503  22.894  22.689  1.00  0.00    -0.084 Cl
ATOM     24  C   UNL A   1      29.694  25.711  24.818  1.00  0.00     0.002 A 
ENDBRANCH   9  18
ENDBRANCH   8   9
ENDBRANCH   6   8
ENDBRANCH   5   6
ENDBRANCH   4   5
ENDBRANCH   3   4
ENDBRANCH   2   3
ENDBRANCH   1   2
BRANCH   1  25
ATOM     25  C   UNL A   1      39.822  21.961  26.842  1.00  0.00     0.188 C 
BRANCH  25  26
ATOM     26  O   UNL A   1      40.967  21.208  27.230  1.00  0.00    -0.376 OA
BRANCH  26  27
ATOM     27  C   UNL A   1      41.407  20.209  26.308  1.00  0.00     0.202 C 
BRANCH  27  28
ATOM     28  C   UNL A   1      42.845  20.374  25.807  1.00  0.00     0.261 C 
BRANCH  28  29
ATOM     29  O   UNL A   1      43.421  21.603  26.289  1.00  0.00    -0.460 OA
BRANCH  29  30
ATOM     30  C   UNL A   1      43.357  22.632  25.411  1.00  0.00     0.338 C 
ATOM     31  O   UNL A   1      43.412  22.554  24.197  1.00  0.00    -0.246 OA
BRANCH  30  32
ATOM     32  C   UNL A   1      43.207  23.917  26.130  1.00  0.00     0.060 A 
ATOM     33  C   UNL A   1      42.962  25.110  25.447  1.00  0.00     0.016 A 
ATOM     34  C   UNL A   1      43.461  23.952  27.500  1.00  0.00     0.016 A 
ATOM     35  C   UNL A   1      43.037  26.338  26.111  1.00  0.00     0.010 A 
ATOM     36  C   UNL A   1      43.475  25.177  28.176  1.00  0.00     0.010 A 
ATOM     37  C   UNL A   1      43.302  26.389  27.483  1.00  0.00    -0.014 A 
BRANCH  37  38
ATOM     38  C   UNL A   1      43.488  27.686  28.194  1.00  0.00     0.031 A 
ATOM     39  C   UNL A   1      42.299  28.354  28.833  1.00  0.00     0.074 A 
ATOM     40  C   UNL A   1      44.693  28.280  28.285  1.00  0.00     0.049 A 
ATOM     41  N   UNL A   1      42.150  29.596  29.219  1.00  0.00    -0.248 NA
ATOM     42  C   UNL A   1      41.117  27.507  29.065  1.00  0.00     0.031 C 
ATOM     43  C   UNL A   1      45.965  27.714  27.836  1.00  0.00     0.029 A 
ATOM     44  N   UNL A   1      45.039  29.513  28.789  1.00  0.00    -0.354 N 
ATOM     45  C   UNL A   1      40.839  29.698  29.670  1.00  0.00     0.074 A 
ATOM     46  C   UNL A   1      40.241  28.387  29.530  1.00  0.00     0.031 C 
ATOM     47  C   UNL A   1      46.951  28.586  28.098  1.00  0.00     0.029 A 
ATOM     48  C   UNL A   1      46.369  29.815  28.627  1.00  0.00     0.049 A 
ATOM     49  H   UNL A   1      44.395  30.118  29.224  1.00  0.00     0.167 HD
ATOM     50  C   UNL A   1      40.190  30.790  30.136  1.00  0.00     0.031 A 
ATOM     51  C   UNL A   1      47.038  30.971  28.806  1.00  0.00     0.031 A 
ATOM     52  C   UNL A   1      40.800  32.083  30.304  1.00  0.00     0.049 A 
ATOM     53  C   UNL A   1      46.281  32.202  29.220  1.00  0.00     0.074 A 
ATOM     54  C   UNL A   1      40.223  33.263  30.742  1.00  0.00     0.029 A 
ATOM     55  N   UNL A   1      42.135  32.358  30.056  1.00  0.00    -0.354 N 
ATOM     56  N   UNL A   1      45.012  32.327  29.527  1.00  0.00    -0.248 NA
ATOM     57  C   UNL A   1      47.041  33.458  29.275  1.00  0.00     0.031 C 
ATOM     58  C   UNL A   1      41.200  34.263  30.716  1.00  0.00     0.029 A 
ATOM     59  C   UNL A   1      42.397  33.694  30.310  1.00  0.00     0.049 A 
ATOM     60  H   UNL A   1      42.799  31.702  29.744  1.00  0.00     0.167 HD
ATOM     61  C   UNL A   1      44.824  33.674  29.812  1.00  0.00     0.074 A 
ATOM     62  C   UNL A   1      46.112  34.319  29.667  1.00  0.00     0.031 C 
ATOM     63  C   UNL A   1      43.682  34.321  30.153  1.00  0.00     0.031 A 
BRANCH  50  64
ATOM     64  C   UNL A   1      38.722  30.654  30.428  1.00  0.00    -0.014 A 
ATOM     65  C   UNL A   1      38.247  30.325  31.706  1.00  0.00     0.009 A 
ATOM     66  C   UNL A   1      37.795  30.891  29.399  1.00  0.00     0.009 A 
ATOM     67  C   UNL A   1      36.874  30.207  31.939  1.00  0.00     0.001 A 
ATOM     68  C   UNL A   1      36.425  30.796  29.640  1.00  0.00     0.001 A 
ATOM     69  C   UNL A   1      35.965  30.447  30.907  1.00  0.00     0.000 A 
ENDBRANCH  50  64
BRANCH  51  70
ATOM     70  C   UNL A   1      48.488  31.045  28.485  1.00  0.00    -0.014 A 
ATOM     71  C   UNL A   1      48.922  31.363  27.189  1.00  0.00     0.009 A 
ATOM     72  C   UNL A   1      49.448  30.797  29.480  1.00  0.00     0.009 A 
ATOM     73  C   UNL A   1      50.287  31.423  26.897  1.00  0.00     0.001 A 
ATOM     74  C   UNL A   1      50.812  30.891  29.193  1.00  0.00     0.001 A 
ATOM     75  C   UNL A   1      51.230  31.198  27.900  1.00  0.00     0.000 A 
ENDBRANCH  51  70
BRANCH  63  76
ATOM     76  C   UNL A   1      43.785  35.795  30.413  1.00  0.00    -0.014 A 
ATOM     77  C   UNL A   1      44.080  36.285  31.693  1.00  0.00     0.009 A 
ATOM     78  C   UNL A   1      43.619  36.702  29.355  1.00  0.00     0.009 A 
ATOM     79  C   UNL A   1      44.180  37.660  31.915  1.00  0.00     0.001 A 
ATOM     80  C   UNL A   1      43.743  38.074  29.575  1.00  0.00     0.001 A 
ATOM     81  C   UNL A   1      44.015  38.552  30.856  1.00  0.00     0.000 A 
ENDBRANCH  63  76
ENDBRANCH  37  38
ENDBRANCH  30  32
ENDBRANCH  29  30
ENDBRANCH  28  29
ENDBRANCH  27  28
ENDBRANCH  26  27
ENDBRANCH  25  26
ENDBRANCH   1  25
TORSDOF 22
ENDMDL
