MODEL 1
REMARK VINA RESULT:     -10.0      0.000      0.000
REMARK SMILES O=C(OCCOCCOCCOC(=O)[C@@H]1[C@@H](C(=O)Nc2cccc([N+](=O)[O-])c2)[C@@H]2C=C[C@H]1O2)c1ccc(-c2c3nc(c(-c4ccccc4)c4ccc([nH]4)c(-c4ccccc4)c4nc(c(-c5ccccc5)c5ccc2[nH]5)C=C4)C=C3)cc1
REMARK SMILES IDX 8 1 7 2 6 3 5 4 4 5 3 6 2 7 1 8 34 9 35 10 81 11 36 12 80 13
REMARK SMILES IDX 37 14 38 15 39 16 74 17 40 18 79 19 73 20 75 21 41 22 78 23
REMARK SMILES IDX 72 24 71 25 42 27 64 28 49 29 63 30 50 31 53 32 62 33 76 34
REMARK SMILES IDX 51 35 52 36 61 38 77 39 54 40 43 41 44 42 48 43 45 44 47 45
REMARK SMILES IDX 46 46 65 47 66 48 70 49 67 50 69 51 68 52 55 53 56 54 60 55
REMARK SMILES IDX 57 56 59 57 58 58 9 59 10 60 11 61 12 62 13 63 14 64 15 65
REMARK SMILES IDX 16 66 32 67 29 68 31 69 33 70 30 71 17 72 18 73 19 74 20 76
REMARK SMILES IDX 21 77 28 78 22 79 24 80 23 81 25 82 26 83 27 84
REMARK H PARENT 75 26 53 37 19 75
REMARK Flexibility Score: inf
ROOT
ATOM      1  C   UNL A   1      37.833  22.375  26.044  1.00  0.00     0.188 C 
ENDROOT
BRANCH   1   2
ATOM      2  C   UNL A   1      39.299  22.444  26.479  1.00  0.00     0.188 C 
BRANCH   2   3
ATOM      3  O   UNL A   1      39.832  21.188  26.919  1.00  0.00    -0.376 OA
BRANCH   3   4
ATOM      4  C   UNL A   1      40.846  20.675  26.041  1.00  0.00     0.202 C 
BRANCH   4   5
ATOM      5  C   UNL A   1      42.207  20.389  26.706  1.00  0.00     0.261 C 
BRANCH   5   6
ATOM      6  O   UNL A   1      43.215  21.367  26.404  1.00  0.00    -0.460 OA
BRANCH   6   7
ATOM      7  C   UNL A   1      43.075  22.582  25.814  1.00  0.00     0.338 C 
ATOM      8  O   UNL A   1      43.260  22.659  24.598  1.00  0.00    -0.246 OA
BRANCH   7   9
ATOM      9  C   UNL A   1      42.718  23.840  26.547  1.00  0.00     0.060 A 
ATOM     10  C   UNL A   1      42.992  25.138  26.112  1.00  0.00     0.016 A 
ATOM     11  C   UNL A   1      42.019  23.705  27.757  1.00  0.00     0.016 A 
ATOM     12  C   UNL A   1      42.700  26.260  26.876  1.00  0.00     0.010 A 
ATOM     13  C   UNL A   1      41.643  24.834  28.495  1.00  0.00     0.010 A 
ATOM     14  C   UNL A   1      42.015  26.122  28.069  1.00  0.00    -0.014 A 
BRANCH  14  15
ATOM     15  C   UNL A   1      41.821  27.296  28.938  1.00  0.00     0.031 A 
ATOM     16  C   UNL A   1      42.695  27.406  30.142  1.00  0.00     0.074 A 
ATOM     17  C   UNL A   1      40.958  28.290  28.649  1.00  0.00     0.049 A 
ATOM     18  N   UNL A   1      42.650  28.283  31.104  1.00  0.00    -0.248 NA
ATOM     19  C   UNL A   1      43.826  26.464  30.227  1.00  0.00     0.031 C 
ATOM     20  C   UNL A   1      40.277  28.521  27.382  1.00  0.00     0.029 A 
ATOM     21  N   UNL A   1      40.416  29.248  29.468  1.00  0.00    -0.354 N 
ATOM     22  C   UNL A   1      43.791  28.058  31.852  1.00  0.00     0.074 A 
ATOM     23  C   UNL A   1      44.444  26.885  31.317  1.00  0.00     0.031 C 
ATOM     24  C   UNL A   1      39.233  29.343  27.571  1.00  0.00     0.029 A 
ATOM     25  C   UNL A   1      39.238  29.756  28.957  1.00  0.00     0.049 A 
ATOM     26  H   UNL A   1      40.819  29.540  30.317  1.00  0.00     0.167 HD
ATOM     27  C   UNL A   1      44.283  28.826  32.847  1.00  0.00     0.031 A 
ATOM     28  C   UNL A   1      38.261  30.444  29.568  1.00  0.00     0.031 A 
ATOM     29  C   UNL A   1      43.571  29.952  33.381  1.00  0.00     0.049 A 
ATOM     30  C   UNL A   1      38.603  31.027  30.897  1.00  0.00     0.074 A 
ATOM     31  C   UNL A   1      43.933  30.805  34.402  1.00  0.00     0.029 A 
ATOM     32  N   UNL A   1      42.316  30.356  32.938  1.00  0.00    -0.354 N 
ATOM     33  N   UNL A   1      39.694  30.846  31.603  1.00  0.00    -0.248 NA
ATOM     34  C   UNL A   1      37.669  32.008  31.451  1.00  0.00     0.031 C 
ATOM     35  C   UNL A   1      42.861  31.678  34.629  1.00  0.00     0.029 A 
ATOM     36  C   UNL A   1      41.860  31.412  33.704  1.00  0.00     0.049 A 
ATOM     37  H   UNL A   1      41.824  29.949  32.189  1.00  0.00     0.167 HD
ATOM     38  C   UNL A   1      39.639  31.778  32.621  1.00  0.00     0.074 A 
ATOM     39  C   UNL A   1      38.374  32.476  32.472  1.00  0.00     0.031 C 
ATOM     40  C   UNL A   1      40.585  32.072  33.546  1.00  0.00     0.031 A 
BRANCH  27  41
ATOM     41  C   UNL A   1      45.615  28.417  33.397  1.00  0.00    -0.014 A 
ATOM     42  C   UNL A   1      46.811  28.886  32.821  1.00  0.00     0.009 A 
ATOM     43  C   UNL A   1      45.682  27.482  34.437  1.00  0.00     0.009 A 
ATOM     44  C   UNL A   1      48.043  28.380  33.240  1.00  0.00     0.001 A 
ATOM     45  C   UNL A   1      46.917  26.998  34.871  1.00  0.00     0.001 A 
ATOM     46  C   UNL A   1      48.094  27.435  34.263  1.00  0.00     0.000 A 
ENDBRANCH  27  41
BRANCH  28  47
ATOM     47  C   UNL A   1      36.950  30.670  28.910  1.00  0.00    -0.014 A 
ATOM     48  C   UNL A   1      36.042  29.623  28.713  1.00  0.00     0.009 A 
ATOM     49  C   UNL A   1      36.605  31.959  28.463  1.00  0.00     0.009 A 
ATOM     50  C   UNL A   1      34.831  29.851  28.050  1.00  0.00     0.001 A 
ATOM     51  C   UNL A   1      35.388  32.186  27.812  1.00  0.00     0.001 A 
ATOM     52  C   UNL A   1      34.507  31.129  27.598  1.00  0.00     0.000 A 
ENDBRANCH  28  47
BRANCH  40  53
ATOM     53  C   UNL A   1      40.300  33.241  34.434  1.00  0.00    -0.014 A 
ATOM     54  C   UNL A   1      40.680  34.541  34.076  1.00  0.00     0.009 A 
ATOM     55  C   UNL A   1      39.605  33.030  35.637  1.00  0.00     0.009 A 
ATOM     56  C   UNL A   1      40.393  35.610  34.923  1.00  0.00     0.001 A 
ATOM     57  C   UNL A   1      39.286  34.106  36.461  1.00  0.00     0.001 A 
ATOM     58  C   UNL A   1      39.689  35.393  36.108  1.00  0.00     0.000 A 
ENDBRANCH  40  53
ENDBRANCH  14  15
ENDBRANCH   7   9
ENDBRANCH   6   7
ENDBRANCH   5   6
ENDBRANCH   4   5
ENDBRANCH   3   4
ENDBRANCH   2   3
ENDBRANCH   1   2
BRANCH   1  59
ATOM     59  O   UNL A   1      37.565  22.113  24.669  1.00  0.00    -0.376 OA
BRANCH  59  60
ATOM     60  C   UNL A   1      36.213  22.218  24.231  1.00  0.00     0.202 C 
BRANCH  60  61
ATOM     61  C   UNL A   1      35.706  23.609  23.809  1.00  0.00     0.261 C 
BRANCH  61  62
ATOM     62  O   UNL A   1      34.664  24.116  24.659  1.00  0.00    -0.463 OA
BRANCH  62  63
ATOM     63  C   UNL A   1      33.927  25.148  24.165  1.00  0.00     0.312 C 
ATOM     64  O   UNL A   1      33.731  25.346  22.967  1.00  0.00    -0.252 OA
BRANCH  63  65
ATOM     65  C   UNL A   1      33.235  25.926  25.261  1.00  0.00     0.147 C 
ATOM     66  C   UNL A   1      31.749  26.262  24.939  1.00  0.00     0.129 C 
ATOM     67  C   UNL A   1      33.817  27.317  25.508  1.00  0.00     0.157 C 
ATOM     68  C   UNL A   1      31.730  27.774  25.081  1.00  0.00     0.155 C 
ATOM     69  C   UNL A   1      33.802  28.173  24.299  1.00  0.00     0.004 C 
ATOM     70  O   UNL A   1      32.696  27.955  26.153  1.00  0.00    -0.365 OA
ATOM     71  C   UNL A   1      32.523  28.454  24.026  1.00  0.00     0.004 C 
BRANCH  66  72
ATOM     72  C   UNL A   1      30.788  25.479  25.842  1.00  0.00     0.231 C 
ATOM     73  O   UNL A   1      30.146  26.108  26.695  1.00  0.00    -0.274 OA
ATOM     74  N   UNL A   1      30.433  24.165  25.676  1.00  0.00    -0.325 N 
ATOM     75  H   UNL A   1      29.635  23.891  26.183  1.00  0.00     0.169 HD
BRANCH  74  76
ATOM     76  C   UNL A   1      31.013  23.148  24.908  1.00  0.00     0.048 A 
ATOM     77  C   UNL A   1      30.998  23.272  23.517  1.00  0.00     0.026 A 
ATOM     78  C   UNL A   1      31.652  22.060  25.501  1.00  0.00     0.111 A 
ATOM     79  C   UNL A   1      31.778  22.414  22.733  1.00  0.00     0.009 A 
ATOM     80  C   UNL A   1      32.516  21.273  24.724  1.00  0.00     0.271 A 
ATOM     81  C   UNL A   1      32.576  21.441  23.336  1.00  0.00     0.086 A 
BRANCH  80  82
ATOM     82  N   UNL A   1      33.497  20.411  25.397  1.00  0.00     0.062 N 
ATOM     83  O   UNL A   1      33.791  19.335  24.856  1.00  0.00    -0.258 OA
ATOM     84  O   UNL A   1      33.990  20.817  26.461  1.00  0.00    -0.258 OA
ENDBRANCH  80  82
ENDBRANCH  74  76
ENDBRANCH  66  72
ENDBRANCH  63  65
ENDBRANCH  62  63
ENDBRANCH  61  62
ENDBRANCH  60  61
ENDBRANCH  59  60
ENDBRANCH   1  59
TORSDOF 20
ENDMDL
MODEL 2
REMARK VINA RESULT:      -9.8      4.585      9.385
REMARK SMILES O=C(OCCOCCOCCOC(=O)[C@@H]1[C@@H](C(=O)Nc2cccc([N+](=O)[O-])c2)[C@@H]2C=C[C@H]1O2)c1ccc(-c2c3nc(c(-c4ccccc4)c4ccc([nH]4)c(-c4ccccc4)c4nc(c(-c5ccccc5)c5ccc2[nH]5)C=C4)C=C3)cc1
REMARK SMILES IDX 8 1 7 2 6 3 5 4 4 5 3 6 2 7 1 8 34 9 35 10 81 11 36 12 80 13
REMARK SMILES IDX 37 14 38 15 39 16 74 17 40 18 79 19 73 20 75 21 41 22 78 23
REMARK SMILES IDX 72 24 71 25 42 27 64 28 49 29 63 30 50 31 53 32 62 33 76 34
REMARK SMILES IDX 51 35 52 36 61 38 77 39 54 40 43 41 44 42 48 43 45 44 47 45
REMARK SMILES IDX 46 46 65 47 66 48 70 49 67 50 69 51 68 52 55 53 56 54 60 55
REMARK SMILES IDX 57 56 59 57 58 58 9 59 10 60 11 61 12 62 13 63 14 64 15 65
REMARK SMILES IDX 16 66 32 67 29 68 31 69 33 70 30 71 17 72 18 73 19 74 20 76
REMARK SMILES IDX 21 77 28 78 22 79 24 80 23 81 25 82 26 83 27 84
REMARK H PARENT 75 26 53 37 19 75
REMARK Flexibility Score: inf
ROOT
ATOM      1  C   UNL A   1      35.549  32.534  28.267  1.00  0.00     0.188 C 
ENDROOT
BRANCH   1   2
ATOM      2  C   UNL A   1      34.828  33.787  28.769  1.00  0.00     0.188 C 
BRANCH   2   3
ATOM      3  O   UNL A   1      34.172  33.612  30.031  1.00  0.00    -0.376 OA
BRANCH   3   4
ATOM      4  C   UNL A   1      34.779  32.590  30.837  1.00  0.00     0.202 C 
BRANCH   4   5
ATOM      5  C   UNL A   1      34.602  32.762  32.358  1.00  0.00     0.261 C 
BRANCH   5   6
ATOM      6  O   UNL A   1      35.828  32.648  33.099  1.00  0.00    -0.460 OA
BRANCH   6   7
ATOM      7  C   UNL A   1      36.984  33.346  32.950  1.00  0.00     0.338 C 
ATOM      8  O   UNL A   1      37.064  34.453  33.483  1.00  0.00    -0.246 OA
BRANCH   7   9
ATOM      9  C   UNL A   1      38.168  32.857  32.171  1.00  0.00     0.060 A 
ATOM     10  C   UNL A   1      38.308  32.920  30.783  1.00  0.00     0.016 A 
ATOM     11  C   UNL A   1      39.243  32.323  32.899  1.00  0.00     0.016 A 
ATOM     12  C   UNL A   1      39.400  32.382  30.117  1.00  0.00     0.010 A 
ATOM     13  C   UNL A   1      40.388  31.855  32.243  1.00  0.00     0.010 A 
ATOM     14  C   UNL A   1      40.455  31.852  30.837  1.00  0.00    -0.014 A 
BRANCH  14  15
ATOM     15  C   UNL A   1      41.551  31.167  30.130  1.00  0.00     0.031 A 
ATOM     16  C   UNL A   1      42.689  32.007  29.657  1.00  0.00     0.074 A 
ATOM     17  C   UNL A   1      41.599  29.829  29.969  1.00  0.00     0.049 A 
ATOM     18  N   UNL A   1      43.712  31.658  28.931  1.00  0.00    -0.248 NA
ATOM     19  C   UNL A   1      42.730  33.399  30.142  1.00  0.00     0.031 C 
ATOM     20  C   UNL A   1      40.770  28.834  30.637  1.00  0.00     0.029 A 
ATOM     21  N   UNL A   1      42.329  29.077  29.084  1.00  0.00    -0.354 N 
ATOM     22  C   UNL A   1      44.558  32.752  28.949  1.00  0.00     0.074 A 
ATOM     23  C   UNL A   1      43.880  33.821  29.646  1.00  0.00     0.031 C 
ATOM     24  C   UNL A   1      40.827  27.673  29.966  1.00  0.00     0.029 A 
ATOM     25  C   UNL A   1      41.766  27.834  28.878  1.00  0.00     0.049 A 
ATOM     26  H   UNL A   1      43.156  29.387  28.649  1.00  0.00     0.167 HD
ATOM     27  C   UNL A   1      45.826  32.815  28.492  1.00  0.00     0.031 A 
ATOM     28  C   UNL A   1      41.969  26.950  27.888  1.00  0.00     0.031 A 
ATOM     29  C   UNL A   1      46.439  31.744  27.759  1.00  0.00     0.049 A 
ATOM     30  C   UNL A   1      43.187  27.169  27.054  1.00  0.00     0.074 A 
ATOM     31  C   UNL A   1      47.704  31.675  27.213  1.00  0.00     0.029 A 
ATOM     32  N   UNL A   1      45.794  30.553  27.442  1.00  0.00    -0.354 N 
ATOM     33  N   UNL A   1      44.013  28.187  27.084  1.00  0.00    -0.248 NA
ATOM     34  C   UNL A   1      43.585  26.079  26.164  1.00  0.00     0.031 C 
ATOM     35  C   UNL A   1      47.796  30.473  26.501  1.00  0.00     0.029 A 
ATOM     36  C   UNL A   1      46.614  29.762  26.659  1.00  0.00     0.049 A 
ATOM     37  H   UNL A   1      44.886  30.308  27.734  1.00  0.00     0.167 HD
ATOM     38  C   UNL A   1      45.095  27.811  26.311  1.00  0.00     0.074 A 
ATOM     39  C   UNL A   1      44.783  26.496  25.778  1.00  0.00     0.031 C 
ATOM     40  C   UNL A   1      46.266  28.467  26.124  1.00  0.00     0.031 A 
BRANCH  27  41
ATOM     41  C   UNL A   1      46.563  34.091  28.764  1.00  0.00    -0.014 A 
ATOM     42  C   UNL A   1      46.526  35.157  27.846  1.00  0.00     0.009 A 
ATOM     43  C   UNL A   1      47.378  34.196  29.897  1.00  0.00     0.009 A 
ATOM     44  C   UNL A   1      47.337  36.279  28.033  1.00  0.00     0.001 A 
ATOM     45  C   UNL A   1      48.167  35.330  30.093  1.00  0.00     0.001 A 
ATOM     46  C   UNL A   1      48.158  36.362  29.155  1.00  0.00     0.000 A 
ENDBRANCH  27  41
BRANCH  28  47
ATOM     47  C   UNL A   1      41.071  25.784  27.698  1.00  0.00    -0.014 A 
ATOM     48  C   UNL A   1      41.409  24.516  28.185  1.00  0.00     0.009 A 
ATOM     49  C   UNL A   1      39.856  25.943  27.008  1.00  0.00     0.009 A 
ATOM     50  C   UNL A   1      40.567  23.422  27.955  1.00  0.00     0.001 A 
ATOM     51  C   UNL A   1      39.010  24.850  26.790  1.00  0.00     0.001 A 
ATOM     52  C   UNL A   1      39.372  23.588  27.257  1.00  0.00     0.000 A 
ENDBRANCH  28  47
BRANCH  40  53
ATOM     53  C   UNL A   1      47.317  27.738  25.349  1.00  0.00    -0.014 A 
ATOM     54  C   UNL A   1      47.384  27.819  23.953  1.00  0.00     0.009 A 
ATOM     55  C   UNL A   1      48.277  26.984  26.045  1.00  0.00     0.009 A 
ATOM     56  C   UNL A   1      48.381  27.133  23.261  1.00  0.00     0.001 A 
ATOM     57  C   UNL A   1      49.294  26.332  25.353  1.00  0.00     0.001 A 
ATOM     58  C   UNL A   1      49.339  26.399  23.961  1.00  0.00     0.000 A 
ENDBRANCH  40  53
ENDBRANCH  14  15
ENDBRANCH   7   9
ENDBRANCH   6   7
ENDBRANCH   5   6
ENDBRANCH   4   5
ENDBRANCH   3   4
ENDBRANCH   2   3
ENDBRANCH   1   2
BRANCH   1  59
ATOM     59  O   UNL A   1      34.758  31.523  27.645  1.00  0.00    -0.376 OA
BRANCH  59  60
ATOM     60  C   UNL A   1      33.398  31.837  27.357  1.00  0.00     0.202 C 
BRANCH  60  61
ATOM     61  C   UNL A   1      32.476  30.684  26.923  1.00  0.00     0.261 C 
BRANCH  61  62
ATOM     62  O   UNL A   1      32.966  29.965  25.778  1.00  0.00    -0.463 OA
BRANCH  62  63
ATOM     63  C   UNL A   1      33.509  28.741  26.018  1.00  0.00     0.312 C 
ATOM     64  O   UNL A   1      34.109  28.440  27.049  1.00  0.00    -0.252 OA
BRANCH  63  65
ATOM     65  C   UNL A   1      33.146  27.740  24.945  1.00  0.00     0.147 C 
ATOM     66  C   UNL A   1      31.821  28.081  24.201  1.00  0.00     0.129 C 
ATOM     67  C   UNL A   1      32.852  26.335  25.468  1.00  0.00     0.157 C 
ATOM     68  C   UNL A   1      31.011  26.812  24.405  1.00  0.00     0.155 C 
ATOM     69  C   UNL A   1      31.758  26.308  26.467  1.00  0.00     0.004 C 
ATOM     70  O   UNL A   1      32.067  25.813  24.377  1.00  0.00    -0.365 OA
ATOM     71  C   UNL A   1      30.623  26.606  25.823  1.00  0.00     0.004 C 
BRANCH  66  72
ATOM     72  C   UNL A   1      32.082  28.499  22.750  1.00  0.00     0.231 C 
ATOM     73  O   UNL A   1      33.173  28.201  22.245  1.00  0.00    -0.274 OA
ATOM     74  N   UNL A   1      31.148  29.020  21.892  1.00  0.00    -0.325 N 
ATOM     75  H   UNL A   1      31.412  29.005  20.943  1.00  0.00     0.169 HD
BRANCH  74  76
ATOM     76  C   UNL A   1      29.883  29.568  22.135  1.00  0.00     0.048 A 
ATOM     77  C   UNL A   1      28.950  28.806  22.840  1.00  0.00     0.026 A 
ATOM     78  C   UNL A   1      29.564  30.869  21.746  1.00  0.00     0.111 A 
ATOM     79  C   UNL A   1      27.778  29.404  23.317  1.00  0.00     0.009 A 
ATOM     80  C   UNL A   1      28.445  31.494  22.316  1.00  0.00     0.271 A 
ATOM     81  C   UNL A   1      27.542  30.763  23.097  1.00  0.00     0.086 A 
BRANCH  80  82
ATOM     82  N   UNL A   1      28.333  32.958  22.252  1.00  0.00     0.062 N 
ATOM     83  O   UNL A   1      27.653  33.447  21.339  1.00  0.00    -0.258 OA
ATOM     84  O   UNL A   1      28.911  33.621  23.128  1.00  0.00    -0.258 OA
ENDBRANCH  80  82
ENDBRANCH  74  76
ENDBRANCH  66  72
ENDBRANCH  63  65
ENDBRANCH  62  63
ENDBRANCH  61  62
ENDBRANCH  60  61
ENDBRANCH  59  60
ENDBRANCH   1  59
TORSDOF 20
ENDMDL
MODEL 3
REMARK VINA RESULT:      -9.8      1.482      2.169
REMARK SMILES O=C(OCCOCCOCCOC(=O)[C@@H]1[C@@H](C(=O)Nc2cccc([N+](=O)[O-])c2)[C@@H]2C=C[C@H]1O2)c1ccc(-c2c3nc(c(-c4ccccc4)c4ccc([nH]4)c(-c4ccccc4)c4nc(c(-c5ccccc5)c5ccc2[nH]5)C=C4)C=C3)cc1
REMARK SMILES IDX 8 1 7 2 6 3 5 4 4 5 3 6 2 7 1 8 34 9 35 10 81 11 36 12 80 13
REMARK SMILES IDX 37 14 38 15 39 16 74 17 40 18 79 19 73 20 75 21 41 22 78 23
REMARK SMILES IDX 72 24 71 25 42 27 64 28 49 29 63 30 50 31 53 32 62 33 76 34
REMARK SMILES IDX 51 35 52 36 61 38 77 39 54 40 43 41 44 42 48 43 45 44 47 45
REMARK SMILES IDX 46 46 65 47 66 48 70 49 67 50 69 51 68 52 55 53 56 54 60 55
REMARK SMILES IDX 57 56 59 57 58 58 9 59 10 60 11 61 12 62 13 63 14 64 15 65
REMARK SMILES IDX 16 66 32 67 29 68 31 69 33 70 30 71 17 72 18 73 19 74 20 76
REMARK SMILES IDX 21 77 28 78 22 79 24 80 23 81 25 82 26 83 27 84
REMARK H PARENT 75 26 53 37 19 75
REMARK Flexibility Score: inf
ROOT
ATOM      1  C   UNL A   1      39.646  22.625  26.871  1.00  0.00     0.188 C 
ENDROOT
BRANCH   1   2
ATOM      2  C   UNL A   1      40.392  21.312  27.121  1.00  0.00     0.188 C 
BRANCH   2   3
ATOM      3  O   UNL A   1      41.194  20.882  26.014  1.00  0.00    -0.376 OA
BRANCH   3   4
ATOM      4  C   UNL A   1      42.594  20.827  26.329  1.00  0.00     0.202 C 
BRANCH   4   5
ATOM      5  C   UNL A   1      43.530  21.448  25.274  1.00  0.00     0.261 C 
BRANCH   5   6
ATOM      6  O   UNL A   1      43.150  22.775  24.874  1.00  0.00    -0.460 OA
BRANCH   6   7
ATOM      7  C   UNL A   1      43.729  23.961  25.193  1.00  0.00     0.338 C 
ATOM      8  O   UNL A   1      44.629  24.379  24.465  1.00  0.00    -0.246 OA
BRANCH   7   9
ATOM      9  C   UNL A   1      43.348  24.793  26.381  1.00  0.00     0.060 A 
ATOM     10  C   UNL A   1      42.425  24.428  27.363  1.00  0.00     0.016 A 
ATOM     11  C   UNL A   1      43.997  26.026  26.540  1.00  0.00     0.016 A 
ATOM     12  C   UNL A   1      42.062  25.278  28.399  1.00  0.00     0.010 A 
ATOM     13  C   UNL A   1      43.702  26.855  27.629  1.00  0.00     0.010 A 
ATOM     14  C   UNL A   1      42.700  26.494  28.549  1.00  0.00    -0.014 A 
BRANCH  14  15
ATOM     15  C   UNL A   1      42.225  27.447  29.569  1.00  0.00     0.031 A 
ATOM     16  C   UNL A   1      42.839  27.357  30.925  1.00  0.00     0.074 A 
ATOM     17  C   UNL A   1      41.336  28.425  29.304  1.00  0.00     0.049 A 
ATOM     18  N   UNL A   1      42.523  28.010  32.007  1.00  0.00    -0.248 NA
ATOM     19  C   UNL A   1      44.024  26.489  31.060  1.00  0.00     0.031 C 
ATOM     20  C   UNL A   1      40.889  28.872  27.992  1.00  0.00     0.029 A 
ATOM     21  N   UNL A   1      40.554  29.156  30.161  1.00  0.00    -0.354 N 
ATOM     22  C   UNL A   1      43.518  27.704  32.917  1.00  0.00     0.074 A 
ATOM     23  C   UNL A   1      44.377  26.711  32.314  1.00  0.00     0.031 C 
ATOM     24  C   UNL A   1      39.750  29.571  28.115  1.00  0.00     0.029 A 
ATOM     25  C   UNL A   1      39.450  29.686  29.525  1.00  0.00     0.049 A 
ATOM     26  H   UNL A   1      40.757  29.288  31.115  1.00  0.00     0.167 HD
ATOM     27  C   UNL A   1      43.731  28.276  34.121  1.00  0.00     0.031 A 
ATOM     28  C   UNL A   1      38.309  30.171  30.041  1.00  0.00     0.031 A 
ATOM     29  C   UNL A   1      42.821  29.221  34.702  1.00  0.00     0.049 A 
ATOM     30  C   UNL A   1      38.331  30.483  31.500  1.00  0.00     0.074 A 
ATOM     31  C   UNL A   1      42.893  29.862  35.921  1.00  0.00     0.029 A 
ATOM     32  N   UNL A   1      41.637  29.630  34.096  1.00  0.00    -0.354 N 
ATOM     33  N   UNL A   1      39.281  30.226  32.367  1.00  0.00    -0.248 NA
ATOM     34  C   UNL A   1      37.214  31.268  32.026  1.00  0.00     0.031 C 
ATOM     35  C   UNL A   1      41.714  30.601  36.084  1.00  0.00     0.029 A 
ATOM     36  C   UNL A   1      40.939  30.474  34.939  1.00  0.00     0.049 A 
ATOM     37  H   UNL A   1      41.341  29.359  33.197  1.00  0.00     0.167 HD
ATOM     38  C   UNL A   1      38.939  30.920  33.511  1.00  0.00     0.074 A 
ATOM     39  C   UNL A   1      37.661  31.555  33.241  1.00  0.00     0.031 C 
ATOM     40  C   UNL A   1      39.657  31.072  34.650  1.00  0.00     0.031 A 
BRANCH  27  41
ATOM     41  C   UNL A   1      44.970  27.845  34.846  1.00  0.00    -0.014 A 
ATOM     42  C   UNL A   1      44.939  26.773  35.757  1.00  0.00     0.009 A 
ATOM     43  C   UNL A   1      46.156  28.573  34.693  1.00  0.00     0.009 A 
ATOM     44  C   UNL A   1      46.056  26.478  36.541  1.00  0.00     0.001 A 
ATOM     45  C   UNL A   1      47.279  28.259  35.459  1.00  0.00     0.001 A 
ATOM     46  C   UNL A   1      47.224  27.224  36.392  1.00  0.00     0.000 A 
ENDBRANCH  27  41
BRANCH  28  47
ATOM     47  C   UNL A   1      37.131  30.448  29.183  1.00  0.00    -0.014 A 
ATOM     48  C   UNL A   1      36.342  29.412  28.669  1.00  0.00     0.009 A 
ATOM     49  C   UNL A   1      36.795  31.776  28.865  1.00  0.00     0.009 A 
ATOM     50  C   UNL A   1      35.263  29.695  27.825  1.00  0.00     0.001 A 
ATOM     51  C   UNL A   1      35.708  32.058  28.031  1.00  0.00     0.001 A 
ATOM     52  C   UNL A   1      34.948  31.015  27.505  1.00  0.00     0.000 A 
ENDBRANCH  28  47
BRANCH  40  53
ATOM     53  C   UNL A   1      39.091  32.011  35.669  1.00  0.00    -0.014 A 
ATOM     54  C   UNL A   1      39.298  33.393  35.583  1.00  0.00     0.009 A 
ATOM     55  C   UNL A   1      38.306  31.493  36.712  1.00  0.00     0.009 A 
ATOM     56  C   UNL A   1      38.751  34.242  36.544  1.00  0.00     0.001 A 
ATOM     57  C   UNL A   1      37.728  32.347  37.647  1.00  0.00     0.001 A 
ATOM     58  C   UNL A   1      37.960  33.719  37.568  1.00  0.00     0.000 A 
ENDBRANCH  40  53
ENDBRANCH  14  15
ENDBRANCH   7   9
ENDBRANCH   6   7
ENDBRANCH   5   6
ENDBRANCH   4   5
ENDBRANCH   3   4
ENDBRANCH   2   3
ENDBRANCH   1   2
BRANCH   1  59
ATOM     59  O   UNL A   1      38.435  22.563  26.121  1.00  0.00    -0.376 OA
BRANCH  59  60
ATOM     60  C   UNL A   1      37.615  23.728  26.100  1.00  0.00     0.202 C 
BRANCH  60  61
ATOM     61  C   UNL A   1      36.432  23.750  25.115  1.00  0.00     0.261 C 
BRANCH  61  62
ATOM     62  O   UNL A   1      35.483  24.794  25.390  1.00  0.00    -0.463 OA
BRANCH  62  63
ATOM     63  C   UNL A   1      34.242  24.397  25.782  1.00  0.00     0.312 C 
ATOM     64  O   UNL A   1      34.009  23.784  26.823  1.00  0.00    -0.252 OA
BRANCH  63  65
ATOM     65  C   UNL A   1      33.160  24.940  24.878  1.00  0.00     0.147 C 
ATOM     66  C   UNL A   1      33.699  25.471  23.516  1.00  0.00     0.129 C 
ATOM     67  C   UNL A   1      32.443  26.173  25.425  1.00  0.00     0.157 C 
ATOM     68  C   UNL A   1      33.180  26.899  23.507  1.00  0.00     0.155 C 
ATOM     69  C   UNL A   1      33.363  27.297  25.714  1.00  0.00     0.004 C 
ATOM     70  O   UNL A   1      31.914  26.727  24.202  1.00  0.00    -0.365 OA
ATOM     71  C   UNL A   1      33.826  27.745  24.541  1.00  0.00     0.004 C 
BRANCH  66  72
ATOM     72  C   UNL A   1      33.260  24.576  22.351  1.00  0.00     0.231 C 
ATOM     73  O   UNL A   1      33.115  25.099  21.237  1.00  0.00    -0.274 OA
ATOM     74  N   UNL A   1      33.184  23.208  22.383  1.00  0.00    -0.325 N 
ATOM     75  H   UNL A   1      33.123  22.782  21.497  1.00  0.00     0.169 HD
BRANCH  74  76
ATOM     76  C   UNL A   1      33.177  22.314  23.461  1.00  0.00     0.048 A 
ATOM     77  C   UNL A   1      31.964  22.049  24.099  1.00  0.00     0.026 A 
ATOM     78  C   UNL A   1      34.333  21.644  23.861  1.00  0.00     0.111 A 
ATOM     79  C   UNL A   1      31.870  20.986  25.005  1.00  0.00     0.009 A 
ATOM     80  C   UNL A   1      34.213  20.514  24.683  1.00  0.00     0.271 A 
ATOM     81  C   UNL A   1      32.983  20.184  25.265  1.00  0.00     0.086 A 
BRANCH  80  82
ATOM     82  N   UNL A   1      35.336  19.570  24.770  1.00  0.00     0.062 N 
ATOM     83  O   UNL A   1      36.466  20.032  24.985  1.00  0.00    -0.258 OA
ATOM     84  O   UNL A   1      35.086  18.361  24.641  1.00  0.00    -0.258 OA
ENDBRANCH  80  82
ENDBRANCH  74  76
ENDBRANCH  66  72
ENDBRANCH  63  65
ENDBRANCH  62  63
ENDBRANCH  61  62
ENDBRANCH  60  61
ENDBRANCH  59  60
ENDBRANCH   1  59
TORSDOF 20
ENDMDL
