MODEL 1
REMARK VINA RESULT:      -8.6      0.000      0.000
REMARK SMILES CCC(CC)[C@H](C(=O)OCCOCCOCCOC(=O)c1ccc(-c2c3nc(c(-c4ccccc4)c4ccc([nH]4)c(-c4ccccc4)c4nc(c(-c5ccccc5)c5ccc2[nH]5)C=C4)C=C3)cc1)c1ccccc1
REMARK SMILES IDX 13 1 12 2 11 3 10 4 9 5 7 6 8 7 6 8 3 9 2 10 1 11 4 12 5 13
REMARK SMILES IDX 69 14 70 15 74 16 71 17 73 18 72 19 14 20 15 21 16 22 17 23
REMARK SMILES IDX 18 24 19 25 20 26 21 27 22 28 68 29 23 30 67 31 24 32 25 33
REMARK SMILES IDX 26 34 61 35 27 36 66 37 60 38 62 39 28 40 65 41 59 42 58 43
REMARK SMILES IDX 29 45 51 46 36 47 50 48 37 49 40 50 49 51 63 52 38 53 39 54
REMARK SMILES IDX 48 56 64 57 41 58 30 59 31 60 35 61 32 62 34 63 33 64 52 65
REMARK SMILES IDX 53 66 57 67 54 68 56 69 55 70 42 71 43 72 47 73 44 74 46 75
REMARK SMILES IDX 45 76
REMARK H PARENT 62 44 40 55
REMARK Flexibility Score: inf
ROOT
ATOM      1  C   UNL A   1      35.382  21.103  25.717  1.00  0.00     0.188 C 
ENDROOT
BRANCH   1   2
ATOM      2  O   UNL A   1      34.187  20.841  24.992  1.00  0.00    -0.376 OA
BRANCH   2   3
ATOM      3  C   UNL A   1      33.410  21.982  24.661  1.00  0.00     0.202 C 
BRANCH   3   4
ATOM      4  C   UNL A   1      33.967  23.279  25.248  1.00  0.00     0.261 C 
BRANCH   4   5
ATOM      5  O   UNL A   1      33.392  23.791  26.470  1.00  0.00    -0.463 OA
BRANCH   5   6
ATOM      6  C   UNL A   1      32.164  24.386  26.478  1.00  0.00     0.313 C 
ATOM      7  O   UNL A   1      31.264  24.129  27.249  1.00  0.00    -0.252 OA
BRANCH   6   8
ATOM      8  C   UNL A   1      32.058  25.340  25.282  1.00  0.00     0.132 C 
BRANCH   8   9
ATOM      9  C   UNL A   1      30.688  25.012  24.590  1.00  0.00     0.007 C 
BRANCH   9  10
ATOM     10  C   UNL A   1      29.533  25.995  24.920  1.00  0.00     0.001 C 
ATOM     11  C   UNL A   1      29.179  26.990  23.830  1.00  0.00     0.004 C 
ENDBRANCH   9  10
BRANCH   9  12
ATOM     12  C   UNL A   1      30.838  24.540  23.125  1.00  0.00     0.001 C 
ATOM     13  C   UNL A   1      32.173  24.754  22.437  1.00  0.00     0.004 C 
ENDBRANCH   9  12
ENDBRANCH   8   9
BRANCH   8  14
ATOM     14  C   UNL A   1      32.496  26.772  25.610  1.00  0.00    -0.034 A 
ATOM     15  C   UNL A   1      32.407  27.373  26.874  1.00  0.00     0.004 A 
ATOM     16  C   UNL A   1      32.941  27.594  24.556  1.00  0.00     0.004 A 
ATOM     17  C   UNL A   1      32.746  28.716  27.083  1.00  0.00     0.000 A 
ATOM     18  C   UNL A   1      33.273  28.941  24.759  1.00  0.00     0.000 A 
ATOM     19  C   UNL A   1      33.179  29.502  26.026  1.00  0.00     0.000 A 
ENDBRANCH   8  14
ENDBRANCH   6   8
ENDBRANCH   5   6
ENDBRANCH   4   5
ENDBRANCH   3   4
ENDBRANCH   2   3
ENDBRANCH   1   2
BRANCH   1  20
ATOM     20  C   UNL A   1      36.613  20.519  25.009  1.00  0.00     0.188 C 
BRANCH  20  21
ATOM     21  O   UNL A   1      37.690  21.402  24.711  1.00  0.00    -0.376 OA
BRANCH  21  22
ATOM     22  C   UNL A   1      38.151  22.259  25.751  1.00  0.00     0.202 C 
BRANCH  22  23
ATOM     23  C   UNL A   1      39.430  21.804  26.460  1.00  0.00     0.261 C 
BRANCH  23  24
ATOM     24  O   UNL A   1      40.124  20.757  25.747  1.00  0.00    -0.460 OA
BRANCH  24  25
ATOM     25  C   UNL A   1      41.286  20.348  26.303  1.00  0.00     0.338 C 
ATOM     26  O   UNL A   1      41.681  19.198  26.426  1.00  0.00    -0.246 OA
BRANCH  25  27
ATOM     27  C   UNL A   1      42.147  21.489  26.666  1.00  0.00     0.060 A 
ATOM     28  C   UNL A   1      42.343  21.743  28.026  1.00  0.00     0.016 A 
ATOM     29  C   UNL A   1      42.518  22.443  25.718  1.00  0.00     0.016 A 
ATOM     30  C   UNL A   1      42.796  22.989  28.453  1.00  0.00     0.010 A 
ATOM     31  C   UNL A   1      42.989  23.694  26.151  1.00  0.00     0.010 A 
ATOM     32  C   UNL A   1      43.052  24.003  27.525  1.00  0.00    -0.014 A 
BRANCH  32  33
ATOM     33  C   UNL A   1      43.119  25.419  27.997  1.00  0.00     0.031 A 
ATOM     34  C   UNL A   1      44.477  26.049  28.210  1.00  0.00     0.074 A 
ATOM     35  C   UNL A   1      42.022  26.189  28.126  1.00  0.00     0.049 A 
ATOM     36  N   UNL A   1      44.785  27.219  28.715  1.00  0.00    -0.248 NA
ATOM     37  C   UNL A   1      45.643  25.254  27.792  1.00  0.00     0.031 C 
ATOM     38  C   UNL A   1      40.650  25.777  27.836  1.00  0.00     0.029 A 
ATOM     39  N   UNL A   1      41.900  27.502  28.519  1.00  0.00    -0.354 N 
ATOM     40  C   UNL A   1      46.176  27.269  28.729  1.00  0.00     0.074 A 
ATOM     41  C   UNL A   1      46.651  26.016  28.185  1.00  0.00     0.031 C 
ATOM     42  C   UNL A   1      39.828  26.820  28.042  1.00  0.00     0.029 A 
ATOM     43  C   UNL A   1      40.604  27.957  28.534  1.00  0.00     0.049 A 
ATOM     44  H   UNL A   1      42.671  28.063  28.766  1.00  0.00     0.167 HD
ATOM     45  C   UNL A   1      46.991  28.265  29.154  1.00  0.00     0.031 A 
ATOM     46  C   UNL A   1      40.095  29.142  28.928  1.00  0.00     0.031 A 
ATOM     47  C   UNL A   1      46.537  29.535  29.651  1.00  0.00     0.049 A 
ATOM     48  C   UNL A   1      41.014  30.214  29.453  1.00  0.00     0.074 A 
ATOM     49  C   UNL A   1      47.289  30.592  30.136  1.00  0.00     0.029 A 
ATOM     50  N   UNL A   1      45.210  29.930  29.704  1.00  0.00    -0.354 N 
ATOM     51  N   UNL A   1      42.321  30.214  29.549  1.00  0.00    -0.248 NA
ATOM     52  C   UNL A   1      40.379  31.453  29.930  1.00  0.00     0.031 C 
ATOM     53  C   UNL A   1      46.412  31.617  30.513  1.00  0.00     0.029 A 
ATOM     54  C   UNL A   1      45.121  31.214  30.213  1.00  0.00     0.049 A 
ATOM     55  H   UNL A   1      44.445  29.379  29.420  1.00  0.00     0.167 HD
ATOM     56  C   UNL A   1      42.665  31.457  30.072  1.00  0.00     0.074 A 
ATOM     57  C   UNL A   1      41.431  32.192  30.254  1.00  0.00     0.031 C 
ATOM     58  C   UNL A   1      43.892  31.943  30.377  1.00  0.00     0.031 A 
BRANCH  45  59
ATOM     59  C   UNL A   1      48.469  27.991  29.147  1.00  0.00    -0.014 A 
ATOM     60  C   UNL A   1      49.116  27.404  30.246  1.00  0.00     0.009 A 
ATOM     61  C   UNL A   1      49.223  28.320  28.010  1.00  0.00     0.009 A 
ATOM     62  C   UNL A   1      50.497  27.188  30.217  1.00  0.00     0.001 A 
ATOM     63  C   UNL A   1      50.596  28.077  27.973  1.00  0.00     0.001 A 
ATOM     64  C   UNL A   1      51.234  27.522  29.081  1.00  0.00     0.000 A 
ENDBRANCH  45  59
BRANCH  46  65
ATOM     65  C   UNL A   1      38.626  29.379  28.886  1.00  0.00    -0.014 A 
ATOM     66  C   UNL A   1      37.834  29.185  30.028  1.00  0.00     0.009 A 
ATOM     67  C   UNL A   1      38.002  29.751  27.685  1.00  0.00     0.009 A 
ATOM     68  C   UNL A   1      36.445  29.333  29.962  1.00  0.00     0.001 A 
ATOM     69  C   UNL A   1      36.618  29.930  27.629  1.00  0.00     0.001 A 
ATOM     70  C   UNL A   1      35.841  29.710  28.763  1.00  0.00     0.000 A 
ENDBRANCH  46  65
BRANCH  58  71
ATOM     71  C   UNL A   1      43.969  33.355  30.885  1.00  0.00    -0.014 A 
ATOM     72  C   UNL A   1      43.949  33.644  32.258  1.00  0.00     0.009 A 
ATOM     73  C   UNL A   1      44.094  34.414  29.971  1.00  0.00     0.009 A 
ATOM     74  C   UNL A   1      44.011  34.966  32.704  1.00  0.00     0.001 A 
ATOM     75  C   UNL A   1      44.183  35.732  30.420  1.00  0.00     0.001 A 
ATOM     76  C   UNL A   1      44.131  36.009  31.785  1.00  0.00     0.000 A 
ENDBRANCH  58  71
ENDBRANCH  32  33
ENDBRANCH  25  27
ENDBRANCH  24  25
ENDBRANCH  23  24
ENDBRANCH  22  23
ENDBRANCH  21  22
ENDBRANCH  20  21
ENDBRANCH   1  20
TORSDOF 21
ENDMDL
MODEL 2
REMARK VINA RESULT:      -8.5      1.311      2.364
REMARK SMILES CCC(CC)[C@H](C(=O)OCCOCCOCCOC(=O)c1ccc(-c2c3nc(c(-c4ccccc4)c4ccc([nH]4)c(-c4ccccc4)c4nc(c(-c5ccccc5)c5ccc2[nH]5)C=C4)C=C3)cc1)c1ccccc1
REMARK SMILES IDX 13 1 12 2 11 3 10 4 9 5 7 6 8 7 6 8 3 9 2 10 1 11 4 12 5 13
REMARK SMILES IDX 69 14 70 15 74 16 71 17 73 18 72 19 14 20 15 21 16 22 17 23
REMARK SMILES IDX 18 24 19 25 20 26 21 27 22 28 68 29 23 30 67 31 24 32 25 33
REMARK SMILES IDX 26 34 61 35 27 36 66 37 60 38 62 39 28 40 65 41 59 42 58 43
REMARK SMILES IDX 29 45 51 46 36 47 50 48 37 49 40 50 49 51 63 52 38 53 39 54
REMARK SMILES IDX 48 56 64 57 41 58 30 59 31 60 35 61 32 62 34 63 33 64 52 65
REMARK SMILES IDX 53 66 57 67 54 68 56 69 55 70 42 71 43 72 47 73 44 74 46 75
REMARK SMILES IDX 45 76
REMARK H PARENT 62 44 40 55
REMARK Flexibility Score: inf
ROOT
ATOM      1  C   UNL A   1      33.790  22.393  24.815  1.00  0.00     0.188 C 
ENDROOT
BRANCH   1   2
ATOM      2  O   UNL A   1      33.839  22.848  26.161  1.00  0.00    -0.376 OA
BRANCH   2   3
ATOM      3  C   UNL A   1      33.494  24.210  26.361  1.00  0.00     0.202 C 
BRANCH   3   4
ATOM      4  C   UNL A   1      31.987  24.461  26.312  1.00  0.00     0.261 C 
BRANCH   4   5
ATOM      5  O   UNL A   1      31.386  24.835  25.053  1.00  0.00    -0.463 OA
BRANCH   5   6
ATOM      6  C   UNL A   1      32.010  25.698  24.201  1.00  0.00     0.313 C 
ATOM      7  O   UNL A   1      32.633  25.381  23.210  1.00  0.00    -0.252 OA
BRANCH   6   8
ATOM      8  C   UNL A   1      31.906  27.122  24.759  1.00  0.00     0.132 C 
BRANCH   8   9
ATOM      9  C   UNL A   1      33.369  27.689  24.771  1.00  0.00     0.007 C 
BRANCH   9  10
ATOM     10  C   UNL A   1      33.661  28.778  23.704  1.00  0.00     0.001 C 
ATOM     11  C   UNL A   1      33.933  28.273  22.299  1.00  0.00     0.004 C 
ENDBRANCH   9  10
BRANCH   9  12
ATOM     12  C   UNL A   1      33.933  27.904  26.195  1.00  0.00     0.001 C 
ATOM     13  C   UNL A   1      33.333  29.010  27.043  1.00  0.00     0.004 C 
ENDBRANCH   9  12
ENDBRANCH   8   9
BRANCH   8  14
ATOM     14  C   UNL A   1      30.719  27.910  24.190  1.00  0.00    -0.034 A 
ATOM     15  C   UNL A   1      29.636  27.348  23.499  1.00  0.00     0.004 A 
ATOM     16  C   UNL A   1      30.744  29.316  24.279  1.00  0.00     0.004 A 
ATOM     17  C   UNL A   1      28.629  28.138  22.930  1.00  0.00     0.000 A 
ATOM     18  C   UNL A   1      29.743  30.110  23.704  1.00  0.00     0.000 A 
ATOM     19  C   UNL A   1      28.681  29.519  23.031  1.00  0.00     0.000 A 
ENDBRANCH   8  14
ENDBRANCH   6   8
ENDBRANCH   5   6
ENDBRANCH   4   5
ENDBRANCH   3   4
ENDBRANCH   2   3
ENDBRANCH   1   2
BRANCH   1  20
ATOM     20  C   UNL A   1      34.629  21.122  24.616  1.00  0.00     0.188 C 
BRANCH  20  21
ATOM     21  O   UNL A   1      35.853  21.015  25.335  1.00  0.00    -0.376 OA
BRANCH  21  22
ATOM     22  C   UNL A   1      37.063  21.240  24.622  1.00  0.00     0.202 C 
BRANCH  22  23
ATOM     23  C   UNL A   1      38.203  20.266  24.933  1.00  0.00     0.261 C 
BRANCH  23  24
ATOM     24  O   UNL A   1      39.019  20.696  26.046  1.00  0.00    -0.460 OA
BRANCH  24  25
ATOM     25  C   UNL A   1      40.262  20.168  26.092  1.00  0.00     0.338 C 
ATOM     26  O   UNL A   1      40.620  19.080  25.668  1.00  0.00    -0.246 OA
BRANCH  25  27
ATOM     27  C   UNL A   1      41.242  21.132  26.629  1.00  0.00     0.060 A 
ATOM     28  C   UNL A   1      41.251  21.341  28.011  1.00  0.00     0.016 A 
ATOM     29  C   UNL A   1      41.930  22.006  25.788  1.00  0.00     0.016 A 
ATOM     30  C   UNL A   1      41.842  22.483  28.548  1.00  0.00     0.010 A 
ATOM     31  C   UNL A   1      42.539  23.148  26.334  1.00  0.00     0.010 A 
ATOM     32  C   UNL A   1      42.427  23.436  27.709  1.00  0.00    -0.014 A 
BRANCH  32  33
ATOM     33  C   UNL A   1      42.667  24.814  28.232  1.00  0.00     0.031 A 
ATOM     34  C   UNL A   1      44.088  25.244  28.518  1.00  0.00     0.074 A 
ATOM     35  C   UNL A   1      41.682  25.724  28.348  1.00  0.00     0.049 A 
ATOM     36  N   UNL A   1      44.533  26.344  29.076  1.00  0.00    -0.248 NA
ATOM     37  C   UNL A   1      45.151  24.308  28.116  1.00  0.00     0.031 C 
ATOM     38  C   UNL A   1      40.279  25.514  27.993  1.00  0.00     0.029 A 
ATOM     39  N   UNL A   1      41.724  27.030  28.782  1.00  0.00    -0.354 N 
ATOM     40  C   UNL A   1      45.915  26.201  29.143  1.00  0.00     0.074 A 
ATOM     41  C   UNL A   1      46.236  24.912  28.572  1.00  0.00     0.031 C 
ATOM     42  C   UNL A   1      39.600  26.655  28.204  1.00  0.00     0.029 A 
ATOM     43  C   UNL A   1      40.503  27.658  28.766  1.00  0.00     0.049 A 
ATOM     44  H   UNL A   1      42.553  27.471  29.078  1.00  0.00     0.167 HD
ATOM     45  C   UNL A   1      46.840  27.062  29.633  1.00  0.00     0.031 A 
ATOM     46  C   UNL A   1      40.145  28.890  29.182  1.00  0.00     0.031 A 
ATOM     47  C   UNL A   1      46.544  28.367  30.158  1.00  0.00     0.049 A 
ATOM     48  C   UNL A   1      41.180  29.808  29.779  1.00  0.00     0.074 A 
ATOM     49  C   UNL A   1      47.413  29.295  30.708  1.00  0.00     0.029 A 
ATOM     50  N   UNL A   1      45.283  28.939  30.175  1.00  0.00    -0.354 N 
ATOM     51  N   UNL A   1      42.469  29.625  29.923  1.00  0.00    -0.248 NA
ATOM     52  C   UNL A   1      40.700  31.108  30.275  1.00  0.00     0.031 C 
ATOM     53  C   UNL A   1      46.670  30.419  31.087  1.00  0.00     0.029 A 
ATOM     54  C   UNL A   1      45.349  30.208  30.726  1.00  0.00     0.049 A 
ATOM     55  H   UNL A   1      44.462  28.508  29.843  1.00  0.00     0.167 HD
ATOM     56  C   UNL A   1      42.957  30.792  30.502  1.00  0.00     0.074 A 
ATOM     57  C   UNL A   1      41.829  31.684  30.664  1.00  0.00     0.031 C 
ATOM     58  C   UNL A   1      44.225  31.095  30.870  1.00  0.00     0.031 A 
BRANCH  45  59
ATOM     59  C   UNL A   1      48.266  26.586  29.672  1.00  0.00    -0.014 A 
ATOM     60  C   UNL A   1      49.184  26.921  28.664  1.00  0.00     0.009 A 
ATOM     61  C   UNL A   1      48.696  25.796  30.749  1.00  0.00     0.009 A 
ATOM     62  C   UNL A   1      50.495  26.438  28.718  1.00  0.00     0.001 A 
ATOM     63  C   UNL A   1      50.013  25.340  30.814  1.00  0.00     0.001 A 
ATOM     64  C   UNL A   1      50.908  25.652  29.793  1.00  0.00     0.000 A 
ENDBRANCH  45  59
BRANCH  46  65
ATOM     65  C   UNL A   1      38.725  29.328  29.094  1.00  0.00    -0.014 A 
ATOM     66  C   UNL A   1      37.870  29.223  30.202  1.00  0.00     0.009 A 
ATOM     67  C   UNL A   1      38.205  29.808  27.881  1.00  0.00     0.009 A 
ATOM     68  C   UNL A   1      36.519  29.563  30.090  1.00  0.00     0.001 A 
ATOM     69  C   UNL A   1      36.862  30.178  27.780  1.00  0.00     0.001 A 
ATOM     70  C   UNL A   1      36.019  30.044  28.881  1.00  0.00     0.000 A 
ENDBRANCH  46  65
BRANCH  58  71
ATOM     71  C   UNL A   1      44.474  32.467  31.430  1.00  0.00    -0.014 A 
ATOM     72  C   UNL A   1      44.598  32.685  32.811  1.00  0.00     0.009 A 
ATOM     73  C   UNL A   1      44.616  33.557  30.555  1.00  0.00     0.009 A 
ATOM     74  C   UNL A   1      44.818  33.972  33.306  1.00  0.00     0.001 A 
ATOM     75  C   UNL A   1      44.863  34.837  31.052  1.00  0.00     0.001 A 
ATOM     76  C   UNL A   1      44.953  35.046  32.427  1.00  0.00     0.000 A 
ENDBRANCH  58  71
ENDBRANCH  32  33
ENDBRANCH  25  27
ENDBRANCH  24  25
ENDBRANCH  23  24
ENDBRANCH  22  23
ENDBRANCH  21  22
ENDBRANCH  20  21
ENDBRANCH   1  20
TORSDOF 21
ENDMDL
MODEL 3
REMARK VINA RESULT:      -8.3      1.329      6.142
REMARK SMILES CCC(CC)[C@H](C(=O)OCCOCCOCCOC(=O)c1ccc(-c2c3nc(c(-c4ccccc4)c4ccc([nH]4)c(-c4ccccc4)c4nc(c(-c5ccccc5)c5ccc2[nH]5)C=C4)C=C3)cc1)c1ccccc1
REMARK SMILES IDX 13 1 12 2 11 3 10 4 9 5 7 6 8 7 6 8 3 9 2 10 1 11 4 12 5 13
REMARK SMILES IDX 69 14 70 15 74 16 71 17 73 18 72 19 14 20 15 21 16 22 17 23
REMARK SMILES IDX 18 24 19 25 20 26 21 27 22 28 68 29 23 30 67 31 24 32 25 33
REMARK SMILES IDX 26 34 61 35 27 36 66 37 60 38 62 39 28 40 65 41 59 42 58 43
REMARK SMILES IDX 29 45 51 46 36 47 50 48 37 49 40 50 49 51 63 52 38 53 39 54
REMARK SMILES IDX 48 56 64 57 41 58 30 59 31 60 35 61 32 62 34 63 33 64 52 65
REMARK SMILES IDX 53 66 57 67 54 68 56 69 55 70 42 71 43 72 47 73 44 74 46 75
REMARK SMILES IDX 45 76
REMARK H PARENT 62 44 40 55
REMARK Flexibility Score: inf
ROOT
ATOM      1  C   UNL A   1      33.392  21.864  24.373  1.00  0.00     0.188 C 
ENDROOT
BRANCH   1   2
ATOM      2  O   UNL A   1      32.281  21.418  25.140  1.00  0.00    -0.376 OA
BRANCH   2   3
ATOM      3  C   UNL A   1      31.630  22.415  25.912  1.00  0.00     0.202 C 
BRANCH   3   4
ATOM      4  C   UNL A   1      31.565  23.771  25.208  1.00  0.00     0.261 C 
BRANCH   4   5
ATOM      5  O   UNL A   1      30.274  24.298  24.833  1.00  0.00    -0.463 OA
BRANCH   5   6
ATOM      6  C   UNL A   1      30.139  25.572  24.364  1.00  0.00     0.313 C 
ATOM      7  O   UNL A   1      29.089  26.113  24.091  1.00  0.00    -0.252 OA
BRANCH   6   8
ATOM      8  C   UNL A   1      31.530  26.169  24.119  1.00  0.00     0.132 C 
BRANCH   8   9
ATOM      9  C   UNL A   1      31.485  26.786  22.677  1.00  0.00     0.007 C 
BRANCH   9  10
ATOM     10  C   UNL A   1      31.720  28.319  22.612  1.00  0.00     0.001 C 
ATOM     11  C   UNL A   1      30.516  29.188  22.930  1.00  0.00     0.004 C 
ENDBRANCH   9  10
BRANCH   9  12
ATOM     12  C   UNL A   1      32.174  25.905  21.609  1.00  0.00     0.001 C 
ATOM     13  C   UNL A   1      33.147  24.840  22.079  1.00  0.00     0.004 C 
ENDBRANCH   9  12
ENDBRANCH   8   9
BRANCH   8  14
ATOM     14  C   UNL A   1      32.083  26.932  25.328  1.00  0.00    -0.034 A 
ATOM     15  C   UNL A   1      31.331  27.327  26.444  1.00  0.00     0.004 A 
ATOM     16  C   UNL A   1      33.425  27.358  25.295  1.00  0.00     0.004 A 
ATOM     17  C   UNL A   1      31.882  28.098  27.475  1.00  0.00     0.000 A 
ATOM     18  C   UNL A   1      33.978  28.138  26.320  1.00  0.00     0.000 A 
ATOM     19  C   UNL A   1      33.206  28.505  27.414  1.00  0.00     0.000 A 
ENDBRANCH   8  14
ENDBRANCH   6   8
ENDBRANCH   5   6
ENDBRANCH   4   5
ENDBRANCH   3   4
ENDBRANCH   2   3
ENDBRANCH   1   2
BRANCH   1  20
ATOM     20  C   UNL A   1      34.665  21.073  24.707  1.00  0.00     0.188 C 
BRANCH  20  21
ATOM     21  O   UNL A   1      35.327  21.367  25.934  1.00  0.00    -0.376 OA
BRANCH  21  22
ATOM     22  C   UNL A   1      36.642  21.907  25.864  1.00  0.00     0.202 C 
BRANCH  22  23
ATOM     23  C   UNL A   1      37.725  20.942  25.373  1.00  0.00     0.261 C 
BRANCH  23  24
ATOM     24  O   UNL A   1      39.048  21.522  25.402  1.00  0.00    -0.460 OA
BRANCH  24  25
ATOM     25  C   UNL A   1      40.014  20.739  25.928  1.00  0.00     0.338 C 
ATOM     26  O   UNL A   1      40.092  19.521  25.869  1.00  0.00    -0.246 OA
BRANCH  25  27
ATOM     27  C   UNL A   1      41.104  21.540  26.517  1.00  0.00     0.060 A 
ATOM     28  C   UNL A   1      41.101  21.713  27.903  1.00  0.00     0.016 A 
ATOM     29  C   UNL A   1      41.935  22.325  25.718  1.00  0.00     0.016 A 
ATOM     30  C   UNL A   1      41.832  22.746  28.487  1.00  0.00     0.010 A 
ATOM     31  C   UNL A   1      42.683  23.356  26.311  1.00  0.00     0.010 A 
ATOM     32  C   UNL A   1      42.571  23.625  27.691  1.00  0.00    -0.014 A 
BRANCH  32  33
ATOM     33  C   UNL A   1      42.989  24.942  28.257  1.00  0.00     0.031 A 
ATOM     34  C   UNL A   1      41.926  25.981  28.537  1.00  0.00     0.074 A 
ATOM     35  C   UNL A   1      44.255  25.197  28.636  1.00  0.00     0.049 A 
ATOM     36  N   UNL A   1      42.055  27.227  28.924  1.00  0.00    -0.248 NA
ATOM     37  C   UNL A   1      40.528  25.553  28.363  1.00  0.00     0.031 C 
ATOM     38  C   UNL A   1      45.376  24.261  28.556  1.00  0.00     0.029 A 
ATOM     39  N   UNL A   1      44.806  26.330  29.191  1.00  0.00    -0.354 N 
ATOM     40  C   UNL A   1      40.764  27.742  28.978  1.00  0.00     0.074 A 
ATOM     41  C   UNL A   1      39.867  26.678  28.585  1.00  0.00     0.031 C 
ATOM     42  C   UNL A   1      46.473  24.849  29.061  1.00  0.00     0.029 A 
ATOM     43  C   UNL A   1      46.152  26.222  29.446  1.00  0.00     0.049 A 
ATOM     44  H   UNL A   1      44.284  27.141  29.387  1.00  0.00     0.167 HD
ATOM     45  C   UNL A   1      40.354  28.986  29.324  1.00  0.00     0.031 A 
ATOM     46  C   UNL A   1      47.032  27.133  29.908  1.00  0.00     0.031 A 
ATOM     47  C   UNL A   1      41.226  30.041  29.764  1.00  0.00     0.049 A 
ATOM     48  C   UNL A   1      46.565  28.530  30.229  1.00  0.00     0.074 A 
ATOM     49  C   UNL A   1      40.905  31.344  30.102  1.00  0.00     0.029 A 
ATOM     50  N   UNL A   1      42.592  29.903  29.951  1.00  0.00    -0.354 N 
ATOM     51  N   UNL A   1      45.355  29.032  30.187  1.00  0.00    -0.248 NA
ATOM     52  C   UNL A   1      47.596  29.488  30.660  1.00  0.00     0.031 C 
ATOM     53  C   UNL A   1      42.084  32.007  30.464  1.00  0.00     0.029 A 
ATOM     54  C   UNL A   1      43.128  31.099  30.399  1.00  0.00     0.049 A 
ATOM     55  H   UNL A   1      43.104  29.079  29.789  1.00  0.00     0.167 HD
ATOM     56  C   UNL A   1      45.476  30.351  30.608  1.00  0.00     0.074 A 
ATOM     57  C   UNL A   1      46.872  30.567  30.921  1.00  0.00     0.031 C 
ATOM     58  C   UNL A   1      44.516  31.301  30.721  1.00  0.00     0.031 A 
BRANCH  45  59
ATOM     59  C   UNL A   1      38.888  29.289  29.184  1.00  0.00    -0.014 A 
ATOM     60  C   UNL A   1      38.337  29.731  27.971  1.00  0.00     0.009 A 
ATOM     61  C   UNL A   1      38.043  29.115  30.291  1.00  0.00     0.009 A 
ATOM     62  C   UNL A   1      36.975  30.029  27.883  1.00  0.00     0.001 A 
ATOM     63  C   UNL A   1      36.678  29.386  30.192  1.00  0.00     0.001 A 
ATOM     64  C   UNL A   1      36.147  29.854  28.992  1.00  0.00     0.000 A 
ENDBRANCH  45  59
BRANCH  46  65
ATOM     65  C   UNL A   1      48.470  26.778  30.060  1.00  0.00    -0.014 A 
ATOM     66  C   UNL A   1      49.372  26.964  29.002  1.00  0.00     0.009 A 
ATOM     67  C   UNL A   1      48.934  26.200  31.252  1.00  0.00     0.009 A 
ATOM     68  C   UNL A   1      50.703  26.556  29.124  1.00  0.00     0.001 A 
ATOM     69  C   UNL A   1      50.273  25.823  31.384  1.00  0.00     0.001 A 
ATOM     70  C   UNL A   1      51.152  25.990  30.317  1.00  0.00     0.000 A 
ENDBRANCH  46  65
BRANCH  58  71
ATOM     71  C   UNL A   1      44.930  32.642  31.258  1.00  0.00    -0.014 A 
ATOM     72  C   UNL A   1      45.019  32.885  32.637  1.00  0.00     0.009 A 
ATOM     73  C   UNL A   1      45.265  33.672  30.364  1.00  0.00     0.009 A 
ATOM     74  C   UNL A   1      45.396  34.144  33.110  1.00  0.00     0.001 A 
ATOM     75  C   UNL A   1      45.667  34.921  30.840  1.00  0.00     0.001 A 
ATOM     76  C   UNL A   1      45.722  35.160  32.212  1.00  0.00     0.000 A 
ENDBRANCH  58  71
ENDBRANCH  32  33
ENDBRANCH  25  27
ENDBRANCH  24  25
ENDBRANCH  23  24
ENDBRANCH  22  23
ENDBRANCH  21  22
ENDBRANCH  20  21
ENDBRANCH   1  20
TORSDOF 21
ENDMDL
