MODEL 1
REMARK VINA RESULT:     -11.8      0.000      0.000
REMARK SMILES Cc1ccc(/C=C(\NC(=O)c2cccc(C)c2)C(=O)OCCOCCOCCOC(=O)c2ccc(-c3c4nc(c(-c5ccccc5)c5ccc([nH]5)c(-c5ccccc5)c5nc(c(-c6ccccc6)c6ccc3[nH]6)C=C5)C=C4)cc2)cc1
REMARK SMILES IDX 24 1 23 2 22 3 21 4 20 5 18 6 19 7 7 8 6 9 5 10 1 11 2 12
REMARK SMILES IDX 3 13 81 14 4 15 80 16 8 17 9 18 10 20 11 21 12 22 17 23
REMARK SMILES IDX 13 24 15 25 14 26 16 27 25 28 26 29 27 30 28 31 29 32 30 33
REMARK SMILES IDX 31 34 32 35 33 36 79 37 34 38 78 39 35 40 36 41 37 42 72 43
REMARK SMILES IDX 38 44 77 45 71 46 73 47 39 48 76 49 70 50 69 51 40 53 62 54
REMARK SMILES IDX 47 55 61 56 48 57 51 58 60 59 74 60 49 61 50 62 59 64 75 65
REMARK SMILES IDX 52 66 41 67 42 68 46 69 43 70 45 71 44 72 63 73 64 74 68 75
REMARK SMILES IDX 65 76 67 77 66 78 53 79 54 80 58 81 55 82 57 83 56 84
REMARK H PARENT 8 19 73 52 51 63
REMARK Flexibility Score: inf
ROOT
ATOM      1  C   UNL A   1      41.158  21.281  26.500  1.00  0.00     0.188 C 
ENDROOT
BRANCH   1   2
ATOM      2  O   UNL A   1      40.226  22.129  25.852  1.00  0.00    -0.376 OA
BRANCH   2   3
ATOM      3  C   UNL A   1      38.884  21.928  26.301  1.00  0.00     0.202 C 
BRANCH   3   4
ATOM      4  C   UNL A   1      37.772  22.411  25.354  1.00  0.00     0.261 C 
BRANCH   4   5
ATOM      5  O   UNL A   1      36.535  21.507  25.018  1.00  0.00    -0.459 OA
BRANCH   5   6
ATOM      6  C   UNL A   1      35.170  21.336  24.715  1.00  0.00     0.354 C 
ATOM      7  O   UNL A   1      34.806  20.184  25.019  1.00  0.00    -0.244 OA
BRANCH   6   8
ATOM      8  C   UNL A   1      33.863  22.344  24.083  1.00  0.00     0.128 C 
ATOM      9  C   UNL A   1      33.381  22.885  25.236  1.00  0.00     0.042 C 
BRANCH   9  10
ATOM     10  C   UNL A   1      32.912  24.223  25.642  1.00  0.00    -0.023 A 
ATOM     11  C   UNL A   1      31.980  28.385  26.397  1.00  0.00     0.044 C 
ATOM     12  C   UNL A   1      32.318  26.939  26.188  1.00  0.00    -0.051 A 
ATOM     13  C   UNL A   1      31.305  25.973  26.121  1.00  0.00     0.004 A 
ATOM     14  C   UNL A   1      33.638  26.538  26.013  1.00  0.00     0.004 A 
ATOM     15  C   UNL A   1      31.600  24.624  25.868  1.00  0.00     0.008 A 
ATOM     16  C   UNL A   1      33.927  25.200  25.744  1.00  0.00     0.008 A 
ENDBRANCH   9  10
BRANCH   8  17
ATOM     17  N   UNL A   1      33.668  23.122  22.752  1.00  0.00    -0.316 N 
ATOM     18  C   UNL A   1      33.156  24.411  22.008  1.00  0.00     0.255 C 
ATOM     19  H   UNL A   1      34.033  22.538  22.049  1.00  0.00     0.170 HD
ATOM     20  O   UNL A   1      33.256  24.237  20.775  1.00  0.00    -0.269 OA
BRANCH  18  21
ATOM     21  C   UNL A   1      32.618  26.006  22.369  1.00  0.00     0.040 A 
ATOM     22  C   UNL A   1      33.619  26.988  22.467  1.00  0.00     0.014 A 
ATOM     23  C   UNL A   1      31.336  26.633  22.557  1.00  0.00     0.017 A 
ATOM     24  C   UNL A   1      33.339  28.385  22.654  1.00  0.00     0.001 A 
ATOM     25  C   UNL A   1      31.005  28.007  22.734  1.00  0.00    -0.050 A 
ATOM     26  C   UNL A   1      32.043  28.896  22.765  1.00  0.00     0.003 A 
ATOM     27  C   UNL A   1      29.552  28.433  22.792  1.00  0.00     0.044 C 
ENDBRANCH  18  21
ENDBRANCH   8  17
ENDBRANCH   6   8
ENDBRANCH   5   6
ENDBRANCH   4   5
ENDBRANCH   3   4
ENDBRANCH   2   3
ENDBRANCH   1   2
BRANCH   1  28
ATOM     28  C   UNL A   1      42.615  21.599  26.120  1.00  0.00     0.188 C 
BRANCH  28  29
ATOM     29  O   UNL A   1      42.740  22.367  24.933  1.00  0.00    -0.376 OA
BRANCH  29  30
ATOM     30  C   UNL A   1      43.505  23.563  24.991  1.00  0.00     0.202 C 
BRANCH  30  31
ATOM     31  C   UNL A   1      42.573  24.723  25.355  1.00  0.00     0.261 C 
BRANCH  31  32
ATOM     32  O   UNL A   1      43.369  25.925  25.451  1.00  0.00    -0.460 OA
BRANCH  32  33
ATOM     33  C   UNL A   1      42.630  27.050  25.295  1.00  0.00     0.338 C 
ATOM     34  O   UNL A   1      42.718  27.817  24.353  1.00  0.00    -0.246 OA
BRANCH  33  35
ATOM     35  C   UNL A   1      41.930  27.363  26.580  1.00  0.00     0.060 A 
ATOM     36  C   UNL A   1      40.885  28.219  26.446  1.00  0.00     0.016 A 
ATOM     37  C   UNL A   1      42.404  27.125  27.884  1.00  0.00     0.016 A 
ATOM     38  C   UNL A   1      40.441  28.893  27.585  1.00  0.00     0.010 A 
ATOM     39  C   UNL A   1      41.937  27.866  29.043  1.00  0.00     0.010 A 
ATOM     40  C   UNL A   1      40.904  28.835  28.995  1.00  0.00    -0.014 A 
BRANCH  40  41
ATOM     41  C   UNL A   1      40.402  29.831  30.432  1.00  0.00     0.031 A 
ATOM     42  C   UNL A   1      40.352  29.440  32.121  1.00  0.00     0.074 A 
ATOM     43  C   UNL A   1      40.081  31.170  30.437  1.00  0.00     0.049 A 
ATOM     44  N   UNL A   1      40.678  30.344  33.018  1.00  0.00    -0.248 NA
ATOM     45  C   UNL A   1      40.232  28.156  32.880  1.00  0.00     0.031 C 
ATOM     46  C   UNL A   1      40.813  32.209  31.167  1.00  0.00     0.029 A 
ATOM     47  N   UNL A   1      39.075  31.914  29.828  1.00  0.00    -0.354 N 
ATOM     48  C   UNL A   1      41.332  29.701  34.059  1.00  0.00     0.074 A 
ATOM     49  C   UNL A   1      40.975  28.332  33.972  1.00  0.00     0.031 C 
ATOM     50  C   UNL A   1      40.155  33.372  31.093  1.00  0.00     0.029 A 
ATOM     51  C   UNL A   1      38.890  33.135  30.439  1.00  0.00     0.049 A 
ATOM     52  H   UNL A   1      38.557  31.604  29.051  1.00  0.00     0.167 HD
ATOM     53  C   UNL A   1      42.266  30.373  34.778  1.00  0.00     0.031 A 
ATOM     54  C   UNL A   1      37.685  33.705  30.694  1.00  0.00     0.031 A 
ATOM     55  C   UNL A   1      41.914  31.777  34.891  1.00  0.00     0.049 A 
ATOM     56  C   UNL A   1      37.584  34.076  32.151  1.00  0.00     0.074 A 
ATOM     57  C   UNL A   1      42.525  33.000  34.716  1.00  0.00     0.029 A 
ATOM     58  N   UNL A   1      40.575  32.050  35.151  1.00  0.00    -0.354 N 
ATOM     59  N   UNL A   1      38.528  33.792  33.006  1.00  0.00    -0.248 NA
ATOM     60  C   UNL A   1      36.447  34.725  32.795  1.00  0.00     0.031 C 
ATOM     61  C   UNL A   1      41.505  34.005  34.764  1.00  0.00     0.029 A 
ATOM     62  C   UNL A   1      40.298  33.387  35.042  1.00  0.00     0.049 A 
ATOM     63  H   UNL A   1      39.907  31.366  35.385  1.00  0.00     0.167 HD
ATOM     64  C   UNL A   1      38.149  34.133  34.265  1.00  0.00     0.074 A 
ATOM     65  C   UNL A   1      36.843  34.739  34.083  1.00  0.00     0.031 C 
ATOM     66  C   UNL A   1      38.936  33.821  35.334  1.00  0.00     0.031 A 
BRANCH  53  67
ATOM     67  C   UNL A   1      43.587  29.740  35.177  1.00  0.00    -0.014 A 
ATOM     68  C   UNL A   1      43.726  29.090  36.415  1.00  0.00     0.009 A 
ATOM     69  C   UNL A   1      44.787  29.936  34.453  1.00  0.00     0.009 A 
ATOM     70  C   UNL A   1      44.982  28.688  36.908  1.00  0.00     0.001 A 
ATOM     71  C   UNL A   1      46.040  29.526  34.934  1.00  0.00     0.001 A 
ATOM     72  C   UNL A   1      46.140  28.910  36.171  1.00  0.00     0.000 A 
ENDBRANCH  53  67
BRANCH  54  73
ATOM     73  C   UNL A   1      36.594  33.346  29.744  1.00  0.00    -0.014 A 
ATOM     74  C   UNL A   1      35.608  32.448  30.213  1.00  0.00     0.009 A 
ATOM     75  C   UNL A   1      36.303  34.087  28.589  1.00  0.00     0.009 A 
ATOM     76  C   UNL A   1      34.348  32.357  29.610  1.00  0.00     0.001 A 
ATOM     77  C   UNL A   1      35.040  33.984  27.979  1.00  0.00     0.001 A 
ATOM     78  C   UNL A   1      34.056  33.144  28.504  1.00  0.00     0.000 A 
ENDBRANCH  54  73
BRANCH  66  79
ATOM     79  C   UNL A   1      38.489  33.788  36.771  1.00  0.00    -0.014 A 
ATOM     80  C   UNL A   1      37.524  32.907  37.273  1.00  0.00     0.009 A 
ATOM     81  C   UNL A   1      39.212  34.548  37.720  1.00  0.00     0.009 A 
ATOM     82  C   UNL A   1      37.265  32.822  38.646  1.00  0.00     0.001 A 
ATOM     83  C   UNL A   1      38.991  34.430  39.092  1.00  0.00     0.001 A 
ATOM     84  C   UNL A   1      38.005  33.573  39.555  1.00  0.00     0.000 A 
ENDBRANCH  66  79
ENDBRANCH  40  41
ENDBRANCH  33  35
ENDBRANCH  32  33
ENDBRANCH  31  32
ENDBRANCH  30  31
ENDBRANCH  29  30
ENDBRANCH  28  29
ENDBRANCH   1  28
TORSDOF 20
ENDMDL
MODEL 2
REMARK VINA RESULT:     -11.8      4.100      8.415
REMARK SMILES Cc1ccc(/C=C(\NC(=O)c2cccc(C)c2)C(=O)OCCOCCOCCOC(=O)c2ccc(-c3c4nc(c(-c5ccccc5)c5ccc([nH]5)c(-c5ccccc5)c5nc(c(-c6ccccc6)c6ccc3[nH]6)C=C5)C=C4)cc2)cc1
REMARK SMILES IDX 24 1 23 2 22 3 21 4 20 5 18 6 19 7 7 8 6 9 5 10 1 11 2 12
REMARK SMILES IDX 3 13 81 14 4 15 80 16 8 17 9 18 10 20 11 21 12 22 17 23
REMARK SMILES IDX 13 24 15 25 14 26 16 27 25 28 26 29 27 30 28 31 29 32 30 33
REMARK SMILES IDX 31 34 32 35 33 36 79 37 34 38 78 39 35 40 36 41 37 42 72 43
REMARK SMILES IDX 38 44 77 45 71 46 73 47 39 48 76 49 70 50 69 51 40 53 62 54
REMARK SMILES IDX 47 55 61 56 48 57 51 58 60 59 74 60 49 61 50 62 59 64 75 65
REMARK SMILES IDX 52 66 41 67 42 68 46 69 43 70 45 71 44 72 63 73 64 74 68 75
REMARK SMILES IDX 65 76 67 77 66 78 53 79 54 80 58 81 55 82 57 83 56 84
REMARK H PARENT 8 19 73 52 51 63
REMARK Flexibility Score: inf
ROOT
ATOM      1  C   UNL A   1      41.449  19.601  26.019  1.00  0.00     0.188 C 
ENDROOT
BRANCH   1   2
ATOM      2  O   UNL A   1      40.655  20.762  26.197  1.00  0.00    -0.376 OA
BRANCH   2   3
ATOM      3  C   UNL A   1      39.320  20.603  25.711  1.00  0.00     0.202 C 
BRANCH   3   4
ATOM      4  C   UNL A   1      38.419  21.847  25.785  1.00  0.00     0.261 C 
BRANCH   4   5
ATOM      5  O   UNL A   1      36.855  21.728  25.741  1.00  0.00    -0.459 OA
BRANCH   5   6
ATOM      6  C   UNL A   1      35.656  21.375  25.092  1.00  0.00     0.354 C 
ATOM      7  O   UNL A   1      35.595  20.138  24.951  1.00  0.00    -0.244 OA
BRANCH   6   8
ATOM      8  C   UNL A   1      34.224  22.224  24.498  1.00  0.00     0.128 C 
ATOM      9  C   UNL A   1      33.791  22.820  25.643  1.00  0.00     0.042 C 
BRANCH   9  10
ATOM     10  C   UNL A   1      33.245  24.147  25.985  1.00  0.00    -0.023 A 
ATOM     11  C   UNL A   1      31.898  28.241  26.404  1.00  0.00     0.044 C 
ATOM     12  C   UNL A   1      32.394  26.830  26.304  1.00  0.00    -0.051 A 
ATOM     13  C   UNL A   1      31.578  25.759  26.692  1.00  0.00     0.004 A 
ATOM     14  C   UNL A   1      33.655  26.559  25.784  1.00  0.00     0.004 A 
ATOM     15  C   UNL A   1      32.006  24.430  26.550  1.00  0.00     0.008 A 
ATOM     16  C   UNL A   1      34.070  25.236  25.628  1.00  0.00     0.008 A 
ENDBRANCH   9  10
BRANCH   8  17
ATOM     17  N   UNL A   1      33.861  22.872  23.133  1.00  0.00    -0.316 N 
ATOM     18  C   UNL A   1      32.975  23.883  22.316  1.00  0.00     0.255 C 
ATOM     19  H   UNL A   1      34.465  22.458  22.475  1.00  0.00     0.170 HD
ATOM     20  O   UNL A   1      33.223  23.751  21.098  1.00  0.00    -0.269 OA
BRANCH  18  21
ATOM     21  C   UNL A   1      31.869  25.174  22.588  1.00  0.00     0.040 A 
ATOM     22  C   UNL A   1      30.658  24.829  23.212  1.00  0.00     0.014 A 
ATOM     23  C   UNL A   1      31.889  26.598  22.375  1.00  0.00     0.017 A 
ATOM     24  C   UNL A   1      29.672  25.795  23.611  1.00  0.00     0.001 A 
ATOM     25  C   UNL A   1      30.948  27.595  22.758  1.00  0.00    -0.050 A 
ATOM     26  C   UNL A   1      29.822  27.169  23.407  1.00  0.00     0.003 A 
ATOM     27  C   UNL A   1      31.258  29.059  22.519  1.00  0.00     0.044 C 
ENDBRANCH  18  21
ENDBRANCH   8  17
ENDBRANCH   6   8
ENDBRANCH   5   6
ENDBRANCH   4   5
ENDBRANCH   3   4
ENDBRANCH   2   3
ENDBRANCH   1   2
BRANCH   1  28
ATOM     28  C   UNL A   1      42.951  19.871  26.224  1.00  0.00     0.188 C 
BRANCH  28  29
ATOM     29  O   UNL A   1      43.711  19.804  25.028  1.00  0.00    -0.376 OA
BRANCH  29  30
ATOM     30  C   UNL A   1      45.112  19.599  25.140  1.00  0.00     0.202 C 
BRANCH  30  31
ATOM     31  C   UNL A   1      45.827  20.913  24.811  1.00  0.00     0.261 C 
BRANCH  31  32
ATOM     32  O   UNL A   1      45.682  21.799  25.944  1.00  0.00    -0.460 OA
BRANCH  32  33
ATOM     33  C   UNL A   1      44.838  22.828  25.693  1.00  0.00     0.338 C 
ATOM     34  O   UNL A   1      44.546  23.236  24.583  1.00  0.00    -0.246 OA
BRANCH  33  35
ATOM     35  C   UNL A   1      44.572  23.570  26.964  1.00  0.00     0.060 A 
ATOM     36  C   UNL A   1      45.668  24.178  27.489  1.00  0.00     0.016 A 
ATOM     37  C   UNL A   1      43.442  23.454  27.794  1.00  0.00     0.016 A 
ATOM     38  C   UNL A   1      45.638  24.526  28.841  1.00  0.00     0.010 A 
ATOM     39  C   UNL A   1      43.456  23.801  29.205  1.00  0.00     0.010 A 
ATOM     40  C   UNL A   1      44.574  24.369  29.865  1.00  0.00    -0.014 A 
BRANCH  40  41
ATOM     41  C   UNL A   1      44.615  24.701  31.653  1.00  0.00     0.031 A 
ATOM     42  C   UNL A   1      44.554  26.195  32.531  1.00  0.00     0.074 A 
ATOM     43  C   UNL A   1      44.572  23.770  32.666  1.00  0.00     0.049 A 
ATOM     44  N   UNL A   1      43.894  26.267  33.666  1.00  0.00    -0.248 NA
ATOM     45  C   UNL A   1      44.909  27.608  32.190  1.00  0.00     0.031 C 
ATOM     46  C   UNL A   1      43.509  23.664  33.670  1.00  0.00     0.029 A 
ATOM     47  N   UNL A   1      45.417  22.731  33.047  1.00  0.00    -0.354 N 
ATOM     48  C   UNL A   1      43.306  27.522  33.742  1.00  0.00     0.074 A 
ATOM     49  C   UNL A   1      44.016  28.353  32.840  1.00  0.00     0.031 C 
ATOM     50  C   UNL A   1      43.844  22.765  34.602  1.00  0.00     0.029 A 
ATOM     51  C   UNL A   1      45.199  22.335  34.348  1.00  0.00     0.049 A 
ATOM     52  H   UNL A   1      46.090  22.327  32.455  1.00  0.00     0.167 HD
ATOM     53  C   UNL A   1      42.146  27.675  34.430  1.00  0.00     0.031 A 
ATOM     54  C   UNL A   1      46.172  22.028  35.243  1.00  0.00     0.031 A 
ATOM     55  C   UNL A   1      42.103  26.777  35.569  1.00  0.00     0.049 A 
ATOM     56  C   UNL A   1      45.990  22.832  36.504  1.00  0.00     0.074 A 
ATOM     57  C   UNL A   1      41.220  25.875  36.125  1.00  0.00     0.029 A 
ATOM     58  N   UNL A   1      43.281  26.662  36.301  1.00  0.00    -0.354 N 
ATOM     59  N   UNL A   1      45.054  23.733  36.624  1.00  0.00    -0.248 NA
ATOM     60  C   UNL A   1      46.828  22.762  37.696  1.00  0.00     0.031 C 
ATOM     61  C   UNL A   1      41.929  25.140  37.130  1.00  0.00     0.029 A 
ATOM     62  C   UNL A   1      43.211  25.653  37.223  1.00  0.00     0.049 A 
ATOM     63  H   UNL A   1      44.070  27.237  36.170  1.00  0.00     0.167 HD
ATOM     64  C   UNL A   1      45.170  24.388  37.807  1.00  0.00     0.074 A 
ATOM     65  C   UNL A   1      46.285  23.729  38.462  1.00  0.00     0.031 C 
ATOM     66  C   UNL A   1      44.365  25.450  38.093  1.00  0.00     0.031 A 
BRANCH  53  67
ATOM     67  C   UNL A   1      40.997  28.513  33.899  1.00  0.00    -0.014 A 
ATOM     68  C   UNL A   1      40.642  29.721  34.523  1.00  0.00     0.009 A 
ATOM     69  C   UNL A   1      40.101  28.053  32.906  1.00  0.00     0.009 A 
ATOM     70  C   UNL A   1      39.456  30.407  34.196  1.00  0.00     0.001 A 
ATOM     71  C   UNL A   1      38.923  28.739  32.568  1.00  0.00     0.001 A 
ATOM     72  C   UNL A   1      38.594  29.914  33.223  1.00  0.00     0.000 A 
ENDBRANCH  53  67
BRANCH  54  73
ATOM     73  C   UNL A   1      47.428  21.479  34.659  1.00  0.00    -0.014 A 
ATOM     74  C   UNL A   1      48.619  22.197  34.915  1.00  0.00     0.009 A 
ATOM     75  C   UNL A   1      47.551  20.162  34.192  1.00  0.00     0.009 A 
ATOM     76  C   UNL A   1      49.880  21.600  34.798  1.00  0.00     0.001 A 
ATOM     77  C   UNL A   1      48.820  19.569  34.064  1.00  0.00     0.001 A 
ATOM     78  C   UNL A   1      49.978  20.275  34.394  1.00  0.00     0.000 A 
ENDBRANCH  54  73
BRANCH  66  79
ATOM     79  C   UNL A   1      44.621  26.483  39.158  1.00  0.00    -0.014 A 
ATOM     80  C   UNL A   1      44.452  26.257  40.528  1.00  0.00     0.009 A 
ATOM     81  C   UNL A   1      45.254  27.693  38.786  1.00  0.00     0.009 A 
ATOM     82  C   UNL A   1      44.854  27.207  41.475  1.00  0.00     0.001 A 
ATOM     83  C   UNL A   1      45.700  28.619  39.728  1.00  0.00     0.001 A 
ATOM     84  C   UNL A   1      45.487  28.381  41.076  1.00  0.00     0.000 A 
ENDBRANCH  66  79
ENDBRANCH  40  41
ENDBRANCH  33  35
ENDBRANCH  32  33
ENDBRANCH  31  32
ENDBRANCH  30  31
ENDBRANCH  29  30
ENDBRANCH  28  29
ENDBRANCH   1  28
TORSDOF 20
ENDMDL
MODEL 3
REMARK VINA RESULT:     -11.2      1.198      1.994
REMARK SMILES Cc1ccc(/C=C(\NC(=O)c2cccc(C)c2)C(=O)OCCOCCOCCOC(=O)c2ccc(-c3c4nc(c(-c5ccccc5)c5ccc([nH]5)c(-c5ccccc5)c5nc(c(-c6ccccc6)c6ccc3[nH]6)C=C5)C=C4)cc2)cc1
REMARK SMILES IDX 24 1 23 2 22 3 21 4 20 5 18 6 19 7 7 8 6 9 5 10 1 11 2 12
REMARK SMILES IDX 3 13 81 14 4 15 80 16 8 17 9 18 10 20 11 21 12 22 17 23
REMARK SMILES IDX 13 24 15 25 14 26 16 27 25 28 26 29 27 30 28 31 29 32 30 33
REMARK SMILES IDX 31 34 32 35 33 36 79 37 34 38 78 39 35 40 36 41 37 42 72 43
REMARK SMILES IDX 38 44 77 45 71 46 73 47 39 48 76 49 70 50 69 51 40 53 62 54
REMARK SMILES IDX 47 55 61 56 48 57 51 58 60 59 74 60 49 61 50 62 59 64 75 65
REMARK SMILES IDX 52 66 41 67 42 68 46 69 43 70 45 71 44 72 63 73 64 74 68 75
REMARK SMILES IDX 65 76 67 77 66 78 53 79 54 80 58 81 55 82 57 83 56 84
REMARK H PARENT 8 19 73 52 51 63
REMARK Flexibility Score: inf
ROOT
ATOM      1  C   UNL A   1      40.448  21.682  27.036  1.00  0.00     0.188 C 
ENDROOT
BRANCH   1   2
ATOM      2  O   UNL A   1      39.831  21.036  25.935  1.00  0.00    -0.376 OA
BRANCH   2   3
ATOM      3  C   UNL A   1      38.495  21.490  25.702  1.00  0.00     0.202 C 
BRANCH   3   4
ATOM      4  C   UNL A   1      37.564  20.508  24.970  1.00  0.00     0.261 C 
BRANCH   4   5
ATOM      5  O   UNL A   1      36.027  20.455  25.277  1.00  0.00    -0.459 OA
BRANCH   5   6
ATOM      6  C   UNL A   1      34.743  21.035  25.285  1.00  0.00     0.354 C 
ATOM      7  O   UNL A   1      33.922  20.265  24.751  1.00  0.00    -0.244 OA
BRANCH   6   8
ATOM      8  C   UNL A   1      34.014  22.522  25.903  1.00  0.00     0.128 C 
ATOM      9  C   UNL A   1      34.756  23.458  25.250  1.00  0.00     0.042 C 
BRANCH   9  10
ATOM     10  C   UNL A   1      34.462  24.739  24.581  1.00  0.00    -0.023 A 
ATOM     11  C   UNL A   1      33.054  28.195  22.382  1.00  0.00     0.044 C 
ATOM     12  C   UNL A   1      33.587  26.999  23.113  1.00  0.00    -0.051 A 
ATOM     13  C   UNL A   1      34.151  27.136  24.388  1.00  0.00     0.004 A 
ATOM     14  C   UNL A   1      33.490  25.728  22.555  1.00  0.00     0.004 A 
ATOM     15  C   UNL A   1      34.601  26.018  25.109  1.00  0.00     0.008 A 
ATOM     16  C   UNL A   1      33.922  24.618  23.281  1.00  0.00     0.008 A 
ENDBRANCH   9  10
BRANCH   8  17
ATOM     17  N   UNL A   1      32.575  22.892  26.359  1.00  0.00    -0.316 N 
ATOM     18  C   UNL A   1      31.446  23.978  26.503  1.00  0.00     0.255 C 
ATOM     19  H   UNL A   1      32.195  22.064  26.730  1.00  0.00     0.170 HD
ATOM     20  O   UNL A   1      30.490  23.490  27.144  1.00  0.00    -0.269 OA
BRANCH  18  21
ATOM     21  C   UNL A   1      31.080  25.569  25.957  1.00  0.00     0.040 A 
ATOM     22  C   UNL A   1      31.612  26.621  26.721  1.00  0.00     0.014 A 
ATOM     23  C   UNL A   1      30.373  26.126  24.833  1.00  0.00     0.017 A 
ATOM     24  C   UNL A   1      31.497  28.005  26.348  1.00  0.00     0.001 A 
ATOM     25  C   UNL A   1      30.238  27.481  24.415  1.00  0.00    -0.050 A 
ATOM     26  C   UNL A   1      30.835  28.433  25.194  1.00  0.00     0.003 A 
ATOM     27  C   UNL A   1      29.533  27.803  23.113  1.00  0.00     0.044 C 
ENDBRANCH  18  21
ENDBRANCH   8  17
ENDBRANCH   6   8
ENDBRANCH   5   6
ENDBRANCH   4   5
ENDBRANCH   3   4
ENDBRANCH   2   3
ENDBRANCH   1   2
BRANCH   1  28
ATOM     28  C   UNL A   1      41.915  22.057  26.758  1.00  0.00     0.188 C 
BRANCH  28  29
ATOM     29  O   UNL A   1      42.209  22.226  25.380  1.00  0.00    -0.376 OA
BRANCH  29  30
ATOM     30  C   UNL A   1      42.996  23.347  25.000  1.00  0.00     0.202 C 
BRANCH  30  31
ATOM     31  C   UNL A   1      42.516  24.571  25.783  1.00  0.00     0.261 C 
BRANCH  31  32
ATOM     32  O   UNL A   1      43.330  25.700  25.396  1.00  0.00    -0.460 OA
BRANCH  32  33
ATOM     33  C   UNL A   1      42.620  26.852  25.323  1.00  0.00     0.338 C 
ATOM     34  O   UNL A   1      42.643  27.626  24.384  1.00  0.00    -0.246 OA
BRANCH  33  35
ATOM     35  C   UNL A   1      42.061  27.173  26.673  1.00  0.00     0.060 A 
ATOM     36  C   UNL A   1      40.809  27.700  26.641  1.00  0.00     0.016 A 
ATOM     37  C   UNL A   1      42.770  27.273  27.884  1.00  0.00     0.016 A 
ATOM     38  C   UNL A   1      40.370  28.409  27.761  1.00  0.00     0.010 A 
ATOM     39  C   UNL A   1      42.293  28.043  29.020  1.00  0.00     0.010 A 
ATOM     40  C   UNL A   1      41.035  28.695  29.057  1.00  0.00    -0.014 A 
BRANCH  40  41
ATOM     41  C   UNL A   1      40.495  29.742  30.442  1.00  0.00     0.031 A 
ATOM     42  C   UNL A   1      40.662  29.532  32.156  1.00  0.00     0.074 A 
ATOM     43  C   UNL A   1      39.946  31.002  30.360  1.00  0.00     0.049 A 
ATOM     44  N   UNL A   1      40.903  30.569  32.927  1.00  0.00    -0.248 NA
ATOM     45  C   UNL A   1      40.837  28.336  33.037  1.00  0.00     0.031 C 
ATOM     46  C   UNL A   1      40.545  32.221  30.911  1.00  0.00     0.029 A 
ATOM     47  N   UNL A   1      38.775  31.500  29.795  1.00  0.00    -0.354 N 
ATOM     48  C   UNL A   1      41.748  30.159  33.949  1.00  0.00     0.074 A 
ATOM     49  C   UNL A   1      41.630  28.748  34.025  1.00  0.00     0.031 C 
ATOM     50  C   UNL A   1      39.690  33.244  30.801  1.00  0.00     0.029 A 
ATOM     51  C   UNL A   1      38.433  32.731  30.308  1.00  0.00     0.049 A 
ATOM     52  H   UNL A   1      38.254  31.026  29.108  1.00  0.00     0.167 HD
ATOM     53  C   UNL A   1      42.609  31.050  34.501  1.00  0.00     0.031 A 
ATOM     54  C   UNL A   1      37.174  33.118  30.635  1.00  0.00     0.031 A 
ATOM     55  C   UNL A   1      42.028  32.380  34.523  1.00  0.00     0.049 A 
ATOM     56  C   UNL A   1      37.138  33.622  32.055  1.00  0.00     0.074 A 
ATOM     57  C   UNL A   1      42.398  33.662  34.173  1.00  0.00     0.029 A 
ATOM     58  N   UNL A   1      40.690  32.454  34.896  1.00  0.00    -0.354 N 
ATOM     59  N   UNL A   1      38.188  33.592  32.829  1.00  0.00    -0.248 NA
ATOM     60  C   UNL A   1      35.966  34.139  32.753  1.00  0.00     0.031 C 
ATOM     61  C   UNL A   1      41.225  34.482  34.238  1.00  0.00     0.029 A 
ATOM     62  C   UNL A   1      40.174  33.707  34.696  1.00  0.00     0.049 A 
ATOM     63  H   UNL A   1      40.175  31.698  35.260  1.00  0.00     0.167 HD
ATOM     64  C   UNL A   1      37.868  33.999  34.084  1.00  0.00     0.074 A 
ATOM     65  C   UNL A   1      36.465  34.357  33.986  1.00  0.00     0.031 C 
ATOM     66  C   UNL A   1      38.788  33.938  35.088  1.00  0.00     0.031 A 
BRANCH  53  67
ATOM     67  C   UNL A   1      44.051  30.692  34.815  1.00  0.00    -0.014 A 
ATOM     68  C   UNL A   1      44.956  30.390  33.784  1.00  0.00     0.009 A 
ATOM     69  C   UNL A   1      44.515  30.438  36.128  1.00  0.00     0.009 A 
ATOM     70  C   UNL A   1      46.228  29.846  34.046  1.00  0.00     0.001 A 
ATOM     71  C   UNL A   1      45.786  29.906  36.395  1.00  0.00     0.001 A 
ATOM     72  C   UNL A   1      46.642  29.598  35.351  1.00  0.00     0.000 A 
ENDBRANCH  53  67
BRANCH  54  73
ATOM     73  C   UNL A   1      36.084  32.483  29.841  1.00  0.00    -0.014 A 
ATOM     74  C   UNL A   1      35.256  33.348  29.089  1.00  0.00     0.009 A 
ATOM     75  C   UNL A   1      36.053  31.117  29.527  1.00  0.00     0.009 A 
ATOM     76  C   UNL A   1      34.496  32.885  28.008  1.00  0.00     0.001 A 
ATOM     77  C   UNL A   1      35.279  30.653  28.448  1.00  0.00     0.001 A 
ATOM     78  C   UNL A   1      34.527  31.538  27.674  1.00  0.00     0.000 A 
ENDBRANCH  54  73
BRANCH  66  79
ATOM     79  C   UNL A   1      38.482  33.986  36.561  1.00  0.00    -0.014 A 
ATOM     80  C   UNL A   1      37.590  33.122  37.206  1.00  0.00     0.009 A 
ATOM     81  C   UNL A   1      39.276  34.815  37.388  1.00  0.00     0.009 A 
ATOM     82  C   UNL A   1      37.466  33.117  38.601  1.00  0.00     0.001 A 
ATOM     83  C   UNL A   1      39.190  34.778  38.780  1.00  0.00     0.001 A 
ATOM     84  C   UNL A   1      38.273  33.936  39.387  1.00  0.00     0.000 A 
ENDBRANCH  66  79
ENDBRANCH  40  41
ENDBRANCH  33  35
ENDBRANCH  32  33
ENDBRANCH  31  32
ENDBRANCH  30  31
ENDBRANCH  29  30
ENDBRANCH  28  29
ENDBRANCH   1  28
TORSDOF 20
ENDMDL
