MODEL 1
REMARK VINA RESULT:      -9.9      0.000      0.000
REMARK SMILES CCOc1cccc(-c2ccc([C@@H](C)C(=O)OCCOCCOCCOC(=O)c3ccc(-c4c5nc(c(-c6ccccc6)c6ccc([nH]6)c(-c6ccccc6)c6nc(c(-c7ccccc7)c7ccc4[nH]7)C=C6)C=C5)cc3)cc2F)c1
REMARK SMILES IDX 21 1 20 2 19 3 18 4 17 5 15 6 16 7 13 8 14 9 12 10 9 11
REMARK SMILES IDX 10 12 78 13 11 14 77 15 79 16 8 17 4 18 5 19 80 20 6 21 7 22
REMARK SMILES IDX 3 23 2 24 1 25 22 26 23 27 24 28 25 29 26 30 27 31 28 32
REMARK SMILES IDX 29 33 30 34 76 35 31 36 75 37 32 38 33 39 34 40 69 41 35 42
REMARK SMILES IDX 74 43 68 44 70 45 36 46 73 47 67 48 66 49 37 51 59 52 44 53
REMARK SMILES IDX 58 54 45 55 48 56 57 57 71 58 46 59 47 60 56 62 72 63 49 64
REMARK SMILES IDX 38 65 39 66 43 67 40 68 42 69 41 70 60 71 61 72 65 73 62 74
REMARK SMILES IDX 64 75 63 76 50 77 51 78 55 79 52 80 54 81 53 82
REMARK H PARENT 70 50 48 61
REMARK Flexibility Score: inf
ROOT
ATOM      1  C   UNL A   1      34.519  24.366  25.340  1.00  0.00     0.188 C 
ENDROOT
BRANCH   1   2
ATOM      2  O   UNL A   1      33.566  24.930  26.233  1.00  0.00    -0.376 OA
BRANCH   2   3
ATOM      3  C   UNL A   1      32.372  24.211  26.518  1.00  0.00     0.202 C 
BRANCH   3   4
ATOM      4  C   UNL A   1      31.307  24.092  25.415  1.00  0.00     0.261 C 
BRANCH   4   5
ATOM      5  O   UNL A   1      30.833  25.343  24.862  1.00  0.00    -0.463 OA
BRANCH   5   6
ATOM      6  C   UNL A   1      30.977  26.442  25.646  1.00  0.00     0.313 C 
ATOM      7  O   UNL A   1      30.607  26.484  26.819  1.00  0.00    -0.252 OA
BRANCH   6   8
ATOM      8  C   UNL A   1      31.662  27.654  25.008  1.00  0.00     0.126 C 
ATOM      9  C   UNL A   1      32.534  27.171  23.850  1.00  0.00     0.025 C 
BRANCH   8  10
ATOM     10  C   UNL A   1      32.424  28.682  25.842  1.00  0.00    -0.031 A 
ATOM     11  C   UNL A   1      33.773  30.723  27.354  1.00  0.00     0.018 A 
ATOM     12  C   UNL A   1      34.339  29.450  27.156  1.00  0.00     0.012 A 
ATOM     13  C   UNL A   1      32.517  30.944  26.777  1.00  0.00     0.131 A 
ATOM     14  C   UNL A   1      33.684  28.448  26.408  1.00  0.00     0.005 A 
ATOM     15  C   UNL A   1      31.860  29.959  26.032  1.00  0.00     0.044 A 
ATOM     16  F   UNL A   1      31.905  32.131  26.914  1.00  0.00    -0.206 F 
BRANCH  11  17
ATOM     17  C   UNL A   1      34.486  31.779  28.110  1.00  0.00    -0.012 A 
ATOM     18  C   UNL A   1      34.556  33.476  29.871  1.00  0.00     0.119 A 
ATOM     19  C   UNL A   1      35.841  33.848  29.491  1.00  0.00     0.046 A 
ATOM     20  C   UNL A   1      33.878  32.465  29.180  1.00  0.00     0.055 A 
ATOM     21  C   UNL A   1      36.462  33.190  28.433  1.00  0.00     0.004 A 
ATOM     22  C   UNL A   1      35.791  32.166  27.754  1.00  0.00     0.009 A 
BRANCH  18  23
ATOM     23  O   UNL A   1      33.932  34.232  30.826  1.00  0.00    -0.494 OA
BRANCH  23  24
ATOM     24  C   UNL A   1      33.871  35.625  30.503  1.00  0.00     0.226 C 
ATOM     25  C   UNL A   1      32.905  35.875  29.362  1.00  0.00     0.049 C 
ENDBRANCH  23  24
ENDBRANCH  18  23
ENDBRANCH  11  17
ENDBRANCH   8  10
ENDBRANCH   6   8
ENDBRANCH   5   6
ENDBRANCH   4   5
ENDBRANCH   3   4
ENDBRANCH   2   3
ENDBRANCH   1   2
BRANCH   1  26
ATOM     26  C   UNL A   1      34.486  22.858  25.048  1.00  0.00     0.188 C 
BRANCH  26  27
ATOM     27  O   UNL A   1      35.664  22.162  25.392  1.00  0.00    -0.376 OA
BRANCH  27  28
ATOM     28  C   UNL A   1      35.606  20.750  25.324  1.00  0.00     0.202 C 
BRANCH  28  29
ATOM     29  C   UNL A   1      36.936  20.064  24.977  1.00  0.00     0.261 C 
BRANCH  29  30
ATOM     30  O   UNL A   1      38.086  20.930  24.917  1.00  0.00    -0.460 OA
BRANCH  30  31
ATOM     31  C   UNL A   1      39.089  20.648  25.773  1.00  0.00     0.338 C 
ATOM     32  O   UNL A   1      39.651  19.568  25.903  1.00  0.00    -0.246 OA
BRANCH  31  33
ATOM     33  C   UNL A   1      39.562  21.898  26.400  1.00  0.00     0.060 A 
ATOM     34  C   UNL A   1      38.931  23.108  26.077  1.00  0.00     0.016 A 
ATOM     35  C   UNL A   1      40.652  21.880  27.271  1.00  0.00     0.016 A 
ATOM     36  C   UNL A   1      39.424  24.313  26.582  1.00  0.00     0.010 A 
ATOM     37  C   UNL A   1      41.159  23.088  27.759  1.00  0.00     0.010 A 
ATOM     38  C   UNL A   1      40.577  24.312  27.378  1.00  0.00    -0.014 A 
BRANCH  38  39
ATOM     39  C   UNL A   1      41.321  25.576  27.596  1.00  0.00     0.031 A 
ATOM     40  C   UNL A   1      40.690  26.623  28.477  1.00  0.00     0.074 A 
ATOM     41  C   UNL A   1      42.531  25.798  27.049  1.00  0.00     0.049 A 
ATOM     42  N   UNL A   1      41.106  27.828  28.770  1.00  0.00    -0.248 NA
ATOM     43  C   UNL A   1      39.411  26.257  29.110  1.00  0.00     0.031 C 
ATOM     44  C   UNL A   1      43.279  24.852  26.226  1.00  0.00     0.029 A 
ATOM     45  N   UNL A   1      43.338  26.907  27.110  1.00  0.00    -0.354 N 
ATOM     46  C   UNL A   1      40.136  28.367  29.607  1.00  0.00     0.074 A 
ATOM     47  C   UNL A   1      39.096  27.372  29.749  1.00  0.00     0.031 C 
ATOM     48  C   UNL A   1      44.437  25.425  25.849  1.00  0.00     0.029 A 
ATOM     49  C   UNL A   1      44.493  26.788  26.376  1.00  0.00     0.049 A 
ATOM     50  H   UNL A   1      43.110  27.711  27.630  1.00  0.00     0.167 HD
ATOM     51  C   UNL A   1      40.112  29.576  30.213  1.00  0.00     0.031 A 
ATOM     52  C   UNL A   1      45.470  27.687  26.141  1.00  0.00     0.031 A 
ATOM     53  C   UNL A   1      41.137  30.573  30.066  1.00  0.00     0.049 A 
ATOM     54  C   UNL A   1      45.379  29.061  26.757  1.00  0.00     0.074 A 
ATOM     55  C   UNL A   1      41.206  31.831  30.640  1.00  0.00     0.029 A 
ATOM     56  N   UNL A   1      42.273  30.425  29.285  1.00  0.00    -0.354 N 
ATOM     57  N   UNL A   1      44.465  29.555  27.557  1.00  0.00    -0.248 NA
ATOM     58  C   UNL A   1      46.469  29.999  26.445  1.00  0.00     0.031 C 
ATOM     59  C   UNL A   1      42.355  32.466  30.160  1.00  0.00     0.029 A 
ATOM     60  C   UNL A   1      43.039  31.576  29.346  1.00  0.00     0.049 A 
ATOM     61  H   UNL A   1      42.500  29.621  28.765  1.00  0.00     0.167 HD
ATOM     62  C   UNL A   1      44.891  30.839  27.876  1.00  0.00     0.074 A 
ATOM     63  C   UNL A   1      46.149  31.046  27.192  1.00  0.00     0.031 C 
ATOM     64  C   UNL A   1      44.297  31.764  28.671  1.00  0.00     0.031 A 
BRANCH  51  65
ATOM     65  C   UNL A   1      38.915  29.899  31.064  1.00  0.00    -0.014 A 
ATOM     66  C   UNL A   1      38.937  29.719  32.456  1.00  0.00     0.009 A 
ATOM     67  C   UNL A   1      37.755  30.413  30.465  1.00  0.00     0.009 A 
ATOM     68  C   UNL A   1      37.810  30.013  33.226  1.00  0.00     0.001 A 
ATOM     69  C   UNL A   1      36.641  30.738  31.240  1.00  0.00     0.001 A 
ATOM     70  C   UNL A   1      36.665  30.528  32.618  1.00  0.00     0.000 A 
ENDBRANCH  51  65
BRANCH  52  71
ATOM     71  C   UNL A   1      46.623  27.334  25.269  1.00  0.00    -0.014 A 
ATOM     72  C   UNL A   1      47.632  26.472  25.728  1.00  0.00     0.009 A 
ATOM     73  C   UNL A   1      46.746  27.894  23.988  1.00  0.00     0.009 A 
ATOM     74  C   UNL A   1      48.755  26.208  24.938  1.00  0.00     0.001 A 
ATOM     75  C   UNL A   1      47.852  27.602  23.187  1.00  0.00     0.001 A 
ATOM     76  C   UNL A   1      48.861  26.770  23.667  1.00  0.00     0.000 A 
ENDBRANCH  52  71
BRANCH  64  77
ATOM     77  C   UNL A   1      45.030  33.058  28.903  1.00  0.00    -0.014 A 
ATOM     78  C   UNL A   1      44.903  34.148  28.028  1.00  0.00     0.009 A 
ATOM     79  C   UNL A   1      45.830  33.197  30.049  1.00  0.00     0.009 A 
ATOM     80  C   UNL A   1      45.596  35.335  28.276  1.00  0.00     0.001 A 
ATOM     81  C   UNL A   1      46.493  34.397  30.312  1.00  0.00     0.001 A 
ATOM     82  C   UNL A   1      46.385  35.461  29.419  1.00  0.00     0.000 A 
ENDBRANCH  64  77
ENDBRANCH  38  39
ENDBRANCH  31  33
ENDBRANCH  30  31
ENDBRANCH  29  30
ENDBRANCH  28  29
ENDBRANCH  27  28
ENDBRANCH  26  27
ENDBRANCH   1  26
TORSDOF 21
ENDMDL
MODEL 2
REMARK VINA RESULT:      -9.9      1.125      5.953
REMARK SMILES CCOc1cccc(-c2ccc([C@@H](C)C(=O)OCCOCCOCCOC(=O)c3ccc(-c4c5nc(c(-c6ccccc6)c6ccc([nH]6)c(-c6ccccc6)c6nc(c(-c7ccccc7)c7ccc4[nH]7)C=C6)C=C5)cc3)cc2F)c1
REMARK SMILES IDX 21 1 20 2 19 3 18 4 17 5 15 6 16 7 13 8 14 9 12 10 9 11
REMARK SMILES IDX 10 12 78 13 11 14 77 15 79 16 8 17 4 18 5 19 80 20 6 21 7 22
REMARK SMILES IDX 3 23 2 24 1 25 22 26 23 27 24 28 25 29 26 30 27 31 28 32
REMARK SMILES IDX 29 33 30 34 76 35 31 36 75 37 32 38 33 39 34 40 69 41 35 42
REMARK SMILES IDX 74 43 68 44 70 45 36 46 73 47 67 48 66 49 37 51 59 52 44 53
REMARK SMILES IDX 58 54 45 55 48 56 57 57 71 58 46 59 47 60 56 62 72 63 49 64
REMARK SMILES IDX 38 65 39 66 43 67 40 68 42 69 41 70 60 71 61 72 65 73 62 74
REMARK SMILES IDX 64 75 63 76 50 77 51 78 55 79 52 80 54 81 53 82
REMARK H PARENT 70 50 48 61
REMARK Flexibility Score: inf
ROOT
ATOM      1  C   UNL A   1      35.509  23.500  24.480  1.00  0.00     0.188 C 
ENDROOT
BRANCH   1   2
ATOM      2  O   UNL A   1      34.949  24.320  25.498  1.00  0.00    -0.376 OA
BRANCH   2   3
ATOM      3  C   UNL A   1      34.077  23.736  26.459  1.00  0.00     0.202 C 
BRANCH   3   4
ATOM      4  C   UNL A   1      32.565  23.754  26.182  1.00  0.00     0.261 C 
BRANCH   4   5
ATOM      5  O   UNL A   1      32.094  24.829  25.335  1.00  0.00    -0.463 OA
BRANCH   5   6
ATOM      6  C   UNL A   1      31.831  26.011  25.949  1.00  0.00     0.313 C 
ATOM      7  O   UNL A   1      31.310  26.089  27.061  1.00  0.00    -0.252 OA
BRANCH   6   8
ATOM      8  C   UNL A   1      32.247  27.279  25.199  1.00  0.00     0.126 C 
ATOM      9  C   UNL A   1      33.127  26.884  24.016  1.00  0.00     0.025 C 
BRANCH   8  10
ATOM     10  C   UNL A   1      32.851  28.482  25.921  1.00  0.00    -0.031 A 
ATOM     11  C   UNL A   1      34.086  30.655  27.346  1.00  0.00     0.018 A 
ATOM     12  C   UNL A   1      32.808  30.776  26.767  1.00  0.00     0.012 A 
ATOM     13  C   UNL A   1      34.726  29.419  27.190  1.00  0.00     0.131 A 
ATOM     14  C   UNL A   1      32.196  29.710  26.074  1.00  0.00     0.005 A 
ATOM     15  C   UNL A   1      34.127  28.355  26.506  1.00  0.00     0.044 A 
ATOM     16  F   UNL A   1      35.946  29.214  27.711  1.00  0.00    -0.206 F 
BRANCH  11  17
ATOM     17  C   UNL A   1      34.704  31.769  28.102  1.00  0.00    -0.012 A 
ATOM     18  C   UNL A   1      36.634  33.160  28.670  1.00  0.00     0.119 A 
ATOM     19  C   UNL A   1      35.884  33.852  29.616  1.00  0.00     0.046 A 
ATOM     20  C   UNL A   1      36.058  32.120  27.933  1.00  0.00     0.055 A 
ATOM     21  C   UNL A   1      34.546  33.520  29.806  1.00  0.00     0.004 A 
ATOM     22  C   UNL A   1      33.964  32.492  29.055  1.00  0.00     0.009 A 
BRANCH  18  23
ATOM     23  O   UNL A   1      37.975  33.425  28.606  1.00  0.00    -0.494 OA
BRANCH  23  24
ATOM     24  C   UNL A   1      38.452  34.228  29.691  1.00  0.00     0.226 C 
ATOM     25  C   UNL A   1      39.731  34.946  29.311  1.00  0.00     0.049 C 
ENDBRANCH  23  24
ENDBRANCH  18  23
ENDBRANCH  11  17
ENDBRANCH   8  10
ENDBRANCH   6   8
ENDBRANCH   5   6
ENDBRANCH   4   5
ENDBRANCH   3   4
ENDBRANCH   2   3
ENDBRANCH   1   2
BRANCH   1  26
ATOM     26  C   UNL A   1      35.508  21.972  24.650  1.00  0.00     0.188 C 
BRANCH  26  27
ATOM     27  O   UNL A   1      36.741  21.421  25.062  1.00  0.00    -0.376 OA
BRANCH  27  28
ATOM     28  C   UNL A   1      36.813  20.009  25.121  1.00  0.00     0.202 C 
BRANCH  28  29
ATOM     29  C   UNL A   1      38.227  19.441  25.304  1.00  0.00     0.261 C 
BRANCH  29  30
ATOM     30  O   UNL A   1      39.298  20.404  25.244  1.00  0.00    -0.460 OA
BRANCH  30  31
ATOM     31  C   UNL A   1      40.215  20.337  26.229  1.00  0.00     0.338 C 
ATOM     32  O   UNL A   1      40.925  19.375  26.496  1.00  0.00    -0.246 OA
BRANCH  31  33
ATOM     33  C   UNL A   1      40.395  21.677  26.823  1.00  0.00     0.060 A 
ATOM     34  C   UNL A   1      39.588  22.736  26.379  1.00  0.00     0.016 A 
ATOM     35  C   UNL A   1      41.383  21.895  27.783  1.00  0.00     0.016 A 
ATOM     36  C   UNL A   1      39.807  24.030  26.855  1.00  0.00     0.010 A 
ATOM     37  C   UNL A   1      41.616  23.195  28.242  1.00  0.00     0.010 A 
ATOM     38  C   UNL A   1      40.861  24.274  27.745  1.00  0.00    -0.014 A 
BRANCH  38  39
ATOM     39  C   UNL A   1      41.342  25.662  27.953  1.00  0.00     0.031 A 
ATOM     40  C   UNL A   1      42.628  26.069  27.283  1.00  0.00     0.074 A 
ATOM     41  C   UNL A   1      40.660  26.552  28.698  1.00  0.00     0.049 A 
ATOM     42  N   UNL A   1      43.288  27.196  27.359  1.00  0.00    -0.248 NA
ATOM     43  C   UNL A   1      43.256  25.062  26.410  1.00  0.00     0.031 C 
ATOM     44  C   UNL A   1      39.378  26.309  29.353  1.00  0.00     0.029 A 
ATOM     45  N   UNL A   1      40.968  27.849  29.026  1.00  0.00    -0.354 N 
ATOM     46  C   UNL A   1      44.411  27.028  26.558  1.00  0.00     0.074 A 
ATOM     47  C   UNL A   1      44.362  25.682  26.033  1.00  0.00     0.031 C 
ATOM     48  C   UNL A   1      39.011  27.421  30.015  1.00  0.00     0.029 A 
ATOM     49  C   UNL A   1      40.048  28.439  29.858  1.00  0.00     0.049 A 
ATOM     50  H   UNL A   1      41.772  28.312  28.696  1.00  0.00     0.167 HD
ATOM     51  C   UNL A   1      45.394  27.914  26.276  1.00  0.00     0.031 A 
ATOM     52  C   UNL A   1      40.058  29.655  30.440  1.00  0.00     0.031 A 
ATOM     53  C   UNL A   1      45.454  29.249  26.804  1.00  0.00     0.049 A 
ATOM     54  C   UNL A   1      41.209  30.595  30.179  1.00  0.00     0.074 A 
ATOM     55  C   UNL A   1      46.410  30.225  26.577  1.00  0.00     0.029 A 
ATOM     56  N   UNL A   1      44.521  29.795  27.671  1.00  0.00    -0.354 N 
ATOM     57  N   UNL A   1      42.258  30.431  29.411  1.00  0.00    -0.248 NA
ATOM     58  C   UNL A   1      41.165  31.898  30.861  1.00  0.00     0.031 C 
ATOM     59  C   UNL A   1      46.084  31.342  27.352  1.00  0.00     0.029 A 
ATOM     60  C   UNL A   1      44.887  31.087  28.004  1.00  0.00     0.049 A 
ATOM     61  H   UNL A   1      43.717  29.332  28.001  1.00  0.00     0.167 HD
ATOM     62  C   UNL A   1      42.973  31.621  29.483  1.00  0.00     0.074 A 
ATOM     63  C   UNL A   1      42.234  32.502  30.362  1.00  0.00     0.031 C 
ATOM     64  C   UNL A   1      44.135  31.958  28.870  1.00  0.00     0.031 A 
BRANCH  51  65
ATOM     65  C   UNL A   1      46.506  27.449  25.377  1.00  0.00    -0.014 A 
ATOM     66  C   UNL A   1      46.683  27.988  24.092  1.00  0.00     0.009 A 
ATOM     67  C   UNL A   1      47.404  26.471  25.832  1.00  0.00     0.009 A 
ATOM     68  C   UNL A   1      47.715  27.531  23.269  1.00  0.00     0.001 A 
ATOM     69  C   UNL A   1      48.455  26.040  25.020  1.00  0.00     0.001 A 
ATOM     70  C   UNL A   1      48.603  26.563  23.736  1.00  0.00     0.000 A 
ENDBRANCH  51  65
BRANCH  52  71
ATOM     71  C   UNL A   1      38.949  30.064  31.345  1.00  0.00    -0.014 A 
ATOM     72  C   UNL A   1      37.777  30.639  30.830  1.00  0.00     0.009 A 
ATOM     73  C   UNL A   1      39.077  29.924  32.737  1.00  0.00     0.009 A 
ATOM     74  C   UNL A   1      36.774  31.097  31.688  1.00  0.00     0.001 A 
ATOM     75  C   UNL A   1      38.059  30.353  33.590  1.00  0.00     0.001 A 
ATOM     76  C   UNL A   1      36.913  30.950  33.067  1.00  0.00     0.000 A 
ENDBRANCH  52  71
BRANCH  64  77
ATOM     77  C   UNL A   1      44.647  33.360  29.070  1.00  0.00    -0.014 A 
ATOM     78  C   UNL A   1      44.247  34.420  28.241  1.00  0.00     0.009 A 
ATOM     79  C   UNL A   1      45.515  33.627  30.141  1.00  0.00     0.009 A 
ATOM     80  C   UNL A   1      44.739  35.709  28.458  1.00  0.00     0.001 A 
ATOM     81  C   UNL A   1      45.978  34.922  30.377  1.00  0.00     0.001 A 
ATOM     82  C   UNL A   1      45.598  35.961  29.528  1.00  0.00     0.000 A 
ENDBRANCH  64  77
ENDBRANCH  38  39
ENDBRANCH  31  33
ENDBRANCH  30  31
ENDBRANCH  29  30
ENDBRANCH  28  29
ENDBRANCH  27  28
ENDBRANCH  26  27
ENDBRANCH   1  26
TORSDOF 21
ENDMDL
MODEL 3
REMARK VINA RESULT:      -9.6      5.378     10.913
REMARK SMILES CCOc1cccc(-c2ccc([C@@H](C)C(=O)OCCOCCOCCOC(=O)c3ccc(-c4c5nc(c(-c6ccccc6)c6ccc([nH]6)c(-c6ccccc6)c6nc(c(-c7ccccc7)c7ccc4[nH]7)C=C6)C=C5)cc3)cc2F)c1
REMARK SMILES IDX 21 1 20 2 19 3 18 4 17 5 15 6 16 7 13 8 14 9 12 10 9 11
REMARK SMILES IDX 10 12 78 13 11 14 77 15 79 16 8 17 4 18 5 19 80 20 6 21 7 22
REMARK SMILES IDX 3 23 2 24 1 25 22 26 23 27 24 28 25 29 26 30 27 31 28 32
REMARK SMILES IDX 29 33 30 34 76 35 31 36 75 37 32 38 33 39 34 40 69 41 35 42
REMARK SMILES IDX 74 43 68 44 70 45 36 46 73 47 67 48 66 49 37 51 59 52 44 53
REMARK SMILES IDX 58 54 45 55 48 56 57 57 71 58 46 59 47 60 56 62 72 63 49 64
REMARK SMILES IDX 38 65 39 66 43 67 40 68 42 69 41 70 60 71 61 72 65 73 62 74
REMARK SMILES IDX 64 75 63 76 50 77 51 78 55 79 52 80 54 81 53 82
REMARK H PARENT 70 50 48 61
REMARK Flexibility Score: inf
ROOT
ATOM      1  C   UNL A   1      46.166  23.541  25.730  1.00  0.00     0.188 C 
ENDROOT
BRANCH   1   2
ATOM      2  O   UNL A   1      46.417  22.316  25.053  1.00  0.00    -0.376 OA
BRANCH   2   3
ATOM      3  C   UNL A   1      45.749  21.136  25.484  1.00  0.00     0.202 C 
BRANCH   3   4
ATOM      4  C   UNL A   1      44.440  20.737  24.783  1.00  0.00     0.261 C 
BRANCH   4   5
ATOM      5  O   UNL A   1      43.221  21.149  25.447  1.00  0.00    -0.463 OA
BRANCH   5   6
ATOM      6  C   UNL A   1      42.597  20.208  26.200  1.00  0.00     0.313 C 
ATOM      7  O   UNL A   1      43.043  19.072  26.361  1.00  0.00    -0.252 OA
BRANCH   6   8
ATOM      8  C   UNL A   1      41.297  20.632  26.888  1.00  0.00     0.126 C 
ATOM      9  C   UNL A   1      40.131  19.895  26.232  1.00  0.00     0.025 C 
BRANCH   8  10
ATOM     10  C   UNL A   1      40.935  22.102  27.094  1.00  0.00    -0.031 A 
ATOM     11  C   UNL A   1      40.352  24.875  27.592  1.00  0.00     0.018 A 
ATOM     12  C   UNL A   1      39.483  24.055  26.849  1.00  0.00     0.012 A 
ATOM     13  C   UNL A   1      41.518  24.269  28.077  1.00  0.00     0.131 A 
ATOM     14  C   UNL A   1      39.762  22.692  26.608  1.00  0.00     0.005 A 
ATOM     15  C   UNL A   1      41.803  22.919  27.846  1.00  0.00     0.044 A 
ATOM     16  F   UNL A   1      42.402  24.976  28.798  1.00  0.00    -0.206 F 
BRANCH  11  17
ATOM     17  C   UNL A   1      40.032  26.294  27.869  1.00  0.00    -0.012 A 
ATOM     18  C   UNL A   1      39.006  28.028  29.257  1.00  0.00     0.119 A 
ATOM     19  C   UNL A   1      39.366  29.008  28.338  1.00  0.00     0.046 A 
ATOM     20  C   UNL A   1      39.320  26.685  29.019  1.00  0.00     0.055 A 
ATOM     21  C   UNL A   1      40.065  28.647  27.189  1.00  0.00     0.004 A 
ATOM     22  C   UNL A   1      40.396  27.306  26.961  1.00  0.00     0.009 A 
BRANCH  18  23
ATOM     23  O   UNL A   1      38.208  28.402  30.304  1.00  0.00    -0.494 OA
BRANCH  23  24
ATOM     24  C   UNL A   1      38.818  28.214  31.585  1.00  0.00     0.226 C 
ATOM     25  C   UNL A   1      37.893  28.664  32.697  1.00  0.00     0.049 C 
ENDBRANCH  23  24
ENDBRANCH  18  23
ENDBRANCH  11  17
ENDBRANCH   8  10
ENDBRANCH   6   8
ENDBRANCH   5   6
ENDBRANCH   4   5
ENDBRANCH   3   4
ENDBRANCH   2   3
ENDBRANCH   1   2
BRANCH   1  26
ATOM     26  C   UNL A   1      45.310  24.623  25.051  1.00  0.00     0.188 C 
BRANCH  26  27
ATOM     27  O   UNL A   1      46.012  25.791  24.684  1.00  0.00    -0.376 OA
BRANCH  27  28
ATOM     28  C   UNL A   1      45.510  27.014  25.189  1.00  0.00     0.202 C 
BRANCH  28  29
ATOM     29  C   UNL A   1      44.121  26.924  25.837  1.00  0.00     0.261 C 
BRANCH  29  30
ATOM     30  O   UNL A   1      43.996  27.550  27.129  1.00  0.00    -0.460 OA
BRANCH  30  31
ATOM     31  C   UNL A   1      43.667  28.857  27.129  1.00  0.00     0.338 C 
ATOM     32  O   UNL A   1      43.396  29.537  26.147  1.00  0.00    -0.246 OA
BRANCH  31  33
ATOM     33  C   UNL A   1      43.477  29.315  28.519  1.00  0.00     0.060 A 
ATOM     34  C   UNL A   1      42.908  28.439  29.457  1.00  0.00     0.016 A 
ATOM     35  C   UNL A   1      43.821  30.616  28.886  1.00  0.00     0.016 A 
ATOM     36  C   UNL A   1      42.629  28.883  30.751  1.00  0.00     0.010 A 
ATOM     37  C   UNL A   1      43.521  31.066  30.175  1.00  0.00     0.010 A 
ATOM     38  C   UNL A   1      42.882  30.217  31.097  1.00  0.00    -0.014 A 
BRANCH  38  39
ATOM     39  C   UNL A   1      42.250  30.794  32.309  1.00  0.00     0.031 A 
ATOM     40  C   UNL A   1      43.037  30.770  33.593  1.00  0.00     0.074 A 
ATOM     41  C   UNL A   1      41.022  31.343  32.283  1.00  0.00     0.049 A 
ATOM     42  N   UNL A   1      42.685  31.151  34.795  1.00  0.00    -0.248 NA
ATOM     43  C   UNL A   1      44.408  30.238  33.508  1.00  0.00     0.031 C 
ATOM     44  C   UNL A   1      40.177  31.484  31.100  1.00  0.00     0.029 A 
ATOM     45  N   UNL A   1      40.274  31.884  33.300  1.00  0.00    -0.354 N 
ATOM     46  C   UNL A   1      43.784  30.892  35.606  1.00  0.00     0.074 A 
ATOM     47  C   UNL A   1      44.799  30.291  34.770  1.00  0.00     0.031 C 
ATOM     48  C   UNL A   1      39.018  32.066  31.461  1.00  0.00     0.029 A 
ATOM     49  C   UNL A   1      39.029  32.307  32.903  1.00  0.00     0.049 A 
ATOM     50  H   UNL A   1      40.600  31.961  34.226  1.00  0.00     0.167 HD
ATOM     51  C   UNL A   1      43.941  31.138  36.928  1.00  0.00     0.031 A 
ATOM     52  C   UNL A   1      38.010  32.809  33.628  1.00  0.00     0.031 A 
ATOM     53  C   UNL A   1      42.930  31.723  37.765  1.00  0.00     0.049 A 
ATOM     54  C   UNL A   1      38.177  32.993  35.116  1.00  0.00     0.074 A 
ATOM     55  C   UNL A   1      42.993  32.014  39.118  1.00  0.00     0.029 A 
ATOM     56  N   UNL A   1      41.671  32.104  37.330  1.00  0.00    -0.354 N 
ATOM     57  N   UNL A   1      39.222  32.757  35.871  1.00  0.00    -0.248 NA
ATOM     58  C   UNL A   1      37.018  33.529  35.850  1.00  0.00     0.031 C 
ATOM     59  C   UNL A   1      41.750  32.518  39.512  1.00  0.00     0.029 A 
ATOM     60  C   UNL A   1      40.939  32.609  38.392  1.00  0.00     0.049 A 
ATOM     61  H   UNL A   1      41.345  32.027  36.405  1.00  0.00     0.167 HD
ATOM     62  C   UNL A   1      38.865  33.155  37.154  1.00  0.00     0.074 A 
ATOM     63  C   UNL A   1      37.508  33.655  37.075  1.00  0.00     0.031 C 
ATOM     64  C   UNL A   1      39.595  33.117  38.296  1.00  0.00     0.031 A 
BRANCH  51  65
ATOM     65  C   UNL A   1      45.247  30.737  37.554  1.00  0.00    -0.014 A 
ATOM     66  C   UNL A   1      46.331  31.628  37.621  1.00  0.00     0.009 A 
ATOM     67  C   UNL A   1      45.389  29.454  38.105  1.00  0.00     0.009 A 
ATOM     68  C   UNL A   1      47.539  31.230  38.196  1.00  0.00     0.001 A 
ATOM     69  C   UNL A   1      46.587  29.070  38.709  1.00  0.00     0.001 A 
ATOM     70  C   UNL A   1      47.664  29.955  38.745  1.00  0.00     0.000 A 
ENDBRANCH  51  65
BRANCH  52  71
ATOM     71  C   UNL A   1      36.723  33.166  32.971  1.00  0.00    -0.014 A 
ATOM     72  C   UNL A   1      35.845  32.167  32.521  1.00  0.00     0.009 A 
ATOM     73  C   UNL A   1      36.387  34.511  32.747  1.00  0.00     0.009 A 
ATOM     74  C   UNL A   1      34.678  32.506  31.831  1.00  0.00     0.001 A 
ATOM     75  C   UNL A   1      35.203  34.847  32.087  1.00  0.00     0.001 A 
ATOM     76  C   UNL A   1      34.356  33.845  31.619  1.00  0.00     0.000 A 
ENDBRANCH  52  71
BRANCH  64  77
ATOM     77  C   UNL A   1      38.974  33.692  39.541  1.00  0.00    -0.014 A 
ATOM     78  C   UNL A   1      39.116  35.046  39.882  1.00  0.00     0.009 A 
ATOM     79  C   UNL A   1      38.192  32.864  40.363  1.00  0.00     0.009 A 
ATOM     80  C   UNL A   1      38.522  35.547  41.043  1.00  0.00     0.001 A 
ATOM     81  C   UNL A   1      37.571  33.375  41.504  1.00  0.00     0.001 A 
ATOM     82  C   UNL A   1      37.746  34.714  41.849  1.00  0.00     0.000 A 
ENDBRANCH  64  77
ENDBRANCH  38  39
ENDBRANCH  31  33
ENDBRANCH  30  31
ENDBRANCH  29  30
ENDBRANCH  28  29
ENDBRANCH  27  28
ENDBRANCH  26  27
ENDBRANCH   1  26
TORSDOF 21
ENDMDL
