MODEL 1
REMARK VINA RESULT:      -9.3      0.000      0.000
REMARK SMILES C=C(C)C[N@H+]1CC[C@H](C(=O)OCCOCCOCCOC(=O)c2ccc(-c3c4nc(c(-c5ccccc5)c5ccc([nH]5)c(-c5ccccc5)c5nc(c(-c6ccccc6)c6ccc3[nH]6)C=C5)C=C4)cc2)[C@H]1C
REMARK SMILES IDX 15 1 14 2 13 3 12 4 11 5 9 6 10 7 8 8 5 9 6 10 71 11 7 13
REMARK SMILES IDX 72 14 4 15 2 16 1 17 3 18 16 19 17 20 18 21 19 22 20 23
REMARK SMILES IDX 21 24 22 25 23 26 24 27 70 28 25 29 69 30 26 31 27 32 28 33
REMARK SMILES IDX 63 34 29 35 68 36 62 37 64 38 30 39 67 40 61 41 60 42 31 44
REMARK SMILES IDX 53 45 38 46 52 47 39 48 42 49 51 50 65 51 40 52 41 53 50 55
REMARK SMILES IDX 66 56 43 57 32 58 33 59 37 60 34 61 36 62 35 63 54 64 55 65
REMARK SMILES IDX 59 66 56 67 58 68 57 69 44 70 45 71 49 72 46 73 48 74 47 75
REMARK H PARENT 5 12 64 43 42 54
REMARK Flexibility Score: inf
ROOT
ATOM      1  C   UNL A   1      41.770  20.602  27.075  1.00  0.00     0.188 C 
ENDROOT
BRANCH   1   2
ATOM      2  O   UNL A   1      40.408  20.942  27.291  1.00  0.00    -0.376 OA
BRANCH   2   3
ATOM      3  C   UNL A   1      39.914  22.050  26.543  1.00  0.00     0.202 C 
BRANCH   3   4
ATOM      4  C   UNL A   1      38.563  21.881  25.818  1.00  0.00     0.261 C 
BRANCH   4   5
ATOM      5  O   UNL A   1      37.733  23.069  25.681  1.00  0.00    -0.463 OA
BRANCH   5   6
ATOM      6  C   UNL A   1      36.390  22.838  25.719  1.00  0.00     0.315 C 
ATOM      7  O   UNL A   1      35.902  21.793  26.145  1.00  0.00    -0.252 OA
BRANCH   6   8
ATOM      8  C   UNL A   1      35.511  23.939  25.113  1.00  0.00     0.162 C 
ATOM      9  N   UNL A   1      33.067  23.563  25.158  1.00  0.00    -0.329 N 
ATOM     10  C   UNL A   1      33.696  22.792  24.078  1.00  0.00     0.263 C 
ATOM     11  C   UNL A   1      34.183  24.374  25.780  1.00  0.00     0.195 C 
ATOM     12  H   UNL A   1      32.654  22.951  25.861  1.00  0.00     0.348 HD
ATOM     13  C   UNL A   1      35.006  23.478  23.752  1.00  0.00     0.083 C 
ATOM     14  C   UNL A   1      34.038  25.904  25.605  1.00  0.00     0.076 C 
BRANCH   9  15
ATOM     15  C   UNL A   1      31.867  24.328  24.740  1.00  0.00     0.293 C 
BRANCH  15  16
ATOM     16  C   UNL A   1      30.696  24.506  25.715  1.00  0.00    -0.026 C 
ATOM     17  C   UNL A   1      29.987  25.636  25.894  1.00  0.00     0.013 C 
ATOM     18  C   UNL A   1      30.427  23.360  26.668  1.00  0.00     0.045 C 
ENDBRANCH  15  16
ENDBRANCH   9  15
ENDBRANCH   6   8
ENDBRANCH   5   6
ENDBRANCH   4   5
ENDBRANCH   3   4
ENDBRANCH   2   3
ENDBRANCH   1   2
BRANCH   1  19
ATOM     19  C   UNL A   1      42.545  21.482  26.094  1.00  0.00     0.188 C 
BRANCH  19  20
ATOM     20  O   UNL A   1      43.358  20.820  25.148  1.00  0.00    -0.376 OA
BRANCH  20  21
ATOM     21  C   UNL A   1      44.685  21.306  24.969  1.00  0.00     0.202 C 
BRANCH  21  22
ATOM     22  C   UNL A   1      44.951  22.594  24.143  1.00  0.00     0.261 C 
BRANCH  22  23
ATOM     23  O   UNL A   1      44.231  23.804  24.475  1.00  0.00    -0.460 OA
BRANCH  23  24
ATOM     24  C   UNL A   1      44.917  24.820  25.043  1.00  0.00     0.338 C 
ATOM     25  O   UNL A   1      45.975  25.288  24.638  1.00  0.00    -0.246 OA
BRANCH  24  26
ATOM     26  C   UNL A   1      44.053  25.484  26.061  1.00  0.00     0.060 A 
ATOM     27  C   UNL A   1      44.360  26.804  26.398  1.00  0.00     0.016 A 
ATOM     28  C   UNL A   1      42.953  24.875  26.668  1.00  0.00     0.016 A 
ATOM     29  C   UNL A   1      43.587  27.509  27.322  1.00  0.00     0.010 A 
ATOM     30  C   UNL A   1      42.233  25.564  27.673  1.00  0.00     0.010 A 
ATOM     31  C   UNL A   1      42.575  26.879  28.041  1.00  0.00    -0.014 A 
BRANCH  31  32
ATOM     32  C   UNL A   1      42.088  27.526  29.303  1.00  0.00     0.031 A 
ATOM     33  C   UNL A   1      40.762  28.251  29.277  1.00  0.00     0.074 A 
ATOM     34  C   UNL A   1      42.692  27.363  30.499  1.00  0.00     0.049 A 
ATOM     35  N   UNL A   1      40.194  28.994  30.195  1.00  0.00    -0.248 NA
ATOM     36  C   UNL A   1      39.960  28.100  28.052  1.00  0.00     0.031 C 
ATOM     37  C   UNL A   1      43.873  26.543  30.758  1.00  0.00     0.029 A 
ATOM     38  N   UNL A   1      42.371  27.880  31.737  1.00  0.00    -0.354 N 
ATOM     39  C   UNL A   1      39.005  29.447  29.634  1.00  0.00     0.074 A 
ATOM     40  C   UNL A   1      38.926  28.888  28.303  1.00  0.00     0.031 C 
ATOM     41  C   UNL A   1      44.179  26.615  32.065  1.00  0.00     0.029 A 
ATOM     42  C   UNL A   1      43.266  27.545  32.726  1.00  0.00     0.049 A 
ATOM     43  H   UNL A   1      41.574  28.437  31.897  1.00  0.00     0.167 HD
ATOM     44  C   UNL A   1      38.065  30.264  30.170  1.00  0.00     0.031 A 
ATOM     45  C   UNL A   1      43.377  27.978  34.000  1.00  0.00     0.031 A 
ATOM     46  C   UNL A   1      38.110  30.797  31.506  1.00  0.00     0.049 A 
ATOM     47  C   UNL A   1      42.399  28.994  34.537  1.00  0.00     0.074 A 
ATOM     48  C   UNL A   1      37.211  31.653  32.123  1.00  0.00     0.029 A 
ATOM     49  N   UNL A   1      39.098  30.521  32.436  1.00  0.00    -0.354 N 
ATOM     50  N   UNL A   1      41.332  29.499  33.968  1.00  0.00    -0.248 NA
ATOM     51  C   UNL A   1      42.654  29.510  35.892  1.00  0.00     0.031 C 
ATOM     52  C   UNL A   1      37.692  31.946  33.403  1.00  0.00     0.029 A 
ATOM     53  C   UNL A   1      38.849  31.213  33.609  1.00  0.00     0.049 A 
ATOM     54  H   UNL A   1      39.864  29.921  32.285  1.00  0.00     0.167 HD
ATOM     55  C   UNL A   1      40.779  30.371  34.901  1.00  0.00     0.074 A 
ATOM     56  C   UNL A   1      41.613  30.310  36.081  1.00  0.00     0.031 C 
ATOM     57  C   UNL A   1      39.677  31.153  34.785  1.00  0.00     0.031 A 
BRANCH  44  58
ATOM     58  C   UNL A   1      36.937  30.705  29.277  1.00  0.00    -0.014 A 
ATOM     59  C   UNL A   1      36.854  32.007  28.765  1.00  0.00     0.009 A 
ATOM     60  C   UNL A   1      35.955  29.769  28.914  1.00  0.00     0.009 A 
ATOM     61  C   UNL A   1      35.791  32.371  27.933  1.00  0.00     0.001 A 
ATOM     62  C   UNL A   1      34.914  30.124  28.057  1.00  0.00     0.001 A 
ATOM     63  C   UNL A   1      34.826  31.428  27.575  1.00  0.00     0.000 A 
ENDBRANCH  44  58
BRANCH  45  64
ATOM     64  C   UNL A   1      44.521  27.531  34.846  1.00  0.00    -0.014 A 
ATOM     65  C   UNL A   1      45.778  28.152  34.758  1.00  0.00     0.009 A 
ATOM     66  C   UNL A   1      44.372  26.436  35.713  1.00  0.00     0.009 A 
ATOM     67  C   UNL A   1      46.859  27.671  35.501  1.00  0.00     0.001 A 
ATOM     68  C   UNL A   1      45.444  25.981  36.481  1.00  0.00     0.001 A 
ATOM     69  C   UNL A   1      46.690  26.591  36.367  1.00  0.00     0.000 A 
ENDBRANCH  45  64
BRANCH  57  70
ATOM     70  C   UNL A   1      39.275  31.978  35.979  1.00  0.00    -0.014 A 
ATOM     71  C   UNL A   1      40.011  33.106  36.375  1.00  0.00     0.009 A 
ATOM     72  C   UNL A   1      38.113  31.644  36.694  1.00  0.00     0.009 A 
ATOM     73  C   UNL A   1      39.612  33.859  37.483  1.00  0.00     0.001 A 
ATOM     74  C   UNL A   1      37.698  32.417  37.779  1.00  0.00     0.001 A 
ATOM     75  C   UNL A   1      38.453  33.517  38.181  1.00  0.00     0.000 A 
ENDBRANCH  57  70
ENDBRANCH  31  32
ENDBRANCH  24  26
ENDBRANCH  23  24
ENDBRANCH  22  23
ENDBRANCH  21  22
ENDBRANCH  20  21
ENDBRANCH  19  20
ENDBRANCH   1  19
TORSDOF 19
ENDMDL
MODEL 2
REMARK VINA RESULT:      -9.0      1.273      6.294
REMARK SMILES C=C(C)C[N@H+]1CC[C@H](C(=O)OCCOCCOCCOC(=O)c2ccc(-c3c4nc(c(-c5ccccc5)c5ccc([nH]5)c(-c5ccccc5)c5nc(c(-c6ccccc6)c6ccc3[nH]6)C=C5)C=C4)cc2)[C@H]1C
REMARK SMILES IDX 15 1 14 2 13 3 12 4 11 5 9 6 10 7 8 8 5 9 6 10 71 11 7 13
REMARK SMILES IDX 72 14 4 15 2 16 1 17 3 18 16 19 17 20 18 21 19 22 20 23
REMARK SMILES IDX 21 24 22 25 23 26 24 27 70 28 25 29 69 30 26 31 27 32 28 33
REMARK SMILES IDX 63 34 29 35 68 36 62 37 64 38 30 39 67 40 61 41 60 42 31 44
REMARK SMILES IDX 53 45 38 46 52 47 39 48 42 49 51 50 65 51 40 52 41 53 50 55
REMARK SMILES IDX 66 56 43 57 32 58 33 59 37 60 34 61 36 62 35 63 54 64 55 65
REMARK SMILES IDX 59 66 56 67 58 68 57 69 44 70 45 71 49 72 46 73 48 74 47 75
REMARK H PARENT 5 12 64 43 42 54
REMARK Flexibility Score: inf
ROOT
ATOM      1  C   UNL A   1      38.208  21.536  25.930  1.00  0.00     0.188 C 
ENDROOT
BRANCH   1   2
ATOM      2  O   UNL A   1      38.081  22.924  26.202  1.00  0.00    -0.376 OA
BRANCH   2   3
ATOM      3  C   UNL A   1      37.249  23.662  25.310  1.00  0.00     0.202 C 
BRANCH   3   4
ATOM      4  C   UNL A   1      35.788  23.915  25.735  1.00  0.00     0.261 C 
BRANCH   4   5
ATOM      5  O   UNL A   1      34.866  22.793  25.632  1.00  0.00    -0.463 OA
BRANCH   5   6
ATOM      6  C   UNL A   1      33.794  22.853  26.473  1.00  0.00     0.315 C 
ATOM      7  O   UNL A   1      33.894  22.749  27.694  1.00  0.00    -0.252 OA
BRANCH   6   8
ATOM      8  C   UNL A   1      32.424  22.974  25.793  1.00  0.00     0.162 C 
ATOM      9  N   UNL A   1      31.824  25.196  24.890  1.00  0.00    -0.329 N 
ATOM     10  C   UNL A   1      31.642  25.156  26.346  1.00  0.00     0.263 C 
ATOM     11  C   UNL A   1      32.236  23.795  24.494  1.00  0.00     0.195 C 
ATOM     12  H   UNL A   1      32.553  25.857  24.623  1.00  0.00     0.348 HD
ATOM     13  C   UNL A   1      31.469  23.701  26.729  1.00  0.00     0.083 C 
ATOM     14  C   UNL A   1      31.212  23.053  23.603  1.00  0.00     0.076 C 
BRANCH   9  15
ATOM     15  C   UNL A   1      30.672  25.766  24.149  1.00  0.00     0.293 C 
BRANCH  15  16
ATOM     16  C   UNL A   1      30.910  26.807  23.048  1.00  0.00    -0.026 C 
ATOM     17  C   UNL A   1      30.375  28.041  23.004  1.00  0.00     0.013 C 
ATOM     18  C   UNL A   1      31.682  26.343  21.831  1.00  0.00     0.045 C 
ENDBRANCH  15  16
ENDBRANCH   9  15
ENDBRANCH   6   8
ENDBRANCH   5   6
ENDBRANCH   4   5
ENDBRANCH   3   4
ENDBRANCH   2   3
ENDBRANCH   1   2
BRANCH   1  19
ATOM     19  C   UNL A   1      39.630  21.004  25.752  1.00  0.00     0.188 C 
BRANCH  19  20
ATOM     20  O   UNL A   1      40.563  21.324  26.762  1.00  0.00    -0.376 OA
BRANCH  20  21
ATOM     21  C   UNL A   1      41.861  20.745  26.664  1.00  0.00     0.202 C 
BRANCH  21  22
ATOM     22  C   UNL A   1      42.956  21.403  25.780  1.00  0.00     0.261 C 
BRANCH  22  23
ATOM     23  O   UNL A   1      42.623  22.580  25.007  1.00  0.00    -0.460 OA
BRANCH  23  24
ATOM     24  C   UNL A   1      43.394  23.679  25.156  1.00  0.00     0.338 C 
ATOM     25  O   UNL A   1      44.401  23.945  24.510  1.00  0.00    -0.246 OA
BRANCH  24  26
ATOM     26  C   UNL A   1      42.677  24.666  26.013  1.00  0.00     0.060 A 
ATOM     27  C   UNL A   1      43.252  25.931  26.153  1.00  0.00     0.016 A 
ATOM     28  C   UNL A   1      41.463  24.407  26.654  1.00  0.00     0.016 A 
ATOM     29  C   UNL A   1      42.634  26.922  26.916  1.00  0.00     0.010 A 
ATOM     30  C   UNL A   1      40.892  25.385  27.502  1.00  0.00     0.010 A 
ATOM     31  C   UNL A   1      41.501  26.643  27.675  1.00  0.00    -0.014 A 
BRANCH  31  32
ATOM     32  C   UNL A   1      41.145  27.574  28.795  1.00  0.00     0.031 A 
ATOM     33  C   UNL A   1      42.009  27.575  30.035  1.00  0.00     0.074 A 
ATOM     34  C   UNL A   1      40.191  28.524  28.694  1.00  0.00     0.049 A 
ATOM     35  N   UNL A   1      41.833  28.188  31.180  1.00  0.00    -0.248 NA
ATOM     36  C   UNL A   1      43.252  26.788  29.965  1.00  0.00     0.031 C 
ATOM     37  C   UNL A   1      39.383  28.803  27.509  1.00  0.00     0.029 A 
ATOM     38  N   UNL A   1      39.753  29.449  29.618  1.00  0.00    -0.354 N 
ATOM     39  C   UNL A   1      42.905  27.811  31.981  1.00  0.00     0.074 A 
ATOM     40  C   UNL A   1      43.731  26.925  31.191  1.00  0.00     0.031 C 
ATOM     41  C   UNL A   1      38.548  29.821  27.777  1.00  0.00     0.029 A 
ATOM     42  C   UNL A   1      38.703  30.220  29.176  1.00  0.00     0.049 A 
ATOM     43  H   UNL A   1      40.155  29.548  30.512  1.00  0.00     0.167 HD
ATOM     44  C   UNL A   1      43.176  28.157  33.263  1.00  0.00     0.031 A 
ATOM     45  C   UNL A   1      37.919  31.103  29.829  1.00  0.00     0.031 A 
ATOM     46  C   UNL A   1      42.385  29.067  34.050  1.00  0.00     0.049 A 
ATOM     47  C   UNL A   1      38.151  31.373  31.295  1.00  0.00     0.074 A 
ATOM     48  C   UNL A   1      42.573  29.456  35.366  1.00  0.00     0.029 A 
ATOM     49  N   UNL A   1      41.263  29.737  33.594  1.00  0.00    -0.354 N 
ATOM     50  N   UNL A   1      39.106  30.935  32.078  1.00  0.00    -0.248 NA
ATOM     51  C   UNL A   1      37.182  32.253  31.970  1.00  0.00     0.031 C 
ATOM     52  C   UNL A   1      41.527  30.311  35.726  1.00  0.00     0.029 A 
ATOM     53  C   UNL A   1      40.730  30.512  34.611  1.00  0.00     0.049 A 
ATOM     54  H   UNL A   1      40.897  29.673  32.682  1.00  0.00     0.167 HD
ATOM     55  C   UNL A   1      38.866  31.501  33.326  1.00  0.00     0.074 A 
ATOM     56  C   UNL A   1      37.691  32.333  33.192  1.00  0.00     0.031 C 
ATOM     57  C   UNL A   1      39.561  31.342  34.480  1.00  0.00     0.031 A 
BRANCH  44  58
ATOM     58  C   UNL A   1      44.341  27.482  33.934  1.00  0.00    -0.014 A 
ATOM     59  C   UNL A   1      45.634  28.023  33.910  1.00  0.00     0.009 A 
ATOM     60  C   UNL A   1      44.118  26.289  34.642  1.00  0.00     0.009 A 
ATOM     61  C   UNL A   1      46.686  27.364  34.553  1.00  0.00     0.001 A 
ATOM     62  C   UNL A   1      45.162  25.651  35.311  1.00  0.00     0.001 A 
ATOM     63  C   UNL A   1      46.448  26.184  35.258  1.00  0.00     0.000 A 
ENDBRANCH  44  58
BRANCH  45  64
ATOM     64  C   UNL A   1      36.761  31.736  29.133  1.00  0.00    -0.014 A 
ATOM     65  C   UNL A   1      36.839  33.045  28.633  1.00  0.00     0.009 A 
ATOM     66  C   UNL A   1      35.545  31.043  29.016  1.00  0.00     0.009 A 
ATOM     67  C   UNL A   1      35.720  33.650  28.053  1.00  0.00     0.001 A 
ATOM     68  C   UNL A   1      34.440  31.636  28.404  1.00  0.00     0.001 A 
ATOM     69  C   UNL A   1      34.524  32.943  27.933  1.00  0.00     0.000 A 
ENDBRANCH  45  64
BRANCH  57  70
ATOM     70  C   UNL A   1      39.101  32.116  35.687  1.00  0.00    -0.014 A 
ATOM     71  C   UNL A   1      39.517  33.436  35.916  1.00  0.00     0.009 A 
ATOM     72  C   UNL A   1      38.199  31.525  36.588  1.00  0.00     0.009 A 
ATOM     73  C   UNL A   1      39.068  34.135  37.041  1.00  0.00     0.001 A 
ATOM     74  C   UNL A   1      37.727  32.236  37.692  1.00  0.00     0.001 A 
ATOM     75  C   UNL A   1      38.170  33.536  37.925  1.00  0.00     0.000 A 
ENDBRANCH  57  70
ENDBRANCH  31  32
ENDBRANCH  24  26
ENDBRANCH  23  24
ENDBRANCH  22  23
ENDBRANCH  21  22
ENDBRANCH  20  21
ENDBRANCH  19  20
ENDBRANCH   1  19
TORSDOF 19
ENDMDL
MODEL 3
REMARK VINA RESULT:      -9.0      3.858      8.173
REMARK SMILES C=C(C)C[N@H+]1CC[C@H](C(=O)OCCOCCOCCOC(=O)c2ccc(-c3c4nc(c(-c5ccccc5)c5ccc([nH]5)c(-c5ccccc5)c5nc(c(-c6ccccc6)c6ccc3[nH]6)C=C5)C=C4)cc2)[C@H]1C
REMARK SMILES IDX 15 1 14 2 13 3 12 4 11 5 9 6 10 7 8 8 5 9 6 10 71 11 7 13
REMARK SMILES IDX 72 14 4 15 2 16 1 17 3 18 16 19 17 20 18 21 19 22 20 23
REMARK SMILES IDX 21 24 22 25 23 26 24 27 70 28 25 29 69 30 26 31 27 32 28 33
REMARK SMILES IDX 63 34 29 35 68 36 62 37 64 38 30 39 67 40 61 41 60 42 31 44
REMARK SMILES IDX 53 45 38 46 52 47 39 48 42 49 51 50 65 51 40 52 41 53 50 55
REMARK SMILES IDX 66 56 43 57 32 58 33 59 37 60 34 61 36 62 35 63 54 64 55 65
REMARK SMILES IDX 59 66 56 67 58 68 57 69 44 70 45 71 49 72 46 73 48 74 47 75
REMARK H PARENT 5 12 64 43 42 54
REMARK Flexibility Score: inf
ROOT
ATOM      1  C   UNL A   1      33.174  22.562  25.779  1.00  0.00     0.188 C 
ENDROOT
BRANCH   1   2
ATOM      2  O   UNL A   1      33.577  23.900  25.527  1.00  0.00    -0.376 OA
BRANCH   2   3
ATOM      3  C   UNL A   1      33.587  24.304  24.160  1.00  0.00     0.202 C 
BRANCH   3   4
ATOM      4  C   UNL A   1      33.267  25.779  23.845  1.00  0.00     0.261 C 
BRANCH   4   5
ATOM      5  O   UNL A   1      32.344  26.461  24.740  1.00  0.00    -0.463 OA
BRANCH   5   6
ATOM      6  C   UNL A   1      32.126  27.775  24.448  1.00  0.00     0.315 C 
ATOM      7  O   UNL A   1      32.150  28.218  23.301  1.00  0.00    -0.252 OA
BRANCH   6   8
ATOM      8  C   UNL A   1      31.930  28.699  25.656  1.00  0.00     0.162 C 
ATOM      9  N   UNL A   1      33.927  29.911  26.465  1.00  0.00    -0.329 N 
ATOM     10  C   UNL A   1      33.944  28.515  26.918  1.00  0.00     0.263 C 
ATOM     11  C   UNL A   1      32.614  30.086  25.734  1.00  0.00     0.195 C 
ATOM     12  H   UNL A   1      34.702  30.106  25.831  1.00  0.00     0.348 HD
ATOM     13  C   UNL A   1      32.510  28.027  26.894  1.00  0.00     0.083 C 
ATOM     14  C   UNL A   1      31.629  31.068  26.410  1.00  0.00     0.076 C 
BRANCH   9  15
ATOM     15  C   UNL A   1      34.209  30.900  27.534  1.00  0.00     0.293 C 
BRANCH  15  16
ATOM     16  C   UNL A   1      35.649  31.369  27.782  1.00  0.00    -0.026 C 
ATOM     17  C   UNL A   1      36.711  30.569  27.993  1.00  0.00     0.013 C 
ATOM     18  C   UNL A   1      35.855  32.858  27.966  1.00  0.00     0.045 C 
ENDBRANCH  15  16
ENDBRANCH   9  15
ENDBRANCH   6   8
ENDBRANCH   5   6
ENDBRANCH   4   5
ENDBRANCH   3   4
ENDBRANCH   2   3
ENDBRANCH   1   2
BRANCH   1  19
ATOM     19  C   UNL A   1      34.293  21.537  25.967  1.00  0.00     0.188 C 
BRANCH  19  20
ATOM     20  O   UNL A   1      35.404  21.641  25.103  1.00  0.00    -0.376 OA
BRANCH  20  21
ATOM     21  C   UNL A   1      36.216  20.482  24.936  1.00  0.00     0.202 C 
BRANCH  21  22
ATOM     22  C   UNL A   1      37.762  20.573  25.070  1.00  0.00     0.261 C 
BRANCH  22  23
ATOM     23  O   UNL A   1      38.338  21.645  25.853  1.00  0.00    -0.460 OA
BRANCH  23  24
ATOM     24  C   UNL A   1      39.581  21.471  26.354  1.00  0.00     0.338 C 
ATOM     25  O   UNL A   1      40.308  20.505  26.155  1.00  0.00    -0.246 OA
BRANCH  24  26
ATOM     26  C   UNL A   1      40.054  22.757  26.942  1.00  0.00     0.060 A 
ATOM     27  C   UNL A   1      39.393  23.923  26.549  1.00  0.00     0.016 A 
ATOM     28  C   UNL A   1      41.091  22.855  27.872  1.00  0.00     0.016 A 
ATOM     29  C   UNL A   1      39.754  25.165  27.070  1.00  0.00     0.010 A 
ATOM     30  C   UNL A   1      41.513  24.128  28.323  1.00  0.00     0.010 A 
ATOM     31  C   UNL A   1      40.872  25.304  27.888  1.00  0.00    -0.014 A 
BRANCH  31  32
ATOM     32  C   UNL A   1      41.471  26.669  28.052  1.00  0.00     0.031 A 
ATOM     33  C   UNL A   1      42.762  26.981  27.330  1.00  0.00     0.074 A 
ATOM     34  C   UNL A   1      40.842  27.684  28.680  1.00  0.00     0.049 A 
ATOM     35  N   UNL A   1      43.538  28.033  27.416  1.00  0.00    -0.248 NA
ATOM     36  C   UNL A   1      43.232  25.971  26.366  1.00  0.00     0.031 C 
ATOM     37  C   UNL A   1      39.507  27.628  29.272  1.00  0.00     0.029 A 
ATOM     38  N   UNL A   1      41.250  28.981  28.907  1.00  0.00    -0.354 N 
ATOM     39  C   UNL A   1      44.612  27.784  26.568  1.00  0.00     0.074 A 
ATOM     40  C   UNL A   1      44.385  26.487  25.970  1.00  0.00     0.031 C 
ATOM     41  C   UNL A   1      39.210  28.829  29.797  1.00  0.00     0.029 A 
ATOM     42  C   UNL A   1      40.360  29.721  29.649  1.00  0.00     0.049 A 
ATOM     43  H   UNL A   1      42.102  29.344  28.569  1.00  0.00     0.167 HD
ATOM     44  C   UNL A   1      45.698  28.555  26.316  1.00  0.00     0.031 A 
ATOM     45  C   UNL A   1      40.472  30.950  30.197  1.00  0.00     0.031 A 
ATOM     46  C   UNL A   1      45.920  29.864  26.873  1.00  0.00     0.049 A 
ATOM     47  C   UNL A   1      41.746  31.738  30.019  1.00  0.00     0.074 A 
ATOM     48  C   UNL A   1      47.005  30.705  26.690  1.00  0.00     0.029 A 
ATOM     49  N   UNL A   1      45.040  30.525  27.713  1.00  0.00    -0.354 N 
ATOM     50  N   UNL A   1      42.803  31.454  29.299  1.00  0.00    -0.248 NA
ATOM     51  C   UNL A   1      41.844  33.015  30.745  1.00  0.00     0.031 C 
ATOM     52  C   UNL A   1      46.811  31.848  27.472  1.00  0.00     0.029 A 
ATOM     53  C   UNL A   1      45.571  31.751  28.081  1.00  0.00     0.049 A 
ATOM     54  H   UNL A   1      44.166  30.178  28.004  1.00  0.00     0.167 HD
ATOM     55  C   UNL A   1      43.678  32.523  29.468  1.00  0.00     0.074 A 
ATOM     56  C   UNL A   1      43.020  33.472  30.338  1.00  0.00     0.031 C 
ATOM     57  C   UNL A   1      44.918  32.697  28.946  1.00  0.00     0.031 A 
BRANCH  44  58
ATOM     58  C   UNL A   1      46.783  27.968  25.454  1.00  0.00    -0.014 A 
ATOM     59  C   UNL A   1      47.860  27.251  25.993  1.00  0.00     0.009 A 
ATOM     60  C   UNL A   1      46.691  28.109  24.059  1.00  0.00     0.009 A 
ATOM     61  C   UNL A   1      48.842  26.717  25.153  1.00  0.00     0.001 A 
ATOM     62  C   UNL A   1      47.653  27.547  23.221  1.00  0.00     0.001 A 
ATOM     63  C   UNL A   1      48.734  26.860  23.768  1.00  0.00     0.000 A 
ENDBRANCH  44  58
BRANCH  45  64
ATOM     64  C   UNL A   1      39.382  31.488  31.061  1.00  0.00    -0.014 A 
ATOM     65  C   UNL A   1      38.472  32.442  30.577  1.00  0.00     0.009 A 
ATOM     66  C   UNL A   1      39.283  31.085  32.403  1.00  0.00     0.009 A 
ATOM     67  C   UNL A   1      37.506  32.993  31.424  1.00  0.00     0.001 A 
ATOM     68  C   UNL A   1      38.294  31.609  33.237  1.00  0.00     0.001 A 
ATOM     69  C   UNL A   1      37.413  32.571  32.750  1.00  0.00     0.000 A 
ENDBRANCH  45  64
BRANCH  57  70
ATOM     70  C   UNL A   1      45.635  33.983  29.262  1.00  0.00    -0.014 A 
ATOM     71  C   UNL A   1      45.483  35.126  28.462  1.00  0.00     0.009 A 
ATOM     72  C   UNL A   1      46.446  34.063  30.407  1.00  0.00     0.009 A 
ATOM     73  C   UNL A   1      46.155  36.309  28.782  1.00  0.00     0.001 A 
ATOM     74  C   UNL A   1      47.089  35.255  30.743  1.00  0.00     0.001 A 
ATOM     75  C   UNL A   1      46.952  36.375  29.924  1.00  0.00     0.000 A 
ENDBRANCH  57  70
ENDBRANCH  31  32
ENDBRANCH  24  26
ENDBRANCH  23  24
ENDBRANCH  22  23
ENDBRANCH  21  22
ENDBRANCH  20  21
ENDBRANCH  19  20
ENDBRANCH   1  19
TORSDOF 19
ENDMDL
