MODEL 1
REMARK VINA RESULT:     -12.0      0.000      0.000
REMARK SMILES Cc1ccc([C@@H]2[C@H](C(=O)OCCOCCOCCOC(=O)c3ccc(-c4c5nc(c(-c6ccccc6)c6ccc([nH]6)c(-c6ccccc6)c6nc(c(-c7ccccc7)c7ccc4[nH]7)C=C6)C=C5)cc3)c3ccccc3C(=O)N2c2ccccc2)cc1
REMARK SMILES IDX 15 1 14 2 13 3 12 4 11 5 10 6 8 7 9 8 7 9 6 10 78 11 70 12
REMARK SMILES IDX 76 13 71 14 75 15 77 16 72 17 74 18 73 19 5 20 1 21 2 22
REMARK SMILES IDX 3 23 86 24 4 25 85 26 79 27 80 28 84 29 81 30 83 31 82 32
REMARK SMILES IDX 16 33 17 34 18 35 19 36 20 37 21 38 22 39 23 40 69 41 24 42
REMARK SMILES IDX 68 43 25 44 26 45 27 46 62 47 28 48 67 49 61 50 63 51 29 52
REMARK SMILES IDX 66 53 60 54 59 55 30 57 52 58 37 59 51 60 38 61 41 62 50 63
REMARK SMILES IDX 64 64 39 65 40 66 49 68 65 69 42 70 31 71 32 72 36 73 33 74
REMARK SMILES IDX 35 75 34 76 53 77 54 78 58 79 55 80 57 81 56 82 43 83 44 84
REMARK SMILES IDX 48 85 45 86 47 87 46 88
REMARK H PARENT 63 56 41 67
REMARK Flexibility Score: inf
ROOT
ATOM      1  C   UNL A   1      34.904  20.665  24.993  1.00  0.00     0.188 C 
ENDROOT
BRANCH   1   2
ATOM      2  C   UNL A   1      35.091  22.008  25.692  1.00  0.00     0.188 C 
BRANCH   2   3
ATOM      3  O   UNL A   1      33.925  22.812  25.646  1.00  0.00    -0.376 OA
BRANCH   3   4
ATOM      4  C   UNL A   1      33.458  23.201  26.946  1.00  0.00     0.202 C 
BRANCH   4   5
ATOM      5  C   UNL A   1      31.995  23.726  26.981  1.00  0.00     0.261 C 
BRANCH   5   6
ATOM      6  O   UNL A   1      31.449  25.260  26.849  1.00  0.00    -0.463 OA
BRANCH   6   7
ATOM      7  C   UNL A   1      30.845  26.119  25.893  1.00  0.00     0.316 C 
ATOM      8  O   UNL A   1      30.599  27.290  26.202  1.00  0.00    -0.251 OA
BRANCH   7   9
ATOM      9  C   UNL A   1      30.691  25.812  24.344  1.00  0.00     0.157 C 
ATOM     10  C   UNL A   1      30.976  27.078  23.501  1.00  0.00     0.140 C 
ATOM     11  N   UNL A   1      32.433  27.299  23.463  1.00  0.00    -0.300 N 
ATOM     12  C   UNL A   1      31.377  24.670  23.551  1.00  0.00    -0.019 A 
ATOM     13  C   UNL A   1      33.099  26.333  22.653  1.00  0.00     0.259 C 
ATOM     14  C   UNL A   1      30.846  23.361  23.515  1.00  0.00     0.005 A 
ATOM     15  C   UNL A   1      32.550  24.930  22.805  1.00  0.00     0.044 A 
ATOM     16  O   UNL A   1      34.048  26.542  21.950  1.00  0.00    -0.269 OA
ATOM     17  C   UNL A   1      31.568  22.315  22.923  1.00  0.00     0.000 A 
ATOM     18  C   UNL A   1      33.254  23.879  22.197  1.00  0.00     0.014 A 
ATOM     19  C   UNL A   1      32.784  22.569  22.290  1.00  0.00     0.001 A 
BRANCH  10  20
ATOM     20  C   UNL A   1      29.864  28.133  23.459  1.00  0.00    -0.024 A 
ATOM     21  C   UNL A   1      27.326  31.381  22.130  1.00  0.00     0.044 C 
ATOM     22  C   UNL A   1      28.137  30.290  22.761  1.00  0.00    -0.051 A 
ATOM     23  C   UNL A   1      27.691  28.970  22.754  1.00  0.00     0.004 A 
ATOM     24  C   UNL A   1      29.400  30.552  23.280  1.00  0.00     0.004 A 
ATOM     25  C   UNL A   1      28.528  27.914  23.147  1.00  0.00     0.006 A 
ATOM     26  C   UNL A   1      30.251  29.491  23.608  1.00  0.00     0.006 A 
ENDBRANCH  10  20
BRANCH  11  27
ATOM     27  C   UNL A   1      33.222  27.832  24.553  1.00  0.00     0.045 A 
ATOM     28  C   UNL A   1      33.950  26.995  25.420  1.00  0.00     0.026 A 
ATOM     29  C   UNL A   1      33.134  29.157  24.944  1.00  0.00     0.026 A 
ATOM     30  C   UNL A   1      34.538  27.463  26.606  1.00  0.00     0.002 A 
ATOM     31  C   UNL A   1      33.614  29.590  26.178  1.00  0.00     0.002 A 
ATOM     32  C   UNL A   1      34.383  28.781  26.978  1.00  0.00     0.000 A 
ENDBRANCH  11  27
ENDBRANCH   7   9
ENDBRANCH   6   7
ENDBRANCH   5   6
ENDBRANCH   4   5
ENDBRANCH   3   4
ENDBRANCH   2   3
ENDBRANCH   1   2
BRANCH   1  33
ATOM     33  O   UNL A   1      36.131  19.959  24.781  1.00  0.00    -0.376 OA
BRANCH  33  34
ATOM     34  C   UNL A   1      37.283  20.790  24.989  1.00  0.00     0.202 C 
BRANCH  34  35
ATOM     35  C   UNL A   1      38.583  19.987  25.103  1.00  0.00     0.261 C 
BRANCH  35  36
ATOM     36  O   UNL A   1      39.384  20.613  26.121  1.00  0.00    -0.460 OA
BRANCH  36  37
ATOM     37  C   UNL A   1      40.674  20.226  26.068  1.00  0.00     0.338 C 
ATOM     38  O   UNL A   1      41.056  19.074  25.928  1.00  0.00    -0.246 OA
BRANCH  37  39
ATOM     39  C   UNL A   1      41.542  21.352  26.506  1.00  0.00     0.060 A 
ATOM     40  C   UNL A   1      41.196  21.900  27.703  1.00  0.00     0.016 A 
ATOM     41  C   UNL A   1      42.519  22.025  25.756  1.00  0.00     0.016 A 
ATOM     42  C   UNL A   1      41.769  23.125  28.062  1.00  0.00     0.010 A 
ATOM     43  C   UNL A   1      43.030  23.308  26.153  1.00  0.00     0.010 A 
ATOM     44  C   UNL A   1      42.608  23.956  27.321  1.00  0.00    -0.014 A 
BRANCH  44  45
ATOM     45  C   UNL A   1      42.998  25.465  27.634  1.00  0.00     0.031 A 
ATOM     46  C   UNL A   1      41.895  26.420  27.325  1.00  0.00     0.074 A 
ATOM     47  C   UNL A   1      44.119  26.124  28.197  1.00  0.00     0.049 A 
ATOM     48  N   UNL A   1      42.010  27.712  27.289  1.00  0.00    -0.248 NA
ATOM     49  C   UNL A   1      40.558  25.969  26.905  1.00  0.00     0.031 C 
ATOM     50  C   UNL A   1      44.027  27.128  29.267  1.00  0.00     0.029 A 
ATOM     51  N   UNL A   1      45.551  26.003  28.152  1.00  0.00    -0.354 N 
ATOM     52  C   UNL A   1      40.723  28.148  27.489  1.00  0.00     0.074 A 
ATOM     53  C   UNL A   1      39.906  27.132  26.884  1.00  0.00     0.031 C 
ATOM     54  C   UNL A   1      45.249  27.568  29.636  1.00  0.00     0.029 A 
ATOM     55  C   UNL A   1      46.284  27.007  28.780  1.00  0.00     0.049 A 
ATOM     56  H   UNL A   1      45.992  25.249  27.700  1.00  0.00     0.167 HD
ATOM     57  C   UNL A   1      40.492  29.024  28.513  1.00  0.00     0.031 A 
ATOM     58  C   UNL A   1      47.464  27.581  28.343  1.00  0.00     0.031 A 
ATOM     59  C   UNL A   1      41.710  29.716  28.982  1.00  0.00     0.049 A 
ATOM     60  C   UNL A   1      47.194  29.045  28.023  1.00  0.00     0.074 A 
ATOM     61  C   UNL A   1      42.302  29.938  30.219  1.00  0.00     0.029 A 
ATOM     62  N   UNL A   1      42.661  30.142  28.055  1.00  0.00    -0.354 N 
ATOM     63  N   UNL A   1      46.111  29.639  28.422  1.00  0.00    -0.248 NA
ATOM     64  C   UNL A   1      47.980  29.918  27.142  1.00  0.00     0.031 C 
ATOM     65  C   UNL A   1      43.552  30.592  30.021  1.00  0.00     0.029 A 
ATOM     66  C   UNL A   1      43.722  30.779  28.665  1.00  0.00     0.049 A 
ATOM     67  H   UNL A   1      42.584  30.005  27.084  1.00  0.00     0.167 HD
ATOM     68  C   UNL A   1      45.921  30.793  27.731  1.00  0.00     0.074 A 
ATOM     69  C   UNL A   1      47.142  30.959  26.968  1.00  0.00     0.031 C 
ATOM     70  C   UNL A   1      44.727  31.441  27.835  1.00  0.00     0.031 A 
BRANCH  57  71
ATOM     71  C   UNL A   1      39.179  29.024  29.298  1.00  0.00    -0.014 A 
ATOM     72  C   UNL A   1      38.058  29.689  28.774  1.00  0.00     0.009 A 
ATOM     73  C   UNL A   1      38.996  28.489  30.591  1.00  0.00     0.009 A 
ATOM     74  C   UNL A   1      36.869  29.855  29.503  1.00  0.00     0.001 A 
ATOM     75  C   UNL A   1      37.804  28.621  31.317  1.00  0.00     0.001 A 
ATOM     76  C   UNL A   1      36.741  29.318  30.776  1.00  0.00     0.000 A 
ENDBRANCH  57  71
BRANCH  58  77
ATOM     77  C   UNL A   1      48.643  26.832  27.737  1.00  0.00    -0.014 A 
ATOM     78  C   UNL A   1      48.614  26.432  26.382  1.00  0.00     0.009 A 
ATOM     79  C   UNL A   1      49.799  26.452  28.445  1.00  0.00     0.009 A 
ATOM     80  C   UNL A   1      49.700  25.768  25.760  1.00  0.00     0.001 A 
ATOM     81  C   UNL A   1      50.884  25.774  27.837  1.00  0.00     0.001 A 
ATOM     82  C   UNL A   1      50.845  25.451  26.485  1.00  0.00     0.000 A 
ENDBRANCH  58  77
BRANCH  70  83
ATOM     83  C   UNL A   1      44.346  32.742  27.186  1.00  0.00    -0.014 A 
ATOM     84  C   UNL A   1      43.962  33.890  27.881  1.00  0.00     0.009 A 
ATOM     85  C   UNL A   1      44.233  32.788  25.776  1.00  0.00     0.009 A 
ATOM     86  C   UNL A   1      43.530  35.036  27.197  1.00  0.00     0.001 A 
ATOM     87  C   UNL A   1      43.792  33.916  25.092  1.00  0.00     0.001 A 
ATOM     88  C   UNL A   1      43.446  35.047  25.806  1.00  0.00     0.000 A 
ENDBRANCH  70  83
ENDBRANCH  44  45
ENDBRANCH  37  39
ENDBRANCH  36  37
ENDBRANCH  35  36
ENDBRANCH  34  35
ENDBRANCH  33  34
ENDBRANCH   1  33
TORSDOF 19
ENDMDL
MODEL 2
REMARK VINA RESULT:     -11.6      2.441      7.853
REMARK SMILES Cc1ccc([C@@H]2[C@H](C(=O)OCCOCCOCCOC(=O)c3ccc(-c4c5nc(c(-c6ccccc6)c6ccc([nH]6)c(-c6ccccc6)c6nc(c(-c7ccccc7)c7ccc4[nH]7)C=C6)C=C5)cc3)c3ccccc3C(=O)N2c2ccccc2)cc1
REMARK SMILES IDX 15 1 14 2 13 3 12 4 11 5 10 6 8 7 9 8 7 9 6 10 78 11 70 12
REMARK SMILES IDX 76 13 71 14 75 15 77 16 72 17 74 18 73 19 5 20 1 21 2 22
REMARK SMILES IDX 3 23 86 24 4 25 85 26 79 27 80 28 84 29 81 30 83 31 82 32
REMARK SMILES IDX 16 33 17 34 18 35 19 36 20 37 21 38 22 39 23 40 69 41 24 42
REMARK SMILES IDX 68 43 25 44 26 45 27 46 62 47 28 48 67 49 61 50 63 51 29 52
REMARK SMILES IDX 66 53 60 54 59 55 30 57 52 58 37 59 51 60 38 61 41 62 50 63
REMARK SMILES IDX 64 64 39 65 40 66 49 68 65 69 42 70 31 71 32 72 36 73 33 74
REMARK SMILES IDX 35 75 34 76 53 77 54 78 58 79 55 80 57 81 56 82 43 83 44 84
REMARK SMILES IDX 48 85 45 86 47 87 46 88
REMARK H PARENT 63 56 41 67
REMARK Flexibility Score: inf
ROOT
ATOM      1  C   UNL A   1      32.034  28.813  25.572  1.00  0.00     0.188 C 
ENDROOT
BRANCH   1   2
ATOM      2  C   UNL A   1      32.105  28.448  24.092  1.00  0.00     0.188 C 
BRANCH   2   3
ATOM      3  O   UNL A   1      32.572  27.128  23.881  1.00  0.00    -0.376 OA
BRANCH   3   4
ATOM      4  C   UNL A   1      33.505  27.028  22.795  1.00  0.00     0.202 C 
BRANCH   4   5
ATOM      5  C   UNL A   1      33.408  25.712  21.973  1.00  0.00     0.261 C 
BRANCH   5   6
ATOM      6  O   UNL A   1      33.966  24.222  22.344  1.00  0.00    -0.463 OA
BRANCH   6   7
ATOM      7  C   UNL A   1      33.504  22.995  22.889  1.00  0.00     0.316 C 
ATOM      8  O   UNL A   1      34.302  22.064  23.045  1.00  0.00    -0.251 OA
BRANCH   7   9
ATOM      9  C   UNL A   1      32.098  22.767  23.587  1.00  0.00     0.157 C 
ATOM     10  C   UNL A   1      32.234  21.817  24.801  1.00  0.00     0.140 C 
ATOM     11  N   UNL A   1      32.834  22.567  25.919  1.00  0.00    -0.300 N 
ATOM     12  C   UNL A   1      31.114  23.861  24.074  1.00  0.00    -0.019 A 
ATOM     13  C   UNL A   1      31.925  23.516  26.474  1.00  0.00     0.259 C 
ATOM     14  C   UNL A   1      30.195  24.483  23.199  1.00  0.00     0.005 A 
ATOM     15  C   UNL A   1      31.093  24.240  25.437  1.00  0.00     0.044 A 
ATOM     16  O   UNL A   1      31.830  23.800  27.635  1.00  0.00    -0.269 OA
ATOM     17  C   UNL A   1      29.430  25.577  23.629  1.00  0.00     0.000 A 
ATOM     18  C   UNL A   1      30.306  25.321  25.861  1.00  0.00     0.014 A 
ATOM     19  C   UNL A   1      29.507  26.013  24.951  1.00  0.00     0.001 A 
BRANCH  10  20
ATOM     20  C   UNL A   1      32.383  20.324  24.485  1.00  0.00    -0.024 A 
ATOM     21  C   UNL A   1      33.888  16.590  22.886  1.00  0.00     0.044 C 
ATOM     22  C   UNL A   1      33.207  17.791  23.470  1.00  0.00    -0.051 A 
ATOM     23  C   UNL A   1      33.367  18.123  24.814  1.00  0.00     0.004 A 
ATOM     24  C   UNL A   1      32.480  18.659  22.664  1.00  0.00     0.004 A 
ATOM     25  C   UNL A   1      32.915  19.351  25.322  1.00  0.00     0.006 A 
ATOM     26  C   UNL A   1      32.090  19.908  23.159  1.00  0.00     0.006 A 
ENDBRANCH  10  20
BRANCH  11  27
ATOM     27  C   UNL A   1      34.232  22.926  26.026  1.00  0.00     0.045 A 
ATOM     28  C   UNL A   1      34.689  24.227  25.739  1.00  0.00     0.026 A 
ATOM     29  C   UNL A   1      35.222  21.973  26.196  1.00  0.00     0.026 A 
ATOM     30  C   UNL A   1      36.051  24.540  25.621  1.00  0.00     0.002 A 
ATOM     31  C   UNL A   1      36.564  22.263  25.959  1.00  0.00     0.002 A 
ATOM     32  C   UNL A   1      37.001  23.548  25.751  1.00  0.00     0.000 A 
ENDBRANCH  11  27
ENDBRANCH   7   9
ENDBRANCH   6   7
ENDBRANCH   5   6
ENDBRANCH   4   5
ENDBRANCH   3   4
ENDBRANCH   2   3
ENDBRANCH   1   2
BRANCH   1  33
ATOM     33  O   UNL A   1      33.057  29.727  25.981  1.00  0.00    -0.376 OA
BRANCH  33  34
ATOM     34  C   UNL A   1      34.047  29.105  26.814  1.00  0.00     0.202 C 
BRANCH  34  35
ATOM     35  C   UNL A   1      34.714  30.088  27.782  1.00  0.00     0.261 C 
BRANCH  35  36
ATOM     36  O   UNL A   1      36.098  29.708  27.889  1.00  0.00    -0.460 OA
BRANCH  36  37
ATOM     37  C   UNL A   1      36.584  29.891  29.133  1.00  0.00     0.338 C 
ATOM     38  O   UNL A   1      35.945  30.329  30.079  1.00  0.00    -0.246 OA
BRANCH  37  39
ATOM     39  C   UNL A   1      38.066  29.769  29.103  1.00  0.00     0.060 A 
ATOM     40  C   UNL A   1      38.581  29.429  27.891  1.00  0.00     0.016 A 
ATOM     41  C   UNL A   1      38.950  29.764  30.194  1.00  0.00     0.016 A 
ATOM     42  C   UNL A   1      39.918  29.023  27.827  1.00  0.00     0.010 A 
ATOM     43  C   UNL A   1      40.299  29.284  30.075  1.00  0.00     0.010 A 
ATOM     44  C   UNL A   1      40.826  28.817  28.865  1.00  0.00    -0.014 A 
BRANCH  44  45
ATOM     45  C   UNL A   1      42.231  28.076  28.789  1.00  0.00     0.031 A 
ATOM     46  C   UNL A   1      43.358  29.008  28.498  1.00  0.00     0.074 A 
ATOM     47  C   UNL A   1      42.687  26.749  28.992  1.00  0.00     0.049 A 
ATOM     48  N   UNL A   1      44.563  28.650  28.179  1.00  0.00    -0.248 NA
ATOM     49  C   UNL A   1      43.175  30.467  28.430  1.00  0.00     0.031 C 
ATOM     50  C   UNL A   1      43.840  26.400  29.834  1.00  0.00     0.029 A 
ATOM     51  N   UNL A   1      42.226  25.417  28.713  1.00  0.00    -0.354 N 
ATOM     52  C   UNL A   1      45.317  29.747  28.518  1.00  0.00     0.074 A 
ATOM     53  C   UNL A   1      44.440  30.863  28.291  1.00  0.00     0.031 C 
ATOM     54  C   UNL A   1      44.032  25.064  29.876  1.00  0.00     0.029 A 
ATOM     55  C   UNL A   1      43.115  24.378  28.979  1.00  0.00     0.049 A 
ATOM     56  H   UNL A   1      41.327  25.246  28.351  1.00  0.00     0.167 HD
ATOM     57  C   UNL A   1      46.373  29.566  29.366  1.00  0.00     0.031 A 
ATOM     58  C   UNL A   1      43.316  23.235  28.227  1.00  0.00     0.031 A 
ATOM     59  C   UNL A   1      46.824  28.161  29.455  1.00  0.00     0.049 A 
ATOM     60  C   UNL A   1      44.734  23.274  27.670  1.00  0.00     0.074 A 
ATOM     61  C   UNL A   1      47.092  27.277  30.491  1.00  0.00     0.029 A 
ATOM     62  N   UNL A   1      46.861  27.376  28.304  1.00  0.00    -0.354 N 
ATOM     63  N   UNL A   1      45.622  24.101  28.131  1.00  0.00    -0.248 NA
ATOM     64  C   UNL A   1      45.246  22.547  26.502  1.00  0.00     0.031 C 
ATOM     65  C   UNL A   1      47.392  25.998  29.940  1.00  0.00     0.029 A 
ATOM     66  C   UNL A   1      47.317  26.101  28.567  1.00  0.00     0.049 A 
ATOM     67  H   UNL A   1      46.594  27.693  27.411  1.00  0.00     0.167 HD
ATOM     68  C   UNL A   1      46.664  24.207  27.265  1.00  0.00     0.074 A 
ATOM     69  C   UNL A   1      46.414  23.179  26.275  1.00  0.00     0.031 C 
ATOM     70  C   UNL A   1      47.584  25.196  27.450  1.00  0.00     0.031 A 
BRANCH  57  71
ATOM     71  C   UNL A   1      46.807  30.644  30.360  1.00  0.00    -0.014 A 
ATOM     72  C   UNL A   1      47.703  31.647  29.950  1.00  0.00     0.009 A 
ATOM     73  C   UNL A   1      46.467  30.683  31.730  1.00  0.00     0.009 A 
ATOM     74  C   UNL A   1      48.256  32.578  30.843  1.00  0.00     0.001 A 
ATOM     75  C   UNL A   1      46.989  31.627  32.626  1.00  0.00     0.001 A 
ATOM     76  C   UNL A   1      47.897  32.569  32.184  1.00  0.00     0.000 A 
ENDBRANCH  57  71
BRANCH  58  77
ATOM     77  C   UNL A   1      42.225  22.393  27.581  1.00  0.00    -0.014 A 
ATOM     78  C   UNL A   1      41.213  23.007  26.808  1.00  0.00     0.009 A 
ATOM     79  C   UNL A   1      42.104  20.998  27.720  1.00  0.00     0.009 A 
ATOM     80  C   UNL A   1      40.197  22.266  26.156  1.00  0.00     0.001 A 
ATOM     81  C   UNL A   1      41.083  20.249  27.085  1.00  0.00     0.001 A 
ATOM     82  C   UNL A   1      40.140  20.880  26.281  1.00  0.00     0.000 A 
ENDBRANCH  58  77
BRANCH  70  83
ATOM     83  C   UNL A   1      48.818  25.446  26.631  1.00  0.00    -0.014 A 
ATOM     84  C   UNL A   1      50.122  25.207  27.070  1.00  0.00     0.009 A 
ATOM     85  C   UNL A   1      48.680  26.090  25.378  1.00  0.00     0.009 A 
ATOM     86  C   UNL A   1      51.224  25.557  26.278  1.00  0.00     0.001 A 
ATOM     87  C   UNL A   1      49.770  26.453  24.594  1.00  0.00     0.001 A 
ATOM     88  C   UNL A   1      51.048  26.178  25.043  1.00  0.00     0.000 A 
ENDBRANCH  70  83
ENDBRANCH  44  45
ENDBRANCH  37  39
ENDBRANCH  36  37
ENDBRANCH  35  36
ENDBRANCH  34  35
ENDBRANCH  33  34
ENDBRANCH   1  33
TORSDOF 19
ENDMDL
MODEL 3
REMARK VINA RESULT:     -11.3      4.289      8.201
REMARK SMILES Cc1ccc([C@@H]2[C@H](C(=O)OCCOCCOCCOC(=O)c3ccc(-c4c5nc(c(-c6ccccc6)c6ccc([nH]6)c(-c6ccccc6)c6nc(c(-c7ccccc7)c7ccc4[nH]7)C=C6)C=C5)cc3)c3ccccc3C(=O)N2c2ccccc2)cc1
REMARK SMILES IDX 15 1 14 2 13 3 12 4 11 5 10 6 8 7 9 8 7 9 6 10 78 11 70 12
REMARK SMILES IDX 76 13 71 14 75 15 77 16 72 17 74 18 73 19 5 20 1 21 2 22
REMARK SMILES IDX 3 23 86 24 4 25 85 26 79 27 80 28 84 29 81 30 83 31 82 32
REMARK SMILES IDX 16 33 17 34 18 35 19 36 20 37 21 38 22 39 23 40 69 41 24 42
REMARK SMILES IDX 68 43 25 44 26 45 27 46 62 47 28 48 67 49 61 50 63 51 29 52
REMARK SMILES IDX 66 53 60 54 59 55 30 57 52 58 37 59 51 60 38 61 41 62 50 63
REMARK SMILES IDX 64 64 39 65 40 66 49 68 65 69 42 70 31 71 32 72 36 73 33 74
REMARK SMILES IDX 35 75 34 76 53 77 54 78 58 79 55 80 57 81 56 82 43 83 44 84
REMARK SMILES IDX 48 85 45 86 47 87 46 88
REMARK H PARENT 63 56 41 67
REMARK Flexibility Score: inf
ROOT
ATOM      1  C   UNL A   1      35.435  22.392  25.292  1.00  0.00     0.188 C 
ENDROOT
BRANCH   1   2
ATOM      2  C   UNL A   1      34.314  21.610  25.971  1.00  0.00     0.188 C 
BRANCH   2   3
ATOM      3  O   UNL A   1      33.058  22.253  25.859  1.00  0.00    -0.376 OA
BRANCH   3   4
ATOM      4  C   UNL A   1      32.882  23.313  26.811  1.00  0.00     0.202 C 
BRANCH   4   5
ATOM      5  C   UNL A   1      31.467  23.958  26.812  1.00  0.00     0.261 C 
BRANCH   5   6
ATOM      6  O   UNL A   1      31.041  25.507  26.517  1.00  0.00    -0.463 OA
BRANCH   6   7
ATOM      7  C   UNL A   1      30.582  26.321  25.448  1.00  0.00     0.316 C 
ATOM      8  O   UNL A   1      30.346  27.516  25.657  1.00  0.00    -0.251 OA
BRANCH   7   9
ATOM      9  C   UNL A   1      30.594  25.922  23.914  1.00  0.00     0.157 C 
ATOM     10  C   UNL A   1      31.034  27.118  23.036  1.00  0.00     0.140 C 
ATOM     11  N   UNL A   1      32.494  27.277  23.159  1.00  0.00    -0.300 N 
ATOM     12  C   UNL A   1      31.310  24.704  23.276  1.00  0.00    -0.019 A 
ATOM     13  C   UNL A   1      33.203  26.234  22.491  1.00  0.00     0.259 C 
ATOM     14  C   UNL A   1      30.725  23.418  23.255  1.00  0.00     0.005 A 
ATOM     15  C   UNL A   1      32.574  24.867  22.660  1.00  0.00     0.044 A 
ATOM     16  O   UNL A   1      34.235  26.358  21.894  1.00  0.00    -0.269 OA
ATOM     17  C   UNL A   1      31.460  22.307  22.816  1.00  0.00     0.000 A 
ATOM     18  C   UNL A   1      33.291  23.752  22.203  1.00  0.00     0.014 A 
ATOM     19  C   UNL A   1      32.751  22.471  22.317  1.00  0.00     0.001 A 
BRANCH  10  20
ATOM     20  C   UNL A   1      29.987  28.213  22.801  1.00  0.00    -0.024 A 
ATOM     21  C   UNL A   1      27.092  31.354  23.517  1.00  0.00     0.044 C 
ATOM     22  C   UNL A   1      28.017  30.251  23.100  1.00  0.00    -0.051 A 
ATOM     23  C   UNL A   1      29.282  30.532  22.586  1.00  0.00     0.004 A 
ATOM     24  C   UNL A   1      27.676  28.920  23.308  1.00  0.00     0.004 A 
ATOM     25  C   UNL A   1      30.233  29.518  22.393  1.00  0.00     0.006 A 
ATOM     26  C   UNL A   1      28.648  27.923  23.175  1.00  0.00     0.006 A 
ENDBRANCH  10  20
BRANCH  11  27
ATOM     27  C   UNL A   1      33.178  27.845  24.301  1.00  0.00     0.045 A 
ATOM     28  C   UNL A   1      33.805  27.038  25.268  1.00  0.00     0.026 A 
ATOM     29  C   UNL A   1      33.066  29.186  24.630  1.00  0.00     0.026 A 
ATOM     30  C   UNL A   1      34.278  27.547  26.487  1.00  0.00     0.002 A 
ATOM     31  C   UNL A   1      33.426  29.663  25.888  1.00  0.00     0.002 A 
ATOM     32  C   UNL A   1      34.101  28.881  26.792  1.00  0.00     0.000 A 
ENDBRANCH  11  27
ENDBRANCH   7   9
ENDBRANCH   6   7
ENDBRANCH   5   6
ENDBRANCH   4   5
ENDBRANCH   3   4
ENDBRANCH   2   3
ENDBRANCH   1   2
BRANCH   1  33
ATOM     33  O   UNL A   1      36.495  22.755  26.182  1.00  0.00    -0.376 OA
BRANCH  33  34
ATOM     34  C   UNL A   1      37.454  23.627  25.566  1.00  0.00     0.202 C 
BRANCH  34  35
ATOM     35  C   UNL A   1      38.780  23.690  26.331  1.00  0.00     0.261 C 
BRANCH  35  36
ATOM     36  O   UNL A   1      38.777  24.914  27.089  1.00  0.00    -0.460 OA
BRANCH  36  37
ATOM     37  C   UNL A   1      39.923  25.608  26.943  1.00  0.00     0.338 C 
ATOM     38  O   UNL A   1      40.742  25.433  26.053  1.00  0.00    -0.246 OA
BRANCH  37  39
ATOM     39  C   UNL A   1      40.181  26.394  28.179  1.00  0.00     0.060 A 
ATOM     40  C   UNL A   1      39.199  26.311  29.117  1.00  0.00     0.016 A 
ATOM     41  C   UNL A   1      41.191  27.343  28.399  1.00  0.00     0.016 A 
ATOM     42  C   UNL A   1      39.216  27.220  30.180  1.00  0.00     0.010 A 
ATOM     43  C   UNL A   1      41.125  28.286  29.481  1.00  0.00     0.010 A 
ATOM     44  C   UNL A   1      40.067  28.304  30.397  1.00  0.00    -0.014 A 
BRANCH  44  45
ATOM     45  C   UNL A   1      39.879  29.486  31.444  1.00  0.00     0.031 A 
ATOM     46  C   UNL A   1      40.380  29.136  32.804  1.00  0.00     0.074 A 
ATOM     47  C   UNL A   1      39.406  30.821  31.388  1.00  0.00     0.049 A 
ATOM     48  N   UNL A   1      40.167  29.824  33.883  1.00  0.00    -0.248 NA
ATOM     49  C   UNL A   1      41.090  27.876  33.081  1.00  0.00     0.031 C 
ATOM     50  C   UNL A   1      40.127  31.969  31.954  1.00  0.00     0.029 A 
ATOM     51  N   UNL A   1      38.355  31.545  30.727  1.00  0.00    -0.354 N 
ATOM     52  C   UNL A   1      41.195  29.442  34.709  1.00  0.00     0.074 A 
ATOM     53  C   UNL A   1      41.449  28.074  34.349  1.00  0.00     0.031 C 
ATOM     54  C   UNL A   1      39.466  33.125  31.730  1.00  0.00     0.029 A 
ATOM     55  C   UNL A   1      38.178  32.874  31.103  1.00  0.00     0.049 A 
ATOM     56  H   UNL A   1      37.787  31.123  30.043  1.00  0.00     0.167 HD
ATOM     57  C   UNL A   1      41.995  30.417  35.234  1.00  0.00     0.031 A 
ATOM     58  C   UNL A   1      36.980  33.547  31.263  1.00  0.00     0.031 A 
ATOM     59  C   UNL A   1      41.386  31.763  35.198  1.00  0.00     0.049 A 
ATOM     60  C   UNL A   1      36.834  33.918  32.733  1.00  0.00     0.074 A 
ATOM     61  C   UNL A   1      41.794  33.017  34.765  1.00  0.00     0.029 A 
ATOM     62  N   UNL A   1      40.028  31.912  35.477  1.00  0.00    -0.354 N 
ATOM     63  N   UNL A   1      37.840  33.860  33.551  1.00  0.00    -0.248 NA
ATOM     64  C   UNL A   1      35.589  34.227  33.448  1.00  0.00     0.031 C 
ATOM     65  C   UNL A   1      40.705  33.926  34.892  1.00  0.00     0.029 A 
ATOM     66  C   UNL A   1      39.632  33.232  35.411  1.00  0.00     0.049 A 
ATOM     67  H   UNL A   1      39.424  31.165  35.694  1.00  0.00     0.167 HD
ATOM     68  C   UNL A   1      37.404  33.879  34.839  1.00  0.00     0.074 A 
ATOM     69  C   UNL A   1      35.987  34.159  34.733  1.00  0.00     0.031 C 
ATOM     70  C   UNL A   1      38.282  33.592  35.841  1.00  0.00     0.031 A 
BRANCH  57  71
ATOM     71  C   UNL A   1      43.481  30.183  35.512  1.00  0.00    -0.014 A 
ATOM     72  C   UNL A   1      44.432  30.531  34.538  1.00  0.00     0.009 A 
ATOM     73  C   UNL A   1      44.012  29.538  36.650  1.00  0.00     0.009 A 
ATOM     74  C   UNL A   1      45.794  30.211  34.663  1.00  0.00     0.001 A 
ATOM     75  C   UNL A   1      45.374  29.241  36.801  1.00  0.00     0.001 A 
ATOM     76  C   UNL A   1      46.266  29.567  35.798  1.00  0.00     0.000 A 
ENDBRANCH  57  71
BRANCH  58  77
ATOM     77  C   UNL A   1      35.775  33.447  30.338  1.00  0.00    -0.014 A 
ATOM     78  C   UNL A   1      34.860  34.520  30.240  1.00  0.00     0.009 A 
ATOM     79  C   UNL A   1      35.454  32.318  29.562  1.00  0.00     0.009 A 
ATOM     80  C   UNL A   1      33.745  34.492  29.367  1.00  0.00     0.001 A 
ATOM     81  C   UNL A   1      34.333  32.274  28.697  1.00  0.00     0.001 A 
ATOM     82  C   UNL A   1      33.488  33.372  28.580  1.00  0.00     0.000 A 
ENDBRANCH  58  77
BRANCH  70  83
ATOM     83  C   UNL A   1      38.003  33.604  37.317  1.00  0.00    -0.014 A 
ATOM     84  C   UNL A   1      38.861  34.135  38.282  1.00  0.00     0.009 A 
ATOM     85  C   UNL A   1      36.860  32.918  37.795  1.00  0.00     0.009 A 
ATOM     86  C   UNL A   1      38.568  34.021  39.648  1.00  0.00     0.001 A 
ATOM     87  C   UNL A   1      36.571  32.788  39.150  1.00  0.00     0.001 A 
ATOM     88  C   UNL A   1      37.426  33.349  40.080  1.00  0.00     0.000 A 
ENDBRANCH  70  83
ENDBRANCH  44  45
ENDBRANCH  37  39
ENDBRANCH  36  37
ENDBRANCH  35  36
ENDBRANCH  34  35
ENDBRANCH  33  34
ENDBRANCH   1  33
TORSDOF 19
ENDMDL
