MODEL 1
REMARK VINA RESULT:     -10.7      0.000      0.000
REMARK SMILES CC(C)(C)OC(=O)N1CCN(c2nc3ccccc3s2)[C@H](C(=O)OCCOCCOCCOC(=O)c2ccc(-c3c4nc(c(-c5ccccc5)c5ccc([nH]5)c(-c5ccccc5)c5nc(c(-c6ccccc6)c6ccc3[nH]6)C=C5)C=C4)cc2)C1
REMARK SMILES IDX 28 1 27 2 26 3 25 4 24 5 22 6 23 7 21 8 8 9 9 10 84 11 10 12
REMARK SMILES IDX 11 13 6 14 7 15 5 16 2 17 1 18 3 19 4 20 12 21 13 22 20 23
REMARK SMILES IDX 14 24 19 25 15 26 18 27 16 28 17 29 29 30 30 31 31 32 32 33
REMARK SMILES IDX 33 34 34 35 35 36 36 37 37 38 83 39 38 40 82 41 39 42 40 43
REMARK SMILES IDX 41 44 76 45 42 46 81 47 75 48 77 49 43 50 80 51 74 52 73 53
REMARK SMILES IDX 44 55 66 56 51 57 65 58 52 59 55 60 64 61 78 62 53 63 54 64
REMARK SMILES IDX 63 66 79 67 56 68 45 69 46 70 50 71 47 72 49 73 48 74 67 75
REMARK SMILES IDX 68 76 72 77 69 78 71 79 70 80 57 81 58 82 62 83 59 84 61 85
REMARK SMILES IDX 60 86
REMARK H PARENT 77 54 55 65
REMARK Flexibility Score: inf
ROOT
ATOM      1  C   UNL A   1      40.396  20.969  26.373  1.00  0.00     0.188 C 
ENDROOT
BRANCH   1   2
ATOM      2  O   UNL A   1      39.456  21.879  26.920  1.00  0.00    -0.376 OA
BRANCH   2   3
ATOM      3  C   UNL A   1      38.701  22.721  26.058  1.00  0.00     0.202 C 
BRANCH   3   4
ATOM      4  C   UNL A   1      37.599  22.097  25.191  1.00  0.00     0.261 C 
BRANCH   4   5
ATOM      5  O   UNL A   1      36.545  21.355  25.861  1.00  0.00    -0.462 OA
BRANCH   5   6
ATOM      6  C   UNL A   1      35.448  22.097  26.134  1.00  0.00     0.330 C 
ATOM      7  O   UNL A   1      35.425  22.931  27.045  1.00  0.00    -0.250 OA
BRANCH   6   8
ATOM      8  C   UNL A   1      34.145  21.770  25.443  1.00  0.00     0.214 C 
ATOM      9  N   UNL A   1      33.168  19.755  24.405  1.00  0.00    -0.304 N 
ATOM     10  C   UNL A   1      32.239  20.541  23.595  1.00  0.00     0.144 C 
ATOM     11  C   UNL A   1      34.424  20.423  24.747  1.00  0.00     0.160 C 
ATOM     12  C   UNL A   1      32.053  21.960  24.175  1.00  0.00     0.141 C 
ATOM     13  N   UNL A   1      33.376  22.587  24.469  1.00  0.00    -0.331 N 
BRANCH   9  14
ATOM     14  C   UNL A   1      32.864  18.478  24.817  1.00  0.00     0.410 C 
ATOM     15  O   UNL A   1      31.724  18.050  24.915  1.00  0.00    -0.224 OA
BRANCH  14  16
ATOM     16  O   UNL A   1      33.991  17.791  25.118  1.00  0.00    -0.444 OA
BRANCH  16  17
ATOM     17  C   UNL A   1      34.239  16.419  24.726  1.00  0.00     0.106 C 
ATOM     18  C   UNL A   1      35.596  16.073  25.358  1.00  0.00     0.056 C 
ATOM     19  C   UNL A   1      34.366  16.396  23.202  1.00  0.00     0.056 C 
ATOM     20  C   UNL A   1      33.199  15.413  25.223  1.00  0.00     0.056 C 
ENDBRANCH  16  17
ENDBRANCH  14  16
ENDBRANCH   9  14
BRANCH  13  21
ATOM     21  C   UNL A   1      33.398  23.935  24.337  1.00  0.00     0.187 A 
ATOM     22  N   UNL A   1      32.951  24.748  25.270  1.00  0.00    -0.220 NA
ATOM     23  S   UNL A   1      33.593  24.667  22.787  1.00  0.00    -0.097 S 
ATOM     24  C   UNL A   1      32.666  26.000  24.744  1.00  0.00     0.084 A 
ATOM     25  C   UNL A   1      32.965  26.155  23.391  1.00  0.00     0.056 A 
ATOM     26  C   UNL A   1      32.124  27.095  25.452  1.00  0.00     0.030 A 
ATOM     27  C   UNL A   1      32.767  27.379  22.726  1.00  0.00     0.021 A 
ATOM     28  C   UNL A   1      31.938  28.321  24.804  1.00  0.00     0.002 A 
ATOM     29  C   UNL A   1      32.265  28.461  23.459  1.00  0.00     0.002 A 
ENDBRANCH  13  21
ENDBRANCH   6   8
ENDBRANCH   5   6
ENDBRANCH   4   5
ENDBRANCH   3   4
ENDBRANCH   2   3
ENDBRANCH   1   2
BRANCH   1  30
ATOM     30  C   UNL A   1      41.016  19.886  27.264  1.00  0.00     0.188 C 
BRANCH  30  31
ATOM     31  O   UNL A   1      42.396  19.692  27.014  1.00  0.00    -0.376 OA
BRANCH  31  32
ATOM     32  C   UNL A   1      42.829  19.814  25.668  1.00  0.00     0.202 C 
BRANCH  32  33
ATOM     33  C   UNL A   1      44.035  20.749  25.549  1.00  0.00     0.261 C 
BRANCH  33  34
ATOM     34  O   UNL A   1      43.809  21.999  26.228  1.00  0.00    -0.460 OA
BRANCH  34  35
ATOM     35  C   UNL A   1      43.435  23.018  25.414  1.00  0.00     0.338 C 
ATOM     36  O   UNL A   1      43.378  23.002  24.209  1.00  0.00    -0.246 OA
BRANCH  35  37
ATOM     37  C   UNL A   1      42.949  24.124  26.259  1.00  0.00     0.060 A 
ATOM     38  C   UNL A   1      43.293  25.448  25.949  1.00  0.00     0.016 A 
ATOM     39  C   UNL A   1      42.168  23.833  27.372  1.00  0.00     0.016 A 
ATOM     40  C   UNL A   1      42.884  26.489  26.785  1.00  0.00     0.010 A 
ATOM     41  C   UNL A   1      41.764  24.870  28.206  1.00  0.00     0.010 A 
ATOM     42  C   UNL A   1      42.137  26.199  27.932  1.00  0.00    -0.014 A 
BRANCH  42  43
ATOM     43  C   UNL A   1      41.805  27.237  28.932  1.00  0.00     0.031 A 
ATOM     44  C   UNL A   1      42.606  27.300  30.201  1.00  0.00     0.074 A 
ATOM     45  C   UNL A   1      40.749  28.050  28.753  1.00  0.00     0.049 A 
ATOM     46  N   UNL A   1      42.349  27.937  31.313  1.00  0.00    -0.248 NA
ATOM     47  C   UNL A   1      43.862  26.532  30.216  1.00  0.00     0.031 C 
ATOM     48  C   UNL A   1      39.933  28.128  27.544  1.00  0.00     0.029 A 
ATOM     49  N   UNL A   1      40.165  28.943  29.616  1.00  0.00    -0.354 N 
ATOM     50  C   UNL A   1      43.398  27.631  32.169  1.00  0.00     0.074 A 
ATOM     51  C   UNL A   1      44.289  26.743  31.452  1.00  0.00     0.031 C 
ATOM     52  C   UNL A   1      38.933  29.002  27.751  1.00  0.00     0.029 A 
ATOM     53  C   UNL A   1      39.009  29.497  29.124  1.00  0.00     0.049 A 
ATOM     54  H   UNL A   1      40.538  29.165  30.500  1.00  0.00     0.167 HD
ATOM     55  C   UNL A   1      43.597  28.049  33.442  1.00  0.00     0.031 A 
ATOM     56  C   UNL A   1      38.092  30.274  29.731  1.00  0.00     0.031 A 
ATOM     57  C   UNL A   1      42.695  28.911  34.158  1.00  0.00     0.049 A 
ATOM     58  C   UNL A   1      38.281  30.644  31.178  1.00  0.00     0.074 A 
ATOM     59  C   UNL A   1      42.791  29.374  35.458  1.00  0.00     0.029 A 
ATOM     60  N   UNL A   1      41.529  29.440  33.628  1.00  0.00    -0.354 N 
ATOM     61  N   UNL A   1      39.260  30.330  31.991  1.00  0.00    -0.248 NA
ATOM     62  C   UNL A   1      37.231  31.471  31.791  1.00  0.00     0.031 C 
ATOM     63  C   UNL A   1      41.659  30.151  35.728  1.00  0.00     0.029 A 
ATOM     64  C   UNL A   1      40.887  30.215  34.580  1.00  0.00     0.049 A 
ATOM     65  H   UNL A   1      41.204  29.288  32.711  1.00  0.00     0.167 HD
ATOM     66  C   UNL A   1      38.960  30.945  33.201  1.00  0.00     0.074 A 
ATOM     67  C   UNL A   1      37.714  31.659  33.011  1.00  0.00     0.031 C 
ATOM     68  C   UNL A   1      39.652  30.922  34.367  1.00  0.00     0.031 A 
BRANCH  55  69
ATOM     69  C   UNL A   1      44.820  27.543  34.150  1.00  0.00    -0.014 A 
ATOM     70  C   UNL A   1      44.771  26.394  34.956  1.00  0.00     0.009 A 
ATOM     71  C   UNL A   1      46.046  28.208  33.989  1.00  0.00     0.009 A 
ATOM     72  C   UNL A   1      45.920  25.941  35.609  1.00  0.00     0.001 A 
ATOM     73  C   UNL A   1      47.196  27.738  34.623  1.00  0.00     0.001 A 
ATOM     74  C   UNL A   1      47.131  26.609  35.439  1.00  0.00     0.000 A 
ENDBRANCH  55  69
BRANCH  56  75
ATOM     75  C   UNL A   1      36.882  30.722  28.991  1.00  0.00    -0.014 A 
ATOM     76  C   UNL A   1      35.887  29.801  28.630  1.00  0.00     0.009 A 
ATOM     77  C   UNL A   1      36.732  32.065  28.614  1.00  0.00     0.009 A 
ATOM     78  C   UNL A   1      34.780  30.212  27.884  1.00  0.00     0.001 A 
ATOM     79  C   UNL A   1      35.610  32.479  27.894  1.00  0.00     0.001 A 
ATOM     80  C   UNL A   1      34.640  31.551  27.521  1.00  0.00     0.000 A 
ENDBRANCH  56  75
BRANCH  68  81
ATOM     81  C   UNL A   1      39.104  31.734  35.506  1.00  0.00    -0.014 A 
ATOM     82  C   UNL A   1      38.289  31.155  36.490  1.00  0.00     0.009 A 
ATOM     83  C   UNL A   1      39.439  33.093  35.611  1.00  0.00     0.009 A 
ATOM     84  C   UNL A   1      37.795  31.931  37.541  1.00  0.00     0.001 A 
ATOM     85  C   UNL A   1      38.965  33.859  36.676  1.00  0.00     0.001 A 
ATOM     86  C   UNL A   1      38.137  33.280  37.634  1.00  0.00     0.000 A 
ENDBRANCH  68  81
ENDBRANCH  42  43
ENDBRANCH  35  37
ENDBRANCH  34  35
ENDBRANCH  33  34
ENDBRANCH  32  33
ENDBRANCH  31  32
ENDBRANCH  30  31
ENDBRANCH   1  30
TORSDOF 21
ENDMDL
MODEL 2
REMARK VINA RESULT:     -10.6      4.161      9.855
REMARK SMILES CC(C)(C)OC(=O)N1CCN(c2nc3ccccc3s2)[C@H](C(=O)OCCOCCOCCOC(=O)c2ccc(-c3c4nc(c(-c5ccccc5)c5ccc([nH]5)c(-c5ccccc5)c5nc(c(-c6ccccc6)c6ccc3[nH]6)C=C5)C=C4)cc2)C1
REMARK SMILES IDX 28 1 27 2 26 3 25 4 24 5 22 6 23 7 21 8 8 9 9 10 84 11 10 12
REMARK SMILES IDX 11 13 6 14 7 15 5 16 2 17 1 18 3 19 4 20 12 21 13 22 20 23
REMARK SMILES IDX 14 24 19 25 15 26 18 27 16 28 17 29 29 30 30 31 31 32 32 33
REMARK SMILES IDX 33 34 34 35 35 36 36 37 37 38 83 39 38 40 82 41 39 42 40 43
REMARK SMILES IDX 41 44 76 45 42 46 81 47 75 48 77 49 43 50 80 51 74 52 73 53
REMARK SMILES IDX 44 55 66 56 51 57 65 58 52 59 55 60 64 61 78 62 53 63 54 64
REMARK SMILES IDX 63 66 79 67 56 68 45 69 46 70 50 71 47 72 49 73 48 74 67 75
REMARK SMILES IDX 68 76 72 77 69 78 71 79 70 80 57 81 58 82 62 83 59 84 61 85
REMARK SMILES IDX 60 86
REMARK H PARENT 77 54 55 65
REMARK Flexibility Score: inf
ROOT
ATOM      1  C   UNL A   1      34.479  32.443  28.893  1.00  0.00     0.188 C 
ENDROOT
BRANCH   1   2
ATOM      2  O   UNL A   1      33.947  31.793  27.751  1.00  0.00    -0.376 OA
BRANCH   2   3
ATOM      3  C   UNL A   1      34.313  30.449  27.466  1.00  0.00     0.202 C 
BRANCH   3   4
ATOM      4  C   UNL A   1      33.357  29.580  26.638  1.00  0.00     0.261 C 
BRANCH   4   5
ATOM      5  O   UNL A   1      33.146  28.207  27.063  1.00  0.00    -0.462 OA
BRANCH   5   6
ATOM      6  C   UNL A   1      32.087  27.612  26.469  1.00  0.00     0.330 C 
ATOM      7  O   UNL A   1      31.161  27.112  27.116  1.00  0.00    -0.250 OA
BRANCH   6   8
ATOM      8  C   UNL A   1      32.116  27.371  24.977  1.00  0.00     0.214 C 
ATOM      9  N   UNL A   1      30.693  28.020  23.067  1.00  0.00    -0.304 N 
ATOM     10  C   UNL A   1      31.187  26.921  22.240  1.00  0.00     0.144 C 
ATOM     11  C   UNL A   1      30.703  27.774  24.510  1.00  0.00     0.160 C 
ATOM     12  C   UNL A   1      32.533  26.381  22.771  1.00  0.00     0.141 C 
ATOM     13  N   UNL A   1      32.456  26.126  24.241  1.00  0.00    -0.331 N 
BRANCH   9  14
ATOM     14  C   UNL A   1      30.259  29.202  22.514  1.00  0.00     0.410 C 
ATOM     15  O   UNL A   1      30.656  29.636  21.444  1.00  0.00    -0.224 OA
BRANCH  14  16
ATOM     16  O   UNL A   1      29.366  29.813  23.327  1.00  0.00    -0.444 OA
BRANCH  16  17
ATOM     17  C   UNL A   1      28.027  30.192  22.930  1.00  0.00     0.106 C 
ATOM     18  C   UNL A   1      27.198  28.907  23.078  1.00  0.00     0.056 C 
ATOM     19  C   UNL A   1      28.084  30.595  21.456  1.00  0.00     0.056 C 
ATOM     20  C   UNL A   1      27.389  31.284  23.791  1.00  0.00     0.056 C 
ENDBRANCH  16  17
ENDBRANCH  14  16
ENDBRANCH   9  14
BRANCH  13  21
ATOM     21  C   UNL A   1      33.238  25.109  24.673  1.00  0.00     0.187 A 
ATOM     22  N   UNL A   1      34.548  25.199  24.742  1.00  0.00    -0.220 NA
ATOM     23  S   UNL A   1      32.630  23.496  24.742  1.00  0.00    -0.097 S 
ATOM     24  C   UNL A   1      35.134  23.941  24.773  1.00  0.00     0.084 A 
ATOM     25  C   UNL A   1      34.238  22.873  24.792  1.00  0.00     0.056 A 
ATOM     26  C   UNL A   1      36.519  23.669  24.795  1.00  0.00     0.030 A 
ATOM     27  C   UNL A   1      34.680  21.539  24.863  1.00  0.00     0.021 A 
ATOM     28  C   UNL A   1      36.969  22.348  24.882  1.00  0.00     0.002 A 
ATOM     29  C   UNL A   1      36.057  21.297  24.924  1.00  0.00     0.002 A 
ENDBRANCH  13  21
ENDBRANCH   6   8
ENDBRANCH   5   6
ENDBRANCH   4   5
ENDBRANCH   3   4
ENDBRANCH   2   3
ENDBRANCH   1   2
BRANCH   1  30
ATOM     30  C   UNL A   1      34.691  33.962  28.877  1.00  0.00     0.188 C 
BRANCH  30  31
ATOM     31  O   UNL A   1      33.475  34.687  28.888  1.00  0.00    -0.376 OA
BRANCH  31  32
ATOM     32  C   UNL A   1      33.572  36.103  28.922  1.00  0.00     0.202 C 
BRANCH  32  33
ATOM     33  C   UNL A   1      32.583  36.709  29.921  1.00  0.00     0.261 C 
BRANCH  33  34
ATOM     34  O   UNL A   1      33.215  37.004  31.181  1.00  0.00    -0.460 OA
BRANCH  34  35
ATOM     35  C   UNL A   1      32.826  36.201  32.204  1.00  0.00     0.338 C 
ATOM     36  O   UNL A   1      31.755  36.201  32.760  1.00  0.00    -0.246 OA
BRANCH  35  37
ATOM     37  C   UNL A   1      33.886  35.202  32.430  1.00  0.00     0.060 A 
ATOM     38  C   UNL A   1      33.558  33.927  32.913  1.00  0.00     0.016 A 
ATOM     39  C   UNL A   1      35.209  35.550  32.179  1.00  0.00     0.016 A 
ATOM     40  C   UNL A   1      34.568  33.003  33.186  1.00  0.00     0.010 A 
ATOM     41  C   UNL A   1      36.215  34.629  32.453  1.00  0.00     0.010 A 
ATOM     42  C   UNL A   1      35.905  33.362  32.980  1.00  0.00    -0.014 A 
BRANCH  42  43
ATOM     43  C   UNL A   1      37.023  32.484  33.390  1.00  0.00     0.031 A 
ATOM     44  C   UNL A   1      37.728  32.772  34.684  1.00  0.00     0.074 A 
ATOM     45  C   UNL A   1      37.460  31.505  32.580  1.00  0.00     0.049 A 
ATOM     46  N   UNL A   1      38.871  32.317  35.124  1.00  0.00    -0.248 NA
ATOM     47  C   UNL A   1      37.054  33.708  35.599  1.00  0.00     0.031 C 
ATOM     48  C   UNL A   1      36.825  31.088  31.332  1.00  0.00     0.029 A 
ATOM     49  N   UNL A   1      38.572  30.706  32.679  1.00  0.00    -0.354 N 
ATOM     50  C   UNL A   1      39.066  32.926  36.357  1.00  0.00     0.074 A 
ATOM     51  C   UNL A   1      37.929  33.791  36.590  1.00  0.00     0.031 C 
ATOM     52  C   UNL A   1      37.574  30.128  30.764  1.00  0.00     0.029 A 
ATOM     53  C   UNL A   1      38.766  29.906  31.580  1.00  0.00     0.049 A 
ATOM     54  H   UNL A   1      39.170  30.707  33.461  1.00  0.00     0.167 HD
ATOM     55  C   UNL A   1      40.104  32.779  37.214  1.00  0.00     0.031 A 
ATOM     56  C   UNL A   1      39.811  29.125  31.249  1.00  0.00     0.031 A 
ATOM     57  C   UNL A   1      41.243  31.937  36.966  1.00  0.00     0.049 A 
ATOM     58  C   UNL A   1      41.001  29.056  32.170  1.00  0.00     0.074 A 
ATOM     59  C   UNL A   1      42.360  31.737  37.759  1.00  0.00     0.029 A 
ATOM     60  N   UNL A   1      41.408  31.153  35.835  1.00  0.00    -0.354 N 
ATOM     61  N   UNL A   1      41.192  29.654  33.321  1.00  0.00    -0.248 NA
ATOM     62  C   UNL A   1      42.121  28.207  31.739  1.00  0.00     0.031 C 
ATOM     63  C   UNL A   1      43.220  30.862  37.086  1.00  0.00     0.029 A 
ATOM     64  C   UNL A   1      42.615  30.478  35.901  1.00  0.00     0.049 A 
ATOM     65  H   UNL A   1      40.763  31.087  35.094  1.00  0.00     0.167 HD
ATOM     66  C   UNL A   1      42.439  29.232  33.765  1.00  0.00     0.074 A 
ATOM     67  C   UNL A   1      42.953  28.317  32.765  1.00  0.00     0.031 C 
ATOM     68  C   UNL A   1      43.103  29.567  34.899  1.00  0.00     0.031 A 
BRANCH  55  69
ATOM     69  C   UNL A   1      40.067  33.582  38.483  1.00  0.00    -0.014 A 
ATOM     70  C   UNL A   1      40.614  34.874  38.543  1.00  0.00     0.009 A 
ATOM     71  C   UNL A   1      39.454  33.050  39.628  1.00  0.00     0.009 A 
ATOM     72  C   UNL A   1      40.573  35.603  39.733  1.00  0.00     0.001 A 
ATOM     73  C   UNL A   1      39.393  33.792  40.809  1.00  0.00     0.001 A 
ATOM     74  C   UNL A   1      39.959  35.065  40.862  1.00  0.00     0.000 A 
ENDBRANCH  55  69
BRANCH  56  75
ATOM     75  C   UNL A   1      39.809  28.376  29.965  1.00  0.00    -0.014 A 
ATOM     76  C   UNL A   1      39.376  27.042  29.918  1.00  0.00     0.009 A 
ATOM     77  C   UNL A   1      40.272  28.980  28.785  1.00  0.00     0.009 A 
ATOM     78  C   UNL A   1      39.432  26.321  28.723  1.00  0.00     0.001 A 
ATOM     79  C   UNL A   1      40.298  28.267  27.585  1.00  0.00     0.001 A 
ATOM     80  C   UNL A   1      39.888  26.936  27.557  1.00  0.00     0.000 A 
ENDBRANCH  56  75
BRANCH  68  81
ATOM     81  C   UNL A   1      44.428  28.904  35.141  1.00  0.00    -0.014 A 
ATOM     82  C   UNL A   1      44.512  27.634  35.732  1.00  0.00     0.009 A 
ATOM     83  C   UNL A   1      45.608  29.548  34.739  1.00  0.00     0.009 A 
ATOM     84  C   UNL A   1      45.757  27.037  35.944  1.00  0.00     0.001 A 
ATOM     85  C   UNL A   1      46.848  28.938  34.927  1.00  0.00     0.001 A 
ATOM     86  C   UNL A   1      46.923  27.688  35.538  1.00  0.00     0.000 A 
ENDBRANCH  68  81
ENDBRANCH  42  43
ENDBRANCH  35  37
ENDBRANCH  34  35
ENDBRANCH  33  34
ENDBRANCH  32  33
ENDBRANCH  31  32
ENDBRANCH  30  31
ENDBRANCH   1  30
TORSDOF 21
ENDMDL
MODEL 3
REMARK VINA RESULT:     -10.6      3.882      8.977
REMARK SMILES CC(C)(C)OC(=O)N1CCN(c2nc3ccccc3s2)[C@H](C(=O)OCCOCCOCCOC(=O)c2ccc(-c3c4nc(c(-c5ccccc5)c5ccc([nH]5)c(-c5ccccc5)c5nc(c(-c6ccccc6)c6ccc3[nH]6)C=C5)C=C4)cc2)C1
REMARK SMILES IDX 28 1 27 2 26 3 25 4 24 5 22 6 23 7 21 8 8 9 9 10 84 11 10 12
REMARK SMILES IDX 11 13 6 14 7 15 5 16 2 17 1 18 3 19 4 20 12 21 13 22 20 23
REMARK SMILES IDX 14 24 19 25 15 26 18 27 16 28 17 29 29 30 30 31 31 32 32 33
REMARK SMILES IDX 33 34 34 35 35 36 36 37 37 38 83 39 38 40 82 41 39 42 40 43
REMARK SMILES IDX 41 44 76 45 42 46 81 47 75 48 77 49 43 50 80 51 74 52 73 53
REMARK SMILES IDX 44 55 66 56 51 57 65 58 52 59 55 60 64 61 78 62 53 63 54 64
REMARK SMILES IDX 63 66 79 67 56 68 45 69 46 70 50 71 47 72 49 73 48 74 67 75
REMARK SMILES IDX 68 76 72 77 69 78 71 79 70 80 57 81 58 82 62 83 59 84 61 85
REMARK SMILES IDX 60 86
REMARK H PARENT 77 54 55 65
REMARK Flexibility Score: inf
ROOT
ATOM      1  C   UNL A   1      34.425  32.219  28.701  1.00  0.00     0.188 C 
ENDROOT
BRANCH   1   2
ATOM      2  O   UNL A   1      33.438  31.549  27.933  1.00  0.00    -0.376 OA
BRANCH   2   3
ATOM      3  C   UNL A   1      33.825  30.536  27.013  1.00  0.00     0.202 C 
BRANCH   3   4
ATOM      4  C   UNL A   1      32.734  29.781  26.240  1.00  0.00     0.261 C 
BRANCH   4   5
ATOM      5  O   UNL A   1      32.685  28.335  26.370  1.00  0.00    -0.462 OA
BRANCH   5   6
ATOM      6  C   UNL A   1      33.249  27.678  25.331  1.00  0.00     0.330 C 
ATOM      7  O   UNL A   1      34.045  28.222  24.559  1.00  0.00    -0.250 OA
BRANCH   6   8
ATOM      8  C   UNL A   1      32.752  26.296  24.975  1.00  0.00     0.214 C 
ATOM      9  N   UNL A   1      33.772  24.054  24.813  1.00  0.00    -0.304 N 
ATOM     10  C   UNL A   1      32.720  23.566  23.924  1.00  0.00     0.144 C 
ATOM     11  C   UNL A   1      34.045  25.489  24.736  1.00  0.00     0.160 C 
ATOM     12  C   UNL A   1      31.455  24.446  24.018  1.00  0.00     0.141 C 
ATOM     13  N   UNL A   1      31.808  25.893  23.901  1.00  0.00    -0.331 N 
BRANCH   9  14
ATOM     14  C   UNL A   1      34.448  23.210  25.664  1.00  0.00     0.410 C 
ATOM     15  O   UNL A   1      34.441  23.326  26.880  1.00  0.00    -0.224 OA
BRANCH  14  16
ATOM     16  O   UNL A   1      35.128  22.270  24.967  1.00  0.00    -0.444 OA
BRANCH  16  17
ATOM     17  C   UNL A   1      36.505  22.409  24.540  1.00  0.00     0.106 C 
ATOM     18  C   UNL A   1      37.092  23.487  25.462  1.00  0.00     0.056 C 
ATOM     19  C   UNL A   1      36.486  22.924  23.100  1.00  0.00     0.056 C 
ATOM     20  C   UNL A   1      37.348  21.139  24.675  1.00  0.00     0.056 C 
ENDBRANCH  16  17
ENDBRANCH  14  16
ENDBRANCH   9  14
BRANCH  13  21
ATOM     21  C   UNL A   1      30.850  26.658  23.326  1.00  0.00     0.187 A 
ATOM     22  N   UNL A   1      31.128  27.705  22.581  1.00  0.00    -0.220 NA
ATOM     23  S   UNL A   1      29.217  26.590  23.879  1.00  0.00    -0.097 S 
ATOM     24  C   UNL A   1      30.035  28.555  22.488  1.00  0.00     0.084 A 
ATOM     25  C   UNL A   1      28.881  28.106  23.130  1.00  0.00     0.056 A 
ATOM     26  C   UNL A   1      30.000  29.793  21.811  1.00  0.00     0.030 A 
ATOM     27  C   UNL A   1      27.681  28.840  23.092  1.00  0.00     0.021 A 
ATOM     28  C   UNL A   1      28.808  30.523  21.753  1.00  0.00     0.002 A 
ATOM     29  C   UNL A   1      27.661  30.045  22.380  1.00  0.00     0.002 A 
ENDBRANCH  13  21
ENDBRANCH   6   8
ENDBRANCH   5   6
ENDBRANCH   4   5
ENDBRANCH   3   4
ENDBRANCH   2   3
ENDBRANCH   1   2
BRANCH   1  30
ATOM     30  C   UNL A   1      34.759  33.685  28.400  1.00  0.00     0.188 C 
BRANCH  30  31
ATOM     31  O   UNL A   1      33.607  34.480  28.190  1.00  0.00    -0.376 OA
BRANCH  31  32
ATOM     32  C   UNL A   1      33.605  35.774  28.773  1.00  0.00     0.202 C 
BRANCH  32  33
ATOM     33  C   UNL A   1      32.538  35.897  29.864  1.00  0.00     0.261 C 
BRANCH  33  34
ATOM     34  O   UNL A   1      32.940  36.811  30.902  1.00  0.00    -0.460 OA
BRANCH  34  35
ATOM     35  C   UNL A   1      32.787  36.330  32.161  1.00  0.00     0.338 C 
ATOM     36  O   UNL A   1      31.888  36.576  32.928  1.00  0.00    -0.246 OA
BRANCH  35  37
ATOM     37  C   UNL A   1      33.831  35.316  32.395  1.00  0.00     0.060 A 
ATOM     38  C   UNL A   1      33.480  34.041  32.861  1.00  0.00     0.016 A 
ATOM     39  C   UNL A   1      35.161  35.650  32.168  1.00  0.00     0.016 A 
ATOM     40  C   UNL A   1      34.475  33.102  33.141  1.00  0.00     0.010 A 
ATOM     41  C   UNL A   1      36.153  34.715  32.450  1.00  0.00     0.010 A 
ATOM     42  C   UNL A   1      35.819  33.447  32.960  1.00  0.00    -0.014 A 
BRANCH  42  43
ATOM     43  C   UNL A   1      36.920  32.552  33.380  1.00  0.00     0.031 A 
ATOM     44  C   UNL A   1      37.618  32.829  34.680  1.00  0.00     0.074 A 
ATOM     45  C   UNL A   1      37.349  31.567  32.573  1.00  0.00     0.049 A 
ATOM     46  N   UNL A   1      38.750  32.356  35.130  1.00  0.00    -0.248 NA
ATOM     47  C   UNL A   1      36.949  33.775  35.589  1.00  0.00     0.031 C 
ATOM     48  C   UNL A   1      36.720  31.160  31.319  1.00  0.00     0.029 A 
ATOM     49  N   UNL A   1      38.448  30.751  32.682  1.00  0.00    -0.354 N 
ATOM     50  C   UNL A   1      38.942  32.961  36.365  1.00  0.00     0.074 A 
ATOM     51  C   UNL A   1      37.817  33.844  36.588  1.00  0.00     0.031 C 
ATOM     52  C   UNL A   1      37.459  30.188  30.757  1.00  0.00     0.029 A 
ATOM     53  C   UNL A   1      38.640  29.949  31.584  1.00  0.00     0.049 A 
ATOM     54  H   UNL A   1      39.039  30.742  33.470  1.00  0.00     0.167 HD
ATOM     55  C   UNL A   1      39.970  32.799  37.232  1.00  0.00     0.031 A 
ATOM     56  C   UNL A   1      39.676  29.152  31.262  1.00  0.00     0.031 A 
ATOM     57  C   UNL A   1      41.099  31.940  36.994  1.00  0.00     0.049 A 
ATOM     58  C   UNL A   1      40.856  29.065  32.193  1.00  0.00     0.074 A 
ATOM     59  C   UNL A   1      42.205  31.722  37.796  1.00  0.00     0.029 A 
ATOM     60  N   UNL A   1      41.262  31.154  35.864  1.00  0.00    -0.354 N 
ATOM     61  N   UNL A   1      41.046  29.659  33.347  1.00  0.00    -0.248 NA
ATOM     62  C   UNL A   1      41.967  28.199  31.772  1.00  0.00     0.031 C 
ATOM     63  C   UNL A   1      43.058  30.835  37.131  1.00  0.00     0.029 A 
ATOM     64  C   UNL A   1      42.457  30.460  35.940  1.00  0.00     0.049 A 
ATOM     65  H   UNL A   1      40.622  31.098  35.117  1.00  0.00     0.167 HD
ATOM     66  C   UNL A   1      42.283  29.218  33.802  1.00  0.00     0.074 A 
ATOM     67  C   UNL A   1      42.791  28.296  32.806  1.00  0.00     0.031 C 
ATOM     68  C   UNL A   1      42.941  29.543  34.942  1.00  0.00     0.031 A 
BRANCH  55  69
ATOM     69  C   UNL A   1      39.934  33.602  38.501  1.00  0.00    -0.014 A 
ATOM     70  C   UNL A   1      40.510  34.880  38.569  1.00  0.00     0.009 A 
ATOM     71  C   UNL A   1      39.292  33.084  39.636  1.00  0.00     0.009 A 
ATOM     72  C   UNL A   1      40.469  35.609  39.760  1.00  0.00     0.001 A 
ATOM     73  C   UNL A   1      39.231  33.826  40.817  1.00  0.00     0.001 A 
ATOM     74  C   UNL A   1      39.827  35.085  40.880  1.00  0.00     0.000 A 
ENDBRANCH  55  69
BRANCH  56  75
ATOM     75  C   UNL A   1      39.675  28.404  29.977  1.00  0.00    -0.014 A 
ATOM     76  C   UNL A   1      39.222  27.076  29.926  1.00  0.00     0.009 A 
ATOM     77  C   UNL A   1      40.156  29.001  28.803  1.00  0.00     0.009 A 
ATOM     78  C   UNL A   1      39.277  26.355  28.731  1.00  0.00     0.001 A 
ATOM     79  C   UNL A   1      40.183  28.288  27.603  1.00  0.00     0.001 A 
ATOM     80  C   UNL A   1      39.753  26.963  27.570  1.00  0.00     0.000 A 
ENDBRANCH  56  75
BRANCH  68  81
ATOM     81  C   UNL A   1      44.253  28.859  35.195  1.00  0.00    -0.014 A 
ATOM     82  C   UNL A   1      44.320  27.635  35.877  1.00  0.00     0.009 A 
ATOM     83  C   UNL A   1      45.438  29.436  34.713  1.00  0.00     0.009 A 
ATOM     84  C   UNL A   1      45.553  27.017  36.098  1.00  0.00     0.001 A 
ATOM     85  C   UNL A   1      46.666  28.804  34.912  1.00  0.00     0.001 A 
ATOM     86  C   UNL A   1      46.724  27.601  35.612  1.00  0.00     0.000 A 
ENDBRANCH  68  81
ENDBRANCH  42  43
ENDBRANCH  35  37
ENDBRANCH  34  35
ENDBRANCH  33  34
ENDBRANCH  32  33
ENDBRANCH  31  32
ENDBRANCH  30  31
ENDBRANCH   1  30
TORSDOF 21
ENDMDL
