MODEL 1
REMARK VINA RESULT:      -9.9      0.000      0.000
REMARK SMILES O=C(OCCOCCOCCOC(=O)c1cccnc1Nc1cccc(C(F)(F)F)c1)c1ccc(-c2c3nc(c(-c4ccccc4)c4ccc([nH]4)c(-c4ccccc4)c4nc(c(-c5ccccc5)c5ccc2[nH]5)C=C4)C=C3)cc1
REMARK SMILES IDX 8 1 7 2 6 3 5 4 4 5 3 6 2 7 1 8 32 9 33 10 79 11 34 12 78 13
REMARK SMILES IDX 35 14 36 15 37 16 72 17 38 18 77 19 71 20 73 21 39 22 76 23
REMARK SMILES IDX 70 24 69 25 40 27 62 28 47 29 61 30 48 31 51 32 60 33 74 34
REMARK SMILES IDX 49 35 50 36 59 38 75 39 52 40 41 41 42 42 46 43 43 44 45 45
REMARK SMILES IDX 44 46 63 47 64 48 68 49 65 50 67 51 66 52 53 53 54 54 58 55
REMARK SMILES IDX 55 56 57 57 56 58 9 59 10 60 11 61 12 62 13 63 14 64 15 65
REMARK SMILES IDX 16 66 20 67 17 68 19 69 18 70 21 71 22 73 23 74 31 75 24 76
REMARK SMILES IDX 26 77 25 78 27 79 28 80 29 81 30 82
REMARK H PARENT 73 26 51 37 21 72
REMARK Flexibility Score: inf
ROOT
ATOM      1  C   UNL A   1      36.349  23.558  24.991  1.00  0.00     0.188 C 
ENDROOT
BRANCH   1   2
ATOM      2  C   UNL A   1      36.182  22.300  24.140  1.00  0.00     0.188 C 
BRANCH   2   3
ATOM      3  O   UNL A   1      37.449  21.669  23.927  1.00  0.00    -0.376 OA
BRANCH   3   4
ATOM      4  C   UNL A   1      37.627  20.473  24.686  1.00  0.00     0.202 C 
BRANCH   4   5
ATOM      5  C   UNL A   1      38.696  20.565  25.785  1.00  0.00     0.261 C 
BRANCH   5   6
ATOM      6  O   UNL A   1      39.760  19.612  25.607  1.00  0.00    -0.460 OA
BRANCH   6   7
ATOM      7  C   UNL A   1      41.065  19.763  25.944  1.00  0.00     0.338 C 
ATOM      8  O   UNL A   1      41.857  18.860  25.681  1.00  0.00    -0.246 OA
BRANCH   7   9
ATOM      9  C   UNL A   1      41.599  20.996  26.601  1.00  0.00     0.060 A 
ATOM     10  C   UNL A   1      41.730  21.155  27.978  1.00  0.00     0.016 A 
ATOM     11  C   UNL A   1      42.051  22.041  25.775  1.00  0.00     0.016 A 
ATOM     12  C   UNL A   1      42.117  22.370  28.528  1.00  0.00     0.010 A 
ATOM     13  C   UNL A   1      42.538  23.235  26.323  1.00  0.00     0.010 A 
ATOM     14  C   UNL A   1      42.512  23.430  27.708  1.00  0.00    -0.014 A 
BRANCH  14  15
ATOM     15  C   UNL A   1      42.767  24.746  28.343  1.00  0.00     0.031 A 
ATOM     16  C   UNL A   1      44.185  25.165  28.614  1.00  0.00     0.074 A 
ATOM     17  C   UNL A   1      41.758  25.623  28.501  1.00  0.00     0.049 A 
ATOM     18  N   UNL A   1      44.633  26.301  29.084  1.00  0.00    -0.248 NA
ATOM     19  C   UNL A   1      45.239  24.187  28.299  1.00  0.00     0.031 C 
ATOM     20  C   UNL A   1      40.353  25.357  28.183  1.00  0.00     0.029 A 
ATOM     21  N   UNL A   1      41.764  26.934  28.905  1.00  0.00    -0.354 N 
ATOM     22  C   UNL A   1      46.015  26.163  29.140  1.00  0.00     0.074 A 
ATOM     23  C   UNL A   1      46.331  24.832  28.675  1.00  0.00     0.031 C 
ATOM     24  C   UNL A   1      39.651  26.490  28.329  1.00  0.00     0.029 A 
ATOM     25  C   UNL A   1      40.533  27.538  28.825  1.00  0.00     0.049 A 
ATOM     26  H   UNL A   1      42.573  27.397  29.221  1.00  0.00     0.167 HD
ATOM     27  C   UNL A   1      46.941  27.068  29.535  1.00  0.00     0.031 A 
ATOM     28  C   UNL A   1      40.150  28.793  29.127  1.00  0.00     0.031 A 
ATOM     29  C   UNL A   1      46.625  28.390  29.997  1.00  0.00     0.049 A 
ATOM     30  C   UNL A   1      41.186  29.758  29.624  1.00  0.00     0.074 A 
ATOM     31  C   UNL A   1      47.473  29.356  30.506  1.00  0.00     0.029 A 
ATOM     32  N   UNL A   1      45.350  28.935  29.988  1.00  0.00    -0.354 N 
ATOM     33  N   UNL A   1      42.481  29.584  29.746  1.00  0.00    -0.248 NA
ATOM     34  C   UNL A   1      40.712  31.086  30.034  1.00  0.00     0.031 C 
ATOM     35  C   UNL A   1      46.705  30.481  30.830  1.00  0.00     0.029 A 
ATOM     36  C   UNL A   1      45.386  30.225  30.487  1.00  0.00     0.049 A 
ATOM     37  H   UNL A   1      44.540  28.473  29.675  1.00  0.00     0.167 HD
ATOM     38  C   UNL A   1      42.975  30.776  30.253  1.00  0.00     0.074 A 
ATOM     39  C   UNL A   1      41.847  31.679  30.377  1.00  0.00     0.031 C 
ATOM     40  C   UNL A   1      44.245  31.093  30.602  1.00  0.00     0.031 A 
BRANCH  27  41
ATOM     41  C   UNL A   1      48.370  26.615  29.525  1.00  0.00    -0.014 A 
ATOM     42  C   UNL A   1      49.193  26.830  28.408  1.00  0.00     0.009 A 
ATOM     43  C   UNL A   1      48.890  25.931  30.634  1.00  0.00     0.009 A 
ATOM     44  C   UNL A   1      50.498  26.335  28.389  1.00  0.00     0.001 A 
ATOM     45  C   UNL A   1      50.202  25.455  30.620  1.00  0.00     0.001 A 
ATOM     46  C   UNL A   1      51.002  25.649  29.494  1.00  0.00     0.000 A 
ENDBRANCH  27  41
BRANCH  28  47
ATOM     47  C   UNL A   1      38.722  29.193  29.012  1.00  0.00    -0.014 A 
ATOM     48  C   UNL A   1      37.849  29.082  30.104  1.00  0.00     0.009 A 
ATOM     49  C   UNL A   1      38.219  29.672  27.790  1.00  0.00     0.009 A 
ATOM     50  C   UNL A   1      36.498  29.421  29.968  1.00  0.00     0.001 A 
ATOM     51  C   UNL A   1      36.876  30.037  27.666  1.00  0.00     0.001 A 
ATOM     52  C   UNL A   1      36.016  29.902  28.752  1.00  0.00     0.000 A 
ENDBRANCH  28  47
BRANCH  40  53
ATOM     53  C   UNL A   1      44.467  32.471  31.147  1.00  0.00    -0.014 A 
ATOM     54  C   UNL A   1      44.280  32.741  32.512  1.00  0.00     0.009 A 
ATOM     55  C   UNL A   1      44.890  33.501  30.294  1.00  0.00     0.009 A 
ATOM     56  C   UNL A   1      44.485  34.029  33.007  1.00  0.00     0.001 A 
ATOM     57  C   UNL A   1      45.115  34.782  30.797  1.00  0.00     0.001 A 
ATOM     58  C   UNL A   1      44.904  35.047  32.150  1.00  0.00     0.000 A 
ENDBRANCH  40  53
ENDBRANCH  14  15
ENDBRANCH   7   9
ENDBRANCH   6   7
ENDBRANCH   5   6
ENDBRANCH   4   5
ENDBRANCH   3   4
ENDBRANCH   2   3
ENDBRANCH   1   2
BRANCH   1  59
ATOM     59  O   UNL A   1      36.061  23.371  26.376  1.00  0.00    -0.376 OA
BRANCH  59  60
ATOM     60  C   UNL A   1      35.045  22.421  26.698  1.00  0.00     0.202 C 
BRANCH  60  61
ATOM     61  C   UNL A   1      33.866  22.972  27.508  1.00  0.00     0.261 C 
BRANCH  61  62
ATOM     62  O   UNL A   1      33.076  23.971  26.829  1.00  0.00    -0.460 OA
BRANCH  62  63
ATOM     63  C   UNL A   1      31.744  23.730  26.783  1.00  0.00     0.341 C 
ATOM     64  O   UNL A   1      31.080  23.075  27.568  1.00  0.00    -0.246 OA
BRANCH  63  65
ATOM     65  C   UNL A   1      31.139  24.361  25.607  1.00  0.00     0.102 A 
ATOM     66  C   UNL A   1      30.091  25.268  25.803  1.00  0.00     0.021 A 
ATOM     67  C   UNL A   1      31.723  24.229  24.342  1.00  0.00     0.144 A 
ATOM     68  C   UNL A   1      29.648  26.029  24.730  1.00  0.00     0.021 A 
ATOM     69  N   UNL A   1      31.242  24.938  23.289  1.00  0.00    -0.238 NA
ATOM     70  C   UNL A   1      30.244  25.824  23.500  1.00  0.00     0.113 A 
BRANCH  67  71
ATOM     71  N   UNL A   1      32.771  23.310  24.112  1.00  0.00    -0.340 N 
ATOM     72  H   UNL A   1      33.690  23.611  24.296  1.00  0.00     0.168 HD
BRANCH  71  73
ATOM     73  C   UNL A   1      32.596  21.995  23.641  1.00  0.00     0.040 A 
ATOM     74  C   UNL A   1      32.120  21.765  22.350  1.00  0.00     0.026 A 
ATOM     75  C   UNL A   1      32.808  20.902  24.487  1.00  0.00     0.039 A 
ATOM     76  C   UNL A   1      31.894  20.466  21.891  1.00  0.00     0.003 A 
ATOM     77  C   UNL A   1      32.575  19.589  24.047  1.00  0.00     0.058 A 
ATOM     78  C   UNL A   1      32.121  19.381  22.736  1.00  0.00     0.013 A 
BRANCH  77  79
ATOM     79  C   UNL A   1      32.795  18.417  24.967  1.00  0.00     0.416 C 
ATOM     80  F   UNL A   1      31.854  17.445  24.803  1.00  0.00    -0.166 F 
ATOM     81  F   UNL A   1      33.997  17.809  24.765  1.00  0.00    -0.166 F 
ATOM     82  F   UNL A   1      32.760  18.743  26.290  1.00  0.00    -0.166 F 
ENDBRANCH  77  79
ENDBRANCH  71  73
ENDBRANCH  67  71
ENDBRANCH  63  65
ENDBRANCH  62  63
ENDBRANCH  61  62
ENDBRANCH  60  61
ENDBRANCH  59  60
ENDBRANCH   1  59
TORSDOF 20
ENDMDL
MODEL 2
REMARK VINA RESULT:      -9.9      2.382      3.686
REMARK SMILES O=C(OCCOCCOCCOC(=O)c1cccnc1Nc1cccc(C(F)(F)F)c1)c1ccc(-c2c3nc(c(-c4ccccc4)c4ccc([nH]4)c(-c4ccccc4)c4nc(c(-c5ccccc5)c5ccc2[nH]5)C=C4)C=C3)cc1
REMARK SMILES IDX 8 1 7 2 6 3 5 4 4 5 3 6 2 7 1 8 32 9 33 10 79 11 34 12 78 13
REMARK SMILES IDX 35 14 36 15 37 16 72 17 38 18 77 19 71 20 73 21 39 22 76 23
REMARK SMILES IDX 70 24 69 25 40 27 62 28 47 29 61 30 48 31 51 32 60 33 74 34
REMARK SMILES IDX 49 35 50 36 59 38 75 39 52 40 41 41 42 42 46 43 43 44 45 45
REMARK SMILES IDX 44 46 63 47 64 48 68 49 65 50 67 51 66 52 53 53 54 54 58 55
REMARK SMILES IDX 55 56 57 57 56 58 9 59 10 60 11 61 12 62 13 63 14 64 15 65
REMARK SMILES IDX 16 66 20 67 17 68 19 69 18 70 21 71 22 73 23 74 31 75 24 76
REMARK SMILES IDX 26 77 25 78 27 79 28 80 29 81 30 82
REMARK H PARENT 73 26 51 37 21 72
REMARK Flexibility Score: inf
ROOT
ATOM      1  C   UNL A   1      35.292  22.186  26.390  1.00  0.00     0.188 C 
ENDROOT
BRANCH   1   2
ATOM      2  C   UNL A   1      36.598  21.706  25.761  1.00  0.00     0.188 C 
BRANCH   2   3
ATOM      3  O   UNL A   1      36.396  20.468  25.071  1.00  0.00    -0.376 OA
BRANCH   3   4
ATOM      4  C   UNL A   1      37.607  19.774  24.775  1.00  0.00     0.202 C 
BRANCH   4   5
ATOM      5  C   UNL A   1      38.862  20.370  25.430  1.00  0.00     0.261 C 
BRANCH   5   6
ATOM      6  O   UNL A   1      39.859  19.376  25.729  1.00  0.00    -0.460 OA
BRANCH   6   7
ATOM      7  C   UNL A   1      41.173  19.581  25.995  1.00  0.00     0.338 C 
ATOM      8  O   UNL A   1      41.987  18.712  25.689  1.00  0.00    -0.246 OA
BRANCH   7   9
ATOM      9  C   UNL A   1      41.690  20.837  26.622  1.00  0.00     0.060 A 
ATOM     10  C   UNL A   1      41.803  21.037  27.995  1.00  0.00     0.016 A 
ATOM     11  C   UNL A   1      42.145  21.861  25.772  1.00  0.00     0.016 A 
ATOM     12  C   UNL A   1      42.175  22.270  28.515  1.00  0.00     0.010 A 
ATOM     13  C   UNL A   1      42.616  23.074  26.292  1.00  0.00     0.010 A 
ATOM     14  C   UNL A   1      42.572  23.308  27.670  1.00  0.00    -0.014 A 
BRANCH  14  15
ATOM     15  C   UNL A   1      42.809  24.644  28.270  1.00  0.00     0.031 A 
ATOM     16  C   UNL A   1      44.222  25.098  28.509  1.00  0.00     0.074 A 
ATOM     17  C   UNL A   1      41.785  25.504  28.423  1.00  0.00     0.049 A 
ATOM     18  N   UNL A   1      44.654  26.253  28.945  1.00  0.00    -0.248 NA
ATOM     19  C   UNL A   1      45.291  24.133  28.202  1.00  0.00     0.031 C 
ATOM     20  C   UNL A   1      40.381  25.203  28.132  1.00  0.00     0.029 A 
ATOM     21  N   UNL A   1      41.770  26.824  28.795  1.00  0.00    -0.354 N 
ATOM     22  C   UNL A   1      46.039  26.144  28.984  1.00  0.00     0.074 A 
ATOM     23  C   UNL A   1      46.376  24.809  28.545  1.00  0.00     0.031 C 
ATOM     24  C   UNL A   1      39.658  26.325  28.261  1.00  0.00     0.029 A 
ATOM     25  C   UNL A   1      40.526  27.402  28.720  1.00  0.00     0.049 A 
ATOM     26  H   UNL A   1      42.574  27.311  29.088  1.00  0.00     0.167 HD
ATOM     27  C   UNL A   1      46.952  27.076  29.344  1.00  0.00     0.031 A 
ATOM     28  C   UNL A   1      40.123  28.656  28.997  1.00  0.00     0.031 A 
ATOM     29  C   UNL A   1      46.616  28.403  29.779  1.00  0.00     0.049 A 
ATOM     30  C   UNL A   1      41.146  29.652  29.456  1.00  0.00     0.074 A 
ATOM     31  C   UNL A   1      47.452  29.398  30.253  1.00  0.00     0.029 A 
ATOM     32  N   UNL A   1      45.331  28.922  29.777  1.00  0.00    -0.354 N 
ATOM     33  N   UNL A   1      42.446  29.507  29.562  1.00  0.00    -0.248 NA
ATOM     34  C   UNL A   1      40.651  30.980  29.842  1.00  0.00     0.031 C 
ATOM     35  C   UNL A   1      46.666  30.514  30.561  1.00  0.00     0.029 A 
ATOM     36  C   UNL A   1      45.348  30.224  30.244  1.00  0.00     0.049 A 
ATOM     37  H   UNL A   1      44.525  28.436  29.487  1.00  0.00     0.167 HD
ATOM     38  C   UNL A   1      42.923  30.721  30.033  1.00  0.00     0.074 A 
ATOM     39  C   UNL A   1      41.779  31.604  30.153  1.00  0.00     0.031 C 
ATOM     40  C   UNL A   1      44.191  31.072  30.356  1.00  0.00     0.031 A 
BRANCH  27  41
ATOM     41  C   UNL A   1      48.390  26.652  29.323  1.00  0.00    -0.014 A 
ATOM     42  C   UNL A   1      48.971  25.995  30.419  1.00  0.00     0.009 A 
ATOM     43  C   UNL A   1      49.185  26.947  28.204  1.00  0.00     0.009 A 
ATOM     44  C   UNL A   1      50.330  25.675  30.409  1.00  0.00     0.001 A 
ATOM     45  C   UNL A   1      50.538  26.608  28.190  1.00  0.00     0.001 A 
ATOM     46  C   UNL A   1      51.112  25.981  29.295  1.00  0.00     0.000 A 
ENDBRANCH  27  41
BRANCH  28  47
ATOM     47  C   UNL A   1      38.685  29.024  28.894  1.00  0.00    -0.014 A 
ATOM     48  C   UNL A   1      38.126  29.427  27.672  1.00  0.00     0.009 A 
ATOM     49  C   UNL A   1      37.865  28.992  30.035  1.00  0.00     0.009 A 
ATOM     50  C   UNL A   1      36.783  29.810  27.600  1.00  0.00     0.001 A 
ATOM     51  C   UNL A   1      36.517  29.348  29.954  1.00  0.00     0.001 A 
ATOM     52  C   UNL A   1      35.980  29.766  28.739  1.00  0.00     0.000 A 
ENDBRANCH  28  47
BRANCH  40  53
ATOM     53  C   UNL A   1      44.393  32.466  30.865  1.00  0.00    -0.014 A 
ATOM     54  C   UNL A   1      44.347  32.741  32.241  1.00  0.00     0.009 A 
ATOM     55  C   UNL A   1      44.656  33.509  29.963  1.00  0.00     0.009 A 
ATOM     56  C   UNL A   1      44.533  34.045  32.702  1.00  0.00     0.001 A 
ATOM     57  C   UNL A   1      44.861  34.806  30.431  1.00  0.00     0.001 A 
ATOM     58  C   UNL A   1      44.791  35.075  31.798  1.00  0.00     0.000 A 
ENDBRANCH  40  53
ENDBRANCH  14  15
ENDBRANCH   7   9
ENDBRANCH   6   7
ENDBRANCH   5   6
ENDBRANCH   4   5
ENDBRANCH   3   4
ENDBRANCH   2   3
ENDBRANCH   1   2
BRANCH   1  59
ATOM     59  O   UNL A   1      34.945  23.532  26.068  1.00  0.00    -0.376 OA
BRANCH  59  60
ATOM     60  C   UNL A   1      35.714  24.165  25.046  1.00  0.00     0.202 C 
BRANCH  60  61
ATOM     61  C   UNL A   1      34.941  24.517  23.769  1.00  0.00     0.261 C 
BRANCH  61  62
ATOM     62  O   UNL A   1      34.817  23.440  22.817  1.00  0.00    -0.460 OA
BRANCH  62  63
ATOM     63  C   UNL A   1      33.598  23.305  22.243  1.00  0.00     0.341 C 
ATOM     64  O   UNL A   1      33.310  23.457  21.068  1.00  0.00    -0.246 OA
BRANCH  63  65
ATOM     65  C   UNL A   1      32.585  22.953  23.241  1.00  0.00     0.102 A 
ATOM     66  C   UNL A   1      32.743  21.761  23.958  1.00  0.00     0.021 A 
ATOM     67  C   UNL A   1      31.603  23.874  23.621  1.00  0.00     0.144 A 
ATOM     68  C   UNL A   1      31.916  21.514  25.046  1.00  0.00     0.021 A 
ATOM     69  N   UNL A   1      30.764  23.593  24.652  1.00  0.00    -0.238 NA
ATOM     70  C   UNL A   1      30.944  22.449  25.346  1.00  0.00     0.113 A 
BRANCH  67  71
ATOM     71  N   UNL A   1      31.410  25.076  22.906  1.00  0.00    -0.340 N 
ATOM     72  H   UNL A   1      31.327  25.017  21.927  1.00  0.00     0.168 HD
BRANCH  71  73
ATOM     73  C   UNL A   1      31.328  26.354  23.492  1.00  0.00     0.040 A 
ATOM     74  C   UNL A   1      30.221  27.169  23.257  1.00  0.00     0.026 A 
ATOM     75  C   UNL A   1      32.392  26.862  24.244  1.00  0.00     0.039 A 
ATOM     76  C   UNL A   1      30.154  28.457  23.791  1.00  0.00     0.003 A 
ATOM     77  C   UNL A   1      32.347  28.158  24.780  1.00  0.00     0.058 A 
ATOM     78  C   UNL A   1      31.212  28.951  24.551  1.00  0.00     0.013 A 
BRANCH  77  79
ATOM     79  C   UNL A   1      33.502  28.703  25.580  1.00  0.00     0.416 C 
ATOM     80  F   UNL A   1      33.353  30.026  25.870  1.00  0.00    -0.166 F 
ATOM     81  F   UNL A   1      33.655  28.073  26.778  1.00  0.00    -0.166 F 
ATOM     82  F   UNL A   1      34.706  28.599  24.948  1.00  0.00    -0.166 F 
ENDBRANCH  77  79
ENDBRANCH  71  73
ENDBRANCH  67  71
ENDBRANCH  63  65
ENDBRANCH  62  63
ENDBRANCH  61  62
ENDBRANCH  60  61
ENDBRANCH  59  60
ENDBRANCH   1  59
TORSDOF 20
ENDMDL
MODEL 3
REMARK VINA RESULT:      -9.7      2.321      6.727
REMARK SMILES O=C(OCCOCCOCCOC(=O)c1cccnc1Nc1cccc(C(F)(F)F)c1)c1ccc(-c2c3nc(c(-c4ccccc4)c4ccc([nH]4)c(-c4ccccc4)c4nc(c(-c5ccccc5)c5ccc2[nH]5)C=C4)C=C3)cc1
REMARK SMILES IDX 8 1 7 2 6 3 5 4 4 5 3 6 2 7 1 8 32 9 33 10 79 11 34 12 78 13
REMARK SMILES IDX 35 14 36 15 37 16 72 17 38 18 77 19 71 20 73 21 39 22 76 23
REMARK SMILES IDX 70 24 69 25 40 27 62 28 47 29 61 30 48 31 51 32 60 33 74 34
REMARK SMILES IDX 49 35 50 36 59 38 75 39 52 40 41 41 42 42 46 43 43 44 45 45
REMARK SMILES IDX 44 46 63 47 64 48 68 49 65 50 67 51 66 52 53 53 54 54 58 55
REMARK SMILES IDX 55 56 57 57 56 58 9 59 10 60 11 61 12 62 13 63 14 64 15 65
REMARK SMILES IDX 16 66 20 67 17 68 19 69 18 70 21 71 22 73 23 74 31 75 24 76
REMARK SMILES IDX 26 77 25 78 27 79 28 80 29 81 30 82
REMARK H PARENT 73 26 51 37 21 72
REMARK Flexibility Score: inf
ROOT
ATOM      1  C   UNL A   1      35.657  23.237  25.344  1.00  0.00     0.188 C 
ENDROOT
BRANCH   1   2
ATOM      2  C   UNL A   1      37.015  22.661  25.742  1.00  0.00     0.188 C 
BRANCH   2   3
ATOM      3  O   UNL A   1      37.527  21.823  24.701  1.00  0.00    -0.376 OA
BRANCH   3   4
ATOM      4  C   UNL A   1      37.180  20.447  24.852  1.00  0.00     0.202 C 
BRANCH   4   5
ATOM      5  C   UNL A   1      38.379  19.493  24.964  1.00  0.00     0.261 C 
BRANCH   5   6
ATOM      6  O   UNL A   1      39.209  19.774  26.105  1.00  0.00    -0.460 OA
BRANCH   6   7
ATOM      7  C   UNL A   1      40.555  19.939  26.124  1.00  0.00     0.338 C 
ATOM      8  O   UNL A   1      41.272  19.046  25.675  1.00  0.00    -0.246 OA
BRANCH   7   9
ATOM      9  C   UNL A   1      41.217  21.176  26.642  1.00  0.00     0.060 A 
ATOM     10  C   UNL A   1      41.354  21.483  27.993  1.00  0.00     0.016 A 
ATOM     11  C   UNL A   1      41.789  22.059  25.709  1.00  0.00     0.016 A 
ATOM     12  C   UNL A   1      41.868  22.705  28.405  1.00  0.00     0.010 A 
ATOM     13  C   UNL A   1      42.400  23.251  26.124  1.00  0.00     0.010 A 
ATOM     14  C   UNL A   1      42.384  23.610  27.475  1.00  0.00    -0.014 A 
BRANCH  14  15
ATOM     15  C   UNL A   1      42.778  24.957  27.956  1.00  0.00     0.031 A 
ATOM     16  C   UNL A   1      41.710  25.985  28.208  1.00  0.00     0.074 A 
ATOM     17  C   UNL A   1      44.048  25.192  28.336  1.00  0.00     0.049 A 
ATOM     18  N   UNL A   1      41.826  27.190  28.703  1.00  0.00    -0.248 NA
ATOM     19  C   UNL A   1      40.328  25.603  27.874  1.00  0.00     0.031 C 
ATOM     20  C   UNL A   1      45.150  24.233  28.226  1.00  0.00     0.029 A 
ATOM     21  N   UNL A   1      44.614  26.279  28.951  1.00  0.00    -0.354 N 
ATOM     22  C   UNL A   1      40.539  27.713  28.720  1.00  0.00     0.074 A 
ATOM     23  C   UNL A   1      39.660  26.706  28.171  1.00  0.00     0.031 C 
ATOM     24  C   UNL A   1      46.235  24.746  28.825  1.00  0.00     0.029 A 
ATOM     25  C   UNL A   1      45.933  26.093  29.289  1.00  0.00     0.049 A 
ATOM     26  H   UNL A   1      44.123  27.113  29.133  1.00  0.00     0.167 HD
ATOM     27  C   UNL A   1      40.122  28.923  29.163  1.00  0.00     0.031 A 
ATOM     28  C   UNL A   1      46.807  26.917  29.896  1.00  0.00     0.031 A 
ATOM     29  C   UNL A   1      40.996  29.923  29.708  1.00  0.00     0.049 A 
ATOM     30  C   UNL A   1      46.335  28.277  30.318  1.00  0.00     0.074 A 
ATOM     31  C   UNL A   1      40.696  31.214  30.103  1.00  0.00     0.029 A 
ATOM     32  N   UNL A   1      42.347  29.729  29.950  1.00  0.00    -0.354 N 
ATOM     33  N   UNL A   1      45.127  28.785  30.254  1.00  0.00    -0.248 NA
ATOM     34  C   UNL A   1      47.343  29.181  30.887  1.00  0.00     0.031 C 
ATOM     35  C   UNL A   1      41.877  31.812  30.561  1.00  0.00     0.029 A 
ATOM     36  C   UNL A   1      42.900  30.879  30.486  1.00  0.00     0.049 A 
ATOM     37  H   UNL A   1      42.841  28.898  29.766  1.00  0.00     0.167 HD
ATOM     38  C   UNL A   1      45.231  30.069  30.767  1.00  0.00     0.074 A 
ATOM     39  C   UNL A   1      46.610  30.248  31.176  1.00  0.00     0.031 C 
ATOM     40  C   UNL A   1      44.276  31.024  30.876  1.00  0.00     0.031 A 
BRANCH  27  41
ATOM     41  C   UNL A   1      38.661  29.225  29.016  1.00  0.00    -0.014 A 
ATOM     42  C   UNL A   1      38.128  29.664  27.793  1.00  0.00     0.009 A 
ATOM     43  C   UNL A   1      37.812  29.105  30.126  1.00  0.00     0.009 A 
ATOM     44  C   UNL A   1      36.779  30.012  27.696  1.00  0.00     0.001 A 
ATOM     45  C   UNL A   1      36.459  29.434  30.021  1.00  0.00     0.001 A 
ATOM     46  C   UNL A   1      35.946  29.897  28.810  1.00  0.00     0.000 A 
ENDBRANCH  27  41
BRANCH  28  47
ATOM     47  C   UNL A   1      48.221  26.499  30.096  1.00  0.00    -0.014 A 
ATOM     48  C   UNL A   1      48.620  25.832  31.264  1.00  0.00     0.009 A 
ATOM     49  C   UNL A   1      49.188  26.787  29.117  1.00  0.00     0.009 A 
ATOM     50  C   UNL A   1      49.961  25.483  31.456  1.00  0.00     0.001 A 
ATOM     51  C   UNL A   1      50.521  26.411  29.300  1.00  0.00     0.001 A 
ATOM     52  C   UNL A   1      50.907  25.768  30.473  1.00  0.00     0.000 A 
ENDBRANCH  28  47
BRANCH  40  53
ATOM     53  C   UNL A   1      44.703  32.337  31.459  1.00  0.00    -0.014 A 
ATOM     54  C   UNL A   1      45.175  33.369  30.634  1.00  0.00     0.009 A 
ATOM     55  C   UNL A   1      44.609  32.551  32.842  1.00  0.00     0.009 A 
ATOM     56  C   UNL A   1      45.573  34.585  31.189  1.00  0.00     0.001 A 
ATOM     57  C   UNL A   1      44.988  33.775  33.391  1.00  0.00     0.001 A 
ATOM     58  C   UNL A   1      45.478  34.788  32.566  1.00  0.00     0.000 A 
ENDBRANCH  40  53
ENDBRANCH  14  15
ENDBRANCH   7   9
ENDBRANCH   6   7
ENDBRANCH   5   6
ENDBRANCH   4   5
ENDBRANCH   3   4
ENDBRANCH   2   3
ENDBRANCH   1   2
BRANCH   1  59
ATOM     59  O   UNL A   1      34.862  23.677  26.444  1.00  0.00    -0.376 OA
BRANCH  59  60
ATOM     60  C   UNL A   1      34.649  22.740  27.498  1.00  0.00     0.202 C 
BRANCH  60  61
ATOM     61  C   UNL A   1      33.194  22.298  27.698  1.00  0.00     0.261 C 
BRANCH  61  62
ATOM     62  O   UNL A   1      32.232  23.373  27.731  1.00  0.00    -0.460 OA
BRANCH  62  63
ATOM     63  C   UNL A   1      31.094  23.160  27.028  1.00  0.00     0.341 C 
ATOM     64  O   UNL A   1      29.968  23.000  27.470  1.00  0.00    -0.246 OA
BRANCH  63  65
ATOM     65  C   UNL A   1      31.367  23.119  25.590  1.00  0.00     0.102 A 
ATOM     66  C   UNL A   1      32.085  22.032  25.079  1.00  0.00     0.021 A 
ATOM     67  C   UNL A   1      30.753  24.025  24.718  1.00  0.00     0.144 A 
ATOM     68  C   UNL A   1      32.173  21.868  23.703  1.00  0.00     0.021 A 
ATOM     69  N   UNL A   1      30.895  23.884  23.375  1.00  0.00    -0.238 NA
ATOM     70  C   UNL A   1      31.573  22.818  22.898  1.00  0.00     0.113 A 
BRANCH  67  71
ATOM     71  N   UNL A   1      30.036  25.140  25.205  1.00  0.00    -0.340 N 
ATOM     72  H   UNL A   1      29.202  24.966  25.698  1.00  0.00     0.168 HD
BRANCH  71  73
ATOM     73  C   UNL A   1      30.430  26.482  25.039  1.00  0.00     0.040 A 
ATOM     74  C   UNL A   1      29.984  27.218  23.942  1.00  0.00     0.026 A 
ATOM     75  C   UNL A   1      31.345  27.069  25.919  1.00  0.00     0.039 A 
ATOM     76  C   UNL A   1      30.409  28.533  23.741  1.00  0.00     0.003 A 
ATOM     77  C   UNL A   1      31.794  28.385  25.726  1.00  0.00     0.058 A 
ATOM     78  C   UNL A   1      31.310  29.115  24.630  1.00  0.00     0.013 A 
BRANCH  77  79
ATOM     79  C   UNL A   1      32.788  29.007  26.671  1.00  0.00     0.416 C 
ATOM     80  F   UNL A   1      32.238  30.006  27.418  1.00  0.00    -0.166 F 
ATOM     81  F   UNL A   1      33.296  28.112  27.563  1.00  0.00    -0.166 F 
ATOM     82  F   UNL A   1      33.864  29.565  26.048  1.00  0.00    -0.166 F 
ENDBRANCH  77  79
ENDBRANCH  71  73
ENDBRANCH  67  71
ENDBRANCH  63  65
ENDBRANCH  62  63
ENDBRANCH  61  62
ENDBRANCH  60  61
ENDBRANCH  59  60
ENDBRANCH   1  59
TORSDOF 20
ENDMDL
