MODEL 1
REMARK VINA RESULT:     -10.4      0.000      0.000
REMARK SMILES CC(=O)N(c1ccccc1)c1nc(/C=C(/C#N)C(=O)OCCOCCOCCOC(=O)c2ccc(-c3c4nc(c(-c5ccccc5)c5ccc([nH]5)c(-c5ccccc5)c5nc(c(-c6ccccc6)c6ccc3[nH]6)C=C5)C=C4)cc2)cs1
REMARK SMILES IDX 24 1 23 2 22 3 21 4 20 5 18 6 19 7 15 8 14 9 13 10 11 11
REMARK SMILES IDX 12 12 81 13 80 14 4 15 2 16 1 17 3 18 5 19 6 20 10 21 7 22
REMARK SMILES IDX 9 23 8 24 16 25 17 26 25 27 26 28 27 29 28 30 29 31 30 32
REMARK SMILES IDX 31 33 32 34 33 35 79 36 34 37 78 38 35 39 36 40 37 41 72 42
REMARK SMILES IDX 38 43 77 44 71 45 73 46 39 47 76 48 70 49 69 50 40 52 62 53
REMARK SMILES IDX 47 54 61 55 48 56 51 57 60 58 74 59 49 60 50 61 59 63 75 64
REMARK SMILES IDX 52 65 41 66 42 67 46 68 43 69 45 70 44 71 63 72 64 73 68 74
REMARK SMILES IDX 65 75 67 76 66 77 53 78 54 79 58 80 55 81 57 82 56 83
REMARK H PARENT 73 51 51 62
REMARK Flexibility Score: inf
ROOT
ATOM      1  C   UNL A   1      40.406  20.852  26.094  1.00  0.00     0.188 C 
ENDROOT
BRANCH   1   2
ATOM      2  O   UNL A   1      39.282  21.696  26.181  1.00  0.00    -0.376 OA
BRANCH   2   3
ATOM      3  C   UNL A   1      38.053  21.329  25.576  1.00  0.00     0.202 C 
BRANCH   3   4
ATOM      4  C   UNL A   1      36.974  22.331  25.083  1.00  0.00     0.261 C 
BRANCH   4   5
ATOM      5  O   UNL A   1      35.795  21.785  24.459  1.00  0.00    -0.459 OA
BRANCH   5   6
ATOM      6  C   UNL A   1      34.742  21.454  25.260  1.00  0.00     0.349 C 
ATOM      7  O   UNL A   1      34.682  21.655  26.461  1.00  0.00    -0.245 OA
BRANCH   6   8
ATOM      8  C   UNL A   1      33.582  21.012  24.429  1.00  0.00     0.139 C 
ATOM      9  C   UNL A   1      32.815  21.851  23.687  1.00  0.00     0.056 C 
BRANCH   9  10
ATOM     10  C   UNL A   1      32.883  23.279  23.512  1.00  0.00     0.078 A 
ATOM     11  C   UNL A   1      32.619  25.368  24.200  1.00  0.00     0.197 A 
ATOM     12  N   UNL A   1      32.504  24.104  24.570  1.00  0.00    -0.220 NA
ATOM     13  S   UNL A   1      33.263  25.629  22.622  1.00  0.00    -0.104 S 
ATOM     14  C   UNL A   1      33.225  23.960  22.365  1.00  0.00     0.097 A 
BRANCH  11  15
ATOM     15  N   UNL A   1      32.321  26.540  24.884  1.00  0.00    -0.256 N 
BRANCH  15  16
ATOM     16  C   UNL A   1      33.239  26.969  25.825  1.00  0.00     0.230 C 
ATOM     17  C   UNL A   1      32.839  28.076  26.771  1.00  0.00     0.115 C 
ATOM     18  O   UNL A   1      34.379  26.501  25.938  1.00  0.00    -0.274 OA
ENDBRANCH  15  16
BRANCH  15  19
ATOM     19  C   UNL A   1      31.165  27.217  24.351  1.00  0.00     0.051 A 
ATOM     20  C   UNL A   1      29.523  26.135  24.638  1.00  0.00     0.027 A 
ATOM     21  C   UNL A   1      31.490  28.824  23.233  1.00  0.00     0.027 A 
ATOM     22  C   UNL A   1      27.811  26.927  23.820  1.00  0.00     0.002 A 
ATOM     23  C   UNL A   1      29.763  29.628  22.441  1.00  0.00     0.002 A 
ATOM     24  C   UNL A   1      28.106  28.655  22.903  1.00  0.00     0.000 A 
ENDBRANCH  15  19
ENDBRANCH  11  15
ENDBRANCH   9  10
BRANCH   8  25
ATOM     25  C   UNL A   1      33.362  19.606  24.352  1.00  0.00     0.107 C 
ATOM     26  N   UNL A   1      33.156  18.464  24.328  1.00  0.00    -0.192 NA
ENDBRANCH   8  25
ENDBRANCH   6   8
ENDBRANCH   5   6
ENDBRANCH   4   5
ENDBRANCH   3   4
ENDBRANCH   2   3
ENDBRANCH   1   2
BRANCH   1  27
ATOM     27  C   UNL A   1      41.129  20.339  27.355  1.00  0.00     0.188 C 
BRANCH  27  28
ATOM     28  O   UNL A   1      42.494  20.038  27.262  1.00  0.00    -0.376 OA
BRANCH  28  29
ATOM     29  C   UNL A   1      43.019  19.766  25.978  1.00  0.00     0.202 C 
BRANCH  29  30
ATOM     30  C   UNL A   1      44.297  20.435  25.390  1.00  0.00     0.261 C 
BRANCH  30  31
ATOM     31  O   UNL A   1      44.673  21.780  25.800  1.00  0.00    -0.460 OA
BRANCH  31  32
ATOM     32  C   UNL A   1      43.934  22.801  25.281  1.00  0.00     0.338 C 
ATOM     33  O   UNL A   1      43.420  22.807  24.174  1.00  0.00    -0.246 OA
BRANCH  32  34
ATOM     34  C   UNL A   1      43.650  23.905  26.250  1.00  0.00     0.060 A 
ATOM     35  C   UNL A   1      44.454  25.061  26.337  1.00  0.00     0.016 A 
ATOM     36  C   UNL A   1      42.745  23.669  27.267  1.00  0.00     0.016 A 
ATOM     37  C   UNL A   1      44.293  26.015  27.382  1.00  0.00     0.010 A 
ATOM     38  C   UNL A   1      42.628  24.594  28.326  1.00  0.00     0.010 A 
ATOM     39  C   UNL A   1      43.257  25.879  28.325  1.00  0.00    -0.014 A 
BRANCH  39  40
ATOM     40  C   UNL A   1      42.631  27.174  29.270  1.00  0.00     0.031 A 
ATOM     41  C   UNL A   1      43.203  27.060  30.668  1.00  0.00     0.074 A 
ATOM     42  C   UNL A   1      41.340  28.028  28.993  1.00  0.00     0.049 A 
ATOM     43  N   UNL A   1      42.837  27.651  31.768  1.00  0.00    -0.248 NA
ATOM     44  C   UNL A   1      44.204  25.981  30.866  1.00  0.00     0.031 C 
ATOM     45  C   UNL A   1      39.963  27.618  27.484  1.00  0.00     0.029 A 
ATOM     46  N   UNL A   1      40.973  29.001  29.793  1.00  0.00    -0.354 N 
ATOM     47  C   UNL A   1      43.516  26.976  32.776  1.00  0.00     0.074 A 
ATOM     48  C   UNL A   1      44.240  25.884  32.181  1.00  0.00     0.031 C 
ATOM     49  C   UNL A   1      39.198  28.451  27.594  1.00  0.00     0.029 A 
ATOM     50  C   UNL A   1      39.933  29.544  29.204  1.00  0.00     0.049 A 
ATOM     51  H   UNL A   1      41.387  29.267  30.647  1.00  0.00     0.167 HD
ATOM     52  C   UNL A   1      43.545  27.239  34.095  1.00  0.00     0.031 A 
ATOM     53  C   UNL A   1      39.206  30.792  29.804  1.00  0.00     0.031 A 
ATOM     54  C   UNL A   1      42.783  28.279  34.705  1.00  0.00     0.049 A 
ATOM     55  C   UNL A   1      39.371  31.099  31.283  1.00  0.00     0.074 A 
ATOM     56  C   UNL A   1      42.828  28.704  36.017  1.00  0.00     0.029 A 
ATOM     57  N   UNL A   1      41.816  29.024  34.055  1.00  0.00    -0.354 N 
ATOM     58  N   UNL A   1      40.131  30.530  32.181  1.00  0.00    -0.248 NA
ATOM     59  C   UNL A   1      38.437  32.099  31.840  1.00  0.00     0.031 C 
ATOM     60  C   UNL A   1      41.815  29.641  36.191  1.00  0.00     0.029 A 
ATOM     61  C   UNL A   1      41.231  29.883  34.960  1.00  0.00     0.049 A 
ATOM     62  H   UNL A   1      41.583  28.950  33.101  1.00  0.00     0.167 HD
ATOM     63  C   UNL A   1      39.758  31.098  33.397  1.00  0.00     0.074 A 
ATOM     64  C   UNL A   1      38.722  32.064  33.127  1.00  0.00     0.031 C 
ATOM     65  C   UNL A   1      40.214  30.840  34.642  1.00  0.00     0.031 A 
BRANCH  52  66
ATOM     66  C   UNL A   1      44.426  26.387  34.955  1.00  0.00    -0.014 A 
ATOM     67  C   UNL A   1      43.934  25.217  35.558  1.00  0.00     0.009 A 
ATOM     68  C   UNL A   1      45.771  26.737  35.131  1.00  0.00     0.009 A 
ATOM     69  C   UNL A   1      44.768  24.432  36.351  1.00  0.00     0.001 A 
ATOM     70  C   UNL A   1      46.614  25.924  35.884  1.00  0.00     0.001 A 
ATOM     71  C   UNL A   1      46.109  24.779  36.500  1.00  0.00     0.000 A 
ENDBRANCH  52  66
BRANCH  53  72
ATOM     72  C   UNL A   1      37.887  31.707  29.122  1.00  0.00    -0.014 A 
ATOM     73  C   UNL A   1      36.671  31.073  28.802  1.00  0.00     0.009 A 
ATOM     74  C   UNL A   1      37.806  33.146  29.010  1.00  0.00     0.009 A 
ATOM     75  C   UNL A   1      35.509  31.820  28.455  1.00  0.00     0.001 A 
ATOM     76  C   UNL A   1      36.640  33.884  28.784  1.00  0.00     0.001 A 
ATOM     77  C   UNL A   1      35.481  33.216  28.491  1.00  0.00     0.000 A 
ENDBRANCH  53  72
BRANCH  65  78
ATOM     78  C   UNL A   1      39.714  31.713  35.754  1.00  0.00    -0.014 A 
ATOM     79  C   UNL A   1      40.372  32.881  36.160  1.00  0.00     0.009 A 
ATOM     80  C   UNL A   1      38.517  31.341  36.386  1.00  0.00     0.009 A 
ATOM     81  C   UNL A   1      39.853  33.640  37.210  1.00  0.00     0.001 A 
ATOM     82  C   UNL A   1      37.974  32.129  37.394  1.00  0.00     0.001 A 
ATOM     83  C   UNL A   1      38.651  33.270  37.816  1.00  0.00     0.000 A 
ENDBRANCH  65  78
ENDBRANCH  39  40
ENDBRANCH  32  34
ENDBRANCH  31  32
ENDBRANCH  30  31
ENDBRANCH  29  30
ENDBRANCH  28  29
ENDBRANCH  27  28
ENDBRANCH   1  27
TORSDOF 22
ENDMDL
MODEL 2
REMARK VINA RESULT:     -10.2      4.252      6.408
REMARK SMILES CC(=O)N(c1ccccc1)c1nc(/C=C(/C#N)C(=O)OCCOCCOCCOC(=O)c2ccc(-c3c4nc(c(-c5ccccc5)c5ccc([nH]5)c(-c5ccccc5)c5nc(c(-c6ccccc6)c6ccc3[nH]6)C=C5)C=C4)cc2)cs1
REMARK SMILES IDX 24 1 23 2 22 3 21 4 20 5 18 6 19 7 15 8 14 9 13 10 11 11
REMARK SMILES IDX 12 12 81 13 80 14 4 15 2 16 1 17 3 18 5 19 6 20 10 21 7 22
REMARK SMILES IDX 9 23 8 24 16 25 17 26 25 27 26 28 27 29 28 30 29 31 30 32
REMARK SMILES IDX 31 33 32 34 33 35 79 36 34 37 78 38 35 39 36 40 37 41 72 42
REMARK SMILES IDX 38 43 77 44 71 45 73 46 39 47 76 48 70 49 69 50 40 52 62 53
REMARK SMILES IDX 47 54 61 55 48 56 51 57 60 58 74 59 49 60 50 61 59 63 75 64
REMARK SMILES IDX 52 65 41 66 42 67 46 68 43 69 45 70 44 71 63 72 64 73 68 74
REMARK SMILES IDX 65 75 67 76 66 77 53 78 54 79 58 80 55 81 57 82 56 83
REMARK H PARENT 73 51 51 62
REMARK Flexibility Score: inf
ROOT
ATOM      1  C   UNL A   1      40.054  20.939  26.096  1.00  0.00     0.188 C 
ENDROOT
BRANCH   1   2
ATOM      2  O   UNL A   1      39.230  22.023  25.736  1.00  0.00    -0.376 OA
BRANCH   2   3
ATOM      3  C   UNL A   1      37.830  21.850  25.591  1.00  0.00     0.202 C 
BRANCH   3   4
ATOM      4  C   UNL A   1      36.997  22.342  24.378  1.00  0.00     0.261 C 
BRANCH   4   5
ATOM      5  O   UNL A   1      35.793  23.086  24.655  1.00  0.00    -0.459 OA
BRANCH   5   6
ATOM      6  C   UNL A   1      34.686  22.816  23.904  1.00  0.00     0.349 C 
ATOM      7  O   UNL A   1      34.606  22.952  22.695  1.00  0.00    -0.245 OA
BRANCH   6   8
ATOM      8  C   UNL A   1      33.657  22.122  24.735  1.00  0.00     0.139 C 
ATOM      9  C   UNL A   1      32.611  22.750  25.331  1.00  0.00     0.056 C 
BRANCH   9  10
ATOM     10  C   UNL A   1      32.233  24.140  25.343  1.00  0.00     0.078 A 
ATOM     11  C   UNL A   1      32.368  26.231  24.622  1.00  0.00     0.197 A 
ATOM     12  N   UNL A   1      32.835  25.008  24.433  1.00  0.00    -0.220 NA
ATOM     13  S   UNL A   1      31.137  26.383  25.819  1.00  0.00    -0.104 S 
ATOM     14  C   UNL A   1      31.365  24.757  26.216  1.00  0.00     0.097 A 
BRANCH  11  15
ATOM     15  N   UNL A   1      32.693  27.428  23.998  1.00  0.00    -0.256 N 
BRANCH  15  16
ATOM     16  C   UNL A   1      32.662  27.445  22.615  1.00  0.00     0.230 C 
ATOM     17  C   UNL A   1      31.343  27.214  21.919  1.00  0.00     0.115 C 
ATOM     18  O   UNL A   1      33.659  27.636  21.907  1.00  0.00    -0.274 OA
ENDBRANCH  15  16
BRANCH  15  19
ATOM     19  C   UNL A   1      32.835  28.520  24.928  1.00  0.00     0.051 A 
ATOM     20  C   UNL A   1      34.421  28.248  26.095  1.00  0.00     0.027 A 
ATOM     21  C   UNL A   1      31.331  29.809  25.051  1.00  0.00     0.027 A 
ATOM     22  C   UNL A   1      34.677  29.674  27.553  1.00  0.00     0.002 A 
ATOM     23  C   UNL A   1      31.610  31.252  26.498  1.00  0.00     0.002 A 
ATOM     24  C   UNL A   1      33.295  31.090  27.519  1.00  0.00     0.000 A 
ENDBRANCH  15  19
ENDBRANCH  11  15
ENDBRANCH   9  10
BRANCH   8  25
ATOM     25  C   UNL A   1      33.752  20.701  24.799  1.00  0.00     0.107 C 
ATOM     26  N   UNL A   1      33.833  19.543  24.804  1.00  0.00    -0.192 NA
ENDBRANCH   8  25
ENDBRANCH   6   8
ENDBRANCH   5   6
ENDBRANCH   4   5
ENDBRANCH   3   4
ENDBRANCH   2   3
ENDBRANCH   1   2
BRANCH   1  27
ATOM     27  C   UNL A   1      41.549  21.134  26.414  1.00  0.00     0.188 C 
BRANCH  27  28
ATOM     28  O   UNL A   1      42.169  20.222  27.277  1.00  0.00    -0.376 OA
BRANCH  28  29
ATOM     29  C   UNL A   1      42.356  18.900  26.811  1.00  0.00     0.202 C 
BRANCH  29  30
ATOM     30  C   UNL A   1      43.045  18.531  25.463  1.00  0.00     0.261 C 
BRANCH  30  31
ATOM     31  O   UNL A   1      44.495  18.439  25.386  1.00  0.00    -0.460 OA
BRANCH  31  32
ATOM     32  C   UNL A   1      45.101  19.194  24.427  1.00  0.00     0.338 C 
ATOM     33  O   UNL A   1      45.528  18.773  23.364  1.00  0.00    -0.246 OA
BRANCH  32  34
ATOM     34  C   UNL A   1      45.078  20.665  24.700  1.00  0.00     0.060 A 
ATOM     35  C   UNL A   1      44.852  21.619  23.687  1.00  0.00     0.016 A 
ATOM     36  C   UNL A   1      45.553  21.114  25.918  1.00  0.00     0.016 A 
ATOM     37  C   UNL A   1      45.017  23.016  23.915  1.00  0.00     0.010 A 
ATOM     38  C   UNL A   1      45.762  22.495  26.119  1.00  0.00     0.010 A 
ATOM     39  C   UNL A   1      45.329  23.501  25.199  1.00  0.00    -0.014 A 
BRANCH  39  40
ATOM     40  C   UNL A   1      45.037  25.115  25.722  1.00  0.00     0.031 A 
ATOM     41  C   UNL A   1      46.345  25.876  25.663  1.00  0.00     0.074 A 
ATOM     42  C   UNL A   1      43.835  25.640  26.590  1.00  0.00     0.049 A 
ATOM     43  N   UNL A   1      46.664  27.025  26.183  1.00  0.00    -0.248 NA
ATOM     44  C   UNL A   1      47.497  25.130  25.095  1.00  0.00     0.031 C 
ATOM     45  C   UNL A   1      42.411  24.413  27.487  1.00  0.00     0.029 A 
ATOM     46  N   UNL A   1      43.723  26.906  26.916  1.00  0.00    -0.354 N 
ATOM     47  C   UNL A   1      48.046  27.103  26.053  1.00  0.00     0.074 A 
ATOM     48  C   UNL A   1      48.518  25.863  25.496  1.00  0.00     0.031 C 
ATOM     49  C   UNL A   1      41.715  25.150  28.000  1.00  0.00     0.029 A 
ATOM     50  C   UNL A   1      42.571  26.989  27.540  1.00  0.00     0.049 A 
ATOM     51  H   UNL A   1      44.362  27.634  26.733  1.00  0.00     0.167 HD
ATOM     52  C   UNL A   1      48.866  28.123  26.367  1.00  0.00     0.031 A 
ATOM     53  C   UNL A   1      42.014  28.355  28.060  1.00  0.00     0.031 A 
ATOM     54  C   UNL A   1      48.418  29.331  26.977  1.00  0.00     0.049 A 
ATOM     55  C   UNL A   1      42.981  29.505  28.288  1.00  0.00     0.074 A 
ATOM     56  C   UNL A   1      49.149  30.473  27.231  1.00  0.00     0.029 A 
ATOM     57  N   UNL A   1      47.139  29.534  27.462  1.00  0.00    -0.354 N 
ATOM     58  N   UNL A   1      44.258  29.597  28.022  1.00  0.00    -0.248 NA
ATOM     59  C   UNL A   1      42.447  30.653  29.049  1.00  0.00     0.031 C 
ATOM     60  C   UNL A   1      48.341  31.336  27.962  1.00  0.00     0.029 A 
ATOM     61  C   UNL A   1      47.077  30.780  28.050  1.00  0.00     0.049 A 
ATOM     62  H   UNL A   1      46.394  28.893  27.398  1.00  0.00     0.167 HD
ATOM     63  C   UNL A   1      44.670  30.800  28.590  1.00  0.00     0.074 A 
ATOM     64  C   UNL A   1      43.515  31.413  29.198  1.00  0.00     0.031 C 
ATOM     65  C   UNL A   1      45.900  31.355  28.628  1.00  0.00     0.031 A 
BRANCH  52  66
ATOM     66  C   UNL A   1      50.322  27.965  26.054  1.00  0.00    -0.014 A 
ATOM     67  C   UNL A   1      51.225  27.513  27.030  1.00  0.00     0.009 A 
ATOM     68  C   UNL A   1      50.785  28.235  24.760  1.00  0.00     0.009 A 
ATOM     69  C   UNL A   1      52.576  27.367  26.722  1.00  0.00     0.001 A 
ATOM     70  C   UNL A   1      52.127  28.041  24.442  1.00  0.00     0.001 A 
ATOM     71  C   UNL A   1      53.021  27.616  25.425  1.00  0.00     0.000 A 
ENDBRANCH  52  66
BRANCH  53  72
ATOM     72  C   UNL A   1      40.474  28.680  28.811  1.00  0.00    -0.014 A 
ATOM     73  C   UNL A   1      39.482  29.401  28.119  1.00  0.00     0.009 A 
ATOM     74  C   UNL A   1      39.985  28.116  30.049  1.00  0.00     0.009 A 
ATOM     75  C   UNL A   1      38.148  29.493  28.610  1.00  0.00     0.001 A 
ATOM     76  C   UNL A   1      38.652  28.107  30.472  1.00  0.00     0.001 A 
ATOM     77  C   UNL A   1      37.726  28.813  29.754  1.00  0.00     0.000 A 
ENDBRANCH  53  72
BRANCH  65  78
ATOM     78  C   UNL A   1      46.016  32.737  29.199  1.00  0.00    -0.014 A 
ATOM     79  C   UNL A   1      46.376  32.984  30.530  1.00  0.00     0.009 A 
ATOM     80  C   UNL A   1      45.776  33.820  28.338  1.00  0.00     0.009 A 
ATOM     81  C   UNL A   1      46.456  34.297  30.996  1.00  0.00     0.001 A 
ATOM     82  C   UNL A   1      45.910  35.127  28.790  1.00  0.00     0.001 A 
ATOM     83  C   UNL A   1      46.234  35.365  30.123  1.00  0.00     0.000 A 
ENDBRANCH  65  78
ENDBRANCH  39  40
ENDBRANCH  32  34
ENDBRANCH  31  32
ENDBRANCH  30  31
ENDBRANCH  29  30
ENDBRANCH  28  29
ENDBRANCH  27  28
ENDBRANCH   1  27
TORSDOF 22
ENDMDL
MODEL 3
REMARK VINA RESULT:      -9.8      4.210      9.518
REMARK SMILES CC(=O)N(c1ccccc1)c1nc(/C=C(/C#N)C(=O)OCCOCCOCCOC(=O)c2ccc(-c3c4nc(c(-c5ccccc5)c5ccc([nH]5)c(-c5ccccc5)c5nc(c(-c6ccccc6)c6ccc3[nH]6)C=C5)C=C4)cc2)cs1
REMARK SMILES IDX 24 1 23 2 22 3 21 4 20 5 18 6 19 7 15 8 14 9 13 10 11 11
REMARK SMILES IDX 12 12 81 13 80 14 4 15 2 16 1 17 3 18 5 19 6 20 10 21 7 22
REMARK SMILES IDX 9 23 8 24 16 25 17 26 25 27 26 28 27 29 28 30 29 31 30 32
REMARK SMILES IDX 31 33 32 34 33 35 79 36 34 37 78 38 35 39 36 40 37 41 72 42
REMARK SMILES IDX 38 43 77 44 71 45 73 46 39 47 76 48 70 49 69 50 40 52 62 53
REMARK SMILES IDX 47 54 61 55 48 56 51 57 60 58 74 59 49 60 50 61 59 63 75 64
REMARK SMILES IDX 52 65 41 66 42 67 46 68 43 69 45 70 44 71 63 72 64 73 68 74
REMARK SMILES IDX 65 75 67 76 66 77 53 78 54 79 58 80 55 81 57 82 56 83
REMARK H PARENT 73 51 51 62
REMARK Flexibility Score: inf
ROOT
ATOM      1  C   UNL A   1      32.809  22.127  25.110  1.00  0.00     0.188 C 
ENDROOT
BRANCH   1   2
ATOM      2  O   UNL A   1      32.075  23.328  25.104  1.00  0.00    -0.376 OA
BRANCH   2   3
ATOM      3  C   UNL A   1      32.201  24.257  26.169  1.00  0.00     0.202 C 
BRANCH   3   4
ATOM      4  C   UNL A   1      31.509  25.646  26.219  1.00  0.00     0.261 C 
BRANCH   4   5
ATOM      5  O   UNL A   1      32.312  26.775  26.618  1.00  0.00    -0.459 OA
BRANCH   5   6
ATOM      6  C   UNL A   1      31.670  27.935  26.940  1.00  0.00     0.349 C 
ATOM      7  O   UNL A   1      31.160  28.180  28.020  1.00  0.00    -0.245 OA
BRANCH   6   8
ATOM      8  C   UNL A   1      31.869  28.950  25.863  1.00  0.00     0.139 C 
ATOM      9  C   UNL A   1      32.818  29.920  25.898  1.00  0.00     0.056 C 
BRANCH   9  10
ATOM     10  C   UNL A   1      33.807  30.232  26.898  1.00  0.00     0.078 A 
ATOM     11  C   UNL A   1      34.770  31.575  28.373  1.00  0.00     0.197 A 
ATOM     12  N   UNL A   1      33.774  31.485  27.508  1.00  0.00    -0.220 NA
ATOM     13  S   UNL A   1      35.728  30.154  28.560  1.00  0.00    -0.104 S 
ATOM     14  C   UNL A   1      34.863  29.442  27.296  1.00  0.00     0.097 A 
BRANCH  11  15
ATOM     15  N   UNL A   1      35.172  32.632  29.180  1.00  0.00    -0.256 N 
BRANCH  15  16
ATOM     16  C   UNL A   1      34.394  33.775  29.154  1.00  0.00     0.230 C 
ATOM     17  C   UNL A   1      34.669  34.812  28.092  1.00  0.00     0.115 C 
ATOM     18  O   UNL A   1      33.481  34.004  29.958  1.00  0.00    -0.274 OA
ENDBRANCH  15  16
BRANCH  15  19
ATOM     19  C   UNL A   1      36.256  32.278  30.062  1.00  0.00     0.051 A 
ATOM     20  C   UNL A   1      35.575  31.860  31.882  1.00  0.00     0.027 A 
ATOM     21  C   UNL A   1      38.102  32.581  29.398  1.00  0.00     0.027 A 
ATOM     22  C   UNL A   1      37.027  31.453  33.278  1.00  0.00     0.002 A 
ATOM     23  C   UNL A   1      39.553  32.143  30.797  1.00  0.00     0.002 A 
ATOM     24  C   UNL A   1      38.864  31.530  32.546  1.00  0.00     0.000 A 
ENDBRANCH  15  19
ENDBRANCH  11  15
ENDBRANCH   9  10
BRANCH   8  25
ATOM     25  C   UNL A   1      31.066  28.795  24.695  1.00  0.00     0.107 C 
ATOM     26  N   UNL A   1      30.389  28.635  23.766  1.00  0.00    -0.192 NA
ENDBRANCH   8  25
ENDBRANCH   6   8
ENDBRANCH   5   6
ENDBRANCH   4   5
ENDBRANCH   3   4
ENDBRANCH   2   3
ENDBRANCH   1   2
BRANCH   1  27
ATOM     27  C   UNL A   1      34.349  22.123  25.177  1.00  0.00     0.188 C 
BRANCH  27  28
ATOM     28  O   UNL A   1      35.045  23.138  24.507  1.00  0.00    -0.376 OA
BRANCH  28  29
ATOM     29  C   UNL A   1      36.373  23.403  24.917  1.00  0.00     0.202 C 
BRANCH  29  30
ATOM     30  C   UNL A   1      37.287  22.380  25.656  1.00  0.00     0.261 C 
BRANCH  30  31
ATOM     31  O   UNL A   1      38.595  22.788  26.143  1.00  0.00    -0.460 OA
BRANCH  31  32
ATOM     32  C   UNL A   1      39.560  21.826  26.172  1.00  0.00     0.338 C 
ATOM     33  O   UNL A   1      39.409  20.666  25.824  1.00  0.00    -0.246 OA
BRANCH  32  34
ATOM     34  C   UNL A   1      40.920  22.335  26.531  1.00  0.00     0.060 A 
ATOM     35  C   UNL A   1      41.228  23.711  26.570  1.00  0.00     0.016 A 
ATOM     36  C   UNL A   1      41.970  21.436  26.562  1.00  0.00     0.016 A 
ATOM     37  C   UNL A   1      42.563  24.181  26.726  1.00  0.00     0.010 A 
ATOM     38  C   UNL A   1      43.294  21.913  26.666  1.00  0.00     0.010 A 
ATOM     39  C   UNL A   1      43.622  23.278  26.937  1.00  0.00    -0.014 A 
BRANCH  39  40
ATOM     40  C   UNL A   1      45.130  23.703  27.651  1.00  0.00     0.031 A 
ATOM     41  C   UNL A   1      44.916  23.874  29.141  1.00  0.00     0.074 A 
ATOM     42  C   UNL A   1      46.389  24.321  26.940  1.00  0.00     0.049 A 
ATOM     43  N   UNL A   1      45.687  24.420  30.036  1.00  0.00    -0.248 NA
ATOM     44  C   UNL A   1      43.555  23.546  29.636  1.00  0.00     0.031 C 
ATOM     45  C   UNL A   1      46.421  24.962  24.959  1.00  0.00     0.029 A 
ATOM     46  N   UNL A   1      47.488  24.594  27.602  1.00  0.00    -0.354 N 
ATOM     47  C   UNL A   1      44.885  24.549  31.165  1.00  0.00     0.074 A 
ATOM     48  C   UNL A   1      43.556  24.115  30.827  1.00  0.00     0.031 C 
ATOM     49  C   UNL A   1      47.490  25.321  24.816  1.00  0.00     0.029 A 
ATOM     50  C   UNL A   1      48.340  24.990  26.685  1.00  0.00     0.049 A 
ATOM     51  H   UNL A   1      47.642  24.518  28.573  1.00  0.00     0.167 HD
ATOM     52  C   UNL A   1      45.222  24.989  32.391  1.00  0.00     0.031 A 
ATOM     53  C   UNL A   1      49.815  25.369  27.041  1.00  0.00     0.031 A 
ATOM     54  C   UNL A   1      46.519  25.480  32.721  1.00  0.00     0.049 A 
ATOM     55  C   UNL A   1      50.152  25.749  28.474  1.00  0.00     0.074 A 
ATOM     56  C   UNL A   1      46.997  25.841  33.964  1.00  0.00     0.029 A 
ATOM     57  N   UNL A   1      47.524  25.713  31.800  1.00  0.00    -0.354 N 
ATOM     58  N   UNL A   1      49.408  25.724  29.548  1.00  0.00    -0.248 NA
ATOM     59  C   UNL A   1      51.475  26.373  28.679  1.00  0.00     0.031 C 
ATOM     60  C   UNL A   1      48.261  26.391  33.784  1.00  0.00     0.029 A 
ATOM     61  C   UNL A   1      48.611  26.253  32.453  1.00  0.00     0.049 A 
ATOM     62  H   UNL A   1      47.470  25.525  30.835  1.00  0.00     0.167 HD
ATOM     63  C   UNL A   1      50.170  26.334  30.542  1.00  0.00     0.074 A 
ATOM     64  C   UNL A   1      51.435  26.703  29.956  1.00  0.00     0.031 C 
ATOM     65  C   UNL A   1      49.856  26.589  31.830  1.00  0.00     0.031 A 
BRANCH  52  66
ATOM     66  C   UNL A   1      44.167  24.956  33.454  1.00  0.00    -0.014 A 
ATOM     67  C   UNL A   1      43.450  26.115  33.795  1.00  0.00     0.009 A 
ATOM     68  C   UNL A   1      43.863  23.746  34.091  1.00  0.00     0.009 A 
ATOM     69  C   UNL A   1      42.469  26.067  34.783  1.00  0.00     0.001 A 
ATOM     70  C   UNL A   1      42.848  23.692  35.043  1.00  0.00     0.001 A 
ATOM     71  C   UNL A   1      42.160  24.853  35.393  1.00  0.00     0.000 A 
ENDBRANCH  52  66
BRANCH  53  72
ATOM     72  C   UNL A   1      51.110  25.813  25.960  1.00  0.00    -0.014 A 
ATOM     73  C   UNL A   1      52.224  24.967  25.798  1.00  0.00     0.009 A 
ATOM     74  C   UNL A   1      51.104  26.906  25.014  1.00  0.00     0.009 A 
ATOM     75  C   UNL A   1      53.185  25.188  24.770  1.00  0.00     0.001 A 
ATOM     76  C   UNL A   1      51.979  27.057  23.934  1.00  0.00     0.001 A 
ATOM     77  C   UNL A   1      53.038  26.197  23.817  1.00  0.00     0.000 A 
ENDBRANCH  53  72
BRANCH  65  78
ATOM     78  C   UNL A   1      50.939  27.143  32.707  1.00  0.00    -0.014 A 
ATOM     79  C   UNL A   1      51.101  28.514  32.945  1.00  0.00     0.009 A 
ATOM     80  C   UNL A   1      51.802  26.229  33.333  1.00  0.00     0.009 A 
ATOM     81  C   UNL A   1      52.138  28.959  33.766  1.00  0.00     0.001 A 
ATOM     82  C   UNL A   1      52.799  26.672  34.194  1.00  0.00     0.001 A 
ATOM     83  C   UNL A   1      52.976  28.037  34.397  1.00  0.00     0.000 A 
ENDBRANCH  65  78
ENDBRANCH  39  40
ENDBRANCH  32  34
ENDBRANCH  31  32
ENDBRANCH  30  31
ENDBRANCH  29  30
ENDBRANCH  28  29
ENDBRANCH  27  28
ENDBRANCH   1  27
TORSDOF 22
ENDMDL
