MODEL 1
REMARK VINA RESULT:     -10.9      0.000      0.000
REMARK SMILES O=C(Cn1c2ccccc2c(=O)c2ccccc21)N[C@@H](Cc1ccccc1)C(=O)OCCOCCOCCOC(=O)c1ccc(-c2c3nc(c(-c4ccccc4)c4ccc([nH]4)c(-c4ccccc4)c4nc(c(-c5ccccc5)c5ccc2[nH]5)C=C4)C=C3)cc1
REMARK SMILES IDX 34 1 33 2 32 3 31 4 30 5 28 6 29 7 20 8 19 9 1 10 2 11 3 13
REMARK SMILES IDX 4 14 5 15 18 16 6 17 10 18 13 19 17 20 7 21 9 22 11 23 14 24
REMARK SMILES IDX 16 25 8 26 12 27 15 28 21 29 22 30 23 31 27 32 24 33 26 34
REMARK SMILES IDX 25 35 35 36 36 37 37 38 38 39 39 40 40 41 41 42 42 43 43 44
REMARK SMILES IDX 89 45 44 46 88 47 45 48 46 49 47 50 82 51 48 52 87 53 81 54
REMARK SMILES IDX 83 55 49 56 86 57 80 58 79 59 50 61 72 62 57 63 71 64 58 65
REMARK SMILES IDX 61 66 70 67 84 68 59 69 60 70 69 72 85 73 62 74 51 75 52 76
REMARK SMILES IDX 56 77 53 78 55 79 54 80 73 81 74 82 78 83 75 84 77 85 76 86
REMARK SMILES IDX 63 87 64 88 68 89 65 90 67 91 66 92
REMARK H PARENT 19 12 83 60 61 71
REMARK Flexibility Score: inf
ROOT
ATOM      1  C   UNL A   1      34.890  33.466  28.780  1.00  0.00     0.188 C 
ENDROOT
BRANCH   1   2
ATOM      2  O   UNL A   1      35.516  32.194  28.867  1.00  0.00    -0.376 OA
BRANCH   2   3
ATOM      3  C   UNL A   1      35.559  31.355  27.723  1.00  0.00     0.202 C 
BRANCH   3   4
ATOM      4  C   UNL A   1      34.784  30.041  27.773  1.00  0.00     0.261 C 
BRANCH   4   5
ATOM      5  O   UNL A   1      34.395  29.579  26.467  1.00  0.00    -0.462 OA
BRANCH   5   6
ATOM      6  C   UNL A   1      33.146  29.923  26.057  1.00  0.00     0.329 C 
ATOM      7  O   UNL A   1      32.383  30.642  26.694  1.00  0.00    -0.250 OA
BRANCH   6   8
ATOM      8  C   UNL A   1      32.691  29.156  24.799  1.00  0.00     0.196 C 
BRANCH   8   9
ATOM      9  N   UNL A   1      33.248  27.841  24.414  1.00  0.00    -0.341 N 
ATOM     10  O   UNL A   1      33.587  28.258  22.193  1.00  0.00    -0.273 OA
ATOM     11  C   UNL A   1      33.511  27.447  23.115  1.00  0.00     0.240 C 
ATOM     12  H   UNL A   1      33.445  27.200  25.135  1.00  0.00     0.164 HD
BRANCH  11  13
ATOM     13  C   UNL A   1      33.566  25.917  22.870  1.00  0.00     0.222 C 
BRANCH  13  14
ATOM     14  N   UNL A   1      33.191  25.076  24.035  1.00  0.00    -0.331 N 
ATOM     15  C   UNL A   1      31.864  25.153  24.531  1.00  0.00     0.053 A 
ATOM     16  C   UNL A   1      34.139  24.180  24.602  1.00  0.00     0.053 A 
ATOM     17  C   UNL A   1      30.795  25.741  23.835  1.00  0.00     0.027 A 
ATOM     18  C   UNL A   1      31.539  24.576  25.771  1.00  0.00     0.046 A 
ATOM     19  C   UNL A   1      33.811  23.462  25.773  1.00  0.00     0.046 A 
ATOM     20  C   UNL A   1      35.398  23.888  24.044  1.00  0.00     0.027 A 
ATOM     21  C   UNL A   1      29.519  25.869  24.400  1.00  0.00     0.002 A 
ATOM     22  C   UNL A   1      30.270  24.717  26.356  1.00  0.00     0.014 A 
ATOM     23  C   UNL A   1      32.528  23.726  26.454  1.00  0.00     0.197 A 
ATOM     24  C   UNL A   1      34.661  22.490  26.331  1.00  0.00     0.014 A 
ATOM     25  C   UNL A   1      36.252  22.917  24.599  1.00  0.00     0.002 A 
ATOM     26  C   UNL A   1      29.264  25.387  25.676  1.00  0.00     0.001 A 
ATOM     27  O   UNL A   1      32.258  23.210  27.536  1.00  0.00    -0.288 OA
ATOM     28  C   UNL A   1      35.883  22.214  25.738  1.00  0.00     0.001 A 
ENDBRANCH  13  14
ENDBRANCH  11  13
ENDBRANCH   8   9
BRANCH   8  29
ATOM     29  C   UNL A   1      31.147  29.067  24.895  1.00  0.00     0.072 C 
BRANCH  29  30
ATOM     30  C   UNL A   1      30.290  29.798  23.867  1.00  0.00    -0.045 A 
ATOM     31  C   UNL A   1      29.704  31.017  24.245  1.00  0.00     0.004 A 
ATOM     32  C   UNL A   1      30.066  29.356  22.556  1.00  0.00     0.004 A 
ATOM     33  C   UNL A   1      28.922  31.755  23.351  1.00  0.00     0.000 A 
ATOM     34  C   UNL A   1      29.291  30.095  21.657  1.00  0.00     0.000 A 
ATOM     35  C   UNL A   1      28.720  31.295  22.054  1.00  0.00     0.000 A 
ENDBRANCH  29  30
ENDBRANCH   8  29
ENDBRANCH   6   8
ENDBRANCH   5   6
ENDBRANCH   4   5
ENDBRANCH   3   4
ENDBRANCH   2   3
ENDBRANCH   1   2
BRANCH   1  36
ATOM     36  C   UNL A   1      34.354  34.166  30.045  1.00  0.00     0.188 C 
BRANCH  36  37
ATOM     37  O   UNL A   1      34.179  33.442  31.249  1.00  0.00    -0.376 OA
BRANCH  37  38
ATOM     38  C   UNL A   1      34.135  34.181  32.465  1.00  0.00     0.202 C 
BRANCH  38  39
ATOM     39  C   UNL A   1      34.815  33.542  33.674  1.00  0.00     0.261 C 
BRANCH  39  40
ATOM     40  O   UNL A   1      35.526  32.355  33.280  1.00  0.00    -0.460 OA
BRANCH  40  41
ATOM     41  C   UNL A   1      36.723  32.170  33.882  1.00  0.00     0.338 C 
ATOM     42  O   UNL A   1      37.007  32.338  35.053  1.00  0.00    -0.246 OA
BRANCH  41  43
ATOM     43  C   UNL A   1      37.648  31.572  32.912  1.00  0.00     0.060 A 
ATOM     44  C   UNL A   1      37.372  31.682  31.553  1.00  0.00     0.016 A 
ATOM     45  C   UNL A   1      38.807  30.925  33.367  1.00  0.00     0.016 A 
ATOM     46  C   UNL A   1      38.284  31.169  30.636  1.00  0.00     0.010 A 
ATOM     47  C   UNL A   1      39.712  30.396  32.446  1.00  0.00     0.010 A 
ATOM     48  C   UNL A   1      39.467  30.543  31.076  1.00  0.00    -0.014 A 
BRANCH  48  49
ATOM     49  C   UNL A   1      40.505  30.224  30.074  1.00  0.00     0.031 A 
ATOM     50  C   UNL A   1      41.620  31.170  29.772  1.00  0.00     0.074 A 
ATOM     51  C   UNL A   1      40.460  29.007  29.501  1.00  0.00     0.049 A 
ATOM     52  N   UNL A   1      42.732  30.934  29.125  1.00  0.00    -0.248 NA
ATOM     53  C   UNL A   1      41.476  32.551  30.253  1.00  0.00     0.031 C 
ATOM     54  C   UNL A   1      39.398  28.023  29.718  1.00  0.00     0.029 A 
ATOM     55  N   UNL A   1      41.340  28.376  28.660  1.00  0.00    -0.354 N 
ATOM     56  C   UNL A   1      43.441  32.126  29.149  1.00  0.00     0.074 A 
ATOM     57  C   UNL A   1      42.611  33.099  29.829  1.00  0.00     0.031 C 
ATOM     58  C   UNL A   1      39.714  26.892  29.070  1.00  0.00     0.029 A 
ATOM     59  C   UNL A   1      40.988  27.077  28.384  1.00  0.00     0.049 A 
ATOM     60  H   UNL A   1      42.142  28.810  28.291  1.00  0.00     0.167 HD
ATOM     61  C   UNL A   1      44.682  32.367  28.663  1.00  0.00     0.031 A 
ATOM     62  C   UNL A   1      41.636  26.126  27.685  1.00  0.00     0.031 A 
ATOM     63  C   UNL A   1      45.477  31.393  27.959  1.00  0.00     0.049 A 
ATOM     64  C   UNL A   1      42.994  26.434  27.124  1.00  0.00     0.074 A 
ATOM     65  C   UNL A   1      46.761  31.530  27.462  1.00  0.00     0.029 A 
ATOM     66  N   UNL A   1      45.057  30.111  27.635  1.00  0.00    -0.354 N 
ATOM     67  N   UNL A   1      43.703  27.531  27.242  1.00  0.00    -0.248 NA
ATOM     68  C   UNL A   1      43.653  25.370  26.353  1.00  0.00     0.031 C 
ATOM     69  C   UNL A   1      47.091  30.360  26.775  1.00  0.00     0.029 A 
ATOM     70  C   UNL A   1      46.043  29.462  26.908  1.00  0.00     0.049 A 
ATOM     71  H   UNL A   1      44.189  29.719  27.884  1.00  0.00     0.167 HD
ATOM     72  C   UNL A   1      44.896  27.287  26.577  1.00  0.00     0.074 A 
ATOM     73  C   UNL A   1      44.825  25.929  26.075  1.00  0.00     0.031 C 
ATOM     74  C   UNL A   1      45.954  28.115  26.402  1.00  0.00     0.031 A 
BRANCH  61  75
ATOM     75  C   UNL A   1      45.274  33.733  28.873  1.00  0.00    -0.014 A 
ATOM     76  C   UNL A   1      45.156  34.712  27.873  1.00  0.00     0.009 A 
ATOM     77  C   UNL A   1      46.057  34.011  30.005  1.00  0.00     0.009 A 
ATOM     78  C   UNL A   1      45.822  35.934  27.994  1.00  0.00     0.001 A 
ATOM     79  C   UNL A   1      46.701  35.244  30.135  1.00  0.00     0.001 A 
ATOM     80  C   UNL A   1      46.592  36.200  29.124  1.00  0.00     0.000 A 
ENDBRANCH  61  75
BRANCH  62  81
ATOM     81  C   UNL A   1      41.017  24.783  27.544  1.00  0.00    -0.014 A 
ATOM     82  C   UNL A   1      41.557  23.677  28.223  1.00  0.00     0.009 A 
ATOM     83  C   UNL A   1      39.931  24.582  26.680  1.00  0.00     0.009 A 
ATOM     84  C   UNL A   1      41.041  22.396  28.018  1.00  0.00     0.001 A 
ATOM     85  C   UNL A   1      39.398  23.304  26.500  1.00  0.00     0.001 A 
ATOM     86  C   UNL A   1      39.960  22.211  27.160  1.00  0.00     0.000 A 
ENDBRANCH  62  81
BRANCH  74  87
ATOM     87  C   UNL A   1      47.134  27.592  25.627  1.00  0.00    -0.014 A 
ATOM     88  C   UNL A   1      47.158  27.710  24.228  1.00  0.00     0.009 A 
ATOM     89  C   UNL A   1      48.162  26.886  26.268  1.00  0.00     0.009 A 
ATOM     90  C   UNL A   1      48.178  27.114  23.485  1.00  0.00     0.001 A 
ATOM     91  C   UNL A   1      49.199  26.318  25.524  1.00  0.00     0.001 A 
ATOM     92  C   UNL A   1      49.199  26.422  24.133  1.00  0.00     0.000 A 
ENDBRANCH  74  87
ENDBRANCH  48  49
ENDBRANCH  41  43
ENDBRANCH  40  41
ENDBRANCH  39  40
ENDBRANCH  38  39
ENDBRANCH  37  38
ENDBRANCH  36  37
ENDBRANCH   1  36
TORSDOF 22
ENDMDL
MODEL 2
REMARK VINA RESULT:     -10.6      0.855      2.296
REMARK SMILES O=C(Cn1c2ccccc2c(=O)c2ccccc21)N[C@@H](Cc1ccccc1)C(=O)OCCOCCOCCOC(=O)c1ccc(-c2c3nc(c(-c4ccccc4)c4ccc([nH]4)c(-c4ccccc4)c4nc(c(-c5ccccc5)c5ccc2[nH]5)C=C4)C=C3)cc1
REMARK SMILES IDX 34 1 33 2 32 3 31 4 30 5 28 6 29 7 20 8 19 9 1 10 2 11 3 13
REMARK SMILES IDX 4 14 5 15 18 16 6 17 10 18 13 19 17 20 7 21 9 22 11 23 14 24
REMARK SMILES IDX 16 25 8 26 12 27 15 28 21 29 22 30 23 31 27 32 24 33 26 34
REMARK SMILES IDX 25 35 35 36 36 37 37 38 38 39 39 40 40 41 41 42 42 43 43 44
REMARK SMILES IDX 89 45 44 46 88 47 45 48 46 49 47 50 82 51 48 52 87 53 81 54
REMARK SMILES IDX 83 55 49 56 86 57 80 58 79 59 50 61 72 62 57 63 71 64 58 65
REMARK SMILES IDX 61 66 70 67 84 68 59 69 60 70 69 72 85 73 62 74 51 75 52 76
REMARK SMILES IDX 56 77 53 78 55 79 54 80 73 81 74 82 78 83 75 84 77 85 76 86
REMARK SMILES IDX 63 87 64 88 68 89 65 90 67 91 66 92
REMARK H PARENT 19 12 83 60 61 71
REMARK Flexibility Score: inf
ROOT
ATOM      1  C   UNL A   1      34.842  32.119  28.140  1.00  0.00     0.188 C 
ENDROOT
BRANCH   1   2
ATOM      2  O   UNL A   1      35.195  30.786  28.478  1.00  0.00    -0.376 OA
BRANCH   2   3
ATOM      3  C   UNL A   1      35.219  29.790  27.467  1.00  0.00     0.202 C 
BRANCH   3   4
ATOM      4  C   UNL A   1      33.937  28.999  27.216  1.00  0.00     0.261 C 
BRANCH   4   5
ATOM      5  O   UNL A   1      33.718  28.734  25.819  1.00  0.00    -0.462 OA
BRANCH   5   6
ATOM      6  C   UNL A   1      32.658  29.365  25.249  1.00  0.00     0.329 C 
ATOM      7  O   UNL A   1      32.220  30.450  25.616  1.00  0.00    -0.250 OA
BRANCH   6   8
ATOM      8  C   UNL A   1      31.919  28.491  24.215  1.00  0.00     0.196 C 
BRANCH   8   9
ATOM      9  N   UNL A   1      32.106  27.027  24.121  1.00  0.00    -0.341 N 
ATOM     10  O   UNL A   1      34.106  27.017  23.014  1.00  0.00    -0.273 OA
ATOM     11  C   UNL A   1      33.108  26.407  23.396  1.00  0.00     0.240 C 
ATOM     12  H   UNL A   1      31.472  26.453  24.608  1.00  0.00     0.164 HD
BRANCH  11  13
ATOM     13  C   UNL A   1      32.833  24.939  22.981  1.00  0.00     0.222 C 
BRANCH  13  14
ATOM     14  N   UNL A   1      33.043  23.929  24.049  1.00  0.00    -0.331 N 
ATOM     15  C   UNL A   1      34.297  23.270  24.126  1.00  0.00     0.053 A 
ATOM     16  C   UNL A   1      32.015  23.671  24.999  1.00  0.00     0.053 A 
ATOM     17  C   UNL A   1      35.455  23.700  23.457  1.00  0.00     0.027 A 
ATOM     18  C   UNL A   1      34.452  22.140  24.947  1.00  0.00     0.046 A 
ATOM     19  C   UNL A   1      32.179  22.635  25.944  1.00  0.00     0.046 A 
ATOM     20  C   UNL A   1      30.833  24.424  25.123  1.00  0.00     0.027 A 
ATOM     21  C   UNL A   1      36.652  22.970  23.496  1.00  0.00     0.002 A 
ATOM     22  C   UNL A   1      35.639  21.389  24.976  1.00  0.00     0.014 A 
ATOM     23  C   UNL A   1      33.370  21.765  25.872  1.00  0.00     0.197 A 
ATOM     24  C   UNL A   1      31.249  22.389  26.970  1.00  0.00     0.014 A 
ATOM     25  C   UNL A   1      29.899  24.182  26.147  1.00  0.00     0.002 A 
ATOM     26  C   UNL A   1      36.734  21.795  24.228  1.00  0.00     0.001 A 
ATOM     27  O   UNL A   1      33.491  20.783  26.600  1.00  0.00    -0.288 OA
ATOM     28  C   UNL A   1      30.108  23.169  27.074  1.00  0.00     0.001 A 
ENDBRANCH  13  14
ENDBRANCH  11  13
ENDBRANCH   8   9
BRANCH   8  29
ATOM     29  C   UNL A   1      30.414  28.820  24.383  1.00  0.00     0.072 C 
BRANCH  29  30
ATOM     30  C   UNL A   1      29.775  29.878  23.491  1.00  0.00    -0.045 A 
ATOM     31  C   UNL A   1      29.615  29.581  22.128  1.00  0.00     0.004 A 
ATOM     32  C   UNL A   1      29.305  31.121  23.939  1.00  0.00     0.004 A 
ATOM     33  C   UNL A   1      29.018  30.493  21.251  1.00  0.00     0.000 A 
ATOM     34  C   UNL A   1      28.701  32.032  23.066  1.00  0.00     0.000 A 
ATOM     35  C   UNL A   1      28.556  31.717  21.723  1.00  0.00     0.000 A 
ENDBRANCH  29  30
ENDBRANCH   8  29
ENDBRANCH   6   8
ENDBRANCH   5   6
ENDBRANCH   4   5
ENDBRANCH   3   4
ENDBRANCH   2   3
ENDBRANCH   1   2
BRANCH   1  36
ATOM     36  C   UNL A   1      34.450  33.131  29.236  1.00  0.00     0.188 C 
BRANCH  36  37
ATOM     37  O   UNL A   1      34.394  32.734  30.594  1.00  0.00    -0.376 OA
BRANCH  37  38
ATOM     38  C   UNL A   1      34.576  33.740  31.584  1.00  0.00     0.202 C 
BRANCH  38  39
ATOM     39  C   UNL A   1      34.878  33.254  33.001  1.00  0.00     0.261 C 
BRANCH  39  40
ATOM     40  O   UNL A   1      35.535  31.976  32.962  1.00  0.00    -0.460 OA
BRANCH  40  41
ATOM     41  C   UNL A   1      36.752  31.933  33.552  1.00  0.00     0.338 C 
ATOM     42  O   UNL A   1      37.042  32.232  34.694  1.00  0.00    -0.246 OA
BRANCH  41  43
ATOM     43  C   UNL A   1      37.701  31.307  32.622  1.00  0.00     0.060 A 
ATOM     44  C   UNL A   1      37.415  31.301  31.261  1.00  0.00     0.016 A 
ATOM     45  C   UNL A   1      38.892  30.754  33.116  1.00  0.00     0.016 A 
ATOM     46  C   UNL A   1      38.347  30.764  30.378  1.00  0.00     0.010 A 
ATOM     47  C   UNL A   1      39.818  30.200  32.231  1.00  0.00     0.010 A 
ATOM     48  C   UNL A   1      39.560  30.231  30.855  1.00  0.00    -0.014 A 
BRANCH  48  49
ATOM     49  C   UNL A   1      40.610  29.887  29.873  1.00  0.00     0.031 A 
ATOM     50  C   UNL A   1      41.729  30.825  29.561  1.00  0.00     0.074 A 
ATOM     51  C   UNL A   1      40.569  28.657  29.328  1.00  0.00     0.049 A 
ATOM     52  N   UNL A   1      42.848  30.573  28.932  1.00  0.00    -0.248 NA
ATOM     53  C   UNL A   1      41.582  32.217  30.007  1.00  0.00     0.031 C 
ATOM     54  C   UNL A   1      39.503  27.680  29.556  1.00  0.00     0.029 A 
ATOM     55  N   UNL A   1      41.457  28.006  28.512  1.00  0.00    -0.354 N 
ATOM     56  C   UNL A   1      43.558  31.764  28.936  1.00  0.00     0.074 A 
ATOM     57  C   UNL A   1      42.721  32.753  29.583  1.00  0.00     0.031 C 
ATOM     58  C   UNL A   1      39.824  26.534  28.939  1.00  0.00     0.029 A 
ATOM     59  C   UNL A   1      41.107  26.701  28.263  1.00  0.00     0.049 A 
ATOM     60  H   UNL A   1      42.264  28.430  28.142  1.00  0.00     0.167 HD
ATOM     61  C   UNL A   1      44.804  31.992  28.457  1.00  0.00     0.031 A 
ATOM     62  C   UNL A   1      41.761  25.733  27.593  1.00  0.00     0.031 A 
ATOM     63  C   UNL A   1      45.605  31.000  27.785  1.00  0.00     0.049 A 
ATOM     64  C   UNL A   1      43.125  26.026  27.040  1.00  0.00     0.074 A 
ATOM     65  C   UNL A   1      46.895  31.125  27.299  1.00  0.00     0.029 A 
ATOM     66  N   UNL A   1      45.187  29.711  27.487  1.00  0.00    -0.354 N 
ATOM     67  N   UNL A   1      43.834  27.125  27.140  1.00  0.00    -0.248 NA
ATOM     68  C   UNL A   1      43.791  24.944  26.302  1.00  0.00     0.031 C 
ATOM     69  C   UNL A   1      47.231  29.938  26.643  1.00  0.00     0.029 A 
ATOM     70  C   UNL A   1      46.180  29.045  26.787  1.00  0.00     0.049 A 
ATOM     71  H   UNL A   1      44.316  29.327  27.736  1.00  0.00     0.167 HD
ATOM     72  C   UNL A   1      45.034  26.863  26.494  1.00  0.00     0.074 A 
ATOM     73  C   UNL A   1      44.966  25.494  26.024  1.00  0.00     0.031 C 
ATOM     74  C   UNL A   1      46.095  27.686  26.311  1.00  0.00     0.031 A 
BRANCH  61  75
ATOM     75  C   UNL A   1      45.396  33.362  28.642  1.00  0.00    -0.014 A 
ATOM     76  C   UNL A   1      46.025  33.698  29.851  1.00  0.00     0.009 A 
ATOM     77  C   UNL A   1      45.222  34.358  27.668  1.00  0.00     0.009 A 
ATOM     78  C   UNL A   1      46.452  35.007  30.089  1.00  0.00     0.001 A 
ATOM     79  C   UNL A   1      45.673  35.660  27.899  1.00  0.00     0.001 A 
ATOM     80  C   UNL A   1      46.277  35.986  29.113  1.00  0.00     0.000 A 
ENDBRANCH  61  75
BRANCH  62  81
ATOM     81  C   UNL A   1      41.141  24.387  27.478  1.00  0.00    -0.014 A 
ATOM     82  C   UNL A   1      41.682  23.294  28.175  1.00  0.00     0.009 A 
ATOM     83  C   UNL A   1      40.054  24.171  26.619  1.00  0.00     0.009 A 
ATOM     84  C   UNL A   1      41.166  22.009  27.994  1.00  0.00     0.001 A 
ATOM     85  C   UNL A   1      39.521  22.890  26.462  1.00  0.00     0.001 A 
ATOM     86  C   UNL A   1      40.084  21.809  27.141  1.00  0.00     0.000 A 
ENDBRANCH  62  81
BRANCH  74  87
ATOM     87  C   UNL A   1      47.282  27.144  25.562  1.00  0.00    -0.014 A 
ATOM     88  C   UNL A   1      48.308  26.486  26.260  1.00  0.00     0.009 A 
ATOM     89  C   UNL A   1      47.439  27.382  24.189  1.00  0.00     0.009 A 
ATOM     90  C   UNL A   1      49.475  26.095  25.603  1.00  0.00     0.001 A 
ATOM     91  C   UNL A   1      48.595  26.961  23.527  1.00  0.00     0.001 A 
ATOM     92  C   UNL A   1      49.616  26.329  24.236  1.00  0.00     0.000 A 
ENDBRANCH  74  87
ENDBRANCH  48  49
ENDBRANCH  41  43
ENDBRANCH  40  41
ENDBRANCH  39  40
ENDBRANCH  38  39
ENDBRANCH  37  38
ENDBRANCH  36  37
ENDBRANCH   1  36
TORSDOF 22
ENDMDL
MODEL 3
REMARK VINA RESULT:     -10.6      4.085      7.938
REMARK SMILES O=C(Cn1c2ccccc2c(=O)c2ccccc21)N[C@@H](Cc1ccccc1)C(=O)OCCOCCOCCOC(=O)c1ccc(-c2c3nc(c(-c4ccccc4)c4ccc([nH]4)c(-c4ccccc4)c4nc(c(-c5ccccc5)c5ccc2[nH]5)C=C4)C=C3)cc1
REMARK SMILES IDX 34 1 33 2 32 3 31 4 30 5 28 6 29 7 20 8 19 9 1 10 2 11 3 13
REMARK SMILES IDX 4 14 5 15 18 16 6 17 10 18 13 19 17 20 7 21 9 22 11 23 14 24
REMARK SMILES IDX 16 25 8 26 12 27 15 28 21 29 22 30 23 31 27 32 24 33 26 34
REMARK SMILES IDX 25 35 35 36 36 37 37 38 38 39 39 40 40 41 41 42 42 43 43 44
REMARK SMILES IDX 89 45 44 46 88 47 45 48 46 49 47 50 82 51 48 52 87 53 81 54
REMARK SMILES IDX 83 55 49 56 86 57 80 58 79 59 50 61 72 62 57 63 71 64 58 65
REMARK SMILES IDX 61 66 70 67 84 68 59 69 60 70 69 72 85 73 62 74 51 75 52 76
REMARK SMILES IDX 56 77 53 78 55 79 54 80 73 81 74 82 78 83 75 84 77 85 76 86
REMARK SMILES IDX 63 87 64 88 68 89 65 90 67 91 66 92
REMARK H PARENT 19 12 83 60 61 71
REMARK Flexibility Score: inf
ROOT
ATOM      1  C   UNL A   1      34.903  32.061  27.907  1.00  0.00     0.188 C 
ENDROOT
BRANCH   1   2
ATOM      2  O   UNL A   1      33.730  31.342  27.552  1.00  0.00    -0.376 OA
BRANCH   2   3
ATOM      3  C   UNL A   1      33.843  30.015  27.064  1.00  0.00     0.202 C 
BRANCH   3   4
ATOM      4  C   UNL A   1      33.196  29.693  25.719  1.00  0.00     0.261 C 
BRANCH   4   5
ATOM      5  O   UNL A   1      33.687  28.466  25.151  1.00  0.00    -0.462 OA
BRANCH   5   6
ATOM      6  C   UNL A   1      33.687  28.391  23.794  1.00  0.00     0.329 C 
ATOM      7  O   UNL A   1      33.464  29.341  23.050  1.00  0.00    -0.250 OA
BRANCH   6   8
ATOM      8  C   UNL A   1      33.792  26.946  23.268  1.00  0.00     0.196 C 
BRANCH   8   9
ATOM      9  N   UNL A   1      33.859  25.769  24.161  1.00  0.00    -0.341 N 
ATOM     10  O   UNL A   1      34.570  24.227  22.630  1.00  0.00    -0.273 OA
ATOM     11  C   UNL A   1      34.097  24.473  23.739  1.00  0.00     0.240 C 
ATOM     12  H   UNL A   1      33.724  25.918  25.125  1.00  0.00     0.164 HD
BRANCH  11  13
ATOM     13  C   UNL A   1      33.607  23.352  24.691  1.00  0.00     0.222 C 
BRANCH  13  14
ATOM     14  N   UNL A   1      34.554  22.224  24.881  1.00  0.00    -0.331 N 
ATOM     15  C   UNL A   1      35.862  22.506  25.352  1.00  0.00     0.053 A 
ATOM     16  C   UNL A   1      34.129  20.888  24.639  1.00  0.00     0.053 A 
ATOM     17  C   UNL A   1      36.247  23.728  25.927  1.00  0.00     0.027 A 
ATOM     18  C   UNL A   1      36.859  21.515  25.303  1.00  0.00     0.046 A 
ATOM     19  C   UNL A   1      35.063  19.831  24.718  1.00  0.00     0.046 A 
ATOM     20  C   UNL A   1      32.801  20.506  24.378  1.00  0.00     0.027 A 
ATOM     21  C   UNL A   1      37.572  23.991  26.301  1.00  0.00     0.002 A 
ATOM     22  C   UNL A   1      38.194  21.775  25.654  1.00  0.00     0.014 A 
ATOM     23  C   UNL A   1      36.489  20.135  24.950  1.00  0.00     0.197 A 
ATOM     24  C   UNL A   1      34.694  18.480  24.586  1.00  0.00     0.014 A 
ATOM     25  C   UNL A   1      32.426  19.155  24.245  1.00  0.00     0.002 A 
ATOM     26  C   UNL A   1      38.554  23.026  26.133  1.00  0.00     0.001 A 
ATOM     27  O   UNL A   1      37.346  19.256  24.908  1.00  0.00    -0.288 OA
ATOM     28  C   UNL A   1      33.369  18.142  24.354  1.00  0.00     0.001 A 
ENDBRANCH  13  14
ENDBRANCH  11  13
ENDBRANCH   8   9
BRANCH   8  29
ATOM     29  C   UNL A   1      32.627  26.777  22.261  1.00  0.00     0.072 C 
BRANCH  29  30
ATOM     30  C   UNL A   1      31.190  26.932  22.746  1.00  0.00    -0.045 A 
ATOM     31  C   UNL A   1      30.647  25.906  23.536  1.00  0.00     0.004 A 
ATOM     32  C   UNL A   1      30.376  28.044  22.485  1.00  0.00     0.004 A 
ATOM     33  C   UNL A   1      29.343  25.987  24.035  1.00  0.00     0.000 A 
ATOM     34  C   UNL A   1      29.074  28.131  22.989  1.00  0.00     0.000 A 
ATOM     35  C   UNL A   1      28.558  27.104  23.765  1.00  0.00     0.000 A 
ENDBRANCH  29  30
ENDBRANCH   8  29
ENDBRANCH   6   8
ENDBRANCH   5   6
ENDBRANCH   4   5
ENDBRANCH   3   4
ENDBRANCH   2   3
ENDBRANCH   1   2
BRANCH   1  36
ATOM     36  C   UNL A   1      34.857  33.590  28.108  1.00  0.00     0.188 C 
BRANCH  36  37
ATOM     37  O   UNL A   1      33.677  34.219  28.571  1.00  0.00    -0.376 OA
BRANCH  37  38
ATOM     38  C   UNL A   1      33.622  35.641  28.520  1.00  0.00     0.202 C 
BRANCH  38  39
ATOM     39  C   UNL A   1      32.977  36.341  29.714  1.00  0.00     0.261 C 
BRANCH  39  40
ATOM     40  O   UNL A   1      32.625  35.382  30.726  1.00  0.00    -0.460 OA
BRANCH  40  41
ATOM     41  C   UNL A   1      33.143  35.619  31.953  1.00  0.00     0.338 C 
ATOM     42  O   UNL A   1      32.748  36.403  32.795  1.00  0.00    -0.246 OA
BRANCH  41  43
ATOM     43  C   UNL A   1      34.218  34.650  32.204  1.00  0.00     0.060 A 
ATOM     44  C   UNL A   1      35.476  34.875  31.655  1.00  0.00     0.016 A 
ATOM     45  C   UNL A   1      33.968  33.532  33.014  1.00  0.00     0.016 A 
ATOM     46  C   UNL A   1      36.508  33.988  31.948  1.00  0.00     0.010 A 
ATOM     47  C   UNL A   1      34.999  32.634  33.292  1.00  0.00     0.010 A 
ATOM     48  C   UNL A   1      36.281  32.877  32.783  1.00  0.00    -0.014 A 
BRANCH  48  49
ATOM     49  C   UNL A   1      37.449  32.100  33.249  1.00  0.00     0.031 A 
ATOM     50  C   UNL A   1      38.071  31.037  32.406  1.00  0.00     0.074 A 
ATOM     51  C   UNL A   1      37.988  32.445  34.433  1.00  0.00     0.049 A 
ATOM     52  N   UNL A   1      39.234  30.458  32.557  1.00  0.00    -0.248 NA
ATOM     53  C   UNL A   1      37.300  30.562  31.249  1.00  0.00     0.031 C 
ATOM     54  C   UNL A   1      37.438  33.457  35.337  1.00  0.00     0.029 A 
ATOM     55  N   UNL A   1      39.132  32.019  35.057  1.00  0.00    -0.354 N 
ATOM     56  C   UNL A   1      39.354  29.573  31.496  1.00  0.00     0.074 A 
ATOM     57  C   UNL A   1      38.123  29.653  30.737  1.00  0.00     0.031 C 
ATOM     58  C   UNL A   1      38.272  33.612  36.375  1.00  0.00     0.029 A 
ATOM     59  C   UNL A   1      39.403  32.704  36.217  1.00  0.00     0.049 A 
ATOM     60  H   UNL A   1      39.701  31.295  34.711  1.00  0.00     0.167 HD
ATOM     61  C   UNL A   1      40.411  28.786  31.184  1.00  0.00     0.031 A 
ATOM     62  C   UNL A   1      40.463  32.636  37.045  1.00  0.00     0.031 A 
ATOM     63  C   UNL A   1      41.613  28.696  31.974  1.00  0.00     0.049 A 
ATOM     64  C   UNL A   1      41.604  31.725  36.693  1.00  0.00     0.074 A 
ATOM     65  C   UNL A   1      42.754  27.957  31.718  1.00  0.00     0.029 A 
ATOM     66  N   UNL A   1      41.820  29.350  33.180  1.00  0.00    -0.354 N 
ATOM     67  N   UNL A   1      41.755  30.971  35.631  1.00  0.00    -0.248 NA
ATOM     68  C   UNL A   1      42.729  31.672  37.637  1.00  0.00     0.031 C 
ATOM     69  C   UNL A   1      43.622  28.105  32.802  1.00  0.00     0.029 A 
ATOM     70  C   UNL A   1      43.055  28.998  33.700  1.00  0.00     0.049 A 
ATOM     71  H   UNL A   1      41.186  29.972  33.603  1.00  0.00     0.167 HD
ATOM     72  C   UNL A   1      42.996  30.366  35.769  1.00  0.00     0.074 A 
ATOM     73  C   UNL A   1      43.566  30.857  37.007  1.00  0.00     0.031 C 
ATOM     74  C   UNL A   1      43.606  29.483  34.941  1.00  0.00     0.031 A 
BRANCH  61  75
ATOM     75  C   UNL A   1      40.333  27.956  29.932  1.00  0.00    -0.014 A 
ATOM     76  C   UNL A   1      40.953  28.403  28.753  1.00  0.00     0.009 A 
ATOM     77  C   UNL A   1      39.543  26.797  29.884  1.00  0.00     0.009 A 
ATOM     78  C   UNL A   1      40.769  27.717  27.551  1.00  0.00     0.001 A 
ATOM     79  C   UNL A   1      39.383  26.098  28.686  1.00  0.00     0.001 A 
ATOM     80  C   UNL A   1      39.986  26.564  27.518  1.00  0.00     0.000 A 
ENDBRANCH  61  75
BRANCH  62  81
ATOM     81  C   UNL A   1      40.500  33.509  38.247  1.00  0.00    -0.014 A 
ATOM     82  C   UNL A   1      39.971  33.059  39.468  1.00  0.00     0.009 A 
ATOM     83  C   UNL A   1      40.996  34.818  38.166  1.00  0.00     0.009 A 
ATOM     84  C   UNL A   1      39.913  33.909  40.574  1.00  0.00     0.001 A 
ATOM     85  C   UNL A   1      40.963  35.657  39.282  1.00  0.00     0.001 A 
ATOM     86  C   UNL A   1      40.412  35.206  40.481  1.00  0.00     0.000 A 
ENDBRANCH  62  81
BRANCH  74  87
ATOM     87  C   UNL A   1      44.965  28.973  35.337  1.00  0.00    -0.014 A 
ATOM     88  C   UNL A   1      45.074  27.841  36.161  1.00  0.00     0.009 A 
ATOM     89  C   UNL A   1      46.128  29.675  34.989  1.00  0.00     0.009 A 
ATOM     90  C   UNL A   1      46.318  27.434  36.645  1.00  0.00     0.001 A 
ATOM     91  C   UNL A   1      47.376  29.247  35.449  1.00  0.00     0.001 A 
ATOM     92  C   UNL A   1      47.468  28.135  36.287  1.00  0.00     0.000 A 
ENDBRANCH  74  87
ENDBRANCH  48  49
ENDBRANCH  41  43
ENDBRANCH  40  41
ENDBRANCH  39  40
ENDBRANCH  38  39
ENDBRANCH  37  38
ENDBRANCH  36  37
ENDBRANCH   1  36
TORSDOF 22
ENDMDL
