MODEL 1
REMARK VINA RESULT:      -8.9      0.000      0.000
REMARK SMILES CC1(C)[C@H](C#N)C(SCC(=O)OCCOCCOCCOC(=O)c2ccc(-c3c4nc(c(-c5ccccc5)c5ccc([nH]5)c(-c5ccccc5)c5nc(c(-c6ccccc6)c6ccc3[nH]6)C=C5)C=C4)cc2)=NC(=O)[C@@H]1C#N
REMARK SMILES IDX 16 1 15 2 14 3 13 4 12 5 10 6 11 7 9 8 8 9 7 10 1 11 2 12
REMARK SMILES IDX 3 13 4 14 75 15 73 16 72 17 74 18 5 19 6 20 76 21 77 22
REMARK SMILES IDX 17 23 18 24 19 25 20 26 21 27 22 28 23 29 24 30 25 31 71 32
REMARK SMILES IDX 26 33 70 34 27 35 28 36 29 37 64 38 30 39 69 40 63 41 65 42
REMARK SMILES IDX 31 43 68 44 62 45 61 46 32 48 54 49 39 50 53 51 40 52 43 53
REMARK SMILES IDX 52 54 66 55 41 56 42 57 51 59 67 60 44 61 33 62 34 63 38 64
REMARK SMILES IDX 35 65 37 66 36 67 55 68 56 69 60 70 57 71 59 72 58 73 45 74
REMARK SMILES IDX 46 75 50 76 47 77 49 78 48 79
REMARK H PARENT 65 47 43 58
REMARK Flexibility Score: inf
ROOT
ATOM      1  C   UNL A   1      36.548  33.406  29.026  1.00  0.00     0.188 C 
ENDROOT
BRANCH   1   2
ATOM      2  O   UNL A   1      35.996  32.842  27.860  1.00  0.00    -0.376 OA
BRANCH   2   3
ATOM      3  C   UNL A   1      35.420  31.546  27.963  1.00  0.00     0.202 C 
BRANCH   3   4
ATOM      4  C   UNL A   1      33.883  31.396  27.901  1.00  0.00     0.261 C 
BRANCH   4   5
ATOM      5  O   UNL A   1      33.412  30.358  27.000  1.00  0.00    -0.463 OA
BRANCH   5   6
ATOM      6  C   UNL A   1      32.204  30.540  26.395  1.00  0.00     0.316 C 
ATOM      7  O   UNL A   1      31.549  31.573  26.511  1.00  0.00    -0.251 OA
BRANCH   6   8
ATOM      8  C   UNL A   1      31.761  29.433  25.421  1.00  0.00     0.198 C 
BRANCH   8   9
ATOM      9  S   UNL A   1      32.951  28.909  24.159  1.00  0.00    -0.097 SA
BRANCH   9  10
ATOM     10  C   UNL A   1      33.000  27.110  24.136  1.00  0.00     0.095 C 
ATOM     11  C   UNL A   1      30.576  24.866  25.748  1.00  0.00     0.015 C 
ATOM     12  C   UNL A   1      31.337  24.988  24.417  1.00  0.00     0.012 C 
ATOM     13  C   UNL A   1      30.309  24.321  23.388  1.00  0.00     0.015 C 
ATOM     14  C   UNL A   1      31.624  26.505  24.146  1.00  0.00     0.156 C 
ATOM     15  C   UNL A   1      32.705  24.265  24.379  1.00  0.00     0.191 C 
ATOM     16  C   UNL A   1      33.777  25.028  23.556  1.00  0.00     0.264 C 
ATOM     17  N   UNL A   1      34.038  26.376  23.892  1.00  0.00    -0.209 NA
ATOM     18  O   UNL A   1      34.416  24.474  22.670  1.00  0.00    -0.271 OA
BRANCH  14  19
ATOM     19  C   UNL A   1      31.497  26.465  22.631  1.00  0.00     0.073 C 
ATOM     20  N   UNL A   1      31.391  26.431  21.376  1.00  0.00    -0.198 NA
ENDBRANCH  14  19
BRANCH  15  21
ATOM     21  C   UNL A   1      32.602  22.858  23.970  1.00  0.00     0.076 C 
ATOM     22  N   UNL A   1      32.507  21.720  23.725  1.00  0.00    -0.197 NA
ENDBRANCH  15  21
ENDBRANCH   9  10
ENDBRANCH   8   9
ENDBRANCH   6   8
ENDBRANCH   5   6
ENDBRANCH   4   5
ENDBRANCH   3   4
ENDBRANCH   2   3
ENDBRANCH   1   2
BRANCH   1  23
ATOM     23  C   UNL A   1      35.594  34.046  30.043  1.00  0.00     0.188 C 
BRANCH  23  24
ATOM     24  O   UNL A   1      35.355  33.445  31.282  1.00  0.00    -0.376 OA
BRANCH  24  25
ATOM     25  C   UNL A   1      36.444  32.838  31.949  1.00  0.00     0.202 C 
BRANCH  25  26
ATOM     26  C   UNL A   1      36.305  31.570  32.822  1.00  0.00     0.261 C 
BRANCH  26  27
ATOM     27  O   UNL A   1      36.276  30.286  32.155  1.00  0.00    -0.460 OA
BRANCH  27  28
ATOM     28  C   UNL A   1      37.310  29.460  32.432  1.00  0.00     0.338 C 
ATOM     29  O   UNL A   1      37.283  28.555  33.255  1.00  0.00    -0.246 OA
BRANCH  28  30
ATOM     30  C   UNL A   1      38.512  29.622  31.559  1.00  0.00     0.060 A 
ATOM     31  C   UNL A   1      38.441  29.915  30.189  1.00  0.00     0.016 A 
ATOM     32  C   UNL A   1      39.698  29.093  32.052  1.00  0.00     0.016 A 
ATOM     33  C   UNL A   1      39.492  29.602  29.320  1.00  0.00     0.010 A 
ATOM     34  C   UNL A   1      40.783  28.863  31.195  1.00  0.00     0.010 A 
ATOM     35  C   UNL A   1      40.687  29.087  29.812  1.00  0.00    -0.014 A 
BRANCH  35  36
ATOM     36  C   UNL A   1      41.843  28.790  28.924  1.00  0.00     0.031 A 
ATOM     37  C   UNL A   1      42.050  27.399  28.390  1.00  0.00     0.074 A 
ATOM     38  C   UNL A   1      42.762  29.741  28.669  1.00  0.00     0.049 A 
ATOM     39  N   UNL A   1      43.147  26.824  27.969  1.00  0.00    -0.248 NA
ATOM     40  C   UNL A   1      40.863  26.538  28.337  1.00  0.00     0.031 C 
ATOM     41  C   UNL A   1      42.646  31.163  29.000  1.00  0.00     0.029 A 
ATOM     42  N   UNL A   1      44.012  29.634  28.110  1.00  0.00    -0.354 N 
ATOM     43  C   UNL A   1      42.790  25.515  27.655  1.00  0.00     0.074 A 
ATOM     44  C   UNL A   1      41.375  25.385  27.928  1.00  0.00     0.031 C 
ATOM     45  C   UNL A   1      43.784  31.787  28.670  1.00  0.00     0.029 A 
ATOM     46  C   UNL A   1      44.744  30.792  28.215  1.00  0.00     0.049 A 
ATOM     47  H   UNL A   1      44.348  28.814  27.680  1.00  0.00     0.167 HD
ATOM     48  C   UNL A   1      43.584  24.515  27.202  1.00  0.00     0.031 A 
ATOM     49  C   UNL A   1      46.062  31.019  28.061  1.00  0.00     0.031 A 
ATOM     50  C   UNL A   1      44.990  24.677  26.932  1.00  0.00     0.049 A 
ATOM     51  C   UNL A   1      46.958  29.873  27.700  1.00  0.00     0.074 A 
ATOM     52  C   UNL A   1      45.898  23.736  26.479  1.00  0.00     0.029 A 
ATOM     53  N   UNL A   1      45.690  25.865  27.089  1.00  0.00    -0.354 N 
ATOM     54  N   UNL A   1      46.646  28.618  27.484  1.00  0.00    -0.248 NA
ATOM     55  C   UNL A   1      48.390  30.171  27.566  1.00  0.00     0.031 C 
ATOM     56  C   UNL A   1      47.160  24.333  26.439  1.00  0.00     0.029 A 
ATOM     57  C   UNL A   1      47.023  25.670  26.776  1.00  0.00     0.049 A 
ATOM     58  H   UNL A   1      45.296  26.719  27.379  1.00  0.00     0.167 HD
ATOM     59  C   UNL A   1      47.834  27.987  27.141  1.00  0.00     0.074 A 
ATOM     60  C   UNL A   1      48.872  28.996  27.184  1.00  0.00     0.031 C 
ATOM     61  C   UNL A   1      48.041  26.689  26.810  1.00  0.00     0.031 A 
BRANCH  48  62
ATOM     62  C   UNL A   1      42.982  23.143  27.043  1.00  0.00    -0.014 A 
ATOM     63  C   UNL A   1      42.783  22.282  28.131  1.00  0.00     0.009 A 
ATOM     64  C   UNL A   1      42.554  22.728  25.769  1.00  0.00     0.009 A 
ATOM     65  C   UNL A   1      42.199  21.024  27.942  1.00  0.00     0.001 A 
ATOM     66  C   UNL A   1      41.940  21.487  25.589  1.00  0.00     0.001 A 
ATOM     67  C   UNL A   1      41.773  20.632  26.675  1.00  0.00     0.000 A 
ENDBRANCH  48  62
BRANCH  49  68
ATOM     68  C   UNL A   1      46.611  32.377  28.326  1.00  0.00    -0.014 A 
ATOM     69  C   UNL A   1      47.058  32.726  29.607  1.00  0.00     0.009 A 
ATOM     70  C   UNL A   1      46.713  33.322  27.291  1.00  0.00     0.009 A 
ATOM     71  C   UNL A   1      47.579  33.999  29.851  1.00  0.00     0.001 A 
ATOM     72  C   UNL A   1      47.271  34.580  27.528  1.00  0.00     0.001 A 
ATOM     73  C   UNL A   1      47.694  34.920  28.811  1.00  0.00     0.000 A 
ENDBRANCH  49  68
BRANCH  61  74
ATOM     74  C   UNL A   1      49.427  26.299  26.383  1.00  0.00    -0.014 A 
ATOM     75  C   UNL A   1      49.915  26.584  25.099  1.00  0.00     0.009 A 
ATOM     76  C   UNL A   1      50.281  25.690  27.317  1.00  0.00     0.009 A 
ATOM     77  C   UNL A   1      51.225  26.244  24.754  1.00  0.00     0.001 A 
ATOM     78  C   UNL A   1      51.600  25.385  26.981  1.00  0.00     0.001 A 
ATOM     79  C   UNL A   1      52.068  25.655  25.697  1.00  0.00     0.000 A 
ENDBRANCH  61  74
ENDBRANCH  35  36
ENDBRANCH  28  30
ENDBRANCH  27  28
ENDBRANCH  26  27
ENDBRANCH  25  26
ENDBRANCH  24  25
ENDBRANCH  23  24
ENDBRANCH   1  23
TORSDOF 21
ENDMDL
MODEL 2
REMARK VINA RESULT:      -8.8      4.688     10.967
REMARK SMILES CC1(C)[C@H](C#N)C(SCC(=O)OCCOCCOCCOC(=O)c2ccc(-c3c4nc(c(-c5ccccc5)c5ccc([nH]5)c(-c5ccccc5)c5nc(c(-c6ccccc6)c6ccc3[nH]6)C=C5)C=C4)cc2)=NC(=O)[C@@H]1C#N
REMARK SMILES IDX 16 1 15 2 14 3 13 4 12 5 10 6 11 7 9 8 8 9 7 10 1 11 2 12
REMARK SMILES IDX 3 13 4 14 75 15 73 16 72 17 74 18 5 19 6 20 76 21 77 22
REMARK SMILES IDX 17 23 18 24 19 25 20 26 21 27 22 28 23 29 24 30 25 31 71 32
REMARK SMILES IDX 26 33 70 34 27 35 28 36 29 37 64 38 30 39 69 40 63 41 65 42
REMARK SMILES IDX 31 43 68 44 62 45 61 46 32 48 54 49 39 50 53 51 40 52 43 53
REMARK SMILES IDX 52 54 66 55 41 56 42 57 51 59 67 60 44 61 33 62 34 63 38 64
REMARK SMILES IDX 35 65 37 66 36 67 55 68 56 69 60 70 57 71 59 72 58 73 45 74
REMARK SMILES IDX 46 75 50 76 47 77 49 78 48 79
REMARK H PARENT 65 47 43 58
REMARK Flexibility Score: inf
ROOT
ATOM      1  C   UNL A   1      32.709  23.868  25.924  1.00  0.00     0.188 C 
ENDROOT
BRANCH   1   2
ATOM      2  O   UNL A   1      33.334  22.639  26.210  1.00  0.00    -0.376 OA
BRANCH   2   3
ATOM      3  C   UNL A   1      33.856  21.895  25.115  1.00  0.00     0.202 C 
BRANCH   3   4
ATOM      4  C   UNL A   1      35.043  20.934  25.355  1.00  0.00     0.261 C 
BRANCH   4   5
ATOM      5  O   UNL A   1      36.160  21.519  26.076  1.00  0.00    -0.463 OA
BRANCH   5   6
ATOM      6  C   UNL A   1      37.380  21.521  25.468  1.00  0.00     0.316 C 
ATOM      7  O   UNL A   1      37.803  20.567  24.820  1.00  0.00    -0.251 OA
BRANCH   6   8
ATOM      8  C   UNL A   1      38.153  22.853  25.506  1.00  0.00     0.198 C 
BRANCH   8   9
ATOM      9  S   UNL A   1      39.320  23.100  26.870  1.00  0.00    -0.097 SA
BRANCH   9  10
ATOM     10  C   UNL A   1      40.941  22.521  26.342  1.00  0.00     0.095 C 
ATOM     11  C   UNL A   1      43.658  24.620  25.031  1.00  0.00     0.015 C 
ATOM     12  C   UNL A   1      43.465  23.449  26.010  1.00  0.00     0.012 C 
ATOM     13  C   UNL A   1      44.630  23.715  27.074  1.00  0.00     0.015 C 
ATOM     14  C   UNL A   1      42.018  23.534  26.607  1.00  0.00     0.156 C 
ATOM     15  C   UNL A   1      43.602  22.041  25.381  1.00  0.00     0.191 C 
ATOM     16  C   UNL A   1      42.626  21.001  25.991  1.00  0.00     0.264 C 
ATOM     17  N   UNL A   1      41.247  21.310  26.003  1.00  0.00    -0.209 NA
ATOM     18  O   UNL A   1      43.024  19.922  26.413  1.00  0.00    -0.271 OA
BRANCH  14  19
ATOM     19  C   UNL A   1      42.344  23.007  27.995  1.00  0.00     0.073 C 
ATOM     20  N   UNL A   1      42.613  22.569  29.147  1.00  0.00    -0.198 NA
ENDBRANCH  14  19
BRANCH  15  21
ATOM     21  C   UNL A   1      44.986  21.549  25.365  1.00  0.00     0.076 C 
ATOM     22  N   UNL A   1      46.111  21.236  25.342  1.00  0.00    -0.197 NA
ENDBRANCH  15  21
ENDBRANCH   9  10
ENDBRANCH   8   9
ENDBRANCH   6   8
ENDBRANCH   5   6
ENDBRANCH   4   5
ENDBRANCH   3   4
ENDBRANCH   2   3
ENDBRANCH   1   2
BRANCH   1  23
ATOM     23  C   UNL A   1      33.360  24.788  24.884  1.00  0.00     0.188 C 
BRANCH  23  24
ATOM     24  O   UNL A   1      32.944  24.773  23.549  1.00  0.00    -0.376 OA
BRANCH  24  25
ATOM     25  C   UNL A   1      33.333  25.849  22.718  1.00  0.00     0.202 C 
BRANCH  25  26
ATOM     26  C   UNL A   1      32.501  27.142  22.558  1.00  0.00     0.261 C 
BRANCH  26  27
ATOM     27  O   UNL A   1      32.811  28.260  23.423  1.00  0.00    -0.460 OA
BRANCH  27  28
ATOM     28  C   UNL A   1      32.095  28.326  24.569  1.00  0.00     0.338 C 
ATOM     29  O   UNL A   1      30.986  27.838  24.732  1.00  0.00    -0.246 OA
BRANCH  28  30
ATOM     30  C   UNL A   1      32.803  28.943  25.731  1.00  0.00     0.060 A 
ATOM     31  C   UNL A   1      32.557  30.246  26.187  1.00  0.00     0.016 A 
ATOM     32  C   UNL A   1      33.991  28.333  26.113  1.00  0.00     0.016 A 
ATOM     33  C   UNL A   1      33.512  30.954  26.926  1.00  0.00     0.010 A 
ATOM     34  C   UNL A   1      34.907  29.010  26.928  1.00  0.00     0.010 A 
ATOM     35  C   UNL A   1      34.695  30.341  27.323  1.00  0.00    -0.014 A 
BRANCH  35  36
ATOM     36  C   UNL A   1      35.709  31.047  28.152  1.00  0.00     0.031 A 
ATOM     37  C   UNL A   1      37.108  30.506  28.262  1.00  0.00     0.074 A 
ATOM     38  C   UNL A   1      35.355  32.122  28.883  1.00  0.00     0.049 A 
ATOM     39  N   UNL A   1      38.001  30.690  29.199  1.00  0.00    -0.248 NA
ATOM     40  C   UNL A   1      37.554  29.628  27.173  1.00  0.00     0.031 C 
ATOM     41  C   UNL A   1      34.085  32.846  28.794  1.00  0.00     0.029 A 
ATOM     42  N   UNL A   1      36.029  32.762  29.894  1.00  0.00    -0.354 N 
ATOM     43  C   UNL A   1      39.093  29.905  28.840  1.00  0.00     0.074 A 
ATOM     44  C   UNL A   1      38.752  29.249  27.597  1.00  0.00     0.031 C 
ATOM     45  C   UNL A   1      34.058  33.804  29.728  1.00  0.00     0.029 A 
ATOM     46  C   UNL A   1      35.252  33.686  30.551  1.00  0.00     0.049 A 
ATOM     47  H   UNL A   1      36.969  32.579  30.125  1.00  0.00     0.167 HD
ATOM     48  C   UNL A   1      40.260  29.736  29.507  1.00  0.00     0.031 A 
ATOM     49  C   UNL A   1      35.426  34.302  31.735  1.00  0.00     0.031 A 
ATOM     50  C   UNL A   1      40.575  30.409  30.742  1.00  0.00     0.049 A 
ATOM     51  C   UNL A   1      36.656  33.999  32.537  1.00  0.00     0.074 A 
ATOM     52  C   UNL A   1      41.719  30.312  31.513  1.00  0.00     0.029 A 
ATOM     53  N   UNL A   1      39.736  31.311  31.383  1.00  0.00    -0.354 N 
ATOM     54  N   UNL A   1      37.652  33.197  32.248  1.00  0.00    -0.248 NA
ATOM     55  C   UNL A   1      36.786  34.681  33.832  1.00  0.00     0.031 C 
ATOM     56  C   UNL A   1      41.540  31.091  32.659  1.00  0.00     0.029 A 
ATOM     57  C   UNL A   1      40.324  31.747  32.556  1.00  0.00     0.049 A 
ATOM     58  H   UNL A   1      38.854  31.596  31.051  1.00  0.00     0.167 HD
ATOM     59  C   UNL A   1      38.549  33.314  33.300  1.00  0.00     0.074 A 
ATOM     60  C   UNL A   1      37.976  34.260  34.236  1.00  0.00     0.031 C 
ATOM     61  C   UNL A   1      39.746  32.701  33.469  1.00  0.00     0.031 A 
BRANCH  48  62
ATOM     62  C   UNL A   1      41.251  28.737  28.969  1.00  0.00    -0.014 A 
ATOM     63  C   UNL A   1      42.235  29.088  28.032  1.00  0.00     0.009 A 
ATOM     64  C   UNL A   1      41.228  27.419  29.458  1.00  0.00     0.009 A 
ATOM     65  C   UNL A   1      43.150  28.134  27.575  1.00  0.00     0.001 A 
ATOM     66  C   UNL A   1      42.164  26.478  29.026  1.00  0.00     0.001 A 
ATOM     67  C   UNL A   1      43.119  26.834  28.077  1.00  0.00     0.000 A 
ENDBRANCH  48  62
BRANCH  49  68
ATOM     68  C   UNL A   1      34.366  35.205  32.258  1.00  0.00    -0.014 A 
ATOM     69  C   UNL A   1      34.640  36.557  32.504  1.00  0.00     0.009 A 
ATOM     70  C   UNL A   1      33.065  34.725  32.488  1.00  0.00     0.009 A 
ATOM     71  C   UNL A   1      33.640  37.405  32.987  1.00  0.00     0.001 A 
ATOM     72  C   UNL A   1      32.057  35.583  32.933  1.00  0.00     0.001 A 
ATOM     73  C   UNL A   1      32.349  36.919  33.192  1.00  0.00     0.000 A 
ENDBRANCH  49  68
BRANCH  61  74
ATOM     74  C   UNL A   1      40.561  33.094  34.668  1.00  0.00    -0.014 A 
ATOM     75  C   UNL A   1      41.443  34.184  34.638  1.00  0.00     0.009 A 
ATOM     76  C   UNL A   1      40.384  32.392  35.871  1.00  0.00     0.009 A 
ATOM     77  C   UNL A   1      42.151  34.546  35.787  1.00  0.00     0.001 A 
ATOM     78  C   UNL A   1      41.065  32.778  37.026  1.00  0.00     0.001 A 
ATOM     79  C   UNL A   1      41.954  33.850  36.980  1.00  0.00     0.000 A 
ENDBRANCH  61  74
ENDBRANCH  35  36
ENDBRANCH  28  30
ENDBRANCH  27  28
ENDBRANCH  26  27
ENDBRANCH  25  26
ENDBRANCH  24  25
ENDBRANCH  23  24
ENDBRANCH   1  23
TORSDOF 21
ENDMDL
MODEL 3
REMARK VINA RESULT:      -8.8      4.628      9.194
REMARK SMILES CC1(C)[C@H](C#N)C(SCC(=O)OCCOCCOCCOC(=O)c2ccc(-c3c4nc(c(-c5ccccc5)c5ccc([nH]5)c(-c5ccccc5)c5nc(c(-c6ccccc6)c6ccc3[nH]6)C=C5)C=C4)cc2)=NC(=O)[C@@H]1C#N
REMARK SMILES IDX 16 1 15 2 14 3 13 4 12 5 10 6 11 7 9 8 8 9 7 10 1 11 2 12
REMARK SMILES IDX 3 13 4 14 75 15 73 16 72 17 74 18 5 19 6 20 76 21 77 22
REMARK SMILES IDX 17 23 18 24 19 25 20 26 21 27 22 28 23 29 24 30 25 31 71 32
REMARK SMILES IDX 26 33 70 34 27 35 28 36 29 37 64 38 30 39 69 40 63 41 65 42
REMARK SMILES IDX 31 43 68 44 62 45 61 46 32 48 54 49 39 50 53 51 40 52 43 53
REMARK SMILES IDX 52 54 66 55 41 56 42 57 51 59 67 60 44 61 33 62 34 63 38 64
REMARK SMILES IDX 35 65 37 66 36 67 55 68 56 69 60 70 57 71 59 72 58 73 45 74
REMARK SMILES IDX 46 75 50 76 47 77 49 78 48 79
REMARK H PARENT 65 47 43 58
REMARK Flexibility Score: inf
ROOT
ATOM      1  C   UNL A   1      32.581  24.440  26.195  1.00  0.00     0.188 C 
ENDROOT
BRANCH   1   2
ATOM      2  O   UNL A   1      33.302  23.231  26.158  1.00  0.00    -0.376 OA
BRANCH   2   3
ATOM      3  C   UNL A   1      34.015  22.925  24.965  1.00  0.00     0.202 C 
BRANCH   3   4
ATOM      4  C   UNL A   1      34.967  21.708  24.948  1.00  0.00     0.261 C 
BRANCH   4   5
ATOM      5  O   UNL A   1      36.109  21.819  25.840  1.00  0.00    -0.463 OA
BRANCH   5   6
ATOM      6  C   UNL A   1      37.300  21.308  25.417  1.00  0.00     0.316 C 
ATOM      7  O   UNL A   1      37.417  20.166  24.979  1.00  0.00    -0.251 OA
BRANCH   6   8
ATOM      8  C   UNL A   1      38.482  22.294  25.371  1.00  0.00     0.198 C 
BRANCH   8   9
ATOM      9  S   UNL A   1      39.644  22.266  26.761  1.00  0.00    -0.097 SA
BRANCH   9  10
ATOM     10  C   UNL A   1      41.037  21.216  26.317  1.00  0.00     0.095 C 
ATOM     11  C   UNL A   1      43.779  22.121  24.043  1.00  0.00     0.015 C 
ATOM     12  C   UNL A   1      43.578  21.425  25.400  1.00  0.00     0.012 C 
ATOM     13  C   UNL A   1      44.938  21.789  26.160  1.00  0.00     0.015 C 
ATOM     14  C   UNL A   1      42.289  22.010  26.073  1.00  0.00     0.156 C 
ATOM     15  C   UNL A   1      43.381  19.891  25.324  1.00  0.00     0.191 C 
ATOM     16  C   UNL A   1      42.376  19.352  26.376  1.00  0.00     0.264 C 
ATOM     17  N   UNL A   1      41.086  19.927  26.418  1.00  0.00    -0.209 NA
ATOM     18  O   UNL A   1      42.667  18.424  27.121  1.00  0.00    -0.271 OA
BRANCH  14  19
ATOM     19  C   UNL A   1      42.765  21.934  27.515  1.00  0.00     0.073 C 
ATOM     20  N   UNL A   1      43.159  21.872  28.711  1.00  0.00    -0.198 NA
ENDBRANCH  14  19
BRANCH  15  21
ATOM     21  C   UNL A   1      44.647  19.146  25.346  1.00  0.00     0.076 C 
ATOM     22  N   UNL A   1      45.609  18.483  25.355  1.00  0.00    -0.197 NA
ENDBRANCH  15  21
ENDBRANCH   9  10
ENDBRANCH   8   9
ENDBRANCH   6   8
ENDBRANCH   5   6
ENDBRANCH   4   5
ENDBRANCH   3   4
ENDBRANCH   2   3
ENDBRANCH   1   2
BRANCH   1  23
ATOM     23  C   UNL A   1      33.195  25.671  25.516  1.00  0.00     0.188 C 
BRANCH  23  24
ATOM     24  O   UNL A   1      32.487  26.384  24.544  1.00  0.00    -0.376 OA
BRANCH  24  25
ATOM     25  C   UNL A   1      33.011  27.626  24.116  1.00  0.00     0.202 C 
BRANCH  25  26
ATOM     26  C   UNL A   1      32.493  28.989  24.629  1.00  0.00     0.261 C 
BRANCH  26  27
ATOM     27  O   UNL A   1      33.446  29.891  25.240  1.00  0.00    -0.460 OA
BRANCH  27  28
ATOM     28  C   UNL A   1      33.058  30.443  26.412  1.00  0.00     0.338 C 
ATOM     29  O   UNL A   1      31.907  30.744  26.698  1.00  0.00    -0.246 OA
BRANCH  28  30
ATOM     30  C   UNL A   1      34.127  30.562  27.448  1.00  0.00     0.060 A 
ATOM     31  C   UNL A   1      34.903  31.716  27.634  1.00  0.00     0.016 A 
ATOM     32  C   UNL A   1      34.601  29.366  27.973  1.00  0.00     0.016 A 
ATOM     33  C   UNL A   1      36.161  31.659  28.244  1.00  0.00     0.010 A 
ATOM     34  C   UNL A   1      35.820  29.328  28.663  1.00  0.00     0.010 A 
ATOM     35  C   UNL A   1      36.631  30.467  28.785  1.00  0.00    -0.014 A 
BRANCH  35  36
ATOM     36  C   UNL A   1      37.941  30.382  29.485  1.00  0.00     0.031 A 
ATOM     37  C   UNL A   1      39.072  29.592  28.884  1.00  0.00     0.074 A 
ATOM     38  C   UNL A   1      38.094  30.933  30.704  1.00  0.00     0.049 A 
ATOM     39  N   UNL A   1      40.109  29.048  29.466  1.00  0.00    -0.248 NA
ATOM     40  C   UNL A   1      39.017  29.376  27.433  1.00  0.00     0.031 C 
ATOM     41  C   UNL A   1      37.149  31.834  31.368  1.00  0.00     0.029 A 
ATOM     42  N   UNL A   1      39.095  30.766  31.630  1.00  0.00    -0.354 N 
ATOM     43  C   UNL A   1      40.798  28.377  28.459  1.00  0.00     0.074 A 
ATOM     44  C   UNL A   1      40.064  28.589  27.231  1.00  0.00     0.031 C 
ATOM     45  C   UNL A   1      37.595  32.113  32.599  1.00  0.00     0.029 A 
ATOM     46  C   UNL A   1      38.791  31.323  32.850  1.00  0.00     0.049 A 
ATOM     47  H   UNL A   1      39.939  30.297  31.441  1.00  0.00     0.167 HD
ATOM     48  C   UNL A   1      41.927  27.636  28.566  1.00  0.00     0.031 A 
ATOM     49  C   UNL A   1      39.347  31.145  34.063  1.00  0.00     0.031 A 
ATOM     50  C   UNL A   1      42.641  27.449  29.804  1.00  0.00     0.049 A 
ATOM     51  C   UNL A   1      40.510  30.208  34.198  1.00  0.00     0.074 A 
ATOM     52  C   UNL A   1      43.790  26.714  30.038  1.00  0.00     0.029 A 
ATOM     53  N   UNL A   1      42.270  28.008  31.019  1.00  0.00    -0.354 N 
ATOM     54  N   UNL A   1      41.115  29.506  33.271  1.00  0.00    -0.248 NA
ATOM     55  C   UNL A   1      41.064  30.034  35.547  1.00  0.00     0.031 C 
ATOM     56  C   UNL A   1      44.068  26.763  31.406  1.00  0.00     0.029 A 
ATOM     57  C   UNL A   1      43.147  27.605  32.010  1.00  0.00     0.049 A 
ATOM     58  H   UNL A   1      41.498  28.603  31.155  1.00  0.00     0.167 HD
ATOM     59  C   UNL A   1      42.151  28.844  33.915  1.00  0.00     0.074 A 
ATOM     60  C   UNL A   1      42.088  29.225  35.311  1.00  0.00     0.031 C 
ATOM     61  C   UNL A   1      43.078  28.005  33.392  1.00  0.00     0.031 A 
BRANCH  48  62
ATOM     62  C   UNL A   1      42.422  26.910  27.342  1.00  0.00    -0.014 A 
ATOM     63  C   UNL A   1      41.839  25.716  26.893  1.00  0.00     0.009 A 
ATOM     64  C   UNL A   1      43.470  27.471  26.591  1.00  0.00     0.009 A 
ATOM     65  C   UNL A   1      42.315  25.085  25.739  1.00  0.00     0.001 A 
ATOM     66  C   UNL A   1      43.919  26.858  25.420  1.00  0.00     0.001 A 
ATOM     67  C   UNL A   1      43.348  25.659  25.001  1.00  0.00     0.000 A 
ENDBRANCH  48  62
BRANCH  49  68
ATOM     68  C   UNL A   1      38.753  31.817  35.250  1.00  0.00    -0.014 A 
ATOM     69  C   UNL A   1      38.155  31.064  36.269  1.00  0.00     0.009 A 
ATOM     70  C   UNL A   1      38.803  33.216  35.381  1.00  0.00     0.009 A 
ATOM     71  C   UNL A   1      37.604  31.697  37.386  1.00  0.00     0.001 A 
ATOM     72  C   UNL A   1      38.287  33.843  36.516  1.00  0.00     0.001 A 
ATOM     73  C   UNL A   1      37.680  33.084  37.512  1.00  0.00     0.000 A 
ENDBRANCH  49  68
BRANCH  61  74
ATOM     74  C   UNL A   1      44.155  27.506  34.312  1.00  0.00    -0.014 A 
ATOM     75  C   UNL A   1      44.071  26.256  34.942  1.00  0.00     0.009 A 
ATOM     76  C   UNL A   1      45.310  28.285  34.495  1.00  0.00     0.009 A 
ATOM     77  C   UNL A   1      45.114  25.808  35.756  1.00  0.00     0.001 A 
ATOM     78  C   UNL A   1      46.365  27.819  35.279  1.00  0.00     0.001 A 
ATOM     79  C   UNL A   1      46.262  26.585  35.916  1.00  0.00     0.000 A 
ENDBRANCH  61  74
ENDBRANCH  35  36
ENDBRANCH  28  30
ENDBRANCH  27  28
ENDBRANCH  26  27
ENDBRANCH  25  26
ENDBRANCH  24  25
ENDBRANCH  23  24
ENDBRANCH   1  23
TORSDOF 21
ENDMDL
