MODEL 1
REMARK VINA RESULT:     -11.7      0.000      0.000
REMARK SMILES NC(=O)c1c(-c2ccc(Cl)cc2)csc1NC(=O)[C@H]1[C@@H](C(=O)OCCOCCOCCOC(=O)c2ccc(-c3c4nc(c(-c5ccccc5)c5ccc([nH]5)c(-c5ccccc5)c5nc(c(-c6ccccc6)c6ccc3[nH]6)C=C5)C=C4)cc2)[C@@H]2CC[C@H]1O2
REMARK SMILES IDX 27 1 26 2 25 3 24 4 23 5 21 6 22 7 20 8 19 9 86 10 83 11
REMARK SMILES IDX 85 12 87 13 84 14 17 15 16 16 18 18 15 19 4 20 5 21 13 22
REMARK SMILES IDX 14 23 2 24 1 25 3 28 6 29 7 30 12 31 8 32 11 33 9 34 10 35
REMARK SMILES IDX 28 36 29 37 30 38 31 39 32 40 33 41 34 42 35 43 36 44 82 45
REMARK SMILES IDX 37 46 81 47 38 48 39 49 40 50 75 51 41 52 80 53 74 54 76 55
REMARK SMILES IDX 42 56 79 57 73 58 72 59 43 61 65 62 50 63 64 64 51 65 54 66
REMARK SMILES IDX 63 67 77 68 52 69 53 70 62 72 78 73 55 74 44 75 45 76 49 77
REMARK SMILES IDX 46 78 48 79 47 80 66 81 67 82 71 83 68 84 70 85 69 86 56 87
REMARK SMILES IDX 57 88 61 89 58 90 60 91 59 92
REMARK H PARENT 16 17 1 26 1 27 76 60 54 71
REMARK Flexibility Score: inf
ROOT
ATOM      1  C   UNL A   1      35.026  33.874  28.584  1.00  0.00     0.188 C 
ENDROOT
BRANCH   1   2
ATOM      2  O   UNL A   1      34.795  32.838  27.652  1.00  0.00    -0.376 OA
BRANCH   2   3
ATOM      3  C   UNL A   1      33.669  31.984  27.795  1.00  0.00     0.202 C 
BRANCH   3   4
ATOM      4  C   UNL A   1      33.589  30.579  27.173  1.00  0.00     0.261 C 
BRANCH   4   5
ATOM      5  O   UNL A   1      32.519  30.351  26.239  1.00  0.00    -0.463 OA
BRANCH   5   6
ATOM      6  C   UNL A   1      32.778  29.422  25.289  1.00  0.00     0.312 C 
ATOM      7  O   UNL A   1      33.894  28.960  25.068  1.00  0.00    -0.252 OA
BRANCH   6   8
ATOM      8  C   UNL A   1      31.561  28.843  24.607  1.00  0.00     0.143 C 
ATOM      9  C   UNL A   1      30.815  27.777  25.427  1.00  0.00     0.124 C 
ATOM     10  C   UNL A   1      30.344  26.840  24.331  1.00  0.00     0.132 C 
ATOM     11  C   UNL A   1      31.662  28.169  23.228  1.00  0.00     0.133 C 
ATOM     12  C   UNL A   1      29.385  27.506  23.336  1.00  0.00     0.035 C 
ATOM     13  O   UNL A   1      31.530  26.768  23.514  1.00  0.00    -0.373 OA
ATOM     14  C   UNL A   1      30.334  28.362  22.485  1.00  0.00     0.036 C 
BRANCH   9  15
ATOM     15  C   UNL A   1      31.601  27.210  26.632  1.00  0.00     0.231 C 
ATOM     16  N   UNL A   1      32.759  26.491  26.565  1.00  0.00    -0.317 N 
ATOM     17  H   UNL A   1      33.431  26.759  27.234  1.00  0.00     0.170 HD
ATOM     18  O   UNL A   1      31.270  27.614  27.757  1.00  0.00    -0.274 OA
BRANCH  16  19
ATOM     19  C   UNL A   1      33.176  25.460  25.743  1.00  0.00     0.108 A 
ATOM     20  C   UNL A   1      32.612  24.190  25.584  1.00  0.00     0.082 A 
ATOM     21  C   UNL A   1      33.442  23.402  24.684  1.00  0.00     0.007 A 
ATOM     22  C   UNL A   1      34.492  24.142  24.174  1.00  0.00     0.076 A 
ATOM     23  S   UNL A   1      34.209  25.794  24.433  1.00  0.00    -0.125 S 
BRANCH  20  24
ATOM     24  C   UNL A   1      31.360  23.823  26.246  1.00  0.00     0.252 C 
ATOM     25  N   UNL A   1      30.442  23.114  25.531  1.00  0.00    -0.365 N 
ATOM     26  H   UNL A   1      29.588  22.852  25.947  1.00  0.00     0.159 HD
ATOM     27  H   UNL A   1      30.631  22.864  24.597  1.00  0.00     0.159 HD
ATOM     28  O   UNL A   1      31.103  24.142  27.407  1.00  0.00    -0.269 OA
ENDBRANCH  20  24
BRANCH  21  29
ATOM     29  C   UNL A   1      33.198  22.121  24.046  1.00  0.00    -0.017 A 
ATOM     30  C   UNL A   1      32.422  22.003  22.888  1.00  0.00     0.010 A 
ATOM     31  C   UNL A   1      33.632  20.973  24.722  1.00  0.00     0.010 A 
ATOM     32  C   UNL A   1      32.071  20.730  22.422  1.00  0.00     0.021 A 
ATOM     33  C   UNL A   1      33.274  19.709  24.260  1.00  0.00     0.021 A 
ATOM     34  C   UNL A   1      32.490  19.593  23.116  1.00  0.00     0.041 A 
ATOM     35  Cl  UNL A   1      32.013  18.032  22.573  1.00  0.00    -0.084 Cl
ENDBRANCH  21  29
ENDBRANCH  16  19
ENDBRANCH   9  15
ENDBRANCH   6   8
ENDBRANCH   5   6
ENDBRANCH   4   5
ENDBRANCH   3   4
ENDBRANCH   2   3
ENDBRANCH   1   2
BRANCH   1  36
ATOM     36  C   UNL A   1      33.865  34.788  28.991  1.00  0.00     0.188 C 
BRANCH  36  37
ATOM     37  O   UNL A   1      33.323  34.657  30.279  1.00  0.00    -0.376 OA
BRANCH  37  38
ATOM     38  C   UNL A   1      34.168  34.675  31.419  1.00  0.00     0.202 C 
BRANCH  38  39
ATOM     39  C   UNL A   1      34.145  33.665  32.588  1.00  0.00     0.261 C 
BRANCH  39  40
ATOM     40  O   UNL A   1      34.887  32.449  32.461  1.00  0.00    -0.460 OA
BRANCH  40  41
ATOM     41  C   UNL A   1      36.040  32.380  33.172  1.00  0.00     0.338 C 
ATOM     42  O   UNL A   1      36.211  32.684  34.337  1.00  0.00    -0.246 OA
BRANCH  41  43
ATOM     43  C   UNL A   1      37.027  31.638  32.358  1.00  0.00     0.060 A 
ATOM     44  C   UNL A   1      37.950  30.805  33.010  1.00  0.00     0.016 A 
ATOM     45  C   UNL A   1      37.039  31.758  30.969  1.00  0.00     0.016 A 
ATOM     46  C   UNL A   1      38.900  30.100  32.272  1.00  0.00     0.010 A 
ATOM     47  C   UNL A   1      38.013  31.078  30.234  1.00  0.00     0.010 A 
ATOM     48  C   UNL A   1      38.962  30.267  30.884  1.00  0.00    -0.014 A 
BRANCH  48  49
ATOM     49  C   UNL A   1      40.138  29.766  30.134  1.00  0.00     0.031 A 
ATOM     50  C   UNL A   1      41.290  30.705  29.910  1.00  0.00     0.074 A 
ATOM     51  C   UNL A   1      40.190  28.508  29.664  1.00  0.00     0.049 A 
ATOM     52  N   UNL A   1      42.387  30.525  29.220  1.00  0.00    -0.248 NA
ATOM     53  C   UNL A   1      41.189  32.027  30.550  1.00  0.00     0.031 C 
ATOM     54  C   UNL A   1      39.169  27.482  29.863  1.00  0.00     0.029 A 
ATOM     55  N   UNL A   1      41.151  27.886  28.906  1.00  0.00    -0.354 N 
ATOM     56  C   UNL A   1      43.097  31.715  29.328  1.00  0.00     0.074 A 
ATOM     57  C   UNL A   1      42.298  32.616  30.130  1.00  0.00     0.031 C 
ATOM     58  C   UNL A   1      39.553  26.358  29.230  1.00  0.00     0.029 A 
ATOM     59  C   UNL A   1      40.823  26.602  28.549  1.00  0.00     0.049 A 
ATOM     60  H   UNL A   1      41.995  28.320  28.644  1.00  0.00     0.167 HD
ATOM     61  C   UNL A   1      44.304  32.031  28.805  1.00  0.00     0.031 A 
ATOM     62  C   UNL A   1      41.463  25.734  27.740  1.00  0.00     0.031 A 
ATOM     63  C   UNL A   1      45.091  31.143  27.993  1.00  0.00     0.049 A 
ATOM     64  C   UNL A   1      42.762  26.143  27.092  1.00  0.00     0.074 A 
ATOM     65  C   UNL A   1      46.334  31.367  27.429  1.00  0.00     0.029 A 
ATOM     66  N   UNL A   1      44.704  29.866  27.619  1.00  0.00    -0.354 N 
ATOM     67  N   UNL A   1      43.436  27.262  27.219  1.00  0.00    -0.248 NA
ATOM     68  C   UNL A   1      43.389  25.164  26.192  1.00  0.00     0.031 C 
ATOM     69  C   UNL A   1      46.671  30.248  26.660  1.00  0.00     0.029 A 
ATOM     70  C   UNL A   1      45.670  29.301  26.805  1.00  0.00     0.049 A 
ATOM     71  H   UNL A   1      43.867  29.426  27.893  1.00  0.00     0.167 HD
ATOM     72  C   UNL A   1      44.580  27.106  26.444  1.00  0.00     0.074 A 
ATOM     73  C   UNL A   1      44.516  25.782  25.862  1.00  0.00     0.031 C 
ATOM     74  C   UNL A   1      45.596  27.980  26.236  1.00  0.00     0.031 A 
BRANCH  61  75
ATOM     75  C   UNL A   1      44.825  33.418  29.059  1.00  0.00    -0.014 A 
ATOM     76  C   UNL A   1      44.613  34.461  28.145  1.00  0.00     0.009 A 
ATOM     77  C   UNL A   1      45.516  33.690  30.252  1.00  0.00     0.009 A 
ATOM     78  C   UNL A   1      45.113  35.740  28.403  1.00  0.00     0.001 A 
ATOM     79  C   UNL A   1      45.986  34.975  30.521  1.00  0.00     0.001 A 
ATOM     80  C   UNL A   1      45.793  35.997  29.593  1.00  0.00     0.000 A 
ENDBRANCH  61  75
BRANCH  62  81
ATOM     81  C   UNL A   1      40.880  24.393  27.466  1.00  0.00    -0.014 A 
ATOM     82  C   UNL A   1      41.479  23.233  27.981  1.00  0.00     0.009 A 
ATOM     83  C   UNL A   1      39.740  24.264  26.656  1.00  0.00     0.009 A 
ATOM     84  C   UNL A   1      40.966  21.971  27.665  1.00  0.00     0.001 A 
ATOM     85  C   UNL A   1      39.212  23.003  26.369  1.00  0.00     0.001 A 
ATOM     86  C   UNL A   1      39.831  21.858  26.864  1.00  0.00     0.000 A 
ENDBRANCH  62  81
BRANCH  74  87
ATOM     87  C   UNL A   1      46.747  27.519  25.383  1.00  0.00    -0.014 A 
ATOM     88  C   UNL A   1      46.830  27.846  24.020  1.00  0.00     0.009 A 
ATOM     89  C   UNL A   1      47.788  26.781  25.969  1.00  0.00     0.009 A 
ATOM     90  C   UNL A   1      47.917  27.413  23.256  1.00  0.00     0.001 A 
ATOM     91  C   UNL A   1      48.889  26.380  25.210  1.00  0.00     0.001 A 
ATOM     92  C   UNL A   1      48.947  26.687  23.852  1.00  0.00     0.000 A 
ENDBRANCH  74  87
ENDBRANCH  48  49
ENDBRANCH  41  43
ENDBRANCH  40  41
ENDBRANCH  39  40
ENDBRANCH  38  39
ENDBRANCH  37  38
ENDBRANCH  36  37
ENDBRANCH   1  36
TORSDOF 21
ENDMDL
MODEL 2
REMARK VINA RESULT:     -11.1      1.461      5.855
REMARK SMILES NC(=O)c1c(-c2ccc(Cl)cc2)csc1NC(=O)[C@H]1[C@@H](C(=O)OCCOCCOCCOC(=O)c2ccc(-c3c4nc(c(-c5ccccc5)c5ccc([nH]5)c(-c5ccccc5)c5nc(c(-c6ccccc6)c6ccc3[nH]6)C=C5)C=C4)cc2)[C@@H]2CC[C@H]1O2
REMARK SMILES IDX 27 1 26 2 25 3 24 4 23 5 21 6 22 7 20 8 19 9 86 10 83 11
REMARK SMILES IDX 85 12 87 13 84 14 17 15 16 16 18 18 15 19 4 20 5 21 13 22
REMARK SMILES IDX 14 23 2 24 1 25 3 28 6 29 7 30 12 31 8 32 11 33 9 34 10 35
REMARK SMILES IDX 28 36 29 37 30 38 31 39 32 40 33 41 34 42 35 43 36 44 82 45
REMARK SMILES IDX 37 46 81 47 38 48 39 49 40 50 75 51 41 52 80 53 74 54 76 55
REMARK SMILES IDX 42 56 79 57 73 58 72 59 43 61 65 62 50 63 64 64 51 65 54 66
REMARK SMILES IDX 63 67 77 68 52 69 53 70 62 72 78 73 55 74 44 75 45 76 49 77
REMARK SMILES IDX 46 78 48 79 47 80 66 81 67 82 71 83 68 84 70 85 69 86 56 87
REMARK SMILES IDX 57 88 61 89 58 90 60 91 59 92
REMARK H PARENT 16 17 1 26 1 27 76 60 54 71
REMARK Flexibility Score: inf
ROOT
ATOM      1  C   UNL A   1      34.724  34.206  28.096  1.00  0.00     0.188 C 
ENDROOT
BRANCH   1   2
ATOM      2  O   UNL A   1      34.666  32.872  27.639  1.00  0.00    -0.376 OA
BRANCH   2   3
ATOM      3  C   UNL A   1      33.465  32.123  27.766  1.00  0.00     0.202 C 
BRANCH   3   4
ATOM      4  C   UNL A   1      33.305  30.686  27.240  1.00  0.00     0.261 C 
BRANCH   4   5
ATOM      5  O   UNL A   1      32.268  30.470  26.266  1.00  0.00    -0.463 OA
BRANCH   5   6
ATOM      6  C   UNL A   1      32.567  29.566  25.304  1.00  0.00     0.312 C 
ATOM      7  O   UNL A   1      33.704  29.171  25.064  1.00  0.00    -0.252 OA
BRANCH   6   8
ATOM      8  C   UNL A   1      31.375  28.925  24.632  1.00  0.00     0.143 C 
ATOM      9  C   UNL A   1      30.699  27.815  25.454  1.00  0.00     0.124 C 
ATOM     10  C   UNL A   1      30.268  26.860  24.358  1.00  0.00     0.132 C 
ATOM     11  C   UNL A   1      31.496  28.265  23.248  1.00  0.00     0.133 C 
ATOM     12  C   UNL A   1      29.261  27.477  23.378  1.00  0.00     0.035 C 
ATOM     13  O   UNL A   1      31.446  26.858  23.526  1.00  0.00    -0.373 OA
ATOM     14  C   UNL A   1      30.152  28.389  22.522  1.00  0.00     0.036 C 
BRANCH   9  15
ATOM     15  C   UNL A   1      31.530  27.285  26.646  1.00  0.00     0.231 C 
ATOM     16  N   UNL A   1      32.703  26.593  26.559  1.00  0.00    -0.317 N 
ATOM     17  H   UNL A   1      33.385  26.887  27.206  1.00  0.00     0.170 HD
ATOM     18  O   UNL A   1      31.219  27.699  27.774  1.00  0.00    -0.274 OA
BRANCH  16  19
ATOM     19  C   UNL A   1      33.123  25.559  25.742  1.00  0.00     0.108 A 
ATOM     20  C   UNL A   1      32.613  24.261  25.648  1.00  0.00     0.082 A 
ATOM     21  C   UNL A   1      33.429  23.487  24.723  1.00  0.00     0.007 A 
ATOM     22  C   UNL A   1      34.412  24.260  24.136  1.00  0.00     0.076 A 
ATOM     23  S   UNL A   1      34.065  25.904  24.368  1.00  0.00    -0.125 S 
BRANCH  20  24
ATOM     24  C   UNL A   1      31.418  23.854  26.388  1.00  0.00     0.252 C 
ATOM     25  N   UNL A   1      30.233  23.809  25.716  1.00  0.00    -0.365 N 
ATOM     26  H   UNL A   1      29.410  23.541  26.186  1.00  0.00     0.159 HD
ATOM     27  H   UNL A   1      30.199  24.046  24.761  1.00  0.00     0.159 HD
ATOM     28  O   UNL A   1      31.443  23.572  27.586  1.00  0.00    -0.269 OA
ENDBRANCH  20  24
BRANCH  21  29
ATOM     29  C   UNL A   1      33.212  22.178  24.133  1.00  0.00    -0.017 A 
ATOM     30  C   UNL A   1      32.423  21.999  22.991  1.00  0.00     0.010 A 
ATOM     31  C   UNL A   1      33.687  21.066  24.841  1.00  0.00     0.010 A 
ATOM     32  C   UNL A   1      32.102  20.702  22.574  1.00  0.00     0.021 A 
ATOM     33  C   UNL A   1      33.359  19.778  24.428  1.00  0.00     0.021 A 
ATOM     34  C   UNL A   1      32.562  19.601  23.300  1.00  0.00     0.041 A 
ATOM     35  Cl  UNL A   1      32.121  18.010  22.818  1.00  0.00    -0.084 Cl
ENDBRANCH  21  29
ENDBRANCH  16  19
ENDBRANCH   9  15
ENDBRANCH   6   8
ENDBRANCH   5   6
ENDBRANCH   4   5
ENDBRANCH   3   4
ENDBRANCH   2   3
ENDBRANCH   1   2
BRANCH   1  36
ATOM     36  C   UNL A   1      33.678  34.701  29.101  1.00  0.00     0.188 C 
BRANCH  36  37
ATOM     37  O   UNL A   1      33.729  34.224  30.419  1.00  0.00    -0.376 OA
BRANCH  37  38
ATOM     38  C   UNL A   1      34.910  33.618  30.919  1.00  0.00     0.202 C 
BRANCH  38  39
ATOM     39  C   UNL A   1      35.119  32.111  31.193  1.00  0.00     0.261 C 
BRANCH  39  40
ATOM     40  O   UNL A   1      36.125  31.411  30.457  1.00  0.00    -0.460 OA
BRANCH  40  41
ATOM     41  C   UNL A   1      36.714  30.371  31.098  1.00  0.00     0.338 C 
ATOM     42  O   UNL A   1      36.181  29.547  31.816  1.00  0.00    -0.246 OA
BRANCH  41  43
ATOM     43  C   UNL A   1      38.097  30.251  30.587  1.00  0.00     0.060 A 
ATOM     44  C   UNL A   1      38.316  30.350  29.204  1.00  0.00     0.016 A 
ATOM     45  C   UNL A   1      39.163  30.050  31.461  1.00  0.00     0.016 A 
ATOM     46  C   UNL A   1      39.606  30.231  28.690  1.00  0.00     0.010 A 
ATOM     47  C   UNL A   1      40.452  29.897  30.942  1.00  0.00     0.010 A 
ATOM     48  C   UNL A   1      40.674  29.961  29.553  1.00  0.00    -0.014 A 
BRANCH  48  49
ATOM     49  C   UNL A   1      41.982  29.541  28.999  1.00  0.00     0.031 A 
ATOM     50  C   UNL A   1      42.142  28.113  28.558  1.00  0.00     0.074 A 
ATOM     51  C   UNL A   1      43.007  30.403  28.881  1.00  0.00     0.049 A 
ATOM     52  N   UNL A   1      43.206  27.493  28.118  1.00  0.00    -0.248 NA
ATOM     53  C   UNL A   1      40.936  27.270  28.627  1.00  0.00     0.031 C 
ATOM     54  C   UNL A   1      42.966  31.825  29.214  1.00  0.00     0.029 A 
ATOM     55  N   UNL A   1      44.295  30.193  28.454  1.00  0.00    -0.354 N 
ATOM     56  C   UNL A   1      42.803  26.185  27.875  1.00  0.00     0.074 A 
ATOM     57  C   UNL A   1      41.406  26.095  28.237  1.00  0.00     0.031 C 
ATOM     58  C   UNL A   1      44.181  32.359  28.991  1.00  0.00     0.029 A 
ATOM     59  C   UNL A   1      45.091  31.308  28.540  1.00  0.00     0.049 A 
ATOM     60  H   UNL A   1      44.616  29.325  28.117  1.00  0.00     0.167 HD
ATOM     61  C   UNL A   1      43.531  25.150  27.395  1.00  0.00     0.031 A 
ATOM     62  C   UNL A   1      46.412  31.453  28.309  1.00  0.00     0.031 A 
ATOM     63  C   UNL A   1      44.925  25.233  27.053  1.00  0.00     0.049 A 
ATOM     64  C   UNL A   1      47.223  30.262  27.866  1.00  0.00     0.074 A 
ATOM     65  C   UNL A   1      45.747  24.242  26.545  1.00  0.00     0.029 A 
ATOM     66  N   UNL A   1      45.706  26.369  27.195  1.00  0.00    -0.354 N 
ATOM     67  N   UNL A   1      46.829  29.036  27.617  1.00  0.00    -0.248 NA
ATOM     68  C   UNL A   1      48.664  30.480  27.668  1.00  0.00     0.031 C 
ATOM     69  C   UNL A   1      47.041  24.762  26.441  1.00  0.00     0.029 A 
ATOM     70  C   UNL A   1      47.008  26.096  26.815  1.00  0.00     0.049 A 
ATOM     71  H   UNL A   1      45.382  27.241  27.517  1.00  0.00     0.167 HD
ATOM     72  C   UNL A   1      47.963  28.349  27.200  1.00  0.00     0.074 A 
ATOM     73  C   UNL A   1      49.057  29.297  27.218  1.00  0.00     0.031 C 
ATOM     74  C   UNL A   1      48.087  27.049  26.833  1.00  0.00     0.031 A 
BRANCH  61  75
ATOM     75  C   UNL A   1      42.839  23.823  27.260  1.00  0.00    -0.014 A 
ATOM     76  C   UNL A   1      42.395  23.349  26.016  1.00  0.00     0.009 A 
ATOM     77  C   UNL A   1      42.654  23.020  28.398  1.00  0.00     0.009 A 
ATOM     78  C   UNL A   1      41.749  22.115  25.919  1.00  0.00     0.001 A 
ATOM     79  C   UNL A   1      42.037  21.774  28.293  1.00  0.00     0.001 A 
ATOM     80  C   UNL A   1      41.576  21.326  27.055  1.00  0.00     0.000 A 
ENDBRANCH  61  75
BRANCH  62  81
ATOM     81  C   UNL A   1      47.069  32.772  28.517  1.00  0.00    -0.014 A 
ATOM     82  C   UNL A   1      47.166  33.697  27.466  1.00  0.00     0.009 A 
ATOM     83  C   UNL A   1      47.636  33.098  29.760  1.00  0.00     0.009 A 
ATOM     84  C   UNL A   1      47.843  34.906  27.647  1.00  0.00     0.001 A 
ATOM     85  C   UNL A   1      48.284  34.321  29.946  1.00  0.00     0.001 A 
ATOM     86  C   UNL A   1      48.397  35.219  28.887  1.00  0.00     0.000 A 
ENDBRANCH  62  81
BRANCH  74  87
ATOM     87  C   UNL A   1      49.442  26.584  26.371  1.00  0.00    -0.014 A 
ATOM     88  C   UNL A   1      50.315  25.895  27.227  1.00  0.00     0.009 A 
ATOM     89  C   UNL A   1      49.829  26.801  25.038  1.00  0.00     0.009 A 
ATOM     90  C   UNL A   1      51.562  25.465  26.766  1.00  0.00     0.001 A 
ATOM     91  C   UNL A   1      51.061  26.340  24.572  1.00  0.00     0.001 A 
ATOM     92  C   UNL A   1      51.931  25.681  25.439  1.00  0.00     0.000 A 
ENDBRANCH  74  87
ENDBRANCH  48  49
ENDBRANCH  41  43
ENDBRANCH  40  41
ENDBRANCH  39  40
ENDBRANCH  38  39
ENDBRANCH  37  38
ENDBRANCH  36  37
ENDBRANCH   1  36
TORSDOF 21
ENDMDL
MODEL 3
REMARK VINA RESULT:     -10.7      3.051      6.203
REMARK SMILES NC(=O)c1c(-c2ccc(Cl)cc2)csc1NC(=O)[C@H]1[C@@H](C(=O)OCCOCCOCCOC(=O)c2ccc(-c3c4nc(c(-c5ccccc5)c5ccc([nH]5)c(-c5ccccc5)c5nc(c(-c6ccccc6)c6ccc3[nH]6)C=C5)C=C4)cc2)[C@@H]2CC[C@H]1O2
REMARK SMILES IDX 27 1 26 2 25 3 24 4 23 5 21 6 22 7 20 8 19 9 86 10 83 11
REMARK SMILES IDX 85 12 87 13 84 14 17 15 16 16 18 18 15 19 4 20 5 21 13 22
REMARK SMILES IDX 14 23 2 24 1 25 3 28 6 29 7 30 12 31 8 32 11 33 9 34 10 35
REMARK SMILES IDX 28 36 29 37 30 38 31 39 32 40 33 41 34 42 35 43 36 44 82 45
REMARK SMILES IDX 37 46 81 47 38 48 39 49 40 50 75 51 41 52 80 53 74 54 76 55
REMARK SMILES IDX 42 56 79 57 73 58 72 59 43 61 65 62 50 63 64 64 51 65 54 66
REMARK SMILES IDX 63 67 77 68 52 69 53 70 62 72 78 73 55 74 44 75 45 76 49 77
REMARK SMILES IDX 46 78 48 79 47 80 66 81 67 82 71 83 68 84 70 85 69 86 56 87
REMARK SMILES IDX 57 88 61 89 58 90 60 91 59 92
REMARK H PARENT 16 17 1 26 1 27 76 60 54 71
REMARK Flexibility Score: inf
ROOT
ATOM      1  C   UNL A   1      34.104  34.173  27.805  1.00  0.00     0.188 C 
ENDROOT
BRANCH   1   2
ATOM      2  O   UNL A   1      33.523  32.947  28.195  1.00  0.00    -0.376 OA
BRANCH   2   3
ATOM      3  C   UNL A   1      34.163  31.718  27.880  1.00  0.00     0.202 C 
BRANCH   3   4
ATOM      4  C   UNL A   1      33.397  30.423  27.557  1.00  0.00     0.261 C 
BRANCH   4   5
ATOM      5  O   UNL A   1      32.519  30.466  26.417  1.00  0.00    -0.463 OA
BRANCH   5   6
ATOM      6  C   UNL A   1      32.794  29.559  25.451  1.00  0.00     0.312 C 
ATOM      7  O   UNL A   1      33.909  29.088  25.250  1.00  0.00    -0.252 OA
BRANCH   6   8
ATOM      8  C   UNL A   1      31.591  29.018  24.716  1.00  0.00     0.143 C 
ATOM      9  C   UNL A   1      30.824  27.918  25.469  1.00  0.00     0.124 C 
ATOM     10  C   UNL A   1      30.375  27.035  24.320  1.00  0.00     0.132 C 
ATOM     11  C   UNL A   1      31.719  28.408  23.309  1.00  0.00     0.133 C 
ATOM     12  C   UNL A   1      29.439  27.749  23.337  1.00  0.00     0.035 C 
ATOM     13  O   UNL A   1      31.578  26.996  23.527  1.00  0.00    -0.373 OA
ATOM     14  C   UNL A   1      30.409  28.641  22.548  1.00  0.00     0.036 C 
BRANCH   9  15
ATOM     15  C   UNL A   1      31.582  27.292  26.663  1.00  0.00     0.231 C 
ATOM     16  N   UNL A   1      32.726  26.550  26.584  1.00  0.00    -0.317 N 
ATOM     17  H   UNL A   1      33.394  26.780  27.270  1.00  0.00     0.170 HD
ATOM     18  O   UNL A   1      31.246  27.664  27.798  1.00  0.00    -0.274 OA
BRANCH  16  19
ATOM     19  C   UNL A   1      33.130  25.539  25.732  1.00  0.00     0.108 A 
ATOM     20  C   UNL A   1      32.607  24.249  25.600  1.00  0.00     0.082 A 
ATOM     21  C   UNL A   1      33.409  23.497  24.646  1.00  0.00     0.007 A 
ATOM     22  C   UNL A   1      34.397  24.279  24.078  1.00  0.00     0.076 A 
ATOM     23  S   UNL A   1      34.067  25.918  24.364  1.00  0.00    -0.125 S 
BRANCH  20  24
ATOM     24  C   UNL A   1      31.413  23.831  26.336  1.00  0.00     0.252 C 
ATOM     25  N   UNL A   1      30.266  23.626  25.629  1.00  0.00    -0.365 N 
ATOM     26  H   UNL A   1      29.444  23.345  26.095  1.00  0.00     0.159 HD
ATOM     27  H   UNL A   1      30.258  23.759  24.654  1.00  0.00     0.159 HD
ATOM     28  O   UNL A   1      31.405  23.677  27.557  1.00  0.00    -0.269 OA
ENDBRANCH  20  24
BRANCH  21  29
ATOM     29  C   UNL A   1      33.176  22.210  24.017  1.00  0.00    -0.017 A 
ATOM     30  C   UNL A   1      32.446  22.084  22.829  1.00  0.00     0.010 A 
ATOM     31  C   UNL A   1      33.568  21.066  24.725  1.00  0.00     0.010 A 
ATOM     32  C   UNL A   1      32.099  20.810  22.367  1.00  0.00     0.021 A 
ATOM     33  C   UNL A   1      33.214  19.800  24.267  1.00  0.00     0.021 A 
ATOM     34  C   UNL A   1      32.476  19.677  23.093  1.00  0.00     0.041 A 
ATOM     35  Cl  UNL A   1      32.002  18.114  22.553  1.00  0.00    -0.084 Cl
ENDBRANCH  21  29
ENDBRANCH  16  19
ENDBRANCH   9  15
ENDBRANCH   6   8
ENDBRANCH   5   6
ENDBRANCH   4   5
ENDBRANCH   3   4
ENDBRANCH   2   3
ENDBRANCH   1   2
BRANCH   1  36
ATOM     36  C   UNL A   1      33.869  35.421  28.662  1.00  0.00     0.188 C 
BRANCH  36  37
ATOM     37  O   UNL A   1      32.751  35.457  29.509  1.00  0.00    -0.376 OA
BRANCH  37  38
ATOM     38  C   UNL A   1      32.754  36.274  30.668  1.00  0.00     0.202 C 
BRANCH  38  39
ATOM     39  C   UNL A   1      33.308  35.887  32.058  1.00  0.00     0.261 C 
BRANCH  39  40
ATOM     40  O   UNL A   1      34.500  35.101  32.129  1.00  0.00    -0.460 OA
BRANCH  40  41
ATOM     41  C   UNL A   1      34.364  33.862  32.665  1.00  0.00     0.338 C 
ATOM     42  O   UNL A   1      33.351  33.353  33.105  1.00  0.00    -0.246 OA
BRANCH  41  43
ATOM     43  C   UNL A   1      35.618  33.120  32.410  1.00  0.00     0.060 A 
ATOM     44  C   UNL A   1      35.895  31.979  33.178  1.00  0.00     0.016 A 
ATOM     45  C   UNL A   1      36.506  33.542  31.422  1.00  0.00     0.016 A 
ATOM     46  C   UNL A   1      37.073  31.263  32.970  1.00  0.00     0.010 A 
ATOM     47  C   UNL A   1      37.702  32.844  31.237  1.00  0.00     0.010 A 
ATOM     48  C   UNL A   1      38.001  31.718  32.027  1.00  0.00    -0.014 A 
BRANCH  48  49
ATOM     49  C   UNL A   1      39.370  31.149  32.007  1.00  0.00     0.031 A 
ATOM     50  C   UNL A   1      39.648  30.003  31.076  1.00  0.00     0.074 A 
ATOM     51  C   UNL A   1      40.348  31.638  32.789  1.00  0.00     0.049 A 
ATOM     52  N   UNL A   1      40.736  29.291  30.936  1.00  0.00    -0.248 NA
ATOM     53  C   UNL A   1      38.547  29.604  30.183  1.00  0.00     0.031 C 
ATOM     54  C   UNL A   1      40.226  32.782  33.689  1.00  0.00     0.029 A 
ATOM     55  N   UNL A   1      41.644  31.214  32.953  1.00  0.00    -0.354 N 
ATOM     56  C   UNL A   1      40.446  28.350  29.955  1.00  0.00     0.074 A 
ATOM     57  C   UNL A   1      39.074  28.568  29.551  1.00  0.00     0.031 C 
ATOM     58  C   UNL A   1      41.399  32.962  34.324  1.00  0.00     0.029 A 
ATOM     59  C   UNL A   1      42.336  31.922  33.904  1.00  0.00     0.049 A 
ATOM     60  H   UNL A   1      42.038  30.474  32.438  1.00  0.00     0.167 HD
ATOM     61  C   UNL A   1      41.247  27.390  29.438  1.00  0.00     0.031 A 
ATOM     62  C   UNL A   1      43.576  31.730  34.399  1.00  0.00     0.031 A 
ATOM     63  C   UNL A   1      42.604  27.161  29.853  1.00  0.00     0.049 A 
ATOM     64  C   UNL A   1      44.416  30.593  33.874  1.00  0.00     0.074 A 
ATOM     65  C   UNL A   1      43.502  26.222  29.378  1.00  0.00     0.029 A 
ATOM     66  N   UNL A   1      43.255  27.872  30.848  1.00  0.00    -0.354 N 
ATOM     67  N   UNL A   1      44.141  29.724  32.931  1.00  0.00    -0.248 NA
ATOM     68  C   UNL A   1      45.744  30.417  34.482  1.00  0.00     0.031 C 
ATOM     69  C   UNL A   1      44.676  26.322  30.132  1.00  0.00     0.029 A 
ATOM     70  C   UNL A   1      44.533  27.371  31.026  1.00  0.00     0.049 A 
ATOM     71  H   UNL A   1      42.867  28.622  31.354  1.00  0.00     0.167 HD
ATOM     72  C   UNL A   1      45.271  28.924  32.810  1.00  0.00     0.074 A 
ATOM     73  C   UNL A   1      46.239  29.417  33.766  1.00  0.00     0.031 C 
ATOM     74  C   UNL A   1      45.489  27.874  31.978  1.00  0.00     0.031 A 
BRANCH  61  75
ATOM     75  C   UNL A   1      40.654  26.482  28.398  1.00  0.00    -0.014 A 
ATOM     76  C   UNL A   1      39.669  25.537  28.723  1.00  0.00     0.009 A 
ATOM     77  C   UNL A   1      41.070  26.597  27.061  1.00  0.00     0.009 A 
ATOM     78  C   UNL A   1      39.138  24.701  27.737  1.00  0.00     0.001 A 
ATOM     79  C   UNL A   1      40.516  25.783  26.074  1.00  0.00     0.001 A 
ATOM     80  C   UNL A   1      39.557  24.829  26.414  1.00  0.00     0.000 A 
ENDBRANCH  61  75
BRANCH  62  81
ATOM     81  C   UNL A   1      44.100  32.615  35.474  1.00  0.00    -0.014 A 
ATOM     82  C   UNL A   1      43.870  32.313  36.825  1.00  0.00     0.009 A 
ATOM     83  C   UNL A   1      44.802  33.788  35.153  1.00  0.00     0.009 A 
ATOM     84  C   UNL A   1      44.306  33.182  37.829  1.00  0.00     0.001 A 
ATOM     85  C   UNL A   1      45.263  34.638  36.160  1.00  0.00     0.001 A 
ATOM     86  C   UNL A   1      45.006  34.340  37.496  1.00  0.00     0.000 A 
ENDBRANCH  62  81
BRANCH  74  87
ATOM     87  C   UNL A   1      46.843  27.218  32.027  1.00  0.00    -0.014 A 
ATOM     88  C   UNL A   1      47.899  27.647  31.208  1.00  0.00     0.009 A 
ATOM     89  C   UNL A   1      47.073  26.180  32.945  1.00  0.00     0.009 A 
ATOM     90  C   UNL A   1      49.148  27.026  31.285  1.00  0.00     0.001 A 
ATOM     91  C   UNL A   1      48.332  25.585  33.043  1.00  0.00     0.001 A 
ATOM     92  C   UNL A   1      49.365  26.001  32.205  1.00  0.00     0.000 A 
ENDBRANCH  74  87
ENDBRANCH  48  49
ENDBRANCH  41  43
ENDBRANCH  40  41
ENDBRANCH  39  40
ENDBRANCH  38  39
ENDBRANCH  37  38
ENDBRANCH  36  37
ENDBRANCH   1  36
TORSDOF 21
ENDMDL
