MODEL 1
REMARK VINA RESULT:      -9.3      0.000      0.000
REMARK SMILES CCCC[C@@H](Sc1nc(OCCC2CCCCC2)cc(OCCC2CCCCC2)n1)C(=O)OCCOCCOCCOC(=O)c1ccc(-c2c3nc(c(-c4ccccc4)c4ccc([nH]4)c(-c4ccccc4)c4nc(c(-c5ccccc5)c5ccc2[nH]5)C=C4)C=C3)cc1
REMARK SMILES IDX 35 1 34 2 33 3 31 4 32 5 5 6 4 7 3 8 2 9 1 10 6 11 7 12 8 13
REMARK SMILES IDX 30 14 9 15 20 16 19 17 10 18 11 19 12 20 13 21 14 22 18 23
REMARK SMILES IDX 15 24 17 25 16 26 21 27 22 28 23 29 24 30 25 31 29 32 26 33
REMARK SMILES IDX 28 34 27 35 36 36 37 37 38 38 39 39 40 40 41 41 42 42 43 43
REMARK SMILES IDX 44 44 45 45 46 46 92 47 47 48 91 49 48 50 49 51 50 52 85 53
REMARK SMILES IDX 51 54 90 55 84 56 86 57 52 58 89 59 83 60 82 61 53 63 75 64
REMARK SMILES IDX 60 65 74 66 61 67 64 68 73 69 87 70 62 71 63 72 72 74 88 75
REMARK SMILES IDX 65 76 54 77 55 78 59 79 56 80 58 81 57 82 76 83 77 84 81 85
REMARK SMILES IDX 78 86 80 87 79 88 66 89 67 90 71 91 68 92 70 93 69 94
REMARK H PARENT 86 62 64 73
REMARK Flexibility Score: inf
ROOT
ATOM      1  C   UNL A   1      34.872  22.645  24.941  1.00  0.00     0.202 C 
ENDROOT
BRANCH   1   2
ATOM      2  C   UNL A   1      34.592  23.501  23.691  1.00  0.00     0.261 C 
BRANCH   2   3
ATOM      3  O   UNL A   1      34.442  24.921  23.920  1.00  0.00    -0.462 OA
BRANCH   3   4
ATOM      4  C   UNL A   1      33.643  25.619  23.052  1.00  0.00     0.319 C 
ATOM      5  O   UNL A   1      33.939  25.830  21.879  1.00  0.00    -0.251 OA
BRANCH   4   6
ATOM      6  C   UNL A   1      32.303  26.110  23.683  1.00  0.00     0.164 C 
BRANCH   6   7
ATOM      7  C   UNL A   1      32.192  25.746  25.180  1.00  0.00     0.027 C 
BRANCH   7   8
ATOM      8  C   UNL A   1      31.622  24.384  25.633  1.00  0.00     0.001 C 
BRANCH   8   9
ATOM      9  C   UNL A   1      30.320  24.392  26.441  1.00  0.00    -0.003 C 
ATOM     10  C   UNL A   1      29.968  22.999  26.950  1.00  0.00     0.004 C 
ENDBRANCH   8   9
ENDBRANCH   7   8
ENDBRANCH   6   7
BRANCH   6  11
ATOM     11  S   UNL A   1      32.283  27.917  23.295  1.00  0.00    -0.071 SA
BRANCH  11  12
ATOM     12  C   UNL A   1      32.822  28.740  24.758  1.00  0.00     0.195 A 
ATOM     13  N   UNL A   1      33.853  28.154  25.405  1.00  0.00    -0.187 NA
ATOM     14  N   UNL A   1      32.252  29.869  25.194  1.00  0.00    -0.187 NA
ATOM     15  C   UNL A   1      34.150  28.619  26.622  1.00  0.00     0.221 A 
ATOM     16  C   UNL A   1      32.480  30.126  26.491  1.00  0.00     0.221 A 
ATOM     17  C   UNL A   1      33.105  29.205  27.302  1.00  0.00     0.136 A 
BRANCH  15  18
ATOM     18  O   UNL A   1      35.598  29.052  27.024  1.00  0.00    -0.477 OA
BRANCH  18  19
ATOM     19  C   UNL A   1      36.845  30.233  27.916  1.00  0.00     0.231 C 
BRANCH  19  20
ATOM     20  C   UNL A   1      38.495  30.215  28.537  1.00  0.00     0.045 C 
BRANCH  20  21
ATOM     21  C   UNL A   1      39.575  29.123  28.156  1.00  0.00    -0.008 C 
ATOM     22  C   UNL A   1      40.174  29.048  26.741  1.00  0.00     0.004 C 
ATOM     23  C   UNL A   1      40.815  29.081  29.100  1.00  0.00     0.004 C 
ATOM     24  C   UNL A   1      40.842  27.649  26.595  1.00  0.00     0.000 C 
ATOM     25  C   UNL A   1      41.446  27.694  29.078  1.00  0.00     0.000 C 
ATOM     26  C   UNL A   1      41.891  27.327  27.673  1.00  0.00     0.000 C 
ENDBRANCH  20  21
ENDBRANCH  19  20
ENDBRANCH  18  19
ENDBRANCH  15  18
BRANCH  16  27
ATOM     27  O   UNL A   1      32.259  31.413  26.996  1.00  0.00    -0.477 OA
BRANCH  27  28
ATOM     28  C   UNL A   1      33.305  31.996  27.861  1.00  0.00     0.231 C 
BRANCH  28  29
ATOM     29  C   UNL A   1      33.448  33.572  27.878  1.00  0.00     0.045 C 
BRANCH  29  30
ATOM     30  C   UNL A   1      33.840  34.006  29.283  1.00  0.00    -0.008 C 
ATOM     31  C   UNL A   1      33.047  35.724  29.709  1.00  0.00     0.004 C 
ATOM     32  C   UNL A   1      34.662  33.013  30.680  1.00  0.00     0.004 C 
ATOM     33  C   UNL A   1      33.241  36.481  31.511  1.00  0.00     0.000 C 
ATOM     34  C   UNL A   1      35.062  33.858  32.322  1.00  0.00     0.000 C 
ATOM     35  C   UNL A   1      34.296  35.535  32.780  1.00  0.00     0.000 C 
ENDBRANCH  29  30
ENDBRANCH  28  29
ENDBRANCH  27  28
ENDBRANCH  16  27
ENDBRANCH  11  12
ENDBRANCH   6  11
ENDBRANCH   4   6
ENDBRANCH   3   4
ENDBRANCH   2   3
ENDBRANCH   1   2
BRANCH   1  36
ATOM     36  O   UNL A   1      36.135  21.987  24.999  1.00  0.00    -0.376 OA
BRANCH  36  37
ATOM     37  C   UNL A   1      37.282  22.809  24.856  1.00  0.00     0.188 C 
BRANCH  37  38
ATOM     38  C   UNL A   1      37.446  23.920  25.890  1.00  0.00     0.188 C 
BRANCH  38  39
ATOM     39  O   UNL A   1      38.765  24.245  26.289  1.00  0.00    -0.376 OA
BRANCH  39  40
ATOM     40  C   UNL A   1      39.520  23.167  26.852  1.00  0.00     0.202 C 
BRANCH  40  41
ATOM     41  C   UNL A   1      40.770  23.523  27.701  1.00  0.00     0.261 C 
BRANCH  41  42
ATOM     42  O   UNL A   1      41.944  23.998  26.998  1.00  0.00    -0.460 OA
BRANCH  42  43
ATOM     43  C   UNL A   1      43.154  23.663  27.508  1.00  0.00     0.338 C 
ATOM     44  O   UNL A   1      43.461  22.586  27.974  1.00  0.00    -0.246 OA
BRANCH  43  45
ATOM     45  C   UNL A   1      44.153  24.715  27.147  1.00  0.00     0.060 A 
ATOM     46  C   UNL A   1      44.890  25.276  28.197  1.00  0.00     0.016 A 
ATOM     47  C   UNL A   1      44.395  25.151  25.845  1.00  0.00     0.016 A 
ATOM     48  C   UNL A   1      45.801  26.310  27.986  1.00  0.00     0.010 A 
ATOM     49  C   UNL A   1      45.307  26.202  25.625  1.00  0.00     0.010 A 
ATOM     50  C   UNL A   1      45.983  26.820  26.699  1.00  0.00    -0.014 A 
BRANCH  50  51
ATOM     51  C   UNL A   1      46.708  28.110  26.527  1.00  0.00     0.031 A 
ATOM     52  C   UNL A   1      48.187  28.068  26.232  1.00  0.00     0.074 A 
ATOM     53  C   UNL A   1      46.076  29.301  26.535  1.00  0.00     0.049 A 
ATOM     54  N   UNL A   1      49.047  29.049  26.129  1.00  0.00    -0.248 NA
ATOM     55  C   UNL A   1      48.769  26.733  26.019  1.00  0.00     0.031 C 
ATOM     56  C   UNL A   1      44.635  29.499  26.686  1.00  0.00     0.029 A 
ATOM     57  N   UNL A   1      46.577  30.575  26.405  1.00  0.00    -0.354 N 
ATOM     58  C   UNL A   1      50.275  28.448  25.876  1.00  0.00     0.074 A 
ATOM     59  C   UNL A   1      50.052  27.019  25.859  1.00  0.00     0.031 C 
ATOM     60  C   UNL A   1      44.370  30.817  26.648  1.00  0.00     0.029 A 
ATOM     61  C   UNL A   1      45.624  31.558  26.527  1.00  0.00     0.049 A 
ATOM     62  H   UNL A   1      47.529  30.765  26.241  1.00  0.00     0.167 HD
ATOM     63  C   UNL A   1      51.482  29.029  25.677  1.00  0.00     0.031 A 
ATOM     64  C   UNL A   1      45.751  32.900  26.574  1.00  0.00     0.031 A 
ATOM     65  C   UNL A   1      51.711  30.449  25.686  1.00  0.00     0.049 A 
ATOM     66  C   UNL A   1      47.121  33.522  26.468  1.00  0.00     0.074 A 
ATOM     67  C   UNL A   1      52.902  31.131  25.503  1.00  0.00     0.029 A 
ATOM     68  N   UNL A   1      50.729  31.405  25.888  1.00  0.00    -0.354 N 
ATOM     69  N   UNL A   1      48.280  32.945  26.267  1.00  0.00    -0.248 NA
ATOM     70  C   UNL A   1      47.197  34.986  26.596  1.00  0.00     0.031 C 
ATOM     71  C   UNL A   1      52.650  32.498  25.660  1.00  0.00     0.029 A 
ATOM     72  C   UNL A   1      51.291  32.671  25.864  1.00  0.00     0.049 A 
ATOM     73  H   UNL A   1      49.773  31.214  26.027  1.00  0.00     0.167 HD
ATOM     74  C   UNL A   1      49.215  33.974  26.213  1.00  0.00     0.074 A 
ATOM     75  C   UNL A   1      48.486  35.212  26.386  1.00  0.00     0.031 C 
ATOM     76  C   UNL A   1      50.557  33.899  26.034  1.00  0.00     0.031 A 
BRANCH  63  77
ATOM     77  C   UNL A   1      52.666  28.116  25.492  1.00  0.00    -0.014 A 
ATOM     78  C   UNL A   1      53.415  27.646  26.582  1.00  0.00     0.009 A 
ATOM     79  C   UNL A   1      53.023  27.708  24.198  1.00  0.00     0.009 A 
ATOM     80  C   UNL A   1      54.523  26.821  26.374  1.00  0.00     0.001 A 
ATOM     81  C   UNL A   1      54.108  26.855  23.995  1.00  0.00     0.001 A 
ATOM     82  C   UNL A   1      54.864  26.422  25.082  1.00  0.00     0.000 A 
ENDBRANCH  63  77
BRANCH  64  83
ATOM     83  C   UNL A   1      44.553  33.762  26.783  1.00  0.00    -0.014 A 
ATOM     84  C   UNL A   1      43.856  34.307  25.693  1.00  0.00     0.009 A 
ATOM     85  C   UNL A   1      44.127  34.081  28.083  1.00  0.00     0.009 A 
ATOM     86  C   UNL A   1      42.775  35.168  25.900  1.00  0.00     0.001 A 
ATOM     87  C   UNL A   1      43.026  34.915  28.287  1.00  0.00     0.001 A 
ATOM     88  C   UNL A   1      42.356  35.467  27.197  1.00  0.00     0.000 A 
ENDBRANCH  64  83
BRANCH  76  89
ATOM     89  C   UNL A   1      51.323  35.193  25.961  1.00  0.00    -0.014 A 
ATOM     90  C   UNL A   1      51.472  35.893  24.754  1.00  0.00     0.009 A 
ATOM     91  C   UNL A   1      51.868  35.741  27.134  1.00  0.00     0.009 A 
ATOM     92  C   UNL A   1      52.184  37.095  24.717  1.00  0.00     0.001 A 
ATOM     93  C   UNL A   1      52.549  36.958  27.100  1.00  0.00     0.001 A 
ATOM     94  C   UNL A   1      52.717  37.629  25.890  1.00  0.00     0.000 A 
ENDBRANCH  76  89
ENDBRANCH  50  51
ENDBRANCH  43  45
ENDBRANCH  42  43
ENDBRANCH  41  42
ENDBRANCH  40  41
ENDBRANCH  39  40
ENDBRANCH  38  39
ENDBRANCH  37  38
ENDBRANCH  36  37
ENDBRANCH   1  36
TORSDOF 30
ENDMDL
MODEL 2
REMARK VINA RESULT:      -8.7      1.241      3.453
REMARK SMILES CCCC[C@@H](Sc1nc(OCCC2CCCCC2)cc(OCCC2CCCCC2)n1)C(=O)OCCOCCOCCOC(=O)c1ccc(-c2c3nc(c(-c4ccccc4)c4ccc([nH]4)c(-c4ccccc4)c4nc(c(-c5ccccc5)c5ccc2[nH]5)C=C4)C=C3)cc1
REMARK SMILES IDX 35 1 34 2 33 3 31 4 32 5 5 6 4 7 3 8 2 9 1 10 6 11 7 12 8 13
REMARK SMILES IDX 30 14 9 15 20 16 19 17 10 18 11 19 12 20 13 21 14 22 18 23
REMARK SMILES IDX 15 24 17 25 16 26 21 27 22 28 23 29 24 30 25 31 29 32 26 33
REMARK SMILES IDX 28 34 27 35 36 36 37 37 38 38 39 39 40 40 41 41 42 42 43 43
REMARK SMILES IDX 44 44 45 45 46 46 92 47 47 48 91 49 48 50 49 51 50 52 85 53
REMARK SMILES IDX 51 54 90 55 84 56 86 57 52 58 89 59 83 60 82 61 53 63 75 64
REMARK SMILES IDX 60 65 74 66 61 67 64 68 73 69 87 70 62 71 63 72 72 74 88 75
REMARK SMILES IDX 65 76 54 77 55 78 59 79 56 80 58 81 57 82 76 83 77 84 81 85
REMARK SMILES IDX 78 86 80 87 79 88 66 89 67 90 71 91 68 92 70 93 69 94
REMARK H PARENT 86 62 64 73
REMARK Flexibility Score: inf
ROOT
ATOM      1  C   UNL A   1      34.653  22.211  23.921  1.00  0.00     0.202 C 
ENDROOT
BRANCH   1   2
ATOM      2  C   UNL A   1      33.820  23.311  23.238  1.00  0.00     0.261 C 
BRANCH   2   3
ATOM      3  O   UNL A   1      33.553  24.488  24.036  1.00  0.00    -0.462 OA
BRANCH   3   4
ATOM      4  C   UNL A   1      32.358  25.130  23.833  1.00  0.00     0.319 C 
ATOM      5  O   UNL A   1      32.105  25.787  22.828  1.00  0.00    -0.251 OA
BRANCH   4   6
ATOM      6  C   UNL A   1      31.332  24.934  24.993  1.00  0.00     0.164 C 
BRANCH   6   7
ATOM      7  C   UNL A   1      32.009  24.480  26.304  1.00  0.00     0.027 C 
BRANCH   7   8
ATOM      8  C   UNL A   1      32.147  22.982  26.657  1.00  0.00     0.001 C 
BRANCH   8   9
ATOM      9  C   UNL A   1      33.095  22.606  27.801  1.00  0.00    -0.003 C 
ATOM     10  C   UNL A   1      33.987  21.428  27.425  1.00  0.00     0.004 C 
ENDBRANCH   8   9
ENDBRANCH   7   8
ENDBRANCH   6   7
BRANCH   6  11
ATOM     11  S   UNL A   1      30.454  26.559  25.066  1.00  0.00    -0.071 SA
BRANCH  11  12
ATOM     12  C   UNL A   1      31.633  27.730  25.656  1.00  0.00     0.195 A 
ATOM     13  N   UNL A   1      31.310  29.026  25.457  1.00  0.00    -0.187 NA
ATOM     14  N   UNL A   1      32.767  27.359  26.260  1.00  0.00    -0.187 NA
ATOM     15  C   UNL A   1      32.263  29.933  25.689  1.00  0.00     0.221 A 
ATOM     16  C   UNL A   1      33.715  28.309  26.264  1.00  0.00     0.221 A 
ATOM     17  C   UNL A   1      33.557  29.479  25.555  1.00  0.00     0.136 A 
BRANCH  15  18
ATOM     18  O   UNL A   1      32.033  31.174  26.614  1.00  0.00    -0.477 OA
BRANCH  18  19
ATOM     19  C   UNL A   1      32.673  32.680  27.646  1.00  0.00     0.231 C 
BRANCH  19  20
ATOM     20  C   UNL A   1      34.175  33.550  27.955  1.00  0.00     0.045 C 
BRANCH  20  21
ATOM     21  C   UNL A   1      34.937  33.540  29.342  1.00  0.00    -0.008 C 
ATOM     22  C   UNL A   1      34.672  32.450  30.395  1.00  0.00     0.004 C 
ATOM     23  C   UNL A   1      36.490  33.594  29.228  1.00  0.00     0.004 C 
ATOM     24  C   UNL A   1      35.236  32.969  31.750  1.00  0.00     0.000 C 
ATOM     25  C   UNL A   1      37.090  34.198  30.492  1.00  0.00     0.000 C 
ATOM     26  C   UNL A   1      36.720  33.372  31.712  1.00  0.00     0.000 C 
ENDBRANCH  20  21
ENDBRANCH  19  20
ENDBRANCH  18  19
ENDBRANCH  15  18
BRANCH  16  27
ATOM     27  O   UNL A   1      34.799  28.209  27.144  1.00  0.00    -0.477 OA
BRANCH  27  28
ATOM     28  C   UNL A   1      35.627  29.415  27.348  1.00  0.00     0.231 C 
BRANCH  28  29
ATOM     29  C   UNL A   1      36.227  29.657  28.792  1.00  0.00     0.045 C 
BRANCH  29  30
ATOM     30  C   UNL A   1      37.738  29.492  28.721  1.00  0.00    -0.008 C 
ATOM     31  C   UNL A   1      38.623  30.898  29.721  1.00  0.00     0.004 C 
ATOM     32  C   UNL A   1      38.774  28.020  28.109  1.00  0.00     0.004 C 
ATOM     33  C   UNL A   1      40.574  30.870  29.948  1.00  0.00     0.000 C 
ATOM     34  C   UNL A   1      40.661  28.136  28.110  1.00  0.00     0.000 C 
ATOM     35  C   UNL A   1      41.564  29.492  29.088  1.00  0.00     0.000 C 
ENDBRANCH  29  30
ENDBRANCH  28  29
ENDBRANCH  27  28
ENDBRANCH  16  27
ENDBRANCH  11  12
ENDBRANCH   6  11
ENDBRANCH   4   6
ENDBRANCH   3   4
ENDBRANCH   2   3
ENDBRANCH   1   2
BRANCH   1  36
ATOM     36  O   UNL A   1      35.572  22.632  24.926  1.00  0.00    -0.376 OA
BRANCH  36  37
ATOM     37  C   UNL A   1      36.935  22.715  24.540  1.00  0.00     0.188 C 
BRANCH  37  38
ATOM     38  C   UNL A   1      37.892  21.755  25.242  1.00  0.00     0.188 C 
BRANCH  38  39
ATOM     39  O   UNL A   1      38.822  22.316  26.152  1.00  0.00    -0.376 OA
BRANCH  39  40
ATOM     40  C   UNL A   1      38.434  23.564  26.735  1.00  0.00     0.202 C 
BRANCH  40  41
ATOM     41  C   UNL A   1      39.528  24.650  26.914  1.00  0.00     0.261 C 
BRANCH  41  42
ATOM     42  O   UNL A   1      40.860  24.345  26.434  1.00  0.00    -0.460 OA
BRANCH  42  43
ATOM     43  C   UNL A   1      41.826  24.140  27.363  1.00  0.00     0.338 C 
ATOM     44  O   UNL A   1      41.871  23.226  28.159  1.00  0.00    -0.246 OA
BRANCH  43  45
ATOM     45  C   UNL A   1      42.988  25.035  27.075  1.00  0.00     0.060 A 
ATOM     46  C   UNL A   1      43.646  25.593  28.178  1.00  0.00     0.016 A 
ATOM     47  C   UNL A   1      43.453  25.328  25.794  1.00  0.00     0.016 A 
ATOM     48  C   UNL A   1      44.700  26.493  28.028  1.00  0.00     0.010 A 
ATOM     49  C   UNL A   1      44.511  26.245  25.634  1.00  0.00     0.010 A 
ATOM     50  C   UNL A   1      45.113  26.868  26.748  1.00  0.00    -0.014 A 
BRANCH  50  51
ATOM     51  C   UNL A   1      46.011  28.047  26.592  1.00  0.00     0.031 A 
ATOM     52  C   UNL A   1      47.474  27.801  26.317  1.00  0.00     0.074 A 
ATOM     53  C   UNL A   1      45.549  29.313  26.598  1.00  0.00     0.049 A 
ATOM     54  N   UNL A   1      48.463  28.655  26.230  1.00  0.00    -0.248 NA
ATOM     55  C   UNL A   1      47.869  26.400  26.105  1.00  0.00     0.031 C 
ATOM     56  C   UNL A   1      44.148  29.708  26.730  1.00  0.00     0.029 A 
ATOM     57  N   UNL A   1      46.223  30.506  26.482  1.00  0.00    -0.354 N 
ATOM     58  C   UNL A   1      49.599  27.890  25.991  1.00  0.00     0.074 A 
ATOM     59  C   UNL A   1      49.181  26.507  25.963  1.00  0.00     0.031 C 
ATOM     60  C   UNL A   1      44.068  31.049  26.696  1.00  0.00     0.029 A 
ATOM     61  C   UNL A   1      45.414  31.611  26.596  1.00  0.00     0.049 A 
ATOM     62  H   UNL A   1      47.195  30.564  26.332  1.00  0.00     0.167 HD
ATOM     63  C   UNL A   1      50.878  28.300  25.811  1.00  0.00     0.031 A 
ATOM     64  C   UNL A   1      45.724  32.922  26.652  1.00  0.00     0.031 A 
ATOM     65  C   UNL A   1      51.301  29.675  25.831  1.00  0.00     0.049 A 
ATOM     66  C   UNL A   1      47.168  33.349  26.567  1.00  0.00     0.074 A 
ATOM     67  C   UNL A   1      52.576  30.187  25.668  1.00  0.00     0.029 A 
ATOM     68  N   UNL A   1      50.457  30.757  26.025  1.00  0.00    -0.354 N 
ATOM     69  N   UNL A   1      48.239  32.619  26.379  1.00  0.00    -0.248 NA
ATOM     70  C   UNL A   1      47.443  34.789  26.705  1.00  0.00     0.031 C 
ATOM     71  C   UNL A   1      52.514  31.574  25.829  1.00  0.00     0.029 A 
ATOM     72  C   UNL A   1      51.189  31.933  26.015  1.00  0.00     0.049 A 
ATOM     73  H   UNL A   1      49.482  30.698  26.150  1.00  0.00     0.167 HD
ATOM     74  C   UNL A   1      49.307  33.509  26.343  1.00  0.00     0.074 A 
ATOM     75  C   UNL A   1      48.754  34.835  26.513  1.00  0.00     0.031 C 
ATOM     76  C   UNL A   1      50.629  33.250  26.182  1.00  0.00     0.031 A 
BRANCH  63  77
ATOM     77  C   UNL A   1      51.926  27.233  25.638  1.00  0.00    -0.014 A 
ATOM     78  C   UNL A   1      52.285  26.747  24.371  1.00  0.00     0.009 A 
ATOM     79  C   UNL A   1      52.578  26.720  26.770  1.00  0.00     0.009 A 
ATOM     80  C   UNL A   1      53.244  25.738  24.247  1.00  0.00     0.001 A 
ATOM     81  C   UNL A   1      53.560  25.738  26.642  1.00  0.00     0.001 A 
ATOM     82  C   UNL A   1      53.885  25.239  25.381  1.00  0.00     0.000 A 
ENDBRANCH  63  77
BRANCH  64  83
ATOM     83  C   UNL A   1      44.654  33.941  26.850  1.00  0.00    -0.014 A 
ATOM     84  C   UNL A   1      44.307  34.382  28.137  1.00  0.00     0.009 A 
ATOM     85  C   UNL A   1      43.943  34.447  25.749  1.00  0.00     0.009 A 
ATOM     86  C   UNL A   1      43.257  35.287  28.318  1.00  0.00     0.001 A 
ATOM     87  C   UNL A   1      42.917  35.377  25.931  1.00  0.00     0.001 A 
ATOM     88  C   UNL A   1      42.567  35.789  27.215  1.00  0.00     0.000 A 
ENDBRANCH  64  83
BRANCH  76  89
ATOM     89  C   UNL A   1      51.567  34.426  26.125  1.00  0.00    -0.014 A 
ATOM     90  C   UNL A   1      51.780  35.142  24.938  1.00  0.00     0.009 A 
ATOM     91  C   UNL A   1      52.216  34.848  27.297  1.00  0.00     0.009 A 
ATOM     92  C   UNL A   1      52.653  36.234  24.917  1.00  0.00     0.001 A 
ATOM     93  C   UNL A   1      53.061  35.959  27.281  1.00  0.00     0.001 A 
ATOM     94  C   UNL A   1      53.288  36.644  26.089  1.00  0.00     0.000 A 
ENDBRANCH  76  89
ENDBRANCH  50  51
ENDBRANCH  43  45
ENDBRANCH  42  43
ENDBRANCH  41  42
ENDBRANCH  40  41
ENDBRANCH  39  40
ENDBRANCH  38  39
ENDBRANCH  37  38
ENDBRANCH  36  37
ENDBRANCH   1  36
TORSDOF 30
ENDMDL
MODEL 3
REMARK VINA RESULT:      -8.7      2.077      5.548
REMARK SMILES CCCC[C@@H](Sc1nc(OCCC2CCCCC2)cc(OCCC2CCCCC2)n1)C(=O)OCCOCCOCCOC(=O)c1ccc(-c2c3nc(c(-c4ccccc4)c4ccc([nH]4)c(-c4ccccc4)c4nc(c(-c5ccccc5)c5ccc2[nH]5)C=C4)C=C3)cc1
REMARK SMILES IDX 35 1 34 2 33 3 31 4 32 5 5 6 4 7 3 8 2 9 1 10 6 11 7 12 8 13
REMARK SMILES IDX 30 14 9 15 20 16 19 17 10 18 11 19 12 20 13 21 14 22 18 23
REMARK SMILES IDX 15 24 17 25 16 26 21 27 22 28 23 29 24 30 25 31 29 32 26 33
REMARK SMILES IDX 28 34 27 35 36 36 37 37 38 38 39 39 40 40 41 41 42 42 43 43
REMARK SMILES IDX 44 44 45 45 46 46 92 47 47 48 91 49 48 50 49 51 50 52 85 53
REMARK SMILES IDX 51 54 90 55 84 56 86 57 52 58 89 59 83 60 82 61 53 63 75 64
REMARK SMILES IDX 60 65 74 66 61 67 64 68 73 69 87 70 62 71 63 72 72 74 88 75
REMARK SMILES IDX 65 76 54 77 55 78 59 79 56 80 58 81 57 82 76 83 77 84 81 85
REMARK SMILES IDX 78 86 80 87 79 88 66 89 67 90 71 91 68 92 70 93 69 94
REMARK H PARENT 86 62 64 73
REMARK Flexibility Score: inf
ROOT
ATOM      1  C   UNL A   1      34.541  22.960  25.103  1.00  0.00     0.202 C 
ENDROOT
BRANCH   1   2
ATOM      2  C   UNL A   1      33.991  23.915  24.028  1.00  0.00     0.261 C 
BRANCH   2   3
ATOM      3  O   UNL A   1      34.031  25.324  24.356  1.00  0.00    -0.462 OA
BRANCH   3   4
ATOM      4  C   UNL A   1      33.344  26.182  23.536  1.00  0.00     0.319 C 
ATOM      5  O   UNL A   1      33.689  26.444  22.388  1.00  0.00    -0.251 OA
BRANCH   4   6
ATOM      6  C   UNL A   1      32.062  26.788  24.189  1.00  0.00     0.164 C 
BRANCH   6   7
ATOM      7  C   UNL A   1      31.928  26.408  25.680  1.00  0.00     0.027 C 
BRANCH   7   8
ATOM      8  C   UNL A   1      30.543  26.244  26.343  1.00  0.00     0.001 C 
BRANCH   8   9
ATOM      9  C   UNL A   1      29.915  24.846  26.340  1.00  0.00    -0.003 C 
ATOM     10  C   UNL A   1      30.973  23.756  26.467  1.00  0.00     0.004 C 
ENDBRANCH   8   9
ENDBRANCH   7   8
ENDBRANCH   6   7
BRANCH   6  11
ATOM     11  S   UNL A   1      32.213  28.595  23.833  1.00  0.00    -0.071 SA
BRANCH  11  12
ATOM     12  C   UNL A   1      33.013  29.307  25.233  1.00  0.00     0.195 A 
ATOM     13  N   UNL A   1      34.001  28.563  25.777  1.00  0.00    -0.187 NA
ATOM     14  N   UNL A   1      32.667  30.503  25.723  1.00  0.00    -0.187 NA
ATOM     15  C   UNL A   1      34.483  28.960  26.958  1.00  0.00     0.221 A 
ATOM     16  C   UNL A   1      33.058  30.705  26.990  1.00  0.00     0.221 A 
ATOM     17  C   UNL A   1      33.612  29.689  27.737  1.00  0.00     0.136 A 
BRANCH  15  18
ATOM     18  O   UNL A   1      36.013  29.163  27.213  1.00  0.00    -0.477 OA
BRANCH  18  19
ATOM     19  C   UNL A   1      37.497  29.956  28.168  1.00  0.00     0.231 C 
BRANCH  19  20
ATOM     20  C   UNL A   1      39.184  29.610  28.545  1.00  0.00     0.045 C 
BRANCH  20  21
ATOM     21  C   UNL A   1      39.978  28.356  27.994  1.00  0.00    -0.008 C 
ATOM     22  C   UNL A   1      40.808  28.438  26.701  1.00  0.00     0.004 C 
ATOM     23  C   UNL A   1      40.940  27.694  29.027  1.00  0.00     0.004 C 
ATOM     24  C   UNL A   1      41.083  26.978  26.235  1.00  0.00     0.000 C 
ATOM     25  C   UNL A   1      41.157  26.227  28.677  1.00  0.00     0.000 C 
ATOM     26  C   UNL A   1      41.761  26.087  27.289  1.00  0.00     0.000 C 
ENDBRANCH  20  21
ENDBRANCH  19  20
ENDBRANCH  18  19
ENDBRANCH  15  18
BRANCH  16  27
ATOM     27  O   UNL A   1      33.086  32.004  27.513  1.00  0.00    -0.477 OA
BRANCH  27  28
ATOM     28  C   UNL A   1      34.386  32.519  27.991  1.00  0.00     0.231 C 
BRANCH  28  29
ATOM     29  C   UNL A   1      34.440  33.134  29.447  1.00  0.00     0.045 C 
BRANCH  29  30
ATOM     30  C   UNL A   1      35.797  32.813  30.057  1.00  0.00    -0.008 C 
ATOM     31  C   UNL A   1      35.634  31.394  31.369  1.00  0.00     0.004 C 
ATOM     32  C   UNL A   1      37.536  33.346  29.505  1.00  0.00     0.004 C 
ATOM     33  C   UNL A   1      37.239  30.648  32.221  1.00  0.00     0.000 C 
ATOM     34  C   UNL A   1      39.045  32.808  30.509  1.00  0.00     0.000 C 
ATOM     35  C   UNL A   1      38.927  31.414  31.795  1.00  0.00     0.000 C 
ENDBRANCH  29  30
ENDBRANCH  28  29
ENDBRANCH  27  28
ENDBRANCH  16  27
ENDBRANCH  11  12
ENDBRANCH   6  11
ENDBRANCH   4   6
ENDBRANCH   3   4
ENDBRANCH   2   3
ENDBRANCH   1   2
BRANCH   1  36
ATOM     36  O   UNL A   1      35.801  22.349  24.835  1.00  0.00    -0.376 OA
BRANCH  36  37
ATOM     37  C   UNL A   1      36.918  23.219  24.747  1.00  0.00     0.188 C 
BRANCH  37  38
ATOM     38  C   UNL A   1      37.428  23.794  26.065  1.00  0.00     0.188 C 
BRANCH  38  39
ATOM     39  O   UNL A   1      38.756  23.477  26.441  1.00  0.00    -0.376 OA
BRANCH  39  40
ATOM     40  C   UNL A   1      39.118  22.098  26.311  1.00  0.00     0.202 C 
BRANCH  40  41
ATOM     41  C   UNL A   1      40.607  21.717  26.530  1.00  0.00     0.261 C 
BRANCH  41  42
ATOM     42  O   UNL A   1      41.612  22.578  25.942  1.00  0.00    -0.460 OA
BRANCH  42  43
ATOM     43  C   UNL A   1      42.859  22.067  25.790  1.00  0.00     0.338 C 
ATOM     44  O   UNL A   1      43.132  20.923  25.494  1.00  0.00    -0.246 OA
BRANCH  43  45
ATOM     45  C   UNL A   1      43.851  23.185  25.748  1.00  0.00     0.060 A 
ATOM     46  C   UNL A   1      45.006  23.036  26.526  1.00  0.00     0.016 A 
ATOM     47  C   UNL A   1      43.698  24.339  24.982  1.00  0.00     0.016 A 
ATOM     48  C   UNL A   1      45.967  24.042  26.615  1.00  0.00     0.010 A 
ATOM     49  C   UNL A   1      44.660  25.364  25.075  1.00  0.00     0.010 A 
ATOM     50  C   UNL A   1      45.779  25.241  25.926  1.00  0.00    -0.014 A 
BRANCH  50  51
ATOM     51  C   UNL A   1      46.633  26.414  26.267  1.00  0.00     0.031 A 
ATOM     52  C   UNL A   1      46.138  27.382  27.312  1.00  0.00     0.074 A 
ATOM     53  C   UNL A   1      47.863  26.588  25.743  1.00  0.00     0.049 A 
ATOM     54  N   UNL A   1      46.655  28.516  27.714  1.00  0.00    -0.248 NA
ATOM     55  C   UNL A   1      44.891  27.013  28.001  1.00  0.00     0.031 C 
ATOM     56  C   UNL A   1      48.530  25.677  24.815  1.00  0.00     0.029 A 
ATOM     57  N   UNL A   1      48.774  27.601  25.930  1.00  0.00    -0.354 N 
ATOM     58  C   UNL A   1      45.778  29.010  28.673  1.00  0.00     0.074 A 
ATOM     59  C   UNL A   1      44.690  28.065  28.780  1.00  0.00     0.031 C 
ATOM     60  C   UNL A   1      49.740  26.177  24.508  1.00  0.00     0.029 A 
ATOM     61  C   UNL A   1      49.912  27.468  25.171  1.00  0.00     0.049 A 
ATOM     62  H   UNL A   1      48.625  28.352  26.549  1.00  0.00     0.167 HD
ATOM     63  C   UNL A   1      45.867  30.149  29.400  1.00  0.00     0.031 A 
ATOM     64  C   UNL A   1      50.955  28.306  25.001  1.00  0.00     0.031 A 
ATOM     65  C   UNL A   1      46.950  31.092  29.304  1.00  0.00     0.049 A 
ATOM     66  C   UNL A   1      50.976  29.625  25.732  1.00  0.00     0.074 A 
ATOM     67  C   UNL A   1      47.122  32.280  29.993  1.00  0.00     0.029 A 
ATOM     68  N   UNL A   1      48.045  30.953  28.466  1.00  0.00    -0.354 N 
ATOM     69  N   UNL A   1      50.126  30.102  26.607  1.00  0.00    -0.248 NA
ATOM     70  C   UNL A   1      52.108  30.523  25.448  1.00  0.00     0.031 C 
ATOM     71  C   UNL A   1      48.289  32.891  29.525  1.00  0.00     0.029 A 
ATOM     72  C   UNL A   1      48.882  32.048  28.600  1.00  0.00     0.049 A 
ATOM     73  H   UNL A   1      48.204  30.189  27.866  1.00  0.00     0.167 HD
ATOM     74  C   UNL A   1      50.634  31.336  27.001  1.00  0.00     0.074 A 
ATOM     75  C   UNL A   1      51.874  31.527  26.281  1.00  0.00     0.031 C 
ATOM     76  C   UNL A   1      50.119  32.229  27.882  1.00  0.00     0.031 A 
BRANCH  63  77
ATOM     77  C   UNL A   1      44.723  30.469  30.325  1.00  0.00    -0.014 A 
ATOM     78  C   UNL A   1      44.726  30.074  31.672  1.00  0.00     0.009 A 
ATOM     79  C   UNL A   1      43.627  31.197  29.835  1.00  0.00     0.009 A 
ATOM     80  C   UNL A   1      43.636  30.365  32.496  1.00  0.00     0.001 A 
ATOM     81  C   UNL A   1      42.555  31.517  30.669  1.00  0.00     0.001 A 
ATOM     82  C   UNL A   1      42.555  31.091  31.996  1.00  0.00     0.000 A 
ENDBRANCH  63  77
BRANCH  64  83
ATOM     83  C   UNL A   1      52.053  27.958  24.055  1.00  0.00    -0.014 A 
ATOM     84  C   UNL A   1      51.972  28.304  22.697  1.00  0.00     0.009 A 
ATOM     85  C   UNL A   1      53.173  27.237  24.501  1.00  0.00     0.009 A 
ATOM     86  C   UNL A   1      52.976  27.916  21.804  1.00  0.00     0.001 A 
ATOM     87  C   UNL A   1      54.190  26.879  23.614  1.00  0.00     0.001 A 
ATOM     88  C   UNL A   1      54.087  27.209  22.264  1.00  0.00     0.000 A 
ENDBRANCH  64  83
BRANCH  76  89
ATOM     89  C   UNL A   1      50.919  33.472  28.161  1.00  0.00    -0.014 A 
ATOM     90  C   UNL A   1      51.904  33.505  29.161  1.00  0.00     0.009 A 
ATOM     91  C   UNL A   1      50.711  34.619  27.377  1.00  0.00     0.009 A 
ATOM     92  C   UNL A   1      52.636  34.673  29.394  1.00  0.00     0.001 A 
ATOM     93  C   UNL A   1      51.467  35.773  27.590  1.00  0.00     0.001 A 
ATOM     94  C   UNL A   1      52.421  35.803  28.606  1.00  0.00     0.000 A 
ENDBRANCH  76  89
ENDBRANCH  50  51
ENDBRANCH  43  45
ENDBRANCH  42  43
ENDBRANCH  41  42
ENDBRANCH  40  41
ENDBRANCH  39  40
ENDBRANCH  38  39
ENDBRANCH  37  38
ENDBRANCH  36  37
ENDBRANCH   1  36
TORSDOF 30
ENDMDL
