MODEL 1
REMARK VINA RESULT:      -8.1      0.000      0.000
REMARK SMILES CCCCCCCNC(=O)Oc1cccc(-c2ccc([C@@H](C)C(=O)OCCOCCOCCOC(=O)c3ccc(-c4c5nc(c(-c6ccccc6)c6ccc([nH]6)c(-c6ccccc6)c6nc(c(-c7ccccc7)c7ccc4[nH]7)C=C6)C=C5)cc3)cc2F)c1
REMARK SMILES IDX 26 1 25 2 23 3 24 4 21 5 22 6 20 7 17 8 18 9 86 10 19 11
REMARK SMILES IDX 85 12 87 13 16 14 12 15 13 16 88 17 14 18 15 19 11 20 9 21
REMARK SMILES IDX 8 22 10 24 7 25 6 26 5 27 4 28 3 29 2 30 1 31 27 32 28 33
REMARK SMILES IDX 29 34 30 35 31 36 32 37 33 38 34 39 35 40 36 41 37 42 38 43
REMARK SMILES IDX 84 44 39 45 83 46 40 47 41 48 42 49 77 50 43 51 82 52 76 53
REMARK SMILES IDX 78 54 44 55 81 56 75 57 74 58 45 60 67 61 52 62 66 63 53 64
REMARK SMILES IDX 56 65 65 66 79 67 54 68 55 69 64 71 80 72 57 73 46 74 47 75
REMARK SMILES IDX 51 76 48 77 50 78 49 79 68 80 69 81 73 82 70 83 72 84 71 85
REMARK SMILES IDX 58 86 59 87 63 88 60 89 62 90 61 91
REMARK H PARENT 8 23 78 59 56 70
REMARK Flexibility Score: inf
ROOT
ATOM      1  C   UNL A   1      47.610  26.176  29.183  1.00  0.00     0.261 C 
ENDROOT
BRANCH   1   2
ATOM      2  O   UNL A   1      46.589  27.087  28.713  1.00  0.00    -0.463 OA
BRANCH   2   3
ATOM      3  C   UNL A   1      46.391  27.136  27.371  1.00  0.00     0.313 C 
ATOM      4  O   UNL A   1      46.077  28.165  26.776  1.00  0.00    -0.252 OA
BRANCH   3   5
ATOM      5  C   UNL A   1      46.601  25.828  26.601  1.00  0.00     0.126 C 
ATOM      6  C   UNL A   1      47.207  26.154  25.237  1.00  0.00     0.025 C 
BRANCH   5   7
ATOM      7  C   UNL A   1      45.483  24.797  26.451  1.00  0.00    -0.031 A 
ATOM      8  C   UNL A   1      43.352  22.875  26.298  1.00  0.00     0.018 A 
ATOM      9  C   UNL A   1      44.211  23.119  25.210  1.00  0.00     0.012 A 
ATOM     10  C   UNL A   1      43.588  23.617  27.460  1.00  0.00     0.131 A 
ATOM     11  C   UNL A   1      45.264  24.054  25.284  1.00  0.00     0.005 A 
ATOM     12  C   UNL A   1      44.631  24.547  27.545  1.00  0.00     0.044 A 
ATOM     13  F   UNL A   1      42.821  23.437  28.549  1.00  0.00    -0.206 F 
BRANCH   8  14
ATOM     14  C   UNL A   1      42.295  21.845  26.228  1.00  0.00    -0.012 A 
ATOM     15  C   UNL A   1      39.977  21.158  25.940  1.00  0.00     0.133 A 
ATOM     16  C   UNL A   1      40.306  19.829  26.196  1.00  0.00     0.047 A 
ATOM     17  C   UNL A   1      40.951  22.166  25.957  1.00  0.00     0.056 A 
ATOM     18  C   UNL A   1      41.628  19.495  26.459  1.00  0.00     0.004 A 
ATOM     19  C   UNL A   1      42.610  20.493  26.477  1.00  0.00     0.009 A 
BRANCH  15  20
ATOM     20  O   UNL A   1      38.607  21.453  25.817  1.00  0.00    -0.410 OA
BRANCH  20  21
ATOM     21  C   UNL A   1      38.197  22.768  25.948  1.00  0.00     0.412 C 
ATOM     22  N   UNL A   1      37.321  23.160  24.972  1.00  0.00    -0.321 N 
ATOM     23  H   UNL A   1      36.939  24.062  25.060  1.00  0.00     0.167 HD
ATOM     24  O   UNL A   1      38.569  23.557  26.815  1.00  0.00    -0.224 OA
BRANCH  22  25
ATOM     25  C   UNL A   1      36.896  22.386  23.820  1.00  0.00     0.119 C 
BRANCH  25  26
ATOM     26  C   UNL A   1      35.797  23.080  23.017  1.00  0.00     0.021 C 
BRANCH  26  27
ATOM     27  C   UNL A   1      34.445  23.197  23.732  1.00  0.00     0.002 C 
BRANCH  27  28
ATOM     28  C   UNL A   1      33.251  22.588  22.989  1.00  0.00     0.000 C 
BRANCH  28  29
ATOM     29  C   UNL A   1      32.649  21.332  23.630  1.00  0.00    -0.000 C 
BRANCH  29  30
ATOM     30  C   UNL A   1      33.576  20.574  24.584  1.00  0.00    -0.003 C 
ATOM     31  C   UNL A   1      33.195  20.727  26.049  1.00  0.00     0.004 C 
ENDBRANCH  29  30
ENDBRANCH  28  29
ENDBRANCH  27  28
ENDBRANCH  26  27
ENDBRANCH  25  26
ENDBRANCH  22  25
ENDBRANCH  20  21
ENDBRANCH  15  20
ENDBRANCH   8  14
ENDBRANCH   5   7
ENDBRANCH   3   5
ENDBRANCH   2   3
ENDBRANCH   1   2
BRANCH   1  32
ATOM     32  C   UNL A   1      48.723  26.805  30.038  1.00  0.00     0.202 C 
BRANCH  32  33
ATOM     33  O   UNL A   1      48.364  27.403  31.277  1.00  0.00    -0.376 OA
BRANCH  33  34
ATOM     34  C   UNL A   1      48.642  26.714  32.492  1.00  0.00     0.188 C 
BRANCH  34  35
ATOM     35  C   UNL A   1      47.808  25.480  32.866  1.00  0.00     0.188 C 
BRANCH  35  36
ATOM     36  O   UNL A   1      48.483  24.555  33.689  1.00  0.00    -0.376 OA
BRANCH  36  37
ATOM     37  C   UNL A   1      47.693  23.797  34.583  1.00  0.00     0.202 C 
BRANCH  37  38
ATOM     38  C   UNL A   1      47.989  24.016  36.072  1.00  0.00     0.261 C 
BRANCH  38  39
ATOM     39  O   UNL A   1      47.318  25.127  36.698  1.00  0.00    -0.460 OA
BRANCH  39  40
ATOM     40  C   UNL A   1      46.026  24.958  37.053  1.00  0.00     0.338 C 
ATOM     41  O   UNL A   1      45.601  24.448  38.081  1.00  0.00    -0.246 OA
BRANCH  40  42
ATOM     42  C   UNL A   1      45.189  25.701  36.088  1.00  0.00     0.060 A 
ATOM     43  C   UNL A   1      45.666  26.902  35.543  1.00  0.00     0.016 A 
ATOM     44  C   UNL A   1      43.944  25.199  35.704  1.00  0.00     0.016 A 
ATOM     45  C   UNL A   1      44.897  27.606  34.611  1.00  0.00     0.010 A 
ATOM     46  C   UNL A   1      43.165  25.917  34.794  1.00  0.00     0.010 A 
ATOM     47  C   UNL A   1      43.627  27.131  34.253  1.00  0.00    -0.014 A 
BRANCH  47  48
ATOM     48  C   UNL A   1      42.707  27.953  33.429  1.00  0.00     0.031 A 
ATOM     49  C   UNL A   1      41.805  28.937  34.120  1.00  0.00     0.074 A 
ATOM     50  C   UNL A   1      42.639  27.805  32.094  1.00  0.00     0.049 A 
ATOM     51  N   UNL A   1      40.826  29.653  33.631  1.00  0.00    -0.248 NA
ATOM     52  C   UNL A   1      42.036  29.132  35.561  1.00  0.00     0.031 C 
ATOM     53  C   UNL A   1      43.491  26.929  31.292  1.00  0.00     0.029 A 
ATOM     54  N   UNL A   1      41.789  28.379  31.180  1.00  0.00    -0.354 N 
ATOM     55  C   UNL A   1      40.313  30.370  34.705  1.00  0.00     0.074 A 
ATOM     56  C   UNL A   1      41.075  29.988  35.874  1.00  0.00     0.031 C 
ATOM     57  C   UNL A   1      43.107  27.009  30.006  1.00  0.00     0.029 A 
ATOM     58  C   UNL A   1      41.954  27.901  29.901  1.00  0.00     0.049 A 
ATOM     59  H   UNL A   1      41.127  29.068  31.417  1.00  0.00     0.167 HD
ATOM     60  C   UNL A   1      39.296  31.265  34.717  1.00  0.00     0.031 A 
ATOM     61  C   UNL A   1      41.232  28.127  28.786  1.00  0.00     0.031 A 
ATOM     62  C   UNL A   1      38.525  31.631  33.560  1.00  0.00     0.049 A 
ATOM     63  C   UNL A   1      40.036  29.045  28.847  1.00  0.00     0.074 A 
ATOM     64  C   UNL A   1      37.487  32.541  33.469  1.00  0.00     0.029 A 
ATOM     65  N   UNL A   1      38.698  31.094  32.294  1.00  0.00    -0.354 N 
ATOM     66  N   UNL A   1      39.574  29.738  29.860  1.00  0.00    -0.248 NA
ATOM     67  C   UNL A   1      39.259  29.207  27.608  1.00  0.00     0.031 C 
ATOM     68  C   UNL A   1      36.986  32.506  32.165  1.00  0.00     0.029 A 
ATOM     69  C   UNL A   1      37.760  31.625  31.425  1.00  0.00     0.049 A 
ATOM     70  H   UNL A   1      39.386  30.435  32.048  1.00  0.00     0.167 HD
ATOM     71  C   UNL A   1      38.474  30.436  29.374  1.00  0.00     0.074 A 
ATOM     72  C   UNL A   1      38.346  30.097  27.972  1.00  0.00     0.031 C 
ATOM     73  C   UNL A   1      37.642  31.282  30.031  1.00  0.00     0.031 A 
BRANCH  60  74
ATOM     74  C   UNL A   1      38.929  31.879  36.040  1.00  0.00    -0.014 A 
ATOM     75  C   UNL A   1      37.988  31.277  36.890  1.00  0.00     0.009 A 
ATOM     76  C   UNL A   1      39.565  33.058  36.457  1.00  0.00     0.009 A 
ATOM     77  C   UNL A   1      37.668  31.863  38.116  1.00  0.00     0.001 A 
ATOM     78  C   UNL A   1      39.266  33.624  37.697  1.00  0.00     0.001 A 
ATOM     79  C   UNL A   1      38.312  33.031  38.521  1.00  0.00     0.000 A 
ENDBRANCH  60  74
BRANCH  61  80
ATOM     80  C   UNL A   1      41.585  27.442  27.513  1.00  0.00    -0.014 A 
ATOM     81  C   UNL A   1      42.615  27.932  26.697  1.00  0.00     0.009 A 
ATOM     82  C   UNL A   1      40.866  26.312  27.088  1.00  0.00     0.009 A 
ATOM     83  C   UNL A   1      42.903  27.323  25.473  1.00  0.00     0.001 A 
ATOM     84  C   UNL A   1      41.178  25.684  25.880  1.00  0.00     0.001 A 
ATOM     85  C   UNL A   1      42.188  26.196  25.068  1.00  0.00     0.000 A 
ENDBRANCH  61  80
BRANCH  73  86
ATOM     86  C   UNL A   1      36.538  31.930  29.240  1.00  0.00    -0.014 A 
ATOM     87  C   UNL A   1      35.297  31.298  29.064  1.00  0.00     0.009 A 
ATOM     88  C   UNL A   1      36.722  33.221  28.720  1.00  0.00     0.009 A 
ATOM     89  C   UNL A   1      34.274  31.937  28.359  1.00  0.00     0.001 A 
ATOM     90  C   UNL A   1      35.688  33.869  28.043  1.00  0.00     0.001 A 
ATOM     91  C   UNL A   1      34.467  33.223  27.857  1.00  0.00     0.000 A 
ENDBRANCH  73  86
ENDBRANCH  47  48
ENDBRANCH  40  42
ENDBRANCH  39  40
ENDBRANCH  38  39
ENDBRANCH  37  38
ENDBRANCH  36  37
ENDBRANCH  35  36
ENDBRANCH  34  35
ENDBRANCH  33  34
ENDBRANCH  32  33
ENDBRANCH   1  32
TORSDOF 27
ENDMDL
MODEL 2
REMARK VINA RESULT:      -8.0      4.494     10.038
REMARK SMILES CCCCCCCNC(=O)Oc1cccc(-c2ccc([C@@H](C)C(=O)OCCOCCOCCOC(=O)c3ccc(-c4c5nc(c(-c6ccccc6)c6ccc([nH]6)c(-c6ccccc6)c6nc(c(-c7ccccc7)c7ccc4[nH]7)C=C6)C=C5)cc3)cc2F)c1
REMARK SMILES IDX 26 1 25 2 23 3 24 4 21 5 22 6 20 7 17 8 18 9 86 10 19 11
REMARK SMILES IDX 85 12 87 13 16 14 12 15 13 16 88 17 14 18 15 19 11 20 9 21
REMARK SMILES IDX 8 22 10 24 7 25 6 26 5 27 4 28 3 29 2 30 1 31 27 32 28 33
REMARK SMILES IDX 29 34 30 35 31 36 32 37 33 38 34 39 35 40 36 41 37 42 38 43
REMARK SMILES IDX 84 44 39 45 83 46 40 47 41 48 42 49 77 50 43 51 82 52 76 53
REMARK SMILES IDX 78 54 44 55 81 56 75 57 74 58 45 60 67 61 52 62 66 63 53 64
REMARK SMILES IDX 56 65 65 66 79 67 54 68 55 69 64 71 80 72 57 73 46 74 47 75
REMARK SMILES IDX 51 76 48 77 50 78 49 79 68 80 69 81 73 82 70 83 72 84 71 85
REMARK SMILES IDX 58 86 59 87 63 88 60 89 62 90 61 91
REMARK H PARENT 8 23 78 59 56 70
REMARK Flexibility Score: inf
ROOT
ATOM      1  C   UNL A   1      40.691  29.561  33.930  1.00  0.00     0.261 C 
ENDROOT
BRANCH   1   2
ATOM      2  O   UNL A   1      39.891  29.602  35.135  1.00  0.00    -0.463 OA
BRANCH   2   3
ATOM      3  C   UNL A   1      38.912  30.540  35.181  1.00  0.00     0.313 C 
ATOM      4  O   UNL A   1      37.950  30.471  35.945  1.00  0.00    -0.252 OA
BRANCH   3   5
ATOM      5  C   UNL A   1      39.064  31.735  34.233  1.00  0.00     0.126 C 
ATOM      6  C   UNL A   1      39.426  32.970  35.055  1.00  0.00     0.025 C 
BRANCH   5   7
ATOM      7  C   UNL A   1      37.993  32.081  33.201  1.00  0.00    -0.031 A 
ATOM      8  C   UNL A   1      36.074  32.757  31.171  1.00  0.00     0.018 A 
ATOM      9  C   UNL A   1      35.686  32.474  32.493  1.00  0.00     0.012 A 
ATOM     10  C   UNL A   1      37.444  32.694  30.892  1.00  0.00     0.131 A 
ATOM     11  C   UNL A   1      36.625  32.151  33.494  1.00  0.00     0.005 A 
ATOM     12  C   UNL A   1      38.385  32.375  31.880  1.00  0.00     0.044 A 
ATOM     13  F   UNL A   1      37.900  32.961  29.658  1.00  0.00    -0.206 F 
BRANCH   8  14
ATOM     14  C   UNL A   1      35.086  33.158  30.147  1.00  0.00    -0.012 A 
ATOM     15  C   UNL A   1      33.766  32.729  28.148  1.00  0.00     0.133 A 
ATOM     16  C   UNL A   1      33.253  34.024  28.169  1.00  0.00     0.047 A 
ATOM     17  C   UNL A   1      34.677  32.290  29.118  1.00  0.00     0.056 A 
ATOM     18  C   UNL A   1      33.643  34.891  29.182  1.00  0.00     0.004 A 
ATOM     19  C   UNL A   1      34.551  34.463  30.157  1.00  0.00     0.009 A 
BRANCH  15  20
ATOM     20  O   UNL A   1      33.442  31.945  27.025  1.00  0.00    -0.410 OA
BRANCH  20  21
ATOM     21  C   UNL A   1      32.175  31.394  26.944  1.00  0.00     0.412 C 
ATOM     22  N   UNL A   1      32.168  30.034  27.105  1.00  0.00    -0.321 N 
ATOM     23  H   UNL A   1      31.285  29.600  27.132  1.00  0.00     0.167 HD
ATOM     24  O   UNL A   1      31.133  32.008  26.726  1.00  0.00    -0.224 OA
BRANCH  22  25
ATOM     25  C   UNL A   1      33.323  29.166  27.239  1.00  0.00     0.119 C 
BRANCH  25  26
ATOM     26  C   UNL A   1      33.078  27.768  26.670  1.00  0.00     0.021 C 
BRANCH  26  27
ATOM     27  C   UNL A   1      31.603  27.387  26.496  1.00  0.00     0.002 C 
BRANCH  27  28
ATOM     28  C   UNL A   1      31.177  27.035  25.067  1.00  0.00     0.000 C 
BRANCH  28  29
ATOM     29  C   UNL A   1      31.039  28.224  24.110  1.00  0.00    -0.000 C 
BRANCH  29  30
ATOM     30  C   UNL A   1      31.852  28.123  22.816  1.00  0.00    -0.003 C 
ATOM     31  C   UNL A   1      33.298  28.570  22.973  1.00  0.00     0.004 C 
ENDBRANCH  29  30
ENDBRANCH  28  29
ENDBRANCH  27  28
ENDBRANCH  26  27
ENDBRANCH  25  26
ENDBRANCH  22  25
ENDBRANCH  20  21
ENDBRANCH  15  20
ENDBRANCH   8  14
ENDBRANCH   5   7
ENDBRANCH   3   5
ENDBRANCH   2   3
ENDBRANCH   1   2
BRANCH   1  32
ATOM     32  C   UNL A   1      42.161  29.982  34.089  1.00  0.00     0.202 C 
BRANCH  32  33
ATOM     33  O   UNL A   1      42.762  30.740  33.046  1.00  0.00    -0.376 OA
BRANCH  33  34
ATOM     34  C   UNL A   1      43.137  32.092  33.290  1.00  0.00     0.188 C 
BRANCH  34  35
ATOM     35  C   UNL A   1      42.245  33.228  32.769  1.00  0.00     0.188 C 
BRANCH  35  36
ATOM     36  O   UNL A   1      42.572  34.500  33.281  1.00  0.00    -0.376 OA
BRANCH  36  37
ATOM     37  C   UNL A   1      42.779  35.535  32.342  1.00  0.00     0.202 C 
BRANCH  37  38
ATOM     38  C   UNL A   1      43.964  36.465  32.637  1.00  0.00     0.261 C 
BRANCH  38  39
ATOM     39  O   UNL A   1      45.276  35.913  32.418  1.00  0.00    -0.460 OA
BRANCH  39  40
ATOM     40  C   UNL A   1      45.762  35.935  31.157  1.00  0.00     0.338 C 
ATOM     41  O   UNL A   1      46.424  36.823  30.635  1.00  0.00    -0.246 OA
BRANCH  40  42
ATOM     42  C   UNL A   1      45.555  34.597  30.566  1.00  0.00     0.060 A 
ATOM     43  C   UNL A   1      45.097  34.489  29.245  1.00  0.00     0.016 A 
ATOM     44  C   UNL A   1      45.835  33.449  31.309  1.00  0.00     0.016 A 
ATOM     45  C   UNL A   1      44.917  33.231  28.663  1.00  0.00     0.010 A 
ATOM     46  C   UNL A   1      45.629  32.192  30.736  1.00  0.00     0.010 A 
ATOM     47  C   UNL A   1      45.155  32.073  29.416  1.00  0.00    -0.014 A 
BRANCH  47  48
ATOM     48  C   UNL A   1      44.782  30.734  28.899  1.00  0.00     0.031 A 
ATOM     49  C   UNL A   1      43.362  30.268  29.062  1.00  0.00     0.074 A 
ATOM     50  C   UNL A   1      45.692  29.922  28.330  1.00  0.00     0.049 A 
ATOM     51  N   UNL A   1      42.840  29.093  28.824  1.00  0.00    -0.248 NA
ATOM     52  C   UNL A   1      42.404  31.264  29.572  1.00  0.00     0.031 C 
ATOM     53  C   UNL A   1      47.086  30.267  28.061  1.00  0.00     0.029 A 
ATOM     54  N   UNL A   1      45.574  28.624  27.897  1.00  0.00    -0.354 N 
ATOM     55  C   UNL A   1      41.499  29.201  29.170  1.00  0.00     0.074 A 
ATOM     56  C   UNL A   1      41.292  30.550  29.653  1.00  0.00     0.031 C 
ATOM     57  C   UNL A   1      47.701  29.198  27.526  1.00  0.00     0.029 A 
ATOM     58  C   UNL A   1      46.760  28.082  27.461  1.00  0.00     0.049 A 
ATOM     59  H   UNL A   1      44.723  28.130  27.897  1.00  0.00     0.167 HD
ATOM     60  C   UNL A   1      40.526  28.262  29.094  1.00  0.00     0.031 A 
ATOM     61  C   UNL A   1      47.059  26.820  27.091  1.00  0.00     0.031 A 
ATOM     62  C   UNL A   1      40.734  26.916  28.633  1.00  0.00     0.049 A 
ATOM     63  C   UNL A   1      45.983  25.763  27.119  1.00  0.00     0.074 A 
ATOM     64  C   UNL A   1      39.806  25.897  28.504  1.00  0.00     0.029 A 
ATOM     65  N   UNL A   1      41.957  26.396  28.239  1.00  0.00    -0.354 N 
ATOM     66  N   UNL A   1      44.713  25.880  27.422  1.00  0.00    -0.248 NA
ATOM     67  C   UNL A   1      46.387  24.395  26.755  1.00  0.00     0.031 C 
ATOM     68  C   UNL A   1      40.480  24.742  28.098  1.00  0.00     0.029 A 
ATOM     69  C   UNL A   1      41.815  25.060  27.905  1.00  0.00     0.049 A 
ATOM     70  H   UNL A   1      42.800  26.902  28.201  1.00  0.00     0.167 HD
ATOM     71  C   UNL A   1      44.163  24.613  27.260  1.00  0.00     0.074 A 
ATOM     72  C   UNL A   1      45.233  23.745  26.815  1.00  0.00     0.031 C 
ATOM     73  C   UNL A   1      42.886  24.205  27.462  1.00  0.00     0.031 A 
BRANCH  60  74
ATOM     74  C   UNL A   1      39.151  28.648  29.566  1.00  0.00    -0.014 A 
ATOM     75  C   UNL A   1      38.775  28.515  30.912  1.00  0.00     0.009 A 
ATOM     76  C   UNL A   1      38.232  29.188  28.654  1.00  0.00     0.009 A 
ATOM     77  C   UNL A   1      37.495  28.887  31.327  1.00  0.00     0.001 A 
ATOM     78  C   UNL A   1      36.964  29.588  29.078  1.00  0.00     0.001 A 
ATOM     79  C   UNL A   1      36.593  29.428  30.412  1.00  0.00     0.000 A 
ENDBRANCH  60  74
BRANCH  61  80
ATOM     80  C   UNL A   1      48.450  26.463  26.702  1.00  0.00    -0.014 A 
ATOM     81  C   UNL A   1      48.870  26.568  25.367  1.00  0.00     0.009 A 
ATOM     82  C   UNL A   1      49.357  25.978  27.659  1.00  0.00     0.009 A 
ATOM     83  C   UNL A   1      50.157  26.174  24.995  1.00  0.00     0.001 A 
ATOM     84  C   UNL A   1      50.654  25.616  27.290  1.00  0.00     0.001 A 
ATOM     85  C   UNL A   1      51.050  25.702  25.957  1.00  0.00     0.000 A 
ENDBRANCH  61  80
BRANCH  73  86
ATOM     86  C   UNL A   1      42.560  22.764  27.175  1.00  0.00    -0.014 A 
ATOM     87  C   UNL A   1      42.452  21.819  28.207  1.00  0.00     0.009 A 
ATOM     88  C   UNL A   1      42.292  22.362  25.856  1.00  0.00     0.009 A 
ATOM     89  C   UNL A   1      42.109  20.496  27.919  1.00  0.00     0.001 A 
ATOM     90  C   UNL A   1      41.920  21.047  25.576  1.00  0.00     0.001 A 
ATOM     91  C   UNL A   1      41.836  20.113  26.607  1.00  0.00     0.000 A 
ENDBRANCH  73  86
ENDBRANCH  47  48
ENDBRANCH  40  42
ENDBRANCH  39  40
ENDBRANCH  38  39
ENDBRANCH  37  38
ENDBRANCH  36  37
ENDBRANCH  35  36
ENDBRANCH  34  35
ENDBRANCH  33  34
ENDBRANCH  32  33
ENDBRANCH   1  32
TORSDOF 27
ENDMDL
MODEL 3
REMARK VINA RESULT:      -7.5      4.777     11.279
REMARK SMILES CCCCCCCNC(=O)Oc1cccc(-c2ccc([C@@H](C)C(=O)OCCOCCOCCOC(=O)c3ccc(-c4c5nc(c(-c6ccccc6)c6ccc([nH]6)c(-c6ccccc6)c6nc(c(-c7ccccc7)c7ccc4[nH]7)C=C6)C=C5)cc3)cc2F)c1
REMARK SMILES IDX 26 1 25 2 23 3 24 4 21 5 22 6 20 7 17 8 18 9 86 10 19 11
REMARK SMILES IDX 85 12 87 13 16 14 12 15 13 16 88 17 14 18 15 19 11 20 9 21
REMARK SMILES IDX 8 22 10 24 7 25 6 26 5 27 4 28 3 29 2 30 1 31 27 32 28 33
REMARK SMILES IDX 29 34 30 35 31 36 32 37 33 38 34 39 35 40 36 41 37 42 38 43
REMARK SMILES IDX 84 44 39 45 83 46 40 47 41 48 42 49 77 50 43 51 82 52 76 53
REMARK SMILES IDX 78 54 44 55 81 56 75 57 74 58 45 60 67 61 52 62 66 63 53 64
REMARK SMILES IDX 56 65 65 66 79 67 54 68 55 69 64 71 80 72 57 73 46 74 47 75
REMARK SMILES IDX 51 76 48 77 50 78 49 79 68 80 69 81 73 82 70 83 72 84 71 85
REMARK SMILES IDX 58 86 59 87 63 88 60 89 62 90 61 91
REMARK H PARENT 8 23 78 59 56 70
REMARK Flexibility Score: inf
ROOT
ATOM      1  C   UNL A   1      31.760  30.617  25.373  1.00  0.00     0.261 C 
ENDROOT
BRANCH   1   2
ATOM      2  O   UNL A   1      30.975  29.487  24.925  1.00  0.00    -0.463 OA
BRANCH   2   3
ATOM      3  C   UNL A   1      30.068  29.728  23.946  1.00  0.00     0.313 C 
ATOM      4  O   UNL A   1      29.580  30.839  23.740  1.00  0.00    -0.252 OA
BRANCH   3   5
ATOM      5  C   UNL A   1      29.677  28.536  23.066  1.00  0.00     0.126 C 
ATOM      6  C   UNL A   1      28.154  28.439  23.018  1.00  0.00     0.025 C 
BRANCH   5   7
ATOM      7  C   UNL A   1      30.290  27.152  23.273  1.00  0.00    -0.031 A 
ATOM      8  C   UNL A   1      31.517  24.568  23.553  1.00  0.00     0.018 A 
ATOM      9  C   UNL A   1      30.465  24.985  24.390  1.00  0.00     0.012 A 
ATOM     10  C   UNL A   1      31.937  25.476  22.575  1.00  0.00     0.131 A 
ATOM     11  C   UNL A   1      29.854  26.248  24.249  1.00  0.00     0.005 A 
ATOM     12  C   UNL A   1      31.336  26.733  22.427  1.00  0.00     0.044 A 
ATOM     13  F   UNL A   1      32.928  25.153  21.727  1.00  0.00    -0.206 F 
BRANCH   8  14
ATOM     14  C   UNL A   1      32.104  23.217  23.669  1.00  0.00    -0.012 A 
ATOM     15  C   UNL A   1      33.727  21.648  24.580  1.00  0.00     0.133 A 
ATOM     16  C   UNL A   1      33.236  20.622  23.775  1.00  0.00     0.047 A 
ATOM     17  C   UNL A   1      33.179  22.936  24.534  1.00  0.00     0.056 A 
ATOM     18  C   UNL A   1      32.172  20.882  22.920  1.00  0.00     0.004 A 
ATOM     19  C   UNL A   1      31.616  22.165  22.866  1.00  0.00     0.009 A 
BRANCH  15  20
ATOM     20  O   UNL A   1      34.888  21.361  25.320  1.00  0.00    -0.410 OA
BRANCH  20  21
ATOM     21  C   UNL A   1      35.007  21.884  26.596  1.00  0.00     0.412 C 
ATOM     22  N   UNL A   1      35.969  22.854  26.693  1.00  0.00    -0.321 N 
ATOM     23  H   UNL A   1      36.043  23.313  27.561  1.00  0.00     0.167 HD
ATOM     24  O   UNL A   1      34.364  21.534  27.583  1.00  0.00    -0.224 OA
BRANCH  22  25
ATOM     25  C   UNL A   1      36.889  23.277  25.654  1.00  0.00     0.119 C 
BRANCH  25  26
ATOM     26  C   UNL A   1      38.351  23.200  26.094  1.00  0.00     0.021 C 
BRANCH  26  27
ATOM     27  C   UNL A   1      38.978  21.802  26.018  1.00  0.00     0.002 C 
BRANCH  27  28
ATOM     28  C   UNL A   1      40.147  21.551  26.976  1.00  0.00     0.000 C 
BRANCH  28  29
ATOM     29  C   UNL A   1      41.202  22.662  27.031  1.00  0.00    -0.000 C 
BRANCH  29  30
ATOM     30  C   UNL A   1      42.107  22.769  25.801  1.00  0.00    -0.003 C 
ATOM     31  C   UNL A   1      43.326  21.860  25.864  1.00  0.00     0.004 C 
ENDBRANCH  29  30
ENDBRANCH  28  29
ENDBRANCH  27  28
ENDBRANCH  26  27
ENDBRANCH  25  26
ENDBRANCH  22  25
ENDBRANCH  20  21
ENDBRANCH  15  20
ENDBRANCH   8  14
ENDBRANCH   5   7
ENDBRANCH   3   5
ENDBRANCH   2   3
ENDBRANCH   1   2
BRANCH   1  32
ATOM     32  C   UNL A   1      31.369  31.202  26.740  1.00  0.00     0.202 C 
BRANCH  32  33
ATOM     33  O   UNL A   1      31.563  32.594  26.958  1.00  0.00    -0.376 OA
BRANCH  33  34
ATOM     34  C   UNL A   1      32.771  33.046  27.560  1.00  0.00     0.188 C 
BRANCH  34  35
ATOM     35  C   UNL A   1      32.895  34.515  27.992  1.00  0.00     0.188 C 
BRANCH  35  36
ATOM     36  O   UNL A   1      32.727  34.726  29.375  1.00  0.00    -0.376 OA
BRANCH  36  37
ATOM     37  C   UNL A   1      33.897  34.950  30.136  1.00  0.00     0.202 C 
BRANCH  37  38
ATOM     38  C   UNL A   1      34.224  33.871  31.177  1.00  0.00     0.261 C 
BRANCH  38  39
ATOM     39  O   UNL A   1      34.370  32.528  30.676  1.00  0.00    -0.460 OA
BRANCH  39  40
ATOM     40  C   UNL A   1      35.569  32.179  30.161  1.00  0.00     0.338 C 
ATOM     41  O   UNL A   1      35.891  32.163  28.980  1.00  0.00    -0.246 OA
BRANCH  40  42
ATOM     42  C   UNL A   1      36.519  32.029  31.282  1.00  0.00     0.060 A 
ATOM     43  C   UNL A   1      37.750  32.702  31.239  1.00  0.00     0.016 A 
ATOM     44  C   UNL A   1      36.186  31.244  32.386  1.00  0.00     0.016 A 
ATOM     45  C   UNL A   1      38.651  32.590  32.302  1.00  0.00     0.010 A 
ATOM     46  C   UNL A   1      37.098  31.111  33.435  1.00  0.00     0.010 A 
ATOM     47  C   UNL A   1      38.342  31.769  33.394  1.00  0.00    -0.014 A 
BRANCH  47  48
ATOM     48  C   UNL A   1      39.355  31.468  34.436  1.00  0.00     0.031 A 
ATOM     49  C   UNL A   1      39.492  32.409  35.600  1.00  0.00     0.074 A 
ATOM     50  C   UNL A   1      40.170  30.403  34.336  1.00  0.00     0.049 A 
ATOM     51  N   UNL A   1      40.394  32.434  36.547  1.00  0.00    -0.248 NA
ATOM     52  C   UNL A   1      38.477  33.471  35.703  1.00  0.00     0.031 C 
ATOM     53  C   UNL A   1      40.110  29.383  33.291  1.00  0.00     0.029 A 
ATOM     54  N   UNL A   1      41.230  30.019  35.122  1.00  0.00    -0.354 N 
ATOM     55  C   UNL A   1      40.067  33.521  37.348  1.00  0.00     0.074 A 
ATOM     56  C   UNL A   1      38.897  34.142  36.765  1.00  0.00     0.031 C 
ATOM     57  C   UNL A   1      41.103  28.499  33.490  1.00  0.00     0.029 A 
ATOM     58  C   UNL A   1      41.898  28.918  34.643  1.00  0.00     0.049 A 
ATOM     59  H   UNL A   1      41.485  30.488  35.949  1.00  0.00     0.167 HD
ATOM     60  C   UNL A   1      40.686  33.964  38.469  1.00  0.00     0.031 A 
ATOM     61  C   UNL A   1      43.040  28.339  35.064  1.00  0.00     0.031 A 
ATOM     62  C   UNL A   1      41.860  33.360  39.038  1.00  0.00     0.049 A 
ATOM     63  C   UNL A   1      43.773  28.916  36.250  1.00  0.00     0.074 A 
ATOM     64  C   UNL A   1      42.550  33.727  40.181  1.00  0.00     0.029 A 
ATOM     65  N   UNL A   1      42.528  32.271  38.500  1.00  0.00    -0.354 N 
ATOM     66  N   UNL A   1      43.443  29.927  37.016  1.00  0.00    -0.248 NA
ATOM     67  C   UNL A   1      45.041  28.270  36.625  1.00  0.00     0.031 C 
ATOM     68  C   UNL A   1      43.673  32.904  40.297  1.00  0.00     0.029 A 
ATOM     69  C   UNL A   1      43.644  31.977  39.265  1.00  0.00     0.049 A 
ATOM     70  H   UNL A   1      42.249  31.778  37.695  1.00  0.00     0.167 HD
ATOM     71  C   UNL A   1      44.444  30.022  37.976  1.00  0.00     0.074 A 
ATOM     72  C   UNL A   1      45.385  28.955  37.708  1.00  0.00     0.031 C 
ATOM     73  C   UNL A   1      44.574  30.913  38.990  1.00  0.00     0.031 A 
BRANCH  60  74
ATOM     74  C   UNL A   1      40.128  35.194  39.129  1.00  0.00    -0.014 A 
ATOM     75  C   UNL A   1      39.213  35.105  40.190  1.00  0.00     0.009 A 
ATOM     76  C   UNL A   1      40.556  36.462  38.705  1.00  0.00     0.009 A 
ATOM     77  C   UNL A   1      38.714  36.263  40.791  1.00  0.00     0.001 A 
ATOM     78  C   UNL A   1      40.079  37.616  39.329  1.00  0.00     0.001 A 
ATOM     79  C   UNL A   1      39.152  37.516  40.364  1.00  0.00     0.000 A 
ENDBRANCH  60  74
BRANCH  61  80
ATOM     80  C   UNL A   1      43.599  27.166  34.337  1.00  0.00    -0.014 A 
ATOM     81  C   UNL A   1      44.410  27.345  33.207  1.00  0.00     0.009 A 
ATOM     82  C   UNL A   1      43.293  25.859  34.750  1.00  0.00     0.009 A 
ATOM     83  C   UNL A   1      44.882  26.241  32.491  1.00  0.00     0.001 A 
ATOM     84  C   UNL A   1      43.793  24.758  34.053  1.00  0.00     0.001 A 
ATOM     85  C   UNL A   1      44.577  24.949  32.917  1.00  0.00     0.000 A 
ENDBRANCH  61  80
BRANCH  73  86
ATOM     86  C   UNL A   1      45.756  30.759  39.908  1.00  0.00    -0.014 A 
ATOM     87  C   UNL A   1      45.699  29.932  41.041  1.00  0.00     0.009 A 
ATOM     88  C   UNL A   1      46.965  31.401  39.597  1.00  0.00     0.009 A 
ATOM     89  C   UNL A   1      46.822  29.775  41.857  1.00  0.00     0.001 A 
ATOM     90  C   UNL A   1      48.094  31.217  40.397  1.00  0.00     0.001 A 
ATOM     91  C   UNL A   1      48.019  30.410  41.530  1.00  0.00     0.000 A 
ENDBRANCH  73  86
ENDBRANCH  47  48
ENDBRANCH  40  42
ENDBRANCH  39  40
ENDBRANCH  38  39
ENDBRANCH  37  38
ENDBRANCH  36  37
ENDBRANCH  35  36
ENDBRANCH  34  35
ENDBRANCH  33  34
ENDBRANCH  32  33
ENDBRANCH   1  32
TORSDOF 27
ENDMDL
