MODEL 1
REMARK VINA RESULT:      -8.6      0.000      0.000
REMARK SMILES CC(C)(C)c1ccc(OCC(=O)N/N=C/c2ccc(C(=O)OCCOCCOCCOC(=O)c3ccc(-c4c5nc(c(-c6ccccc6)c6ccc([nH]6)c(-c6ccccc6)c6nc(c(-c7ccccc7)c7ccc4[nH]7)C=C6)C=C5)cc3)cc2)cc1
REMARK SMILES IDX 24 1 23 2 22 3 20 4 21 5 19 6 16 7 17 8 83 9 18 10 82 11
REMARK SMILES IDX 15 12 14 13 13 14 11 15 12 16 10 18 9 19 8 20 5 21 6 22
REMARK SMILES IDX 85 23 7 24 84 25 2 26 1 27 3 28 4 29 25 30 26 31 27 32 28 33
REMARK SMILES IDX 29 34 30 35 31 36 32 37 33 38 34 39 35 40 81 41 36 42 80 43
REMARK SMILES IDX 37 44 38 45 39 46 74 47 40 48 79 49 73 50 75 51 41 52 78 53
REMARK SMILES IDX 72 54 71 55 42 57 64 58 49 59 63 60 50 61 53 62 62 63 76 64
REMARK SMILES IDX 51 65 52 66 61 68 77 69 54 70 43 71 44 72 48 73 45 74 47 75
REMARK SMILES IDX 46 76 65 77 66 78 70 79 67 80 69 81 68 82 55 83 56 84 60 85
REMARK SMILES IDX 57 86 59 87 58 88
REMARK H PARENT 13 17 75 56 53 67
REMARK Flexibility Score: inf
ROOT
ATOM      1  C   UNL A   1      36.682  30.791  28.683  1.00  0.00     0.202 C 
ENDROOT
BRANCH   1   2
ATOM      2  C   UNL A   1      35.281  31.414  28.545  1.00  0.00     0.261 C 
BRANCH   2   3
ATOM      3  O   UNL A   1      34.670  31.367  27.254  1.00  0.00    -0.460 OA
BRANCH   3   4
ATOM      4  C   UNL A   1      33.398  30.895  27.238  1.00  0.00     0.338 C 
ATOM      5  O   UNL A   1      32.375  31.529  27.432  1.00  0.00    -0.246 OA
BRANCH   4   6
ATOM      6  C   UNL A   1      33.393  29.509  26.725  1.00  0.00     0.060 A 
ATOM      7  C   UNL A   1      33.305  26.880  25.844  1.00  0.00    -0.005 A 
ATOM      8  C   UNL A   1      32.458  27.280  26.879  1.00  0.00     0.010 A 
ATOM      9  C   UNL A   1      34.171  27.786  25.224  1.00  0.00     0.010 A 
ATOM     10  C   UNL A   1      32.521  28.594  27.337  1.00  0.00     0.016 A 
ATOM     11  C   UNL A   1      34.200  29.115  25.652  1.00  0.00     0.016 A 
BRANCH   7  12
ATOM     12  C   UNL A   1      33.285  25.464  25.445  1.00  0.00     0.141 C 
ATOM     13  N   UNL A   1      33.311  24.543  26.342  1.00  0.00    -0.181 NA
BRANCH  13  14
ATOM     14  N   UNL A   1      33.202  23.217  26.067  1.00  0.00    -0.244 N 
ATOM     15  C   UNL A   1      32.218  22.396  25.587  1.00  0.00     0.277 C 
ATOM     16  O   UNL A   1      32.489  21.194  25.451  1.00  0.00    -0.269 OA
ATOM     17  H   UNL A   1      34.034  22.727  26.261  1.00  0.00     0.193 HD
BRANCH  15  18
ATOM     18  C   UNL A   1      30.833  22.896  25.190  1.00  0.00     0.331 C 
BRANCH  18  19
ATOM     19  O   UNL A   1      30.649  23.272  23.834  1.00  0.00    -0.484 OA
BRANCH  19  20
ATOM     20  C   UNL A   1      30.731  24.602  23.534  1.00  0.00     0.120 A 
ATOM     21  C   UNL A   1      30.777  27.418  23.155  1.00  0.00    -0.042 A 
ATOM     22  C   UNL A   1      29.972  26.827  24.143  1.00  0.00     0.008 A 
ATOM     23  C   UNL A   1      31.517  26.550  22.335  1.00  0.00     0.008 A 
ATOM     24  C   UNL A   1      29.960  25.440  24.337  1.00  0.00     0.047 A 
ATOM     25  C   UNL A   1      31.507  25.164  22.528  1.00  0.00     0.047 A 
BRANCH  21  26
ATOM     26  C   UNL A   1      30.834  28.942  22.962  1.00  0.00    -0.013 C 
ATOM     27  C   UNL A   1      30.645  29.707  24.294  1.00  0.00     0.016 C 
ATOM     28  C   UNL A   1      29.726  29.446  22.009  1.00  0.00     0.016 C 
ATOM     29  C   UNL A   1      32.206  29.317  22.373  1.00  0.00     0.016 C 
ENDBRANCH  21  26
ENDBRANCH  19  20
ENDBRANCH  18  19
ENDBRANCH  15  18
ENDBRANCH  13  14
ENDBRANCH   7  12
ENDBRANCH   4   6
ENDBRANCH   3   4
ENDBRANCH   2   3
ENDBRANCH   1   2
BRANCH   1  30
ATOM     30  O   UNL A   1      36.947  29.470  29.123  1.00  0.00    -0.376 OA
BRANCH  30  31
ATOM     31  C   UNL A   1      37.023  29.161  30.496  1.00  0.00     0.188 C 
BRANCH  31  32
ATOM     32  C   UNL A   1      36.999  30.296  31.539  1.00  0.00     0.188 C 
BRANCH  32  33
ATOM     33  O   UNL A   1      35.779  30.657  32.145  1.00  0.00    -0.376 OA
BRANCH  33  34
ATOM     34  C   UNL A   1      35.336  32.003  32.122  1.00  0.00     0.202 C 
BRANCH  34  35
ATOM     35  C   UNL A   1      35.811  33.118  33.075  1.00  0.00     0.261 C 
BRANCH  35  36
ATOM     36  O   UNL A   1      36.608  34.173  32.528  1.00  0.00    -0.460 OA
BRANCH  36  37
ATOM     37  C   UNL A   1      37.831  34.337  33.086  1.00  0.00     0.338 C 
ATOM     38  O   UNL A   1      38.114  34.955  34.102  1.00  0.00    -0.246 OA
BRANCH  37  39
ATOM     39  C   UNL A   1      38.794  33.494  32.357  1.00  0.00     0.060 A 
ATOM     40  C   UNL A   1      39.667  32.671  33.083  1.00  0.00     0.016 A 
ATOM     41  C   UNL A   1      38.840  33.526  30.964  1.00  0.00     0.016 A 
ATOM     42  C   UNL A   1      40.578  31.857  32.412  1.00  0.00     0.010 A 
ATOM     43  C   UNL A   1      39.772  32.730  30.295  1.00  0.00     0.010 A 
ATOM     44  C   UNL A   1      40.650  31.898  31.014  1.00  0.00    -0.014 A 
BRANCH  44  45
ATOM     45  C   UNL A   1      41.715  31.164  30.292  1.00  0.00     0.031 A 
ATOM     46  C   UNL A   1      43.007  31.865  29.993  1.00  0.00     0.074 A 
ATOM     47  C   UNL A   1      41.519  29.901  29.873  1.00  0.00     0.049 A 
ATOM     48  N   UNL A   1      44.019  31.465  29.267  1.00  0.00    -0.248 NA
ATOM     49  C   UNL A   1      43.175  33.201  30.587  1.00  0.00     0.031 C 
ATOM     50  C   UNL A   1      40.329  29.096  30.137  1.00  0.00     0.029 A 
ATOM     51  N   UNL A   1      42.318  29.086  29.110  1.00  0.00    -0.354 N 
ATOM     52  C   UNL A   1      44.939  32.506  29.303  1.00  0.00     0.074 A 
ATOM     53  C   UNL A   1      44.353  33.561  30.102  1.00  0.00     0.031 C 
ATOM     54  C   UNL A   1      40.462  27.910  29.518  1.00  0.00     0.029 A 
ATOM     55  C   UNL A   1      41.724  27.893  28.781  1.00  0.00     0.049 A 
ATOM     56  H   UNL A   1      43.228  29.333  28.825  1.00  0.00     0.167 HD
ATOM     57  C   UNL A   1      46.158  32.577  28.718  1.00  0.00     0.031 A 
ATOM     58  C   UNL A   1      42.130  26.918  27.944  1.00  0.00     0.031 A 
ATOM     59  C   UNL A   1      46.722  31.539  27.897  1.00  0.00     0.049 A 
ATOM     60  C   UNL A   1      43.447  27.059  27.223  1.00  0.00     0.074 A 
ATOM     61  C   UNL A   1      47.959  31.509  27.276  1.00  0.00     0.029 A 
ATOM     62  N   UNL A   1      46.079  30.356  27.566  1.00  0.00    -0.354 N 
ATOM     63  N   UNL A   1      44.326  28.029  27.290  1.00  0.00    -0.248 NA
ATOM     64  C   UNL A   1      43.824  25.970  26.311  1.00  0.00     0.031 C 
ATOM     65  C   UNL A   1      48.034  30.340  26.509  1.00  0.00     0.029 A 
ATOM     66  C   UNL A   1      46.875  29.608  26.713  1.00  0.00     0.049 A 
ATOM     67  H   UNL A   1      45.189  30.088  27.888  1.00  0.00     0.167 HD
ATOM     68  C   UNL A   1      45.370  27.657  26.449  1.00  0.00     0.074 A 
ATOM     69  C   UNL A   1      45.021  26.365  25.897  1.00  0.00     0.031 C 
ATOM     70  C   UNL A   1      46.513  28.326  26.163  1.00  0.00     0.031 A 
BRANCH  57  71
ATOM     71  C   UNL A   1      46.936  33.851  28.902  1.00  0.00    -0.014 A 
ATOM     72  C   UNL A   1      46.835  34.911  27.987  1.00  0.00     0.009 A 
ATOM     73  C   UNL A   1      47.774  33.996  30.018  1.00  0.00     0.009 A 
ATOM     74  C   UNL A   1      47.593  36.071  28.164  1.00  0.00     0.001 A 
ATOM     75  C   UNL A   1      48.504  35.170  30.210  1.00  0.00     0.001 A 
ATOM     76  C   UNL A   1      48.423  36.201  29.277  1.00  0.00     0.000 A 
ENDBRANCH  57  71
BRANCH  58  77
ATOM     77  C   UNL A   1      41.257  25.739  27.702  1.00  0.00    -0.014 A 
ATOM     78  C   UNL A   1      40.034  25.874  27.029  1.00  0.00     0.009 A 
ATOM     79  C   UNL A   1      41.645  24.465  28.152  1.00  0.00     0.009 A 
ATOM     80  C   UNL A   1      39.210  24.764  26.828  1.00  0.00     0.001 A 
ATOM     81  C   UNL A   1      40.834  23.352  27.922  1.00  0.00     0.001 A 
ATOM     82  C   UNL A   1      39.613  23.503  27.269  1.00  0.00     0.000 A 
ENDBRANCH  58  77
BRANCH  70  83
ATOM     83  C   UNL A   1      47.491  27.666  25.228  1.00  0.00    -0.014 A 
ATOM     84  C   UNL A   1      47.393  27.821  23.837  1.00  0.00     0.009 A 
ATOM     85  C   UNL A   1      48.566  26.930  25.755  1.00  0.00     0.009 A 
ATOM     86  C   UNL A   1      48.337  27.232  22.991  1.00  0.00     0.001 A 
ATOM     87  C   UNL A   1      49.525  26.369  24.909  1.00  0.00     0.001 A 
ATOM     88  C   UNL A   1      49.405  26.514  23.529  1.00  0.00     0.000 A 
ENDBRANCH  70  83
ENDBRANCH  44  45
ENDBRANCH  37  39
ENDBRANCH  36  37
ENDBRANCH  35  36
ENDBRANCH  34  35
ENDBRANCH  33  34
ENDBRANCH  32  33
ENDBRANCH  31  32
ENDBRANCH  30  31
ENDBRANCH   1  30
TORSDOF 23
ENDMDL
MODEL 2
REMARK VINA RESULT:      -8.2      3.107      7.090
REMARK SMILES CC(C)(C)c1ccc(OCC(=O)N/N=C/c2ccc(C(=O)OCCOCCOCCOC(=O)c3ccc(-c4c5nc(c(-c6ccccc6)c6ccc([nH]6)c(-c6ccccc6)c6nc(c(-c7ccccc7)c7ccc4[nH]7)C=C6)C=C5)cc3)cc2)cc1
REMARK SMILES IDX 24 1 23 2 22 3 20 4 21 5 19 6 16 7 17 8 83 9 18 10 82 11
REMARK SMILES IDX 15 12 14 13 13 14 11 15 12 16 10 18 9 19 8 20 5 21 6 22
REMARK SMILES IDX 85 23 7 24 84 25 2 26 1 27 3 28 4 29 25 30 26 31 27 32 28 33
REMARK SMILES IDX 29 34 30 35 31 36 32 37 33 38 34 39 35 40 81 41 36 42 80 43
REMARK SMILES IDX 37 44 38 45 39 46 74 47 40 48 79 49 73 50 75 51 41 52 78 53
REMARK SMILES IDX 72 54 71 55 42 57 64 58 49 59 63 60 50 61 53 62 62 63 76 64
REMARK SMILES IDX 51 65 52 66 61 68 77 69 54 70 43 71 44 72 48 73 45 74 47 75
REMARK SMILES IDX 46 76 65 77 66 78 70 79 67 80 69 81 68 82 55 83 56 84 60 85
REMARK SMILES IDX 57 86 59 87 58 88
REMARK H PARENT 13 17 75 56 53 67
REMARK Flexibility Score: inf
ROOT
ATOM      1  C   UNL A   1      36.272  33.661  32.062  1.00  0.00     0.202 C 
ENDROOT
BRANCH   1   2
ATOM      2  C   UNL A   1      35.605  33.498  30.685  1.00  0.00     0.261 C 
BRANCH   2   3
ATOM      3  O   UNL A   1      35.474  32.169  30.176  1.00  0.00    -0.460 OA
BRANCH   3   4
ATOM      4  C   UNL A   1      36.079  31.950  28.980  1.00  0.00     0.338 C 
ATOM      5  O   UNL A   1      37.225  32.230  28.673  1.00  0.00    -0.246 OA
BRANCH   4   6
ATOM      6  C   UNL A   1      35.209  31.105  28.136  1.00  0.00     0.060 A 
ATOM      7  C   UNL A   1      33.660  29.437  26.550  1.00  0.00    -0.005 A 
ATOM      8  C   UNL A   1      34.894  28.981  27.015  1.00  0.00     0.010 A 
ATOM      9  C   UNL A   1      33.177  30.704  26.894  1.00  0.00     0.010 A 
ATOM     10  C   UNL A   1      35.682  29.829  27.791  1.00  0.00     0.016 A 
ATOM     11  C   UNL A   1      33.947  31.535  27.711  1.00  0.00     0.016 A 
BRANCH   7  12
ATOM     12  C   UNL A   1      32.893  28.557  25.655  1.00  0.00     0.141 C 
ATOM     13  N   UNL A   1      32.318  29.043  24.613  1.00  0.00    -0.181 NA
BRANCH  13  14
ATOM     14  N   UNL A   1      31.669  28.289  23.686  1.00  0.00    -0.244 N 
ATOM     15  C   UNL A   1      32.043  27.413  22.703  1.00  0.00     0.277 C 
ATOM     16  O   UNL A   1      31.144  26.884  22.034  1.00  0.00    -0.269 OA
ATOM     17  H   UNL A   1      30.692  28.400  23.734  1.00  0.00     0.193 HD
BRANCH  15  18
ATOM     18  C   UNL A   1      33.497  27.045  22.422  1.00  0.00     0.331 C 
BRANCH  18  19
ATOM     19  O   UNL A   1      33.736  25.777  21.830  1.00  0.00    -0.484 OA
BRANCH  19  20
ATOM     20  C   UNL A   1      33.819  24.699  22.665  1.00  0.00     0.120 A 
ATOM     21  C   UNL A   1      33.853  22.314  24.208  1.00  0.00    -0.042 A 
ATOM     22  C   UNL A   1      32.987  22.462  23.112  1.00  0.00     0.008 A 
ATOM     23  C   UNL A   1      34.662  23.415  24.533  1.00  0.00     0.008 A 
ATOM     24  C   UNL A   1      32.981  23.634  22.345  1.00  0.00     0.047 A 
ATOM     25  C   UNL A   1      34.658  24.585  23.767  1.00  0.00     0.047 A 
BRANCH  21  26
ATOM     26  C   UNL A   1      33.901  21.016  25.031  1.00  0.00    -0.013 C 
ATOM     27  C   UNL A   1      33.653  21.269  26.537  1.00  0.00     0.016 C 
ATOM     28  C   UNL A   1      35.277  20.318  24.927  1.00  0.00     0.016 C 
ATOM     29  C   UNL A   1      32.816  20.057  24.510  1.00  0.00     0.016 C 
ENDBRANCH  21  26
ENDBRANCH  19  20
ENDBRANCH  18  19
ENDBRANCH  15  18
ENDBRANCH  13  14
ENDBRANCH   7  12
ENDBRANCH   4   6
ENDBRANCH   3   4
ENDBRANCH   2   3
ENDBRANCH   1   2
BRANCH   1  30
ATOM     30  O   UNL A   1      35.581  33.795  33.293  1.00  0.00    -0.376 OA
BRANCH  30  31
ATOM     31  C   UNL A   1      36.274  34.068  34.490  1.00  0.00     0.188 C 
BRANCH  31  32
ATOM     32  C   UNL A   1      37.783  34.381  34.448  1.00  0.00     0.188 C 
BRANCH  32  33
ATOM     33  O   UNL A   1      38.693  33.492  35.051  1.00  0.00    -0.376 OA
BRANCH  33  34
ATOM     34  C   UNL A   1      38.226  32.366  35.773  1.00  0.00     0.202 C 
BRANCH  34  35
ATOM     35  C   UNL A   1      38.134  30.927  35.228  1.00  0.00     0.261 C 
BRANCH  35  36
ATOM     36  O   UNL A   1      37.809  30.752  33.846  1.00  0.00    -0.460 OA
BRANCH  36  37
ATOM     37  C   UNL A   1      38.538  29.824  33.182  1.00  0.00     0.338 C 
ATOM     38  O   UNL A   1      38.351  28.617  33.138  1.00  0.00    -0.246 OA
BRANCH  37  39
ATOM     39  C   UNL A   1      39.536  30.520  32.353  1.00  0.00     0.060 A 
ATOM     40  C   UNL A   1      39.470  30.394  30.958  1.00  0.00     0.016 A 
ATOM     41  C   UNL A   1      40.536  31.284  32.952  1.00  0.00     0.016 A 
ATOM     42  C   UNL A   1      40.398  31.055  30.153  1.00  0.00     0.010 A 
ATOM     43  C   UNL A   1      41.482  31.921  32.145  1.00  0.00     0.010 A 
ATOM     44  C   UNL A   1      41.422  31.805  30.744  1.00  0.00    -0.014 A 
BRANCH  44  45
ATOM     45  C   UNL A   1      42.508  32.381  29.918  1.00  0.00     0.031 A 
ATOM     46  C   UNL A   1      43.756  31.579  29.696  1.00  0.00     0.074 A 
ATOM     47  C   UNL A   1      42.401  33.619  29.404  1.00  0.00     0.049 A 
ATOM     48  N   UNL A   1      44.877  31.930  29.120  1.00  0.00    -0.248 NA
ATOM     49  C   UNL A   1      43.739  30.196  30.198  1.00  0.00     0.031 C 
ATOM     50  C   UNL A   1      41.226  34.482  29.511  1.00  0.00     0.029 A 
ATOM     51  N   UNL A   1      43.314  34.373  28.709  1.00  0.00    -0.354 N 
ATOM     52  C   UNL A   1      45.706  30.819  29.205  1.00  0.00     0.074 A 
ATOM     53  C   UNL A   1      44.965  29.791  29.907  1.00  0.00     0.031 C 
ATOM     54  C   UNL A   1      41.501  35.661  28.928  1.00  0.00     0.029 A 
ATOM     55  C   UNL A   1      42.883  35.650  28.449  1.00  0.00     0.049 A 
ATOM     56  H   UNL A   1      44.193  34.031  28.425  1.00  0.00     0.167 HD
ATOM     57  C   UNL A   1      46.970  30.670  28.745  1.00  0.00     0.031 A 
ATOM     58  C   UNL A   1      43.541  36.704  27.928  1.00  0.00     0.031 A 
ATOM     59  C   UNL A   1      47.714  31.705  28.077  1.00  0.00     0.049 A 
ATOM     60  C   UNL A   1      44.981  36.548  27.512  1.00  0.00     0.074 A 
ATOM     61  C   UNL A   1      48.995  31.644  27.555  1.00  0.00     0.029 A 
ATOM     62  N   UNL A   1      47.252  32.993  27.856  1.00  0.00    -0.354 N 
ATOM     63  N   UNL A   1      45.745  35.484  27.562  1.00  0.00    -0.248 NA
ATOM     64  C   UNL A   1      45.648  37.740  26.967  1.00  0.00     0.031 C 
ATOM     65  C   UNL A   1      49.335  32.918  27.085  1.00  0.00     0.029 A 
ATOM     66  C   UNL A   1      48.238  33.750  27.245  1.00  0.00     0.049 A 
ATOM     67  H   UNL A   1      46.356  33.320  28.098  1.00  0.00     0.167 HD
ATOM     68  C   UNL A   1      46.973  35.871  27.035  1.00  0.00     0.074 A 
ATOM     69  C   UNL A   1      46.845  37.262  26.656  1.00  0.00     0.031 C 
ATOM     70  C   UNL A   1      48.103  35.138  26.880  1.00  0.00     0.031 A 
BRANCH  57  71
ATOM     71  C   UNL A   1      47.646  29.351  29.004  1.00  0.00    -0.014 A 
ATOM     72  C   UNL A   1      48.585  29.199  30.038  1.00  0.00     0.009 A 
ATOM     73  C   UNL A   1      47.328  28.241  28.209  1.00  0.00     0.009 A 
ATOM     74  C   UNL A   1      49.222  27.972  30.237  1.00  0.00     0.001 A 
ATOM     75  C   UNL A   1      47.941  27.007  28.432  1.00  0.00     0.001 A 
ATOM     76  C   UNL A   1      48.897  26.877  29.438  1.00  0.00     0.000 A 
ENDBRANCH  57  71
BRANCH  58  77
ATOM     77  C   UNL A   1      42.858  38.021  27.815  1.00  0.00    -0.014 A 
ATOM     78  C   UNL A   1      42.997  38.993  28.816  1.00  0.00     0.009 A 
ATOM     79  C   UNL A   1      42.054  38.308  26.699  1.00  0.00     0.009 A 
ATOM     80  C   UNL A   1      42.332  40.217  28.711  1.00  0.00     0.001 A 
ATOM     81  C   UNL A   1      41.415  39.544  26.581  1.00  0.00     0.001 A 
ATOM     82  C   UNL A   1      41.547  40.494  27.592  1.00  0.00     0.000 A 
ENDBRANCH  58  77
BRANCH  70  83
ATOM     83  C   UNL A   1      49.290  35.814  26.248  1.00  0.00    -0.014 A 
ATOM     84  C   UNL A   1      50.271  36.447  27.025  1.00  0.00     0.009 A 
ATOM     85  C   UNL A   1      49.460  35.758  24.854  1.00  0.00     0.009 A 
ATOM     86  C   UNL A   1      51.386  37.032  26.419  1.00  0.00     0.001 A 
ATOM     87  C   UNL A   1      50.591  36.316  24.254  1.00  0.00     0.001 A 
ATOM     88  C   UNL A   1      51.548  36.959  25.036  1.00  0.00     0.000 A 
ENDBRANCH  70  83
ENDBRANCH  44  45
ENDBRANCH  37  39
ENDBRANCH  36  37
ENDBRANCH  35  36
ENDBRANCH  34  35
ENDBRANCH  33  34
ENDBRANCH  32  33
ENDBRANCH  31  32
ENDBRANCH  30  31
ENDBRANCH   1  30
TORSDOF 23
ENDMDL
MODEL 3
REMARK VINA RESULT:      -7.7      2.289      3.610
REMARK SMILES CC(C)(C)c1ccc(OCC(=O)N/N=C/c2ccc(C(=O)OCCOCCOCCOC(=O)c3ccc(-c4c5nc(c(-c6ccccc6)c6ccc([nH]6)c(-c6ccccc6)c6nc(c(-c7ccccc7)c7ccc4[nH]7)C=C6)C=C5)cc3)cc2)cc1
REMARK SMILES IDX 24 1 23 2 22 3 20 4 21 5 19 6 16 7 17 8 83 9 18 10 82 11
REMARK SMILES IDX 15 12 14 13 13 14 11 15 12 16 10 18 9 19 8 20 5 21 6 22
REMARK SMILES IDX 85 23 7 24 84 25 2 26 1 27 3 28 4 29 25 30 26 31 27 32 28 33
REMARK SMILES IDX 29 34 30 35 31 36 32 37 33 38 34 39 35 40 81 41 36 42 80 43
REMARK SMILES IDX 37 44 38 45 39 46 74 47 40 48 79 49 73 50 75 51 41 52 78 53
REMARK SMILES IDX 72 54 71 55 42 57 64 58 49 59 63 60 50 61 53 62 62 63 76 64
REMARK SMILES IDX 51 65 52 66 61 68 77 69 54 70 43 71 44 72 48 73 45 74 47 75
REMARK SMILES IDX 46 76 65 77 66 78 70 79 67 80 69 81 68 82 55 83 56 84 60 85
REMARK SMILES IDX 57 86 59 87 58 88
REMARK H PARENT 13 17 75 56 53 67
REMARK Flexibility Score: inf
ROOT
ATOM      1  C   UNL A   1      36.980  30.472  28.621  1.00  0.00     0.202 C 
ENDROOT
BRANCH   1   2
ATOM      2  C   UNL A   1      35.478  30.734  28.411  1.00  0.00     0.261 C 
BRANCH   2   3
ATOM      3  O   UNL A   1      34.903  30.285  27.182  1.00  0.00    -0.460 OA
BRANCH   3   4
ATOM      4  C   UNL A   1      33.760  29.565  27.312  1.00  0.00     0.338 C 
ATOM      5  O   UNL A   1      33.579  28.595  28.028  1.00  0.00    -0.246 OA
BRANCH   4   6
ATOM      6  C   UNL A   1      32.658  30.258  26.614  1.00  0.00     0.060 A 
ATOM      7  C   UNL A   1      30.588  31.474  25.224  1.00  0.00    -0.005 A 
ATOM      8  C   UNL A   1      31.047  30.224  24.805  1.00  0.00     0.010 A 
ATOM      9  C   UNL A   1      31.129  32.108  26.346  1.00  0.00     0.010 A 
ATOM     10  C   UNL A   1      32.103  29.626  25.489  1.00  0.00     0.016 A 
ATOM     11  C   UNL A   1      32.156  31.487  27.059  1.00  0.00     0.016 A 
BRANCH   7  12
ATOM     12  C   UNL A   1      29.536  32.124  24.426  1.00  0.00     0.141 C 
ATOM     13  N   UNL A   1      29.808  32.581  23.255  1.00  0.00    -0.181 NA
BRANCH  13  14
ATOM     14  N   UNL A   1      28.879  33.111  22.416  1.00  0.00    -0.244 N 
ATOM     15  C   UNL A   1      28.071  32.628  21.422  1.00  0.00     0.277 C 
ATOM     16  O   UNL A   1      27.313  33.431  20.859  1.00  0.00    -0.269 OA
ATOM     17  H   UNL A   1      28.757  34.078  22.557  1.00  0.00     0.193 HD
BRANCH  15  18
ATOM     18  C   UNL A   1      28.044  31.161  21.007  1.00  0.00     0.331 C 
BRANCH  18  19
ATOM     19  O   UNL A   1      27.429  30.250  21.905  1.00  0.00    -0.484 OA
BRANCH  19  20
ATOM     20  C   UNL A   1      28.194  29.224  22.383  1.00  0.00     0.120 A 
ATOM     21  C   UNL A   1      30.008  27.232  23.285  1.00  0.00    -0.042 A 
ATOM     22  C   UNL A   1      30.407  28.223  22.373  1.00  0.00     0.008 A 
ATOM     23  C   UNL A   1      28.663  27.243  23.690  1.00  0.00     0.008 A 
ATOM     24  C   UNL A   1      29.514  29.212  21.939  1.00  0.00     0.047 A 
ATOM     25  C   UNL A   1      27.772  28.232  23.259  1.00  0.00     0.047 A 
BRANCH  21  26
ATOM     26  C   UNL A   1      30.990  26.168  23.804  1.00  0.00    -0.013 C 
ATOM     27  C   UNL A   1      30.761  24.789  23.139  1.00  0.00     0.016 C 
ATOM     28  C   UNL A   1      30.849  25.946  25.327  1.00  0.00     0.016 C 
ATOM     29  C   UNL A   1      32.427  26.626  23.497  1.00  0.00     0.016 C 
ENDBRANCH  21  26
ENDBRANCH  19  20
ENDBRANCH  18  19
ENDBRANCH  15  18
ENDBRANCH  13  14
ENDBRANCH   7  12
ENDBRANCH   4   6
ENDBRANCH   3   4
ENDBRANCH   2   3
ENDBRANCH   1   2
BRANCH   1  30
ATOM     30  O   UNL A   1      37.543  29.240  29.039  1.00  0.00    -0.376 OA
BRANCH  30  31
ATOM     31  C   UNL A   1      37.689  28.933  30.407  1.00  0.00     0.188 C 
BRANCH  31  32
ATOM     32  C   UNL A   1      37.483  30.034  31.465  1.00  0.00     0.188 C 
BRANCH  32  33
ATOM     33  O   UNL A   1      36.205  30.230  32.024  1.00  0.00    -0.376 OA
BRANCH  33  34
ATOM     34  C   UNL A   1      35.606  31.514  32.014  1.00  0.00     0.202 C 
BRANCH  34  35
ATOM     35  C   UNL A   1      36.102  32.740  32.807  1.00  0.00     0.261 C 
BRANCH  35  36
ATOM     36  O   UNL A   1      36.815  33.756  32.095  1.00  0.00    -0.460 OA
BRANCH  36  37
ATOM     37  C   UNL A   1      37.998  34.133  32.635  1.00  0.00     0.338 C 
ATOM     38  O   UNL A   1      38.184  34.914  33.557  1.00  0.00    -0.246 OA
BRANCH  37  39
ATOM     39  C   UNL A   1      39.066  33.313  32.040  1.00  0.00     0.060 A 
ATOM     40  C   UNL A   1      39.875  32.534  32.878  1.00  0.00     0.016 A 
ATOM     41  C   UNL A   1      39.272  33.323  30.661  1.00  0.00     0.016 A 
ATOM     42  C   UNL A   1      40.885  31.740  32.333  1.00  0.00     0.010 A 
ATOM     43  C   UNL A   1      40.302  32.550  30.120  1.00  0.00     0.010 A 
ATOM     44  C   UNL A   1      41.117  31.761  30.953  1.00  0.00    -0.014 A 
BRANCH  44  45
ATOM     45  C   UNL A   1      42.282  31.053  30.373  1.00  0.00     0.031 A 
ATOM     46  C   UNL A   1      43.560  31.810  30.161  1.00  0.00     0.074 A 
ATOM     47  C   UNL A   1      42.192  29.763  30.005  1.00  0.00     0.049 A 
ATOM     48  N   UNL A   1      44.657  31.432  29.556  1.00  0.00    -0.248 NA
ATOM     49  C   UNL A   1      43.603  33.179  30.698  1.00  0.00     0.031 C 
ATOM     50  C   UNL A   1      41.023  28.907  30.197  1.00  0.00     0.029 A 
ATOM     51  N   UNL A   1      43.100  28.958  29.364  1.00  0.00    -0.354 N 
ATOM     52  C   UNL A   1      45.516  32.522  29.624  1.00  0.00     0.074 A 
ATOM     53  C   UNL A   1      44.803  33.580  30.308  1.00  0.00     0.031 C 
ATOM     54  C   UNL A   1      41.275  27.703  29.657  1.00  0.00     0.029 A 
ATOM     55  C   UNL A   1      42.602  27.720  29.043  1.00  0.00     0.049 A 
ATOM     56  H   UNL A   1      44.020  29.241  29.154  1.00  0.00     0.167 HD
ATOM     57  C   UNL A   1      46.780  32.632  29.154  1.00  0.00     0.031 A 
ATOM     58  C   UNL A   1      43.135  26.730  28.300  1.00  0.00     0.031 A 
ATOM     59  C   UNL A   1      47.473  31.589  28.444  1.00  0.00     0.049 A 
ATOM     60  C   UNL A   1      44.507  26.909  27.701  1.00  0.00     0.074 A 
ATOM     61  C   UNL A   1      48.764  31.597  27.945  1.00  0.00     0.029 A 
ATOM     62  N   UNL A   1      46.925  30.358  28.116  1.00  0.00    -0.354 N 
ATOM     63  N   UNL A   1      45.326  27.928  27.799  1.00  0.00    -0.248 NA
ATOM     64  C   UNL A   1      45.025  25.800  26.886  1.00  0.00     0.031 C 
ATOM     65  C   UNL A   1      48.971  30.400  27.251  1.00  0.00     0.029 A 
ATOM     66  C   UNL A   1      47.836  29.615  27.384  1.00  0.00     0.049 A 
ATOM     67  H   UNL A   1      46.022  30.057  28.367  1.00  0.00     0.167 HD
ATOM     68  C   UNL A   1      46.463  27.575  27.081  1.00  0.00     0.074 A 
ATOM     69  C   UNL A   1      46.234  26.241  26.567  1.00  0.00     0.031 C 
ATOM     70  C   UNL A   1      47.594  28.291  26.869  1.00  0.00     0.031 A 
BRANCH  57  71
ATOM     71  C   UNL A   1      47.472  33.954  29.343  1.00  0.00    -0.014 A 
ATOM     72  C   UNL A   1      47.520  34.912  28.318  1.00  0.00     0.009 A 
ATOM     73  C   UNL A   1      48.075  34.250  30.575  1.00  0.00     0.009 A 
ATOM     74  C   UNL A   1      48.196  36.119  28.508  1.00  0.00     0.001 A 
ATOM     75  C   UNL A   1      48.721  35.471  30.774  1.00  0.00     0.001 A 
ATOM     76  C   UNL A   1      48.793  36.399  29.737  1.00  0.00     0.000 A 
ENDBRANCH  57  71
BRANCH  58  77
ATOM     77  C   UNL A   1      42.350  25.495  28.039  1.00  0.00    -0.014 A 
ATOM     78  C   UNL A   1      41.378  25.459  27.028  1.00  0.00     0.009 A 
ATOM     79  C   UNL A   1      42.567  24.340  28.810  1.00  0.00     0.009 A 
ATOM     80  C   UNL A   1      40.628  24.302  26.807  1.00  0.00     0.001 A 
ATOM     81  C   UNL A   1      41.839  23.174  28.566  1.00  0.00     0.001 A 
ATOM     82  C   UNL A   1      40.864  23.158  27.571  1.00  0.00     0.000 A 
ENDBRANCH  58  77
BRANCH  70  83
ATOM     83  C   UNL A   1      48.690  27.642  26.066  1.00  0.00    -0.014 A 
ATOM     84  C   UNL A   1      49.738  26.946  26.687  1.00  0.00     0.009 A 
ATOM     85  C   UNL A   1      48.635  27.675  24.663  1.00  0.00     0.009 A 
ATOM     86  C   UNL A   1      50.722  26.317  25.920  1.00  0.00     0.001 A 
ATOM     87  C   UNL A   1      49.602  27.019  23.899  1.00  0.00     0.001 A 
ATOM     88  C   UNL A   1      50.648  26.347  24.527  1.00  0.00     0.000 A 
ENDBRANCH  70  83
ENDBRANCH  44  45
ENDBRANCH  37  39
ENDBRANCH  36  37
ENDBRANCH  35  36
ENDBRANCH  34  35
ENDBRANCH  33  34
ENDBRANCH  32  33
ENDBRANCH  31  32
ENDBRANCH  30  31
ENDBRANCH   1  30
TORSDOF 23
ENDMDL
