MODEL 1
REMARK VINA RESULT:     -10.6      0.000      0.000
REMARK SMILES O=C(OCCOCCOCCOC(=O)[C@H]1CCCCN1C(=O)c1cn2ccccc2n1)c1ccc(-c2c3nc(c(-c4ccccc4)c4ccc([nH]4)c(-c4ccccc4)c4nc(c(-c5ccccc5)c5ccc2[nH]5)C=C4)C=C3)cc1
REMARK SMILES IDX 7 1 6 2 5 3 4 4 3 5 2 6 1 7 32 8 33 9 79 10 34 11 78 12
REMARK SMILES IDX 35 13 36 14 37 15 72 16 38 17 77 18 71 19 73 20 39 21 76 22
REMARK SMILES IDX 70 23 69 24 40 26 62 27 47 28 61 29 48 30 51 31 60 32 74 33
REMARK SMILES IDX 49 34 50 35 59 37 75 38 52 39 41 40 42 41 46 42 43 43 45 44
REMARK SMILES IDX 44 45 63 46 64 47 68 48 65 49 67 50 66 51 53 52 54 53 58 54
REMARK SMILES IDX 55 55 57 56 56 57 8 58 9 59 10 60 11 61 12 62 13 63 14 64
REMARK SMILES IDX 15 65 16 66 20 67 17 68 19 69 18 70 21 71 22 72 23 73 24 74
REMARK SMILES IDX 31 75 25 76 30 77 26 78 29 79 27 80 28 81
REMARK H PARENT 73 25 51 36
REMARK Flexibility Score: inf
ROOT
ATOM      1  C   UNL A   1      39.890  21.103  26.195  1.00  0.00     0.188 C 
ENDROOT
BRANCH   1   2
ATOM      2  O   UNL A   1      41.068  21.905  26.035  1.00  0.00    -0.376 OA
BRANCH   2   3
ATOM      3  C   UNL A   1      42.284  21.153  26.088  1.00  0.00     0.202 C 
BRANCH   3   4
ATOM      4  C   UNL A   1      43.518  21.771  25.409  1.00  0.00     0.261 C 
BRANCH   4   5
ATOM      5  O   UNL A   1      43.304  23.069  24.836  1.00  0.00    -0.460 OA
BRANCH   5   6
ATOM      6  C   UNL A   1      43.805  24.277  25.184  1.00  0.00     0.338 C 
ATOM      7  O   UNL A   1      44.840  24.643  24.626  1.00  0.00    -0.246 OA
BRANCH   6   8
ATOM      8  C   UNL A   1      43.229  25.185  26.233  1.00  0.00     0.060 A 
ATOM      9  C   UNL A   1      43.361  26.571  26.284  1.00  0.00     0.016 A 
ATOM     10  C   UNL A   1      42.458  24.570  27.244  1.00  0.00     0.016 A 
ATOM     11  C   UNL A   1      42.775  27.316  27.307  1.00  0.00     0.010 A 
ATOM     12  C   UNL A   1      41.862  25.311  28.274  1.00  0.00     0.010 A 
ATOM     13  C   UNL A   1      42.031  26.692  28.312  1.00  0.00    -0.014 A 
BRANCH  13  14
ATOM     14  C   UNL A   1      41.563  27.527  29.436  1.00  0.00     0.031 A 
ATOM     15  C   UNL A   1      40.209  28.149  29.330  1.00  0.00     0.074 A 
ATOM     16  C   UNL A   1      42.279  27.609  30.570  1.00  0.00     0.049 A 
ATOM     17  N   UNL A   1      39.549  28.832  30.223  1.00  0.00    -0.248 NA
ATOM     18  C   UNL A   1      39.516  28.001  28.038  1.00  0.00     0.031 C 
ATOM     19  C   UNL A   1      43.613  27.055  30.744  1.00  0.00     0.029 A 
ATOM     20  N   UNL A   1      41.973  28.122  31.801  1.00  0.00    -0.354 N 
ATOM     21  C   UNL A   1      38.401  29.266  29.577  1.00  0.00     0.074 A 
ATOM     22  C   UNL A   1      38.415  28.707  28.245  1.00  0.00     0.031 C 
ATOM     23  C   UNL A   1      43.959  27.123  32.039  1.00  0.00     0.029 A 
ATOM     24  C   UNL A   1      42.909  27.822  32.768  1.00  0.00     0.049 A 
ATOM     25  H   UNL A   1      41.165  28.655  31.980  1.00  0.00     0.167 HD
ATOM     26  C   UNL A   1      37.463  30.120  30.043  1.00  0.00     0.031 A 
ATOM     27  C   UNL A   1      42.908  28.108  34.084  1.00  0.00     0.031 A 
ATOM     28  C   UNL A   1      37.503  30.700  31.356  1.00  0.00     0.049 A 
ATOM     29  C   UNL A   1      41.818  29.021  34.587  1.00  0.00     0.074 A 
ATOM     30  C   UNL A   1      36.646  31.628  31.916  1.00  0.00     0.029 A 
ATOM     31  N   UNL A   1      38.472  30.416  32.307  1.00  0.00    -0.354 N 
ATOM     32  N   UNL A   1      40.739  29.440  33.970  1.00  0.00    -0.248 NA
ATOM     33  C   UNL A   1      41.991  29.571  35.940  1.00  0.00     0.031 C 
ATOM     34  C   UNL A   1      37.131  31.948  33.188  1.00  0.00     0.029 A 
ATOM     35  C   UNL A   1      38.252  31.172  33.442  1.00  0.00     0.049 A 
ATOM     36  H   UNL A   1      39.207  29.770  32.191  1.00  0.00     0.167 HD
ATOM     37  C   UNL A   1      40.134  30.337  34.837  1.00  0.00     0.074 A 
ATOM     38  C   UNL A   1      40.917  30.337  36.057  1.00  0.00     0.031 C 
ATOM     39  C   UNL A   1      39.060  31.137  34.631  1.00  0.00     0.031 A 
BRANCH  26  40
ATOM     40  C   UNL A   1      36.422  30.580  29.067  1.00  0.00    -0.014 A 
ATOM     41  C   UNL A   1      36.284  31.925  28.701  1.00  0.00     0.009 A 
ATOM     42  C   UNL A   1      35.539  29.630  28.526  1.00  0.00     0.009 A 
ATOM     43  C   UNL A   1      35.258  32.316  27.836  1.00  0.00     0.001 A 
ATOM     44  C   UNL A   1      34.533  30.019  27.644  1.00  0.00     0.001 A 
ATOM     45  C   UNL A   1      34.387  31.362  27.306  1.00  0.00     0.000 A 
ENDBRANCH  26  40
BRANCH  27  46
ATOM     46  C   UNL A   1      43.998  27.677  35.005  1.00  0.00    -0.014 A 
ATOM     47  C   UNL A   1      45.160  28.457  35.151  1.00  0.00     0.009 A 
ATOM     48  C   UNL A   1      43.947  26.430  35.647  1.00  0.00     0.009 A 
ATOM     49  C   UNL A   1      46.266  27.965  35.849  1.00  0.00     0.001 A 
ATOM     50  C   UNL A   1      45.036  25.961  36.383  1.00  0.00     0.001 A 
ATOM     51  C   UNL A   1      46.206  26.712  36.451  1.00  0.00     0.000 A 
ENDBRANCH  27  46
BRANCH  39  52
ATOM     52  C   UNL A   1      38.694  32.073  35.743  1.00  0.00    -0.014 A 
ATOM     53  C   UNL A   1      37.882  31.644  36.805  1.00  0.00     0.009 A 
ATOM     54  C   UNL A   1      39.215  33.375  35.759  1.00  0.00     0.009 A 
ATOM     55  C   UNL A   1      37.582  32.513  37.855  1.00  0.00     0.001 A 
ATOM     56  C   UNL A   1      38.937  34.230  36.824  1.00  0.00     0.001 A 
ATOM     57  C   UNL A   1      38.116  33.801  37.866  1.00  0.00     0.000 A 
ENDBRANCH  39  52
ENDBRANCH  13  14
ENDBRANCH   6   8
ENDBRANCH   5   6
ENDBRANCH   4   5
ENDBRANCH   3   4
ENDBRANCH   2   3
ENDBRANCH   1   2
BRANCH   1  58
ATOM     58  C   UNL A   1      38.593  21.782  25.741  1.00  0.00     0.188 C 
BRANCH  58  59
ATOM     59  O   UNL A   1      37.676  21.027  24.952  1.00  0.00    -0.376 OA
BRANCH  59  60
ATOM     60  C   UNL A   1      36.397  21.576  24.673  1.00  0.00     0.202 C 
BRANCH  60  61
ATOM     61  C   UNL A   1      36.320  22.967  24.039  1.00  0.00     0.261 C 
BRANCH  61  62
ATOM     62  O   UNL A   1      34.993  23.377  23.716  1.00  0.00    -0.462 OA
BRANCH  62  63
ATOM     63  C   UNL A   1      34.228  23.820  24.751  1.00  0.00     0.328 C 
ATOM     64  O   UNL A   1      34.670  24.288  25.795  1.00  0.00    -0.250 OA
BRANCH  63  65
ATOM     65  C   UNL A   1      32.733  23.599  24.479  1.00  0.00     0.195 C 
ATOM     66  C   UNL A   1      32.385  22.654  23.334  1.00  0.00     0.037 C 
ATOM     67  N   UNL A   1      32.120  23.092  25.706  1.00  0.00    -0.323 N 
ATOM     68  C   UNL A   1      32.750  21.196  23.627  1.00  0.00     0.005 C 
ATOM     69  C   UNL A   1      32.563  21.759  26.120  1.00  0.00     0.121 C 
ATOM     70  C   UNL A   1      32.329  20.730  25.019  1.00  0.00     0.022 C 
BRANCH  67  71
ATOM     71  C   UNL A   1      31.156  23.873  26.342  1.00  0.00     0.274 C 
ATOM     72  O   UNL A   1      30.455  23.424  27.252  1.00  0.00    -0.267 OA
BRANCH  71  73
ATOM     73  C   UNL A   1      31.002  25.247  25.867  1.00  0.00     0.147 A 
ATOM     74  C   UNL A   1      30.157  25.660  24.850  1.00  0.00     0.127 A 
ATOM     75  N   UNL A   1      31.684  26.331  26.389  1.00  0.00    -0.223 NA
ATOM     76  N   UNL A   1      30.448  26.976  24.642  1.00  0.00    -0.306 N 
ATOM     77  C   UNL A   1      31.344  27.354  25.633  1.00  0.00     0.137 A 
ATOM     78  C   UNL A   1      30.008  27.823  23.631  1.00  0.00     0.093 A 
ATOM     79  C   UNL A   1      31.763  28.713  25.636  1.00  0.00     0.048 A 
ATOM     80  C   UNL A   1      30.458  29.090  23.599  1.00  0.00     0.018 A 
ATOM     81  C   UNL A   1      31.358  29.540  24.652  1.00  0.00     0.005 A 
ENDBRANCH  71  73
ENDBRANCH  67  71
ENDBRANCH  63  65
ENDBRANCH  62  63
ENDBRANCH  61  62
ENDBRANCH  60  61
ENDBRANCH  59  60
ENDBRANCH  58  59
ENDBRANCH   1  58
TORSDOF 19
ENDMDL
MODEL 2
REMARK VINA RESULT:     -10.6      3.600      8.905
REMARK SMILES O=C(OCCOCCOCCOC(=O)[C@H]1CCCCN1C(=O)c1cn2ccccc2n1)c1ccc(-c2c3nc(c(-c4ccccc4)c4ccc([nH]4)c(-c4ccccc4)c4nc(c(-c5ccccc5)c5ccc2[nH]5)C=C4)C=C3)cc1
REMARK SMILES IDX 7 1 6 2 5 3 4 4 3 5 2 6 1 7 32 8 33 9 79 10 34 11 78 12
REMARK SMILES IDX 35 13 36 14 37 15 72 16 38 17 77 18 71 19 73 20 39 21 76 22
REMARK SMILES IDX 70 23 69 24 40 26 62 27 47 28 61 29 48 30 51 31 60 32 74 33
REMARK SMILES IDX 49 34 50 35 59 37 75 38 52 39 41 40 42 41 46 42 43 43 45 44
REMARK SMILES IDX 44 45 63 46 64 47 68 48 65 49 67 50 66 51 53 52 54 53 58 54
REMARK SMILES IDX 55 55 57 56 56 57 8 58 9 59 10 60 11 61 12 62 13 63 14 64
REMARK SMILES IDX 15 65 16 66 20 67 17 68 19 69 18 70 21 71 22 72 23 73 24 74
REMARK SMILES IDX 31 75 25 76 30 77 26 78 29 79 27 80 28 81
REMARK H PARENT 73 25 51 36
REMARK Flexibility Score: inf
ROOT
ATOM      1  C   UNL A   1      34.673  33.283  29.158  1.00  0.00     0.188 C 
ENDROOT
BRANCH   1   2
ATOM      2  O   UNL A   1      34.622  34.713  29.057  1.00  0.00    -0.376 OA
BRANCH   2   3
ATOM      3  C   UNL A   1      33.296  35.231  28.922  1.00  0.00     0.202 C 
BRANCH   3   4
ATOM      4  C   UNL A   1      32.960  36.508  29.710  1.00  0.00     0.261 C 
BRANCH   4   5
ATOM      5  O   UNL A   1      32.227  36.290  30.924  1.00  0.00    -0.460 OA
BRANCH   5   6
ATOM      6  C   UNL A   1      32.662  36.019  32.177  1.00  0.00     0.338 C 
ATOM      7  O   UNL A   1      32.073  36.563  33.111  1.00  0.00    -0.246 OA
BRANCH   6   8
ATOM      8  C   UNL A   1      33.838  35.149  32.516  1.00  0.00     0.060 A 
ATOM      9  C   UNL A   1      33.785  33.822  32.941  1.00  0.00     0.016 A 
ATOM     10  C   UNL A   1      35.117  35.727  32.359  1.00  0.00     0.016 A 
ATOM     11  C   UNL A   1      34.948  33.106  33.224  1.00  0.00     0.010 A 
ATOM     12  C   UNL A   1      36.292  35.014  32.636  1.00  0.00     0.010 A 
ATOM     13  C   UNL A   1      36.206  33.698  33.082  1.00  0.00    -0.014 A 
BRANCH  13  14
ATOM     14  C   UNL A   1      37.381  32.927  33.533  1.00  0.00     0.031 A 
ATOM     15  C   UNL A   1      38.062  32.042  32.541  1.00  0.00     0.074 A 
ATOM     16  C   UNL A   1      37.895  33.122  34.759  1.00  0.00     0.049 A 
ATOM     17  N   UNL A   1      39.160  31.352  32.676  1.00  0.00    -0.248 NA
ATOM     18  C   UNL A   1      37.406  31.897  31.230  1.00  0.00     0.031 C 
ATOM     19  C   UNL A   1      37.280  33.944  35.790  1.00  0.00     0.029 A 
ATOM     20  N   UNL A   1      39.070  32.708  35.327  1.00  0.00    -0.354 N 
ATOM     21  C   UNL A   1      39.285  30.628  31.500  1.00  0.00     0.074 A 
ATOM     22  C   UNL A   1      38.195  31.017  30.634  1.00  0.00     0.031 C 
ATOM     23  C   UNL A   1      38.140  34.099  36.809  1.00  0.00     0.029 A 
ATOM     24  C   UNL A   1      39.328  33.298  36.546  1.00  0.00     0.049 A 
ATOM     25  H   UNL A   1      39.671  32.051  34.907  1.00  0.00     0.167 HD
ATOM     26  C   UNL A   1      40.190  29.667  31.213  1.00  0.00     0.031 A 
ATOM     27  C   UNL A   1      40.400  33.175  37.352  1.00  0.00     0.031 A 
ATOM     28  C   UNL A   1      41.231  29.266  32.117  1.00  0.00     0.049 A 
ATOM     29  C   UNL A   1      41.423  32.132  36.978  1.00  0.00     0.074 A 
ATOM     30  C   UNL A   1      42.167  28.260  31.964  1.00  0.00     0.029 A 
ATOM     31  N   UNL A   1      41.458  29.846  33.357  1.00  0.00    -0.354 N 
ATOM     32  N   UNL A   1      41.531  31.439  35.870  1.00  0.00    -0.248 NA
ATOM     33  C   UNL A   1      42.421  31.791  38.003  1.00  0.00     0.031 C 
ATOM     34  C   UNL A   1      42.923  28.195  33.139  1.00  0.00     0.029 A 
ATOM     35  C   UNL A   1      42.499  29.201  33.994  1.00  0.00     0.049 A 
ATOM     36  H   UNL A   1      40.951  30.605  33.727  1.00  0.00     0.167 HD
ATOM     37  C   UNL A   1      42.573  30.549  36.083  1.00  0.00     0.074 A 
ATOM     38  C   UNL A   1      43.121  30.848  37.391  1.00  0.00     0.031 C 
ATOM     39  C   UNL A   1      43.009  29.535  35.297  1.00  0.00     0.031 A 
BRANCH  26  40
ATOM     40  C   UNL A   1      39.982  28.899  29.943  1.00  0.00    -0.014 A 
ATOM     41  C   UNL A   1      39.289  27.682  29.911  1.00  0.00     0.009 A 
ATOM     42  C   UNL A   1      40.529  29.406  28.752  1.00  0.00     0.009 A 
ATOM     43  C   UNL A   1      39.175  26.970  28.713  1.00  0.00     0.001 A 
ATOM     44  C   UNL A   1      40.391  28.707  27.554  1.00  0.00     0.001 A 
ATOM     45  C   UNL A   1      39.723  27.485  27.537  1.00  0.00     0.000 A 
ENDBRANCH  26  40
BRANCH  27  46
ATOM     46  C   UNL A   1      40.534  33.919  38.637  1.00  0.00    -0.014 A 
ATOM     47  C   UNL A   1      39.914  33.442  39.805  1.00  0.00     0.009 A 
ATOM     48  C   UNL A   1      41.171  35.168  38.683  1.00  0.00     0.009 A 
ATOM     49  C   UNL A   1      39.863  34.229  40.959  1.00  0.00     0.001 A 
ATOM     50  C   UNL A   1      41.160  35.933  39.850  1.00  0.00     0.001 A 
ATOM     51  C   UNL A   1      40.474  35.480  40.973  1.00  0.00     0.000 A 
ENDBRANCH  27  46
BRANCH  39  52
ATOM     52  C   UNL A   1      44.113  28.683  35.846  1.00  0.00    -0.014 A 
ATOM     53  C   UNL A   1      43.826  27.522  36.583  1.00  0.00     0.009 A 
ATOM     54  C   UNL A   1      45.449  29.011  35.573  1.00  0.00     0.009 A 
ATOM     55  C   UNL A   1      44.863  26.716  37.053  1.00  0.00     0.001 A 
ATOM     56  C   UNL A   1      46.480  28.187  36.019  1.00  0.00     0.001 A 
ATOM     57  C   UNL A   1      46.187  27.045  36.764  1.00  0.00     0.000 A 
ENDBRANCH  39  52
ENDBRANCH  13  14
ENDBRANCH   6   8
ENDBRANCH   5   6
ENDBRANCH   4   5
ENDBRANCH   3   4
ENDBRANCH   2   3
ENDBRANCH   1   2
BRANCH   1  58
ATOM     58  C   UNL A   1      33.931  32.540  28.042  1.00  0.00     0.188 C 
BRANCH  58  59
ATOM     59  O   UNL A   1      33.986  31.115  28.026  1.00  0.00    -0.376 OA
BRANCH  59  60
ATOM     60  C   UNL A   1      33.069  30.402  27.211  1.00  0.00     0.202 C 
BRANCH  60  61
ATOM     61  C   UNL A   1      33.595  29.706  25.953  1.00  0.00     0.261 C 
BRANCH  61  62
ATOM     62  O   UNL A   1      32.580  29.066  25.185  1.00  0.00    -0.462 OA
BRANCH  62  63
ATOM     63  C   UNL A   1      32.984  28.449  24.041  1.00  0.00     0.328 C 
ATOM     64  O   UNL A   1      33.316  29.032  23.015  1.00  0.00    -0.250 OA
BRANCH  63  65
ATOM     65  C   UNL A   1      32.911  26.920  24.171  1.00  0.00     0.195 C 
ATOM     66  C   UNL A   1      32.154  26.378  25.378  1.00  0.00     0.037 C 
ATOM     67  N   UNL A   1      32.289  26.393  22.955  1.00  0.00    -0.323 N 
ATOM     68  C   UNL A   1      30.648  26.644  25.312  1.00  0.00     0.005 C 
ATOM     69  C   UNL A   1      30.885  26.759  22.764  1.00  0.00     0.121 C 
ATOM     70  C   UNL A   1      30.032  26.328  23.952  1.00  0.00     0.022 C 
BRANCH  67  71
ATOM     71  C   UNL A   1      33.046  25.569  22.123  1.00  0.00     0.274 C 
ATOM     72  O   UNL A   1      33.306  25.886  20.960  1.00  0.00    -0.267 OA
BRANCH  71  73
ATOM     73  C   UNL A   1      33.503  24.302  22.690  1.00  0.00     0.147 A 
ATOM     74  C   UNL A   1      32.722  23.172  22.876  1.00  0.00     0.127 A 
ATOM     75  N   UNL A   1      34.799  24.059  23.109  1.00  0.00    -0.223 NA
ATOM     76  N   UNL A   1      33.507  22.292  23.564  1.00  0.00    -0.306 N 
ATOM     77  C   UNL A   1      34.775  22.854  23.637  1.00  0.00     0.137 A 
ATOM     78  C   UNL A   1      33.161  21.077  24.144  1.00  0.00     0.093 A 
ATOM     79  C   UNL A   1      35.780  22.085  24.287  1.00  0.00     0.048 A 
ATOM     80  C   UNL A   1      34.099  20.385  24.814  1.00  0.00     0.018 A 
ATOM     81  C   UNL A   1      35.455  20.914  24.869  1.00  0.00     0.005 A 
ENDBRANCH  71  73
ENDBRANCH  67  71
ENDBRANCH  63  65
ENDBRANCH  62  63
ENDBRANCH  61  62
ENDBRANCH  60  61
ENDBRANCH  59  60
ENDBRANCH  58  59
ENDBRANCH   1  58
TORSDOF 19
ENDMDL
MODEL 3
REMARK VINA RESULT:     -10.6      3.790      8.726
REMARK SMILES O=C(OCCOCCOCCOC(=O)[C@H]1CCCCN1C(=O)c1cn2ccccc2n1)c1ccc(-c2c3nc(c(-c4ccccc4)c4ccc([nH]4)c(-c4ccccc4)c4nc(c(-c5ccccc5)c5ccc2[nH]5)C=C4)C=C3)cc1
REMARK SMILES IDX 7 1 6 2 5 3 4 4 3 5 2 6 1 7 32 8 33 9 79 10 34 11 78 12
REMARK SMILES IDX 35 13 36 14 37 15 72 16 38 17 77 18 71 19 73 20 39 21 76 22
REMARK SMILES IDX 70 23 69 24 40 26 62 27 47 28 61 29 48 30 51 31 60 32 74 33
REMARK SMILES IDX 49 34 50 35 59 37 75 38 52 39 41 40 42 41 46 42 43 43 45 44
REMARK SMILES IDX 44 45 63 46 64 47 68 48 65 49 67 50 66 51 53 52 54 53 58 54
REMARK SMILES IDX 55 55 57 56 56 57 8 58 9 59 10 60 11 61 12 62 13 63 14 64
REMARK SMILES IDX 15 65 16 66 20 67 17 68 19 69 18 70 21 71 22 72 23 73 24 74
REMARK SMILES IDX 31 75 25 76 30 77 26 78 29 79 27 80 28 81
REMARK H PARENT 73 25 51 36
REMARK Flexibility Score: inf
ROOT
ATOM      1  C   UNL A   1      34.218  34.123  28.437  1.00  0.00     0.188 C 
ENDROOT
BRANCH   1   2
ATOM      2  O   UNL A   1      33.050  34.680  29.056  1.00  0.00    -0.376 OA
BRANCH   2   3
ATOM      3  C   UNL A   1      32.896  36.084  28.830  1.00  0.00     0.202 C 
BRANCH   3   4
ATOM      4  C   UNL A   1      33.267  37.024  29.989  1.00  0.00     0.261 C 
BRANCH   4   5
ATOM      5  O   UNL A   1      32.527  36.808  31.200  1.00  0.00    -0.460 OA
BRANCH   5   6
ATOM      6  C   UNL A   1      32.567  35.785  32.084  1.00  0.00     0.338 C 
ATOM      7  O   UNL A   1      31.497  35.403  32.557  1.00  0.00    -0.246 OA
BRANCH   6   8
ATOM      8  C   UNL A   1      33.817  35.112  32.574  1.00  0.00     0.060 A 
ATOM      9  C   UNL A   1      35.096  35.666  32.597  1.00  0.00     0.016 A 
ATOM     10  C   UNL A   1      33.671  33.804  33.085  1.00  0.00     0.016 A 
ATOM     11  C   UNL A   1      36.188  34.948  33.082  1.00  0.00     0.010 A 
ATOM     12  C   UNL A   1      34.762  33.074  33.578  1.00  0.00     0.010 A 
ATOM     13  C   UNL A   1      36.031  33.647  33.566  1.00  0.00    -0.014 A 
BRANCH  13  14
ATOM     14  C   UNL A   1      37.251  32.899  33.930  1.00  0.00     0.031 A 
ATOM     15  C   UNL A   1      37.904  32.067  32.875  1.00  0.00     0.074 A 
ATOM     16  C   UNL A   1      37.823  33.071  35.133  1.00  0.00     0.049 A 
ATOM     17  N   UNL A   1      39.028  31.409  32.929  1.00  0.00    -0.248 NA
ATOM     18  C   UNL A   1      37.184  31.943  31.596  1.00  0.00     0.031 C 
ATOM     19  C   UNL A   1      37.240  33.840  36.221  1.00  0.00     0.029 A 
ATOM     20  N   UNL A   1      39.038  32.676  35.625  1.00  0.00    -0.354 N 
ATOM     21  C   UNL A   1      39.111  30.726  31.725  1.00  0.00     0.074 A 
ATOM     22  C   UNL A   1      37.966  31.108  30.930  1.00  0.00     0.031 C 
ATOM     23  C   UNL A   1      38.148  33.990  37.199  1.00  0.00     0.029 A 
ATOM     24  C   UNL A   1      39.343  33.236  36.848  1.00  0.00     0.049 A 
ATOM     25  H   UNL A   1      39.636  32.052  35.153  1.00  0.00     0.167 HD
ATOM     26  C   UNL A   1      40.028  29.804  31.359  1.00  0.00     0.031 A 
ATOM     27  C   UNL A   1      40.460  33.121  37.592  1.00  0.00     0.031 A 
ATOM     28  C   UNL A   1      41.127  29.407  32.194  1.00  0.00     0.049 A 
ATOM     29  C   UNL A   1      41.491  32.122  37.131  1.00  0.00     0.074 A 
ATOM     30  C   UNL A   1      42.083  28.436  31.959  1.00  0.00     0.029 A 
ATOM     31  N   UNL A   1      41.402  29.955  33.439  1.00  0.00    -0.354 N 
ATOM     32  N   UNL A   1      41.562  31.469  35.996  1.00  0.00    -0.248 NA
ATOM     33  C   UNL A   1      42.553  31.781  38.090  1.00  0.00     0.031 C 
ATOM     34  C   UNL A   1      42.902  28.357  33.090  1.00  0.00     0.029 A 
ATOM     35  C   UNL A   1      42.495  29.322  33.999  1.00  0.00     0.049 A 
ATOM     36  H   UNL A   1      40.893  30.685  33.860  1.00  0.00     0.167 HD
ATOM     37  C   UNL A   1      42.639  30.606  36.125  1.00  0.00     0.074 A 
ATOM     38  C   UNL A   1      43.247  30.880  37.411  1.00  0.00     0.031 C 
ATOM     39  C   UNL A   1      43.062  29.631  35.284  1.00  0.00     0.031 A 
BRANCH  26  40
ATOM     40  C   UNL A   1      39.776  29.070  30.077  1.00  0.00    -0.014 A 
ATOM     41  C   UNL A   1      39.995  29.658  28.824  1.00  0.00     0.009 A 
ATOM     42  C   UNL A   1      39.274  27.759  30.138  1.00  0.00     0.009 A 
ATOM     43  C   UNL A   1      39.685  28.957  27.656  1.00  0.00     0.001 A 
ATOM     44  C   UNL A   1      38.990  27.053  28.970  1.00  0.00     0.001 A 
ATOM     45  C   UNL A   1      39.187  27.656  27.730  1.00  0.00     0.000 A 
ENDBRANCH  26  40
BRANCH  27  46
ATOM     46  C   UNL A   1      40.640  33.828  38.892  1.00  0.00    -0.014 A 
ATOM     47  C   UNL A   1      40.094  33.296  40.075  1.00  0.00     0.009 A 
ATOM     48  C   UNL A   1      41.243  35.093  38.946  1.00  0.00     0.009 A 
ATOM     49  C   UNL A   1      40.082  34.044  41.254  1.00  0.00     0.001 A 
ATOM     50  C   UNL A   1      41.271  35.820  40.137  1.00  0.00     0.001 A 
ATOM     51  C   UNL A   1      40.658  35.311  41.278  1.00  0.00     0.000 A 
ENDBRANCH  27  46
BRANCH  39  52
ATOM     52  C   UNL A   1      44.219  28.797  35.747  1.00  0.00    -0.014 A 
ATOM     53  C   UNL A   1      45.540  29.184  35.467  1.00  0.00     0.009 A 
ATOM     54  C   UNL A   1      43.987  27.650  36.519  1.00  0.00     0.009 A 
ATOM     55  C   UNL A   1      46.608  28.421  35.938  1.00  0.00     0.001 A 
ATOM     56  C   UNL A   1      45.059  26.908  37.012  1.00  0.00     0.001 A 
ATOM     57  C   UNL A   1      46.367  27.290  36.717  1.00  0.00     0.000 A 
ENDBRANCH  39  52
ENDBRANCH  13  14
ENDBRANCH   6   8
ENDBRANCH   5   6
ENDBRANCH   4   5
ENDBRANCH   3   4
ENDBRANCH   2   3
ENDBRANCH   1   2
BRANCH   1  58
ATOM     58  C   UNL A   1      34.384  32.613  28.636  1.00  0.00     0.188 C 
BRANCH  58  59
ATOM     59  O   UNL A   1      33.682  31.735  27.757  1.00  0.00    -0.376 OA
BRANCH  59  60
ATOM     60  C   UNL A   1      34.353  30.592  27.250  1.00  0.00     0.202 C 
BRANCH  60  61
ATOM     61  C   UNL A   1      33.726  29.213  27.476  1.00  0.00     0.261 C 
BRANCH  61  62
ATOM     62  O   UNL A   1      32.896  28.778  26.403  1.00  0.00    -0.462 OA
BRANCH  62  63
ATOM     63  C   UNL A   1      32.209  27.621  26.601  1.00  0.00     0.328 C 
ATOM     64  O   UNL A   1      31.552  27.362  27.604  1.00  0.00    -0.250 OA
BRANCH  63  65
ATOM     65  C   UNL A   1      32.411  26.641  25.436  1.00  0.00     0.195 C 
ATOM     66  C   UNL A   1      32.801  25.215  25.809  1.00  0.00     0.037 C 
ATOM     67  N   UNL A   1      31.170  26.597  24.662  1.00  0.00    -0.323 N 
ATOM     68  C   UNL A   1      31.680  24.451  26.519  1.00  0.00     0.005 C 
ATOM     69  C   UNL A   1      30.019  26.020  25.360  1.00  0.00     0.121 C 
ATOM     70  C   UNL A   1      30.318  24.607  25.849  1.00  0.00     0.022 C 
BRANCH  67  71
ATOM     71  C   UNL A   1      31.190  27.050  23.343  1.00  0.00     0.274 C 
ATOM     72  O   UNL A   1      31.743  26.409  22.446  1.00  0.00    -0.267 OA
BRANCH  71  73
ATOM     73  C   UNL A   1      30.540  28.331  23.077  1.00  0.00     0.147 A 
ATOM     74  C   UNL A   1      30.481  29.405  23.951  1.00  0.00     0.127 A 
ATOM     75  N   UNL A   1      29.898  28.646  21.893  1.00  0.00    -0.223 NA
ATOM     76  N   UNL A   1      29.658  30.318  23.358  1.00  0.00    -0.306 N 
ATOM     77  C   UNL A   1      29.369  29.836  22.087  1.00  0.00     0.137 A 
ATOM     78  C   UNL A   1      29.135  31.496  23.878  1.00  0.00     0.093 A 
ATOM     79  C   UNL A   1      28.546  30.652  21.264  1.00  0.00     0.048 A 
ATOM     80  C   UNL A   1      28.304  32.231  23.119  1.00  0.00     0.018 A 
ATOM     81  C   UNL A   1      28.017  31.788  21.762  1.00  0.00     0.005 A 
ENDBRANCH  71  73
ENDBRANCH  67  71
ENDBRANCH  63  65
ENDBRANCH  62  63
ENDBRANCH  61  62
ENDBRANCH  60  61
ENDBRANCH  59  60
ENDBRANCH  58  59
ENDBRANCH   1  58
TORSDOF 19
ENDMDL
