MODEL 1
REMARK VINA RESULT:      -9.0      0.000      0.000
REMARK SMILES O=C(CSCc1ccc(Cl)s1)Nc1ccsc1C(=O)OCCOCCOCCOC(=O)c1ccc(-c2c3nc(c(-c4ccccc4)c4ccc([nH]4)c(-c4ccccc4)c4nc(c(-c5ccccc5)c5ccc2[nH]5)C=C4)C=C3)cc1
REMARK SMILES IDX 23 1 22 2 21 3 20 4 18 5 19 6 17 7 13 8 14 9 15 10 16 11
REMARK SMILES IDX 12 12 1 13 2 14 3 16 4 17 5 18 6 19 7 20 11 21 8 22 9 23
REMARK SMILES IDX 10 24 24 25 25 26 26 27 27 28 28 29 29 30 30 31 31 32 32 33
REMARK SMILES IDX 33 34 79 35 34 36 78 37 35 38 36 39 37 40 72 41 38 42 77 43
REMARK SMILES IDX 71 44 73 45 39 46 76 47 70 48 69 49 40 51 62 52 47 53 61 54
REMARK SMILES IDX 48 55 51 56 60 57 74 58 49 59 50 60 59 62 75 63 52 64 41 65
REMARK SMILES IDX 42 66 46 67 43 68 45 69 44 70 63 71 64 72 68 73 65 74 67 75
REMARK SMILES IDX 66 76 53 77 54 78 58 79 55 80 57 81 56 82
REMARK H PARENT 12 15 73 50 51 61
REMARK Flexibility Score: inf
ROOT
ATOM      1  O   UNL A   1      34.302  31.418  27.561  1.00  0.00    -0.376 OA
ENDROOT
BRANCH   1   2
ATOM      2  C   UNL A   1      35.099  30.257  27.756  1.00  0.00     0.202 C 
BRANCH   2   3
ATOM      3  C   UNL A   1      34.445  28.911  27.441  1.00  0.00     0.261 C 
BRANCH   3   4
ATOM      4  O   UNL A   1      33.573  28.970  26.297  1.00  0.00    -0.459 OA
BRANCH   4   5
ATOM      5  C   UNL A   1      33.204  27.755  25.784  1.00  0.00     0.350 C 
ATOM      6  O   UNL A   1      33.795  26.706  26.015  1.00  0.00    -0.245 OA
BRANCH   5   7
ATOM      7  C   UNL A   1      31.973  27.880  25.023  1.00  0.00     0.136 A 
ATOM      8  C   UNL A   1      31.088  26.941  24.504  1.00  0.00     0.066 A 
ATOM      9  C   UNL A   1      30.047  27.584  23.755  1.00  0.00     0.039 A 
ATOM     10  C   UNL A   1      30.155  28.954  23.735  1.00  0.00     0.068 A 
ATOM     11  S   UNL A   1      31.498  29.490  24.624  1.00  0.00    -0.135 S 
BRANCH   8  12
ATOM     12  N   UNL A   1      31.192  25.565  24.728  1.00  0.00    -0.324 N 
ATOM     13  O   UNL A   1      29.675  25.329  26.480  1.00  0.00    -0.274 OA
ATOM     14  C   UNL A   1      30.562  24.879  25.758  1.00  0.00     0.234 C 
ATOM     15  H   UNL A   1      31.754  25.044  24.111  1.00  0.00     0.170 HD
BRANCH  14  16
ATOM     16  C   UNL A   1      31.104  23.480  25.988  1.00  0.00     0.170 C 
BRANCH  16  17
ATOM     17  S   UNL A   1      32.784  23.264  25.335  1.00  0.00    -0.146 SA
BRANCH  17  18
ATOM     18  C   UNL A   1      32.432  22.344  23.805  1.00  0.00     0.116 C 
BRANCH  18  19
ATOM     19  C   UNL A   1      32.455  20.851  23.928  1.00  0.00     0.016 A 
ATOM     20  C   UNL A   1      32.250  19.919  22.924  1.00  0.00     0.018 A 
ATOM     21  S   UNL A   1      32.862  20.080  25.411  1.00  0.00    -0.128 S 
ATOM     22  C   UNL A   1      32.424  18.577  23.379  1.00  0.00     0.033 A 
ATOM     23  C   UNL A   1      32.743  18.546  24.711  1.00  0.00     0.093 A 
ATOM     24  Cl  UNL A   1      33.031  17.146  25.661  1.00  0.00    -0.072 Cl
ENDBRANCH  18  19
ENDBRANCH  17  18
ENDBRANCH  16  17
ENDBRANCH  14  16
ENDBRANCH   8  12
ENDBRANCH   5   7
ENDBRANCH   4   5
ENDBRANCH   3   4
ENDBRANCH   2   3
ENDBRANCH   1   2
BRANCH   1  25
ATOM     25  C   UNL A   1      34.340  32.475  28.514  1.00  0.00     0.188 C 
BRANCH  25  26
ATOM     26  C   UNL A   1      33.556  33.777  28.256  1.00  0.00     0.188 C 
BRANCH  26  27
ATOM     27  O   UNL A   1      34.167  34.946  28.782  1.00  0.00    -0.376 OA
BRANCH  27  28
ATOM     28  C   UNL A   1      33.405  36.142  28.708  1.00  0.00     0.202 C 
BRANCH  28  29
ATOM     29  C   UNL A   1      32.853  36.595  30.060  1.00  0.00     0.261 C 
BRANCH  29  30
ATOM     30  O   UNL A   1      32.529  35.527  30.961  1.00  0.00    -0.460 OA
BRANCH  30  31
ATOM     31  C   UNL A   1      32.975  35.641  32.232  1.00  0.00     0.338 C 
ATOM     32  O   UNL A   1      32.438  36.217  33.159  1.00  0.00    -0.246 OA
BRANCH  31  33
ATOM     33  C   UNL A   1      34.182  34.803  32.350  1.00  0.00     0.060 A 
ATOM     34  C   UNL A   1      34.040  33.418  32.489  1.00  0.00     0.016 A 
ATOM     35  C   UNL A   1      35.447  35.394  32.318  1.00  0.00     0.016 A 
ATOM     36  C   UNL A   1      35.177  32.618  32.618  1.00  0.00     0.010 A 
ATOM     37  C   UNL A   1      36.581  34.596  32.459  1.00  0.00     0.010 A 
ATOM     38  C   UNL A   1      36.450  33.209  32.633  1.00  0.00    -0.014 A 
BRANCH  38  39
ATOM     39  C   UNL A   1      37.644  32.409  32.980  1.00  0.00     0.031 A 
ATOM     40  C   UNL A   1      38.378  32.726  34.252  1.00  0.00     0.074 A 
ATOM     41  C   UNL A   1      38.086  31.434  32.168  1.00  0.00     0.049 A 
ATOM     42  N   UNL A   1      39.467  32.187  34.738  1.00  0.00    -0.248 NA
ATOM     43  C   UNL A   1      37.808  33.795  35.087  1.00  0.00     0.031 C 
ATOM     44  C   UNL A   1      37.452  31.016  30.919  1.00  0.00     0.029 A 
ATOM     45  N   UNL A   1      39.189  30.625  32.277  1.00  0.00    -0.354 N 
ATOM     46  C   UNL A   1      39.710  32.847  35.934  1.00  0.00     0.074 A 
ATOM     47  C   UNL A   1      38.673  33.846  36.088  1.00  0.00     0.031 C 
ATOM     48  C   UNL A   1      38.183  30.028  30.372  1.00  0.00     0.029 A 
ATOM     49  C   UNL A   1      39.346  29.765  31.217  1.00  0.00     0.049 A 
ATOM     50  H   UNL A   1      39.809  30.657  33.041  1.00  0.00     0.167 HD
ATOM     51  C   UNL A   1      40.703  32.640  36.830  1.00  0.00     0.031 A 
ATOM     52  C   UNL A   1      40.326  28.881  30.956  1.00  0.00     0.031 A 
ATOM     53  C   UNL A   1      41.753  31.674  36.667  1.00  0.00     0.049 A 
ATOM     54  C   UNL A   1      41.468  28.729  31.925  1.00  0.00     0.074 A 
ATOM     55  C   UNL A   1      42.800  31.383  37.524  1.00  0.00     0.029 A 
ATOM     56  N   UNL A   1      41.899  30.851  35.562  1.00  0.00    -0.354 N 
ATOM     57  N   UNL A   1      41.666  29.332  33.071  1.00  0.00    -0.248 NA
ATOM     58  C   UNL A   1      42.521  27.769  31.561  1.00  0.00     0.031 C 
ATOM     59  C   UNL A   1      43.605  30.414  36.916  1.00  0.00     0.029 A 
ATOM     60  C   UNL A   1      43.033  30.070  35.702  1.00  0.00     0.049 A 
ATOM     61  H   UNL A   1      41.286  30.825  34.792  1.00  0.00     0.167 HD
ATOM     62  C   UNL A   1      42.849  28.808  33.577  1.00  0.00     0.074 A 
ATOM     63  C   UNL A   1      43.320  27.831  32.617  1.00  0.00     0.031 C 
ATOM     64  C   UNL A   1      43.488  29.106  34.735  1.00  0.00     0.031 A 
BRANCH  51  65
ATOM     65  C   UNL A   1      40.706  33.508  38.055  1.00  0.00    -0.014 A 
ATOM     66  C   UNL A   1      41.160  34.835  37.999  1.00  0.00     0.009 A 
ATOM     67  C   UNL A   1      40.244  32.995  39.275  1.00  0.00     0.009 A 
ATOM     68  C   UNL A   1      41.185  35.620  39.152  1.00  0.00     0.001 A 
ATOM     69  C   UNL A   1      40.248  33.790  40.423  1.00  0.00     0.001 A 
ATOM     70  C   UNL A   1      40.727  35.099  40.362  1.00  0.00     0.000 A 
ENDBRANCH  51  65
BRANCH  52  71
ATOM     71  C   UNL A   1      40.284  28.069  29.713  1.00  0.00    -0.014 A 
ATOM     72  C   UNL A   1      40.890  28.536  28.537  1.00  0.00     0.009 A 
ATOM     73  C   UNL A   1      39.621  26.833  29.693  1.00  0.00     0.009 A 
ATOM     74  C   UNL A   1      40.814  27.790  27.359  1.00  0.00     0.001 A 
ATOM     75  C   UNL A   1      39.566  26.079  28.518  1.00  0.00     0.001 A 
ATOM     76  C   UNL A   1      40.156  26.561  27.351  1.00  0.00     0.000 A 
ENDBRANCH  52  71
BRANCH  64  77
ATOM     77  C   UNL A   1      44.747  28.347  35.041  1.00  0.00    -0.014 A 
ATOM     78  C   UNL A   1      46.005  28.844  34.666  1.00  0.00     0.009 A 
ATOM     79  C   UNL A   1      44.675  27.141  35.756  1.00  0.00     0.009 A 
ATOM     80  C   UNL A   1      47.165  28.132  34.978  1.00  0.00     0.001 A 
ATOM     81  C   UNL A   1      45.839  26.445  36.087  1.00  0.00     0.001 A 
ATOM     82  C   UNL A   1      47.081  26.936  35.691  1.00  0.00     0.000 A 
ENDBRANCH  64  77
ENDBRANCH  38  39
ENDBRANCH  31  33
ENDBRANCH  30  31
ENDBRANCH  29  30
ENDBRANCH  28  29
ENDBRANCH  27  28
ENDBRANCH  26  27
ENDBRANCH  25  26
ENDBRANCH   1  25
TORSDOF 22
ENDMDL
MODEL 2
REMARK VINA RESULT:      -9.0      1.149      5.918
REMARK SMILES O=C(CSCc1ccc(Cl)s1)Nc1ccsc1C(=O)OCCOCCOCCOC(=O)c1ccc(-c2c3nc(c(-c4ccccc4)c4ccc([nH]4)c(-c4ccccc4)c4nc(c(-c5ccccc5)c5ccc2[nH]5)C=C4)C=C3)cc1
REMARK SMILES IDX 23 1 22 2 21 3 20 4 18 5 19 6 17 7 13 8 14 9 15 10 16 11
REMARK SMILES IDX 12 12 1 13 2 14 3 16 4 17 5 18 6 19 7 20 11 21 8 22 9 23
REMARK SMILES IDX 10 24 24 25 25 26 26 27 27 28 28 29 29 30 30 31 31 32 32 33
REMARK SMILES IDX 33 34 79 35 34 36 78 37 35 38 36 39 37 40 72 41 38 42 77 43
REMARK SMILES IDX 71 44 73 45 39 46 76 47 70 48 69 49 40 51 62 52 47 53 61 54
REMARK SMILES IDX 48 55 51 56 60 57 74 58 49 59 50 60 59 62 75 63 52 64 41 65
REMARK SMILES IDX 42 66 46 67 43 68 45 69 44 70 63 71 64 72 68 73 65 74 67 75
REMARK SMILES IDX 66 76 53 77 54 78 58 79 55 80 57 81 56 82
REMARK H PARENT 12 15 73 50 51 61
REMARK Flexibility Score: inf
ROOT
ATOM      1  O   UNL A   1      34.090  30.783  27.001  1.00  0.00    -0.376 OA
ENDROOT
BRANCH   1   2
ATOM      2  C   UNL A   1      34.576  29.468  27.234  1.00  0.00     0.202 C 
BRANCH   2   3
ATOM      3  C   UNL A   1      34.157  28.391  26.233  1.00  0.00     0.261 C 
BRANCH   3   4
ATOM      4  O   UNL A   1      33.200  27.465  26.780  1.00  0.00    -0.459 OA
BRANCH   4   5
ATOM      5  C   UNL A   1      31.932  27.957  26.926  1.00  0.00     0.350 C 
ATOM      6  O   UNL A   1      31.423  28.230  28.007  1.00  0.00    -0.245 OA
BRANCH   5   7
ATOM      7  C   UNL A   1      31.330  28.198  25.626  1.00  0.00     0.136 A 
ATOM      8  C   UNL A   1      30.811  27.346  24.656  1.00  0.00     0.066 A 
ATOM      9  C   UNL A   1      30.396  28.086  23.500  1.00  0.00     0.039 A 
ATOM     10  C   UNL A   1      30.590  29.442  23.620  1.00  0.00     0.068 A 
ATOM     11  S   UNL A   1      31.261  29.848  25.124  1.00  0.00    -0.135 S 
BRANCH   8  12
ATOM     12  N   UNL A   1      30.682  25.964  24.822  1.00  0.00    -0.324 N 
ATOM     13  O   UNL A   1      32.569  25.243  23.662  1.00  0.00    -0.274 OA
ATOM     14  C   UNL A   1      31.505  25.014  24.233  1.00  0.00     0.234 C 
ATOM     15  H   UNL A   1      29.953  25.641  25.400  1.00  0.00     0.170 HD
BRANCH  14  16
ATOM     16  C   UNL A   1      30.952  23.601  24.289  1.00  0.00     0.170 C 
BRANCH  16  17
ATOM     17  S   UNL A   1      32.052  22.388  23.506  1.00  0.00    -0.146 SA
BRANCH  17  18
ATOM     18  C   UNL A   1      32.117  21.111  24.802  1.00  0.00     0.116 C 
BRANCH  18  19
ATOM     19  C   UNL A   1      33.036  19.959  24.529  1.00  0.00     0.016 A 
ATOM     20  C   UNL A   1      34.341  19.801  24.966  1.00  0.00     0.018 A 
ATOM     21  S   UNL A   1      32.501  18.570  23.669  1.00  0.00    -0.128 S 
ATOM     22  C   UNL A   1      34.896  18.542  24.587  1.00  0.00     0.033 A 
ATOM     23  C   UNL A   1      33.994  17.801  23.871  1.00  0.00     0.093 A 
ATOM     24  Cl  UNL A   1      34.246  16.234  23.216  1.00  0.00    -0.072 Cl
ENDBRANCH  18  19
ENDBRANCH  17  18
ENDBRANCH  16  17
ENDBRANCH  14  16
ENDBRANCH   8  12
ENDBRANCH   5   7
ENDBRANCH   4   5
ENDBRANCH   3   4
ENDBRANCH   2   3
ENDBRANCH   1   2
BRANCH   1  25
ATOM     25  C   UNL A   1      34.002  31.711  28.078  1.00  0.00     0.188 C 
BRANCH  25  26
ATOM     26  C   UNL A   1      34.954  32.921  28.136  1.00  0.00     0.188 C 
BRANCH  26  27
ATOM     27  O   UNL A   1      34.371  34.149  27.723  1.00  0.00    -0.376 OA
BRANCH  27  28
ATOM     28  C   UNL A   1      34.325  35.182  28.696  1.00  0.00     0.202 C 
BRANCH  28  29
ATOM     29  C   UNL A   1      33.146  35.054  29.661  1.00  0.00     0.261 C 
BRANCH  29  30
ATOM     30  O   UNL A   1      33.251  35.861  30.843  1.00  0.00    -0.460 OA
BRANCH  30  31
ATOM     31  C   UNL A   1      32.965  35.263  32.021  1.00  0.00     0.338 C 
ATOM     32  O   UNL A   1      31.870  35.102  32.525  1.00  0.00    -0.246 OA
BRANCH  31  33
ATOM     33  C   UNL A   1      34.221  34.694  32.540  1.00  0.00     0.060 A 
ATOM     34  C   UNL A   1      35.413  35.407  32.374  1.00  0.00     0.016 A 
ATOM     35  C   UNL A   1      34.210  33.458  33.192  1.00  0.00     0.016 A 
ATOM     36  C   UNL A   1      36.611  34.867  32.848  1.00  0.00     0.010 A 
ATOM     37  C   UNL A   1      35.408  32.916  33.654  1.00  0.00     0.010 A 
ATOM     38  C   UNL A   1      36.615  33.606  33.463  1.00  0.00    -0.014 A 
BRANCH  38  39
ATOM     39  C   UNL A   1      37.892  32.929  33.777  1.00  0.00     0.031 A 
ATOM     40  C   UNL A   1      38.419  31.904  32.814  1.00  0.00     0.074 A 
ATOM     41  C   UNL A   1      38.560  33.200  34.911  1.00  0.00     0.049 A 
ATOM     42  N   UNL A   1      39.490  31.158  32.900  1.00  0.00    -0.248 NA
ATOM     43  C   UNL A   1      37.629  31.689  31.590  1.00  0.00     0.031 C 
ATOM     44  C   UNL A   1      38.166  34.186  35.914  1.00  0.00     0.029 A 
ATOM     45  N   UNL A   1      39.715  32.651  35.409  1.00  0.00    -0.354 N 
ATOM     46  C   UNL A   1      39.506  30.391  31.744  1.00  0.00     0.074 A 
ATOM     47  C   UNL A   1      38.324  30.738  30.985  1.00  0.00     0.031 C 
ATOM     48  C   UNL A   1      39.065  34.169  36.915  1.00  0.00     0.029 A 
ATOM     49  C   UNL A   1      40.077  33.153  36.635  1.00  0.00     0.049 A 
ATOM     50  H   UNL A   1      40.234  31.963  34.934  1.00  0.00     0.167 HD
ATOM     51  C   UNL A   1      40.425  29.481  31.343  1.00  0.00     0.031 A 
ATOM     52  C   UNL A   1      41.101  32.817  37.442  1.00  0.00     0.031 A 
ATOM     53  C   UNL A   1      41.582  29.107  32.107  1.00  0.00     0.049 A 
ATOM     54  C   UNL A   1      42.061  31.740  37.014  1.00  0.00     0.074 A 
ATOM     55  C   UNL A   1      42.577  28.202  31.781  1.00  0.00     0.029 A 
ATOM     56  N   UNL A   1      41.893  29.610  33.360  1.00  0.00    -0.354 N 
ATOM     57  N   UNL A   1      42.088  31.048  35.901  1.00  0.00    -0.248 NA
ATOM     58  C   UNL A   1      43.137  31.400  37.959  1.00  0.00     0.031 C 
ATOM     59  C   UNL A   1      43.466  28.123  32.859  1.00  0.00     0.029 A 
ATOM     60  C   UNL A   1      43.049  29.015  33.834  1.00  0.00     0.049 A 
ATOM     61  H   UNL A   1      41.368  30.290  33.842  1.00  0.00     0.167 HD
ATOM     62  C   UNL A   1      43.193  30.213  35.999  1.00  0.00     0.074 A 
ATOM     63  C   UNL A   1      43.817  30.488  37.277  1.00  0.00     0.031 C 
ATOM     64  C   UNL A   1      43.652  29.299  35.109  1.00  0.00     0.031 A 
BRANCH  51  65
ATOM     65  C   UNL A   1      40.184  28.808  30.023  1.00  0.00    -0.014 A 
ATOM     66  C   UNL A   1      39.566  27.549  29.957  1.00  0.00     0.009 A 
ATOM     67  C   UNL A   1      40.574  29.440  28.835  1.00  0.00     0.009 A 
ATOM     68  C   UNL A   1      39.375  26.922  28.725  1.00  0.00     0.001 A 
ATOM     69  C   UNL A   1      40.362  28.821  27.602  1.00  0.00     0.001 A 
ATOM     70  C   UNL A   1      39.771  27.559  27.548  1.00  0.00     0.000 A 
ENDBRANCH  51  65
BRANCH  52  71
ATOM     71  C   UNL A   1      41.272  33.499  38.749  1.00  0.00    -0.014 A 
ATOM     72  C   UNL A   1      40.680  32.976  39.908  1.00  0.00     0.009 A 
ATOM     73  C   UNL A   1      42.012  34.688  38.840  1.00  0.00     0.009 A 
ATOM     74  C   UNL A   1      40.809  33.641  41.130  1.00  0.00     0.001 A 
ATOM     75  C   UNL A   1      42.158  35.339  40.068  1.00  0.00     0.001 A 
ATOM     76  C   UNL A   1      41.550  34.819  41.209  1.00  0.00     0.000 A 
ENDBRANCH  52  71
BRANCH  64  77
ATOM     77  C   UNL A   1      44.905  28.555  35.472  1.00  0.00    -0.014 A 
ATOM     78  C   UNL A   1      46.160  28.968  34.997  1.00  0.00     0.009 A 
ATOM     79  C   UNL A   1      44.833  27.452  36.338  1.00  0.00     0.009 A 
ATOM     80  C   UNL A   1      47.315  28.274  35.363  1.00  0.00     0.001 A 
ATOM     81  C   UNL A   1      45.992  26.775  36.719  1.00  0.00     0.001 A 
ATOM     82  C   UNL A   1      47.230  27.181  36.226  1.00  0.00     0.000 A 
ENDBRANCH  64  77
ENDBRANCH  38  39
ENDBRANCH  31  33
ENDBRANCH  30  31
ENDBRANCH  29  30
ENDBRANCH  28  29
ENDBRANCH  27  28
ENDBRANCH  26  27
ENDBRANCH  25  26
ENDBRANCH   1  25
TORSDOF 22
ENDMDL
MODEL 3
REMARK VINA RESULT:      -8.9      5.291     10.688
REMARK SMILES O=C(CSCc1ccc(Cl)s1)Nc1ccsc1C(=O)OCCOCCOCCOC(=O)c1ccc(-c2c3nc(c(-c4ccccc4)c4ccc([nH]4)c(-c4ccccc4)c4nc(c(-c5ccccc5)c5ccc2[nH]5)C=C4)C=C3)cc1
REMARK SMILES IDX 23 1 22 2 21 3 20 4 18 5 19 6 17 7 13 8 14 9 15 10 16 11
REMARK SMILES IDX 12 12 1 13 2 14 3 16 4 17 5 18 6 19 7 20 11 21 8 22 9 23
REMARK SMILES IDX 10 24 24 25 25 26 26 27 27 28 28 29 29 30 30 31 31 32 32 33
REMARK SMILES IDX 33 34 79 35 34 36 78 37 35 38 36 39 37 40 72 41 38 42 77 43
REMARK SMILES IDX 71 44 73 45 39 46 76 47 70 48 69 49 40 51 62 52 47 53 61 54
REMARK SMILES IDX 48 55 51 56 60 57 74 58 49 59 50 60 59 62 75 63 52 64 41 65
REMARK SMILES IDX 42 66 46 67 43 68 45 69 44 70 63 71 64 72 68 73 65 74 67 75
REMARK SMILES IDX 66 76 53 77 54 78 58 79 55 80 57 81 56 82
REMARK H PARENT 12 15 73 50 51 61
REMARK Flexibility Score: inf
ROOT
ATOM      1  O   UNL A   1      35.808  23.155  23.956  1.00  0.00    -0.376 OA
ENDROOT
BRANCH   1   2
ATOM      2  C   UNL A   1      35.557  23.902  25.139  1.00  0.00     0.202 C 
BRANCH   2   3
ATOM      3  C   UNL A   1      34.381  24.879  25.101  1.00  0.00     0.261 C 
BRANCH   3   4
ATOM      4  O   UNL A   1      33.474  24.703  26.205  1.00  0.00    -0.459 OA
BRANCH   4   5
ATOM      5  C   UNL A   1      32.208  24.315  25.861  1.00  0.00     0.350 C 
ATOM      6  O   UNL A   1      31.195  24.936  26.165  1.00  0.00    -0.245 OA
BRANCH   5   7
ATOM      7  C   UNL A   1      32.252  23.136  25.014  1.00  0.00     0.136 A 
ATOM      8  C   UNL A   1      32.000  22.940  23.659  1.00  0.00     0.066 A 
ATOM      9  C   UNL A   1      32.113  21.551  23.318  1.00  0.00     0.039 A 
ATOM     10  C   UNL A   1      32.451  20.752  24.384  1.00  0.00     0.068 A 
ATOM     11  S   UNL A   1      32.650  21.656  25.806  1.00  0.00    -0.135 S 
BRANCH   8  12
ATOM     12  N   UNL A   1      31.717  23.974  22.762  1.00  0.00    -0.324 N 
ATOM     13  O   UNL A   1      33.670  23.945  21.491  1.00  0.00    -0.274 OA
ATOM     14  C   UNL A   1      32.606  24.467  21.816  1.00  0.00     0.234 C 
ATOM     15  H   UNL A   1      30.823  24.382  22.804  1.00  0.00     0.170 HD
BRANCH  14  16
ATOM     16  C   UNL A   1      32.187  25.796  21.213  1.00  0.00     0.170 C 
BRANCH  16  17
ATOM     17  S   UNL A   1      31.571  26.966  22.457  1.00  0.00    -0.146 SA
BRANCH  17  18
ATOM     18  C   UNL A   1      33.135  27.498  23.219  1.00  0.00     0.116 C 
BRANCH  18  19
ATOM     19  C   UNL A   1      33.002  28.413  24.398  1.00  0.00     0.016 A 
ATOM     20  C   UNL A   1      33.887  28.564  25.453  1.00  0.00     0.018 A 
ATOM     21  S   UNL A   1      31.695  29.524  24.527  1.00  0.00    -0.128 S 
ATOM     22  C   UNL A   1      33.483  29.586  26.365  1.00  0.00     0.033 A 
ATOM     23  C   UNL A   1      32.306  30.161  25.969  1.00  0.00     0.093 A 
ATOM     24  Cl  UNL A   1      31.462  31.422  26.773  1.00  0.00    -0.072 Cl
ENDBRANCH  18  19
ENDBRANCH  17  18
ENDBRANCH  16  17
ENDBRANCH  14  16
ENDBRANCH   8  12
ENDBRANCH   5   7
ENDBRANCH   4   5
ENDBRANCH   3   4
ENDBRANCH   2   3
ENDBRANCH   1   2
BRANCH   1  25
ATOM     25  C   UNL A   1      36.977  22.348  23.859  1.00  0.00     0.188 C 
BRANCH  25  26
ATOM     26  C   UNL A   1      37.637  21.786  25.134  1.00  0.00     0.188 C 
BRANCH  26  27
ATOM     27  O   UNL A   1      37.291  20.441  25.430  1.00  0.00    -0.376 OA
BRANCH  27  28
ATOM     28  C   UNL A   1      38.143  19.439  24.894  1.00  0.00     0.202 C 
BRANCH  28  29
ATOM     29  C   UNL A   1      39.355  19.138  25.776  1.00  0.00     0.261 C 
BRANCH  29  30
ATOM     30  O   UNL A   1      40.318  20.199  25.852  1.00  0.00    -0.460 OA
BRANCH  30  31
ATOM     31  C   UNL A   1      41.016  20.314  27.004  1.00  0.00     0.338 C 
ATOM     32  O   UNL A   1      41.529  19.424  27.654  1.00  0.00    -0.246 OA
BRANCH  31  33
ATOM     33  C   UNL A   1      41.182  21.754  27.274  1.00  0.00     0.060 A 
ATOM     34  C   UNL A   1      40.654  22.683  26.370  1.00  0.00     0.016 A 
ATOM     35  C   UNL A   1      41.856  22.175  28.423  1.00  0.00     0.016 A 
ATOM     36  C   UNL A   1      40.822  24.048  26.609  1.00  0.00     0.010 A 
ATOM     37  C   UNL A   1      42.033  23.538  28.653  1.00  0.00     0.010 A 
ATOM     38  C   UNL A   1      41.537  24.479  27.736  1.00  0.00    -0.014 A 
BRANCH  38  39
ATOM     39  C   UNL A   1      41.906  25.903  27.892  1.00  0.00     0.031 A 
ATOM     40  C   UNL A   1      43.199  26.381  27.295  1.00  0.00     0.074 A 
ATOM     41  C   UNL A   1      41.119  26.752  28.574  1.00  0.00     0.049 A 
ATOM     42  N   UNL A   1      43.743  27.570  27.341  1.00  0.00    -0.248 NA
ATOM     43  C   UNL A   1      43.983  25.384  26.549  1.00  0.00     0.031 C 
ATOM     44  C   UNL A   1      39.833  26.417  29.182  1.00  0.00     0.029 A 
ATOM     45  N   UNL A   1      41.303  28.078  28.877  1.00  0.00    -0.354 N 
ATOM     46  C   UNL A   1      44.929  27.465  26.627  1.00  0.00     0.074 A 
ATOM     47  C   UNL A   1      45.041  26.092  26.184  1.00  0.00     0.031 C 
ATOM     48  C   UNL A   1      39.344  27.512  29.793  1.00  0.00     0.029 A 
ATOM     49  C   UNL A   1      40.295  28.611  29.641  1.00  0.00     0.049 A 
ATOM     50  H   UNL A   1      42.084  28.597  28.576  1.00  0.00     0.167 HD
ATOM     51  C   UNL A   1      45.844  28.426  26.358  1.00  0.00     0.031 A 
ATOM     52  C   UNL A   1      40.165  29.843  30.169  1.00  0.00     0.031 A 
ATOM     53  C   UNL A   1      45.756  29.782  26.823  1.00  0.00     0.049 A 
ATOM     54  C   UNL A   1      41.238  30.870  29.929  1.00  0.00     0.074 A 
ATOM     55  C   UNL A   1      46.628  30.831  26.595  1.00  0.00     0.029 A 
ATOM     56  N   UNL A   1      44.739  30.273  27.627  1.00  0.00    -0.354 N 
ATOM     57  N   UNL A   1      42.337  30.771  29.221  1.00  0.00    -0.248 NA
ATOM     58  C   UNL A   1      41.049  32.185  30.563  1.00  0.00     0.031 C 
ATOM     59  C   UNL A   1      46.162  31.947  27.299  1.00  0.00     0.029 A 
ATOM     60  C   UNL A   1      44.975  31.603  27.926  1.00  0.00     0.049 A 
ATOM     61  H   UNL A   1      43.964  29.752  27.938  1.00  0.00     0.167 HD
ATOM     62  C   UNL A   1      42.955  32.012  29.302  1.00  0.00     0.074 A 
ATOM     63  C   UNL A   1      42.106  32.852  30.121  1.00  0.00     0.031 C 
ATOM     64  C   UNL A   1      44.121  32.422  28.745  1.00  0.00     0.031 A 
BRANCH  51  65
ATOM     65  C   UNL A   1      47.037  28.020  25.543  1.00  0.00    -0.014 A 
ATOM     66  C   UNL A   1      46.967  27.960  24.142  1.00  0.00     0.009 A 
ATOM     67  C   UNL A   1      48.243  27.699  26.181  1.00  0.00     0.009 A 
ATOM     68  C   UNL A   1      48.076  27.552  23.398  1.00  0.00     0.001 A 
ATOM     69  C   UNL A   1      49.357  27.313  25.433  1.00  0.00     0.001 A 
ATOM     70  C   UNL A   1      49.270  27.231  24.044  1.00  0.00     0.000 A 
ENDBRANCH  51  65
BRANCH  52  71
ATOM     71  C   UNL A   1      38.975  30.178  30.992  1.00  0.00    -0.014 A 
ATOM     72  C   UNL A   1      38.976  29.942  32.374  1.00  0.00     0.009 A 
ATOM     73  C   UNL A   1      37.826  30.718  30.393  1.00  0.00     0.009 A 
ATOM     74  C   UNL A   1      37.841  30.221  33.139  1.00  0.00     0.001 A 
ATOM     75  C   UNL A   1      36.700  31.016  31.165  1.00  0.00     0.001 A 
ATOM     76  C   UNL A   1      36.706  30.761  32.535  1.00  0.00     0.000 A 
ENDBRANCH  52  71
BRANCH  64  77
ATOM     77  C   UNL A   1      44.531  33.848  28.978  1.00  0.00    -0.014 A 
ATOM     78  C   UNL A   1      44.095  34.877  28.128  1.00  0.00     0.009 A 
ATOM     79  C   UNL A   1      45.326  34.171  30.088  1.00  0.00     0.009 A 
ATOM     80  C   UNL A   1      44.472  36.199  28.373  1.00  0.00     0.001 A 
ATOM     81  C   UNL A   1      45.681  35.496  30.343  1.00  0.00     0.001 A 
ATOM     82  C   UNL A   1      45.260  36.507  29.481  1.00  0.00     0.000 A 
ENDBRANCH  64  77
ENDBRANCH  38  39
ENDBRANCH  31  33
ENDBRANCH  30  31
ENDBRANCH  29  30
ENDBRANCH  28  29
ENDBRANCH  27  28
ENDBRANCH  26  27
ENDBRANCH  25  26
ENDBRANCH   1  25
TORSDOF 22
ENDMDL
