MODEL 1
REMARK VINA RESULT:     -11.1      0.000      0.000
REMARK SMILES COc1cc([C@@H]2CC(=O)Nc3c(C(=O)OCCOCCOCCOC(=O)c4ccc(-c5c6nc(c(-c7ccccc7)c7ccc([nH]7)c(-c7ccccc7)c7nc(c(-c8ccccc8)c8ccc5[nH]8)C=C7)C=C6)cc4)cn(-c4ccc(F)cc4)c32)c(OC)c2c1OCO2
REMARK SMILES IDX 19 1 18 2 17 3 16 4 15 5 13 6 14 7 12 8 6 9 7 10 84 11 8 12
REMARK SMILES IDX 11 13 76 14 9 15 10 16 75 17 5 19 3 20 4 21 89 22 88 23
REMARK SMILES IDX 90 24 85 25 92 26 91 27 2 28 1 29 86 30 87 31 77 32 78 33
REMARK SMILES IDX 83 34 79 35 82 36 80 37 81 38 20 39 21 40 22 41 23 42 24 43
REMARK SMILES IDX 25 44 26 45 27 46 28 47 74 48 29 49 73 50 30 51 31 52 32 53
REMARK SMILES IDX 67 54 33 55 72 56 66 57 68 58 34 59 71 60 65 61 64 62 35 64
REMARK SMILES IDX 57 65 42 66 56 67 43 68 46 69 55 70 69 71 44 72 45 73 54 75
REMARK SMILES IDX 70 76 47 77 36 78 37 79 41 80 38 81 40 82 39 83 58 84 59 85
REMARK SMILES IDX 63 86 60 87 62 88 61 89 48 90 49 91 53 92 50 93 52 94 51 95
REMARK H PARENT 10 18 68 63 46 74
REMARK Flexibility Score: inf
ROOT
ATOM      1  C   UNL A   1      33.261  28.291  25.017  1.00  0.00     0.188 C 
ENDROOT
BRANCH   1   2
ATOM      2  O   UNL A   1      32.255  27.424  24.542  1.00  0.00    -0.376 OA
BRANCH   2   3
ATOM      3  C   UNL A   1      30.967  27.402  25.137  1.00  0.00     0.202 C 
BRANCH   3   4
ATOM      4  C   UNL A   1      30.486  26.350  26.162  1.00  0.00     0.261 C 
BRANCH   4   5
ATOM      5  O   UNL A   1      31.394  25.291  26.482  1.00  0.00    -0.460 OA
BRANCH   5   6
ATOM      6  C   UNL A   1      30.852  24.042  26.501  1.00  0.00     0.341 C 
ATOM      7  O   UNL A   1      29.850  23.733  27.144  1.00  0.00    -0.246 OA
BRANCH   6   8
ATOM      8  C   UNL A   1      31.488  23.135  25.560  1.00  0.00     0.102 A 
ATOM      9  C   UNL A   1      34.223  22.225  23.342  1.00  0.00     0.082 C 
ATOM     10  C   UNL A   1      34.154  23.347  22.291  1.00  0.00     0.115 C 
ATOM     11  C   UNL A   1      32.964  22.246  24.135  1.00  0.00     0.055 A 
ATOM     12  C   UNL A   1      33.566  24.657  22.809  1.00  0.00     0.225 C 
ATOM     13  C   UNL A   1      32.278  23.403  24.419  1.00  0.00     0.078 A 
ATOM     14  N   UNL A   1      32.292  21.205  24.724  1.00  0.00    -0.317 N 
ATOM     15  O   UNL A   1      33.900  25.743  22.333  1.00  0.00    -0.275 OA
ATOM     16  N   UNL A   1      32.583  24.580  23.770  1.00  0.00    -0.324 N 
ATOM     17  C   UNL A   1      31.391  21.748  25.613  1.00  0.00     0.109 A 
ATOM     18  H   UNL A   1      32.080  25.394  24.003  1.00  0.00     0.170 HD
BRANCH   9  19
ATOM     19  C   UNL A   1      35.489  22.358  24.214  1.00  0.00     0.012 A 
ATOM     20  C   UNL A   1      37.594  21.298  24.931  1.00  0.00     0.165 A 
ATOM     21  C   UNL A   1      36.395  21.267  24.209  1.00  0.00     0.059 A 
ATOM     22  C   UNL A   1      37.918  22.467  25.593  1.00  0.00     0.211 A 
ATOM     23  C   UNL A   1      37.052  23.538  25.618  1.00  0.00     0.211 A 
ATOM     24  O   UNL A   1      39.068  22.736  26.274  1.00  0.00    -0.449 OA
ATOM     25  C   UNL A   1      35.828  23.510  24.972  1.00  0.00     0.168 A 
ATOM     26  O   UNL A   1      37.547  24.574  26.356  1.00  0.00    -0.449 OA
ATOM     27  C   UNL A   1      38.878  24.118  26.615  1.00  0.00     0.468 C 
BRANCH  20  28
ATOM     28  O   UNL A   1      38.351  20.164  24.869  1.00  0.00    -0.493 OA
ATOM     29  C   UNL A   1      37.666  18.970  25.237  1.00  0.00     0.278 C 
ENDBRANCH  20  28
BRANCH  25  30
ATOM     30  O   UNL A   1      34.908  24.501  25.092  1.00  0.00    -0.492 OA
ATOM     31  C   UNL A   1      34.618  25.039  26.373  1.00  0.00     0.278 C 
ENDBRANCH  25  30
ENDBRANCH   9  19
BRANCH  14  32
ATOM     32  C   UNL A   1      32.481  19.828  24.505  1.00  0.00     0.046 A 
ATOM     33  C   UNL A   1      32.817  19.002  25.580  1.00  0.00     0.029 A 
ATOM     34  C   UNL A   1      32.343  19.311  23.209  1.00  0.00     0.029 A 
ATOM     35  C   UNL A   1      33.038  17.646  25.355  1.00  0.00     0.041 A 
ATOM     36  C   UNL A   1      32.592  17.955  22.990  1.00  0.00     0.041 A 
ATOM     37  C   UNL A   1      32.935  17.136  24.063  1.00  0.00     0.123 A 
ATOM     38  F   UNL A   1      33.169  15.835  23.851  1.00  0.00    -0.207 F 
ENDBRANCH  14  32
ENDBRANCH   6   8
ENDBRANCH   5   6
ENDBRANCH   4   5
ENDBRANCH   3   4
ENDBRANCH   2   3
ENDBRANCH   1   2
BRANCH   1  39
ATOM     39  C   UNL A   1      32.900  29.575  25.801  1.00  0.00     0.188 C 
BRANCH  39  40
ATOM     40  O   UNL A   1      33.468  29.795  27.073  1.00  0.00    -0.376 OA
BRANCH  40  41
ATOM     41  C   UNL A   1      34.863  29.896  27.317  1.00  0.00     0.202 C 
BRANCH  41  42
ATOM     42  C   UNL A   1      35.532  30.655  28.467  1.00  0.00     0.261 C 
BRANCH  42  43
ATOM     43  O   UNL A   1      36.831  31.115  28.185  1.00  0.00    -0.460 OA
BRANCH  43  44
ATOM     44  C   UNL A   1      37.782  30.484  28.902  1.00  0.00     0.338 C 
ATOM     45  O   UNL A   1      38.262  30.828  29.967  1.00  0.00    -0.246 OA
BRANCH  44  46
ATOM     46  C   UNL A   1      38.138  29.239  28.199  1.00  0.00     0.060 A 
ATOM     47  C   UNL A   1      38.323  28.147  29.046  1.00  0.00     0.016 A 
ATOM     48  C   UNL A   1      38.833  29.401  27.001  1.00  0.00     0.016 A 
ATOM     49  C   UNL A   1      39.552  27.552  28.990  1.00  0.00     0.010 A 
ATOM     50  C   UNL A   1      40.061  28.818  26.949  1.00  0.00     0.010 A 
ATOM     51  C   UNL A   1      40.447  28.041  28.040  1.00  0.00    -0.014 A 
BRANCH  51  52
ATOM     52  C   UNL A   1      41.850  27.776  28.214  1.00  0.00     0.031 A 
ATOM     53  C   UNL A   1      42.236  26.525  27.549  1.00  0.00     0.074 A 
ATOM     54  C   UNL A   1      42.668  28.674  28.794  1.00  0.00     0.049 A 
ATOM     55  N   UNL A   1      42.440  25.378  28.104  1.00  0.00    -0.248 NA
ATOM     56  C   UNL A   1      42.103  26.484  26.082  1.00  0.00     0.031 C 
ATOM     57  C   UNL A   1      42.389  30.052  29.220  1.00  0.00     0.029 A 
ATOM     58  N   UNL A   1      43.996  28.556  29.030  1.00  0.00    -0.354 N 
ATOM     59  C   UNL A   1      42.672  24.522  27.039  1.00  0.00     0.074 A 
ATOM     60  C   UNL A   1      42.141  25.170  25.872  1.00  0.00     0.031 C 
ATOM     61  C   UNL A   1      43.563  30.701  29.425  1.00  0.00     0.029 A 
ATOM     62  C   UNL A   1      44.654  29.753  29.274  1.00  0.00     0.049 A 
ATOM     63  H   UNL A   1      44.460  27.688  29.027  1.00  0.00     0.167 HD
ATOM     64  C   UNL A   1      43.612  23.543  27.111  1.00  0.00     0.031 A 
ATOM     65  C   UNL A   1      46.000  29.929  29.266  1.00  0.00     0.031 A 
ATOM     66  C   UNL A   1      44.025  23.306  28.469  1.00  0.00     0.049 A 
ATOM     67  C   UNL A   1      46.616  28.582  29.374  1.00  0.00     0.074 A 
ATOM     68  C   UNL A   1      43.410  22.844  29.614  1.00  0.00     0.029 A 
ATOM     69  N   UNL A   1      45.162  23.966  28.878  1.00  0.00    -0.354 N 
ATOM     70  N   UNL A   1      46.513  27.836  30.437  1.00  0.00    -0.248 NA
ATOM     71  C   UNL A   1      46.925  27.868  28.144  1.00  0.00     0.031 C 
ATOM     72  C   UNL A   1      43.984  23.600  30.678  1.00  0.00     0.029 A 
ATOM     73  C   UNL A   1      44.961  24.444  30.147  1.00  0.00     0.049 A 
ATOM     74  H   UNL A   1      45.982  24.077  28.346  1.00  0.00     0.167 HD
ATOM     75  C   UNL A   1      46.311  26.549  29.955  1.00  0.00     0.074 A 
ATOM     76  C   UNL A   1      46.683  26.614  28.541  1.00  0.00     0.031 C 
ATOM     77  C   UNL A   1      45.582  25.643  30.671  1.00  0.00     0.031 A 
BRANCH  64  78
ATOM     78  C   UNL A   1      44.473  23.169  25.930  1.00  0.00    -0.014 A 
ATOM     79  C   UNL A   1      44.469  21.837  25.497  1.00  0.00     0.009 A 
ATOM     80  C   UNL A   1      45.475  24.006  25.393  1.00  0.00     0.009 A 
ATOM     81  C   UNL A   1      45.446  21.361  24.613  1.00  0.00     0.001 A 
ATOM     82  C   UNL A   1      46.423  23.549  24.478  1.00  0.00     0.001 A 
ATOM     83  C   UNL A   1      46.422  22.215  24.108  1.00  0.00     0.000 A 
ENDBRANCH  64  78
BRANCH  65  84
ATOM     84  C   UNL A   1      46.779  31.106  28.819  1.00  0.00    -0.014 A 
ATOM     85  C   UNL A   1      47.921  31.532  29.516  1.00  0.00     0.009 A 
ATOM     86  C   UNL A   1      46.562  31.642  27.536  1.00  0.00     0.009 A 
ATOM     87  C   UNL A   1      48.826  32.437  28.938  1.00  0.00     0.001 A 
ATOM     88  C   UNL A   1      47.466  32.541  26.957  1.00  0.00     0.001 A 
ATOM     89  C   UNL A   1      48.605  32.931  27.654  1.00  0.00     0.000 A 
ENDBRANCH  65  84
BRANCH  77  90
ATOM     90  C   UNL A   1      45.196  26.034  32.079  1.00  0.00    -0.014 A 
ATOM     91  C   UNL A   1      44.015  26.738  32.386  1.00  0.00     0.009 A 
ATOM     92  C   UNL A   1      45.974  25.551  33.138  1.00  0.00     0.009 A 
ATOM     93  C   UNL A   1      43.640  26.966  33.716  1.00  0.00     0.001 A 
ATOM     94  C   UNL A   1      45.590  25.762  34.465  1.00  0.00     0.001 A 
ATOM     95  C   UNL A   1      44.427  26.472  34.754  1.00  0.00     0.000 A 
ENDBRANCH  77  90
ENDBRANCH  51  52
ENDBRANCH  44  46
ENDBRANCH  43  44
ENDBRANCH  42  43
ENDBRANCH  41  42
ENDBRANCH  40  41
ENDBRANCH  39  40
ENDBRANCH   1  39
TORSDOF 21
ENDMDL
MODEL 2
REMARK VINA RESULT:     -11.1      4.171      8.428
REMARK SMILES COc1cc([C@@H]2CC(=O)Nc3c(C(=O)OCCOCCOCCOC(=O)c4ccc(-c5c6nc(c(-c7ccccc7)c7ccc([nH]7)c(-c7ccccc7)c7nc(c(-c8ccccc8)c8ccc5[nH]8)C=C7)C=C6)cc4)cn(-c4ccc(F)cc4)c32)c(OC)c2c1OCO2
REMARK SMILES IDX 19 1 18 2 17 3 16 4 15 5 13 6 14 7 12 8 6 9 7 10 84 11 8 12
REMARK SMILES IDX 11 13 76 14 9 15 10 16 75 17 5 19 3 20 4 21 89 22 88 23
REMARK SMILES IDX 90 24 85 25 92 26 91 27 2 28 1 29 86 30 87 31 77 32 78 33
REMARK SMILES IDX 83 34 79 35 82 36 80 37 81 38 20 39 21 40 22 41 23 42 24 43
REMARK SMILES IDX 25 44 26 45 27 46 28 47 74 48 29 49 73 50 30 51 31 52 32 53
REMARK SMILES IDX 67 54 33 55 72 56 66 57 68 58 34 59 71 60 65 61 64 62 35 64
REMARK SMILES IDX 57 65 42 66 56 67 43 68 46 69 55 70 69 71 44 72 45 73 54 75
REMARK SMILES IDX 70 76 47 77 36 78 37 79 41 80 38 81 40 82 39 83 58 84 59 85
REMARK SMILES IDX 63 86 60 87 62 88 61 89 48 90 49 91 53 92 50 93 52 94 51 95
REMARK H PARENT 10 18 68 63 46 74
REMARK Flexibility Score: inf
ROOT
ATOM      1  C   UNL A   1      31.912  31.238  26.790  1.00  0.00     0.188 C 
ENDROOT
BRANCH   1   2
ATOM      2  O   UNL A   1      31.349  30.401  25.804  1.00  0.00    -0.376 OA
BRANCH   2   3
ATOM      3  C   UNL A   1      31.483  28.990  25.878  1.00  0.00     0.202 C 
BRANCH   3   4
ATOM      4  C   UNL A   1      31.358  28.028  24.675  1.00  0.00     0.261 C 
BRANCH   4   5
ATOM      5  O   UNL A   1      31.960  26.738  24.808  1.00  0.00    -0.460 OA
BRANCH   5   6
ATOM      6  C   UNL A   1      33.322  26.723  24.794  1.00  0.00     0.341 C 
ATOM      7  O   UNL A   1      34.020  27.683  24.474  1.00  0.00    -0.246 OA
BRANCH   6   8
ATOM      8  C   UNL A   1      33.880  25.501  25.348  1.00  0.00     0.102 A 
ATOM      9  C   UNL A   1      33.617  21.992  26.270  1.00  0.00     0.082 C 
ATOM     10  C   UNL A   1      32.520  22.038  27.348  1.00  0.00     0.115 C 
ATOM     11  C   UNL A   1      34.094  23.380  26.026  1.00  0.00     0.055 A 
ATOM     12  C   UNL A   1      31.539  23.198  27.195  1.00  0.00     0.225 C 
ATOM     13  C   UNL A   1      33.274  24.480  26.115  1.00  0.00     0.078 A 
ATOM     14  N   UNL A   1      35.343  23.818  25.663  1.00  0.00    -0.317 N 
ATOM     15  O   UNL A   1      30.374  23.108  27.587  1.00  0.00    -0.275 OA
ATOM     16  N   UNL A   1      32.022  24.380  26.683  1.00  0.00    -0.324 N 
ATOM     17  C   UNL A   1      35.214  25.120  25.232  1.00  0.00     0.109 A 
ATOM     18  H   UNL A   1      31.454  25.184  26.723  1.00  0.00     0.170 HD
BRANCH   9  19
ATOM     19  C   UNL A   1      33.111  21.293  24.991  1.00  0.00     0.012 A 
ATOM     20  C   UNL A   1      32.584  21.548  22.598  1.00  0.00     0.165 A 
ATOM     21  C   UNL A   1      32.993  22.089  23.823  1.00  0.00     0.059 A 
ATOM     22  C   UNL A   1      32.374  20.183  22.534  1.00  0.00     0.211 A 
ATOM     23  C   UNL A   1      32.476  19.390  23.656  1.00  0.00     0.211 A 
ATOM     24  O   UNL A   1      32.060  19.450  21.428  1.00  0.00    -0.449 OA
ATOM     25  C   UNL A   1      32.811  19.908  24.895  1.00  0.00     0.168 A 
ATOM     26  O   UNL A   1      32.194  18.084  23.382  1.00  0.00    -0.449 OA
ATOM     27  C   UNL A   1      32.103  18.113  21.954  1.00  0.00     0.468 C 
BRANCH  20  28
ATOM     28  O   UNL A   1      32.474  22.435  21.568  1.00  0.00    -0.493 OA
ATOM     29  C   UNL A   1      32.846  23.772  21.891  1.00  0.00     0.278 C 
ENDBRANCH  20  28
BRANCH  25  30
ATOM     30  O   UNL A   1      32.790  19.169  26.034  1.00  0.00    -0.492 OA
ATOM     31  C   UNL A   1      32.739  17.753  25.952  1.00  0.00     0.278 C 
ENDBRANCH  25  30
ENDBRANCH   9  19
BRANCH  14  32
ATOM     32  C   UNL A   1      36.548  23.092  25.690  1.00  0.00     0.046 A 
ATOM     33  C   UNL A   1      36.597  21.824  25.104  1.00  0.00     0.029 A 
ATOM     34  C   UNL A   1      37.673  23.646  26.315  1.00  0.00     0.029 A 
ATOM     35  C   UNL A   1      37.781  21.092  25.163  1.00  0.00     0.041 A 
ATOM     36  C   UNL A   1      38.846  22.893  26.391  1.00  0.00     0.041 A 
ATOM     37  C   UNL A   1      38.890  21.626  25.813  1.00  0.00     0.123 A 
ATOM     38  F   UNL A   1      40.018  20.908  25.883  1.00  0.00    -0.207 F 
ENDBRANCH  14  32
ENDBRANCH   6   8
ENDBRANCH   5   6
ENDBRANCH   4   5
ENDBRANCH   3   4
ENDBRANCH   2   3
ENDBRANCH   1   2
BRANCH   1  39
ATOM     39  C   UNL A   1      33.320  30.956  27.364  1.00  0.00     0.188 C 
BRANCH  39  40
ATOM     40  O   UNL A   1      33.892  31.861  28.281  1.00  0.00    -0.376 OA
BRANCH  40  41
ATOM     41  C   UNL A   1      34.075  33.246  28.026  1.00  0.00     0.202 C 
BRANCH  41  42
ATOM     42  C   UNL A   1      33.917  34.385  29.037  1.00  0.00     0.261 C 
BRANCH  42  43
ATOM     43  O   UNL A   1      34.509  34.141  30.289  1.00  0.00    -0.460 OA
BRANCH  43  44
ATOM     44  C   UNL A   1      33.777  34.607  31.321  1.00  0.00     0.338 C 
ATOM     45  O   UNL A   1      32.689  35.151  31.274  1.00  0.00    -0.246 OA
BRANCH  44  46
ATOM     46  C   UNL A   1      34.497  34.306  32.570  1.00  0.00     0.060 A 
ATOM     47  C   UNL A   1      35.469  35.250  32.902  1.00  0.00     0.016 A 
ATOM     48  C   UNL A   1      34.607  32.953  32.892  1.00  0.00     0.016 A 
ATOM     49  C   UNL A   1      36.743  34.773  33.026  1.00  0.00     0.010 A 
ATOM     50  C   UNL A   1      35.876  32.476  33.005  1.00  0.00     0.010 A 
ATOM     51  C   UNL A   1      36.918  33.396  32.896  1.00  0.00    -0.014 A 
BRANCH  51  52
ATOM     52  C   UNL A   1      38.228  32.893  32.586  1.00  0.00     0.031 A 
ATOM     53  C   UNL A   1      39.119  32.989  33.748  1.00  0.00     0.074 A 
ATOM     54  C   UNL A   1      38.490  32.294  31.409  1.00  0.00     0.049 A 
ATOM     55  N   UNL A   1      40.033  33.875  33.960  1.00  0.00    -0.248 NA
ATOM     56  C   UNL A   1      38.761  32.182  34.928  1.00  0.00     0.031 C 
ATOM     57  C   UNL A   1      37.570  31.921  30.327  1.00  0.00     0.029 A 
ATOM     58  N   UNL A   1      39.670  31.785  30.981  1.00  0.00    -0.354 N 
ATOM     59  C   UNL A   1      40.502  33.583  35.231  1.00  0.00     0.074 A 
ATOM     60  C   UNL A   1      39.491  32.782  35.865  1.00  0.00     0.031 C 
ATOM     61  C   UNL A   1      38.188  31.038  29.501  1.00  0.00     0.029 A 
ATOM     62  C   UNL A   1      39.571  30.895  29.921  1.00  0.00     0.049 A 
ATOM     63  H   UNL A   1      40.532  32.028  31.390  1.00  0.00     0.167 HD
ATOM     64  C   UNL A   1      41.824  33.676  35.536  1.00  0.00     0.031 A 
ATOM     65  C   UNL A   1      40.555  30.059  29.500  1.00  0.00     0.031 A 
ATOM     66  C   UNL A   1      42.544  34.424  34.538  1.00  0.00     0.049 A 
ATOM     67  C   UNL A   1      41.828  30.561  30.073  1.00  0.00     0.074 A 
ATOM     68  C   UNL A   1      42.523  35.726  34.086  1.00  0.00     0.029 A 
ATOM     69  N   UNL A   1      43.164  33.681  33.559  1.00  0.00    -0.354 N 
ATOM     70  N   UNL A   1      42.364  31.698  29.730  1.00  0.00    -0.248 NA
ATOM     71  C   UNL A   1      42.249  30.044  31.368  1.00  0.00     0.031 C 
ATOM     72  C   UNL A   1      42.758  35.638  32.682  1.00  0.00     0.029 A 
ATOM     73  C   UNL A   1      42.970  34.298  32.350  1.00  0.00     0.049 A 
ATOM     74  H   UNL A   1      43.663  32.846  33.703  1.00  0.00     0.167 HD
ATOM     75  C   UNL A   1      42.837  32.245  30.917  1.00  0.00     0.074 A 
ATOM     76  C   UNL A   1      42.835  31.136  31.870  1.00  0.00     0.031 C 
ATOM     77  C   UNL A   1      42.893  33.599  31.084  1.00  0.00     0.031 A 
BRANCH  64  78
ATOM     78  C   UNL A   1      42.506  32.695  36.456  1.00  0.00    -0.014 A 
ATOM     79  C   UNL A   1      42.211  32.748  37.824  1.00  0.00     0.009 A 
ATOM     80  C   UNL A   1      43.610  31.901  36.078  1.00  0.00     0.009 A 
ATOM     81  C   UNL A   1      43.008  32.081  38.762  1.00  0.00     0.001 A 
ATOM     82  C   UNL A   1      44.381  31.198  37.003  1.00  0.00     0.001 A 
ATOM     83  C   UNL A   1      44.093  31.310  38.352  1.00  0.00     0.000 A 
ENDBRANCH  64  78
BRANCH  65  84
ATOM     84  C   UNL A   1      40.435  28.688  28.952  1.00  0.00    -0.014 A 
ATOM     85  C   UNL A   1      39.676  27.705  29.607  1.00  0.00     0.009 A 
ATOM     86  C   UNL A   1      40.836  28.428  27.628  1.00  0.00     0.009 A 
ATOM     87  C   UNL A   1      39.309  26.520  28.951  1.00  0.00     0.001 A 
ATOM     88  C   UNL A   1      40.466  27.248  26.972  1.00  0.00     0.001 A 
ATOM     89  C   UNL A   1      39.693  26.297  27.630  1.00  0.00     0.000 A 
ENDBRANCH  65  84
BRANCH  77  90
ATOM     90  C   UNL A   1      42.626  34.452  29.865  1.00  0.00    -0.014 A 
ATOM     91  C   UNL A   1      41.332  34.845  29.469  1.00  0.00     0.009 A 
ATOM     92  C   UNL A   1      43.722  34.996  29.183  1.00  0.00     0.009 A 
ATOM     93  C   UNL A   1      41.147  35.738  28.407  1.00  0.00     0.001 A 
ATOM     94  C   UNL A   1      43.536  35.902  28.136  1.00  0.00     0.001 A 
ATOM     95  C   UNL A   1      42.251  36.270  27.745  1.00  0.00     0.000 A 
ENDBRANCH  77  90
ENDBRANCH  51  52
ENDBRANCH  44  46
ENDBRANCH  43  44
ENDBRANCH  42  43
ENDBRANCH  41  42
ENDBRANCH  40  41
ENDBRANCH  39  40
ENDBRANCH   1  39
TORSDOF 21
ENDMDL
MODEL 3
REMARK VINA RESULT:     -10.9      1.832      3.569
REMARK SMILES COc1cc([C@@H]2CC(=O)Nc3c(C(=O)OCCOCCOCCOC(=O)c4ccc(-c5c6nc(c(-c7ccccc7)c7ccc([nH]7)c(-c7ccccc7)c7nc(c(-c8ccccc8)c8ccc5[nH]8)C=C7)C=C6)cc4)cn(-c4ccc(F)cc4)c32)c(OC)c2c1OCO2
REMARK SMILES IDX 19 1 18 2 17 3 16 4 15 5 13 6 14 7 12 8 6 9 7 10 84 11 8 12
REMARK SMILES IDX 11 13 76 14 9 15 10 16 75 17 5 19 3 20 4 21 89 22 88 23
REMARK SMILES IDX 90 24 85 25 92 26 91 27 2 28 1 29 86 30 87 31 77 32 78 33
REMARK SMILES IDX 83 34 79 35 82 36 80 37 81 38 20 39 21 40 22 41 23 42 24 43
REMARK SMILES IDX 25 44 26 45 27 46 28 47 74 48 29 49 73 50 30 51 31 52 32 53
REMARK SMILES IDX 67 54 33 55 72 56 66 57 68 58 34 59 71 60 65 61 64 62 35 64
REMARK SMILES IDX 57 65 42 66 56 67 43 68 46 69 55 70 69 71 44 72 45 73 54 75
REMARK SMILES IDX 70 76 47 77 36 78 37 79 41 80 38 81 40 82 39 83 58 84 59 85
REMARK SMILES IDX 63 86 60 87 62 88 61 89 48 90 49 91 53 92 50 93 52 94 51 95
REMARK H PARENT 10 18 68 63 46 74
REMARK Flexibility Score: inf
ROOT
ATOM      1  C   UNL A   1      32.586  29.923  25.820  1.00  0.00     0.188 C 
ENDROOT
BRANCH   1   2
ATOM      2  O   UNL A   1      31.835  29.624  24.664  1.00  0.00    -0.376 OA
BRANCH   2   3
ATOM      3  C   UNL A   1      30.994  28.482  24.612  1.00  0.00     0.202 C 
BRANCH   3   4
ATOM      4  C   UNL A   1      31.093  27.361  23.553  1.00  0.00     0.261 C 
BRANCH   4   5
ATOM      5  O   UNL A   1      31.777  26.164  23.934  1.00  0.00    -0.460 OA
BRANCH   5   6
ATOM      6  C   UNL A   1      33.136  26.216  23.852  1.00  0.00     0.341 C 
ATOM      7  O   UNL A   1      33.758  27.059  23.209  1.00  0.00    -0.246 OA
BRANCH   6   8
ATOM      8  C   UNL A   1      33.792  25.263  24.731  1.00  0.00     0.102 A 
ATOM      9  C   UNL A   1      33.885  22.098  26.523  1.00  0.00     0.082 C 
ATOM     10  C   UNL A   1      32.706  22.263  27.499  1.00  0.00     0.115 C 
ATOM     11  C   UNL A   1      34.207  23.432  25.947  1.00  0.00     0.055 A 
ATOM     12  C   UNL A   1      31.607  23.199  27.003  1.00  0.00     0.225 C 
ATOM     13  C   UNL A   1      33.255  24.394  25.709  1.00  0.00     0.078 A 
ATOM     14  N   UNL A   1      35.419  23.933  25.543  1.00  0.00    -0.317 N 
ATOM     15  O   UNL A   1      30.434  23.050  27.350  1.00  0.00    -0.275 OA
ATOM     16  N   UNL A   1      31.982  24.269  26.224  1.00  0.00    -0.324 N 
ATOM     17  C   UNL A   1      35.167  25.053  24.781  1.00  0.00     0.109 A 
ATOM     18  H   UNL A   1      31.319  24.970  26.026  1.00  0.00     0.170 HD
BRANCH   9  19
ATOM     19  C   UNL A   1      33.573  21.036  25.449  1.00  0.00     0.012 A 
ATOM     20  C   UNL A   1      33.556  18.635  24.897  1.00  0.00     0.165 A 
ATOM     21  C   UNL A   1      33.840  19.683  25.781  1.00  0.00     0.059 A 
ATOM     22  C   UNL A   1      32.923  18.948  23.708  1.00  0.00     0.211 A 
ATOM     23  C   UNL A   1      32.660  20.254  23.360  1.00  0.00     0.211 A 
ATOM     24  O   UNL A   1      32.482  18.077  22.756  1.00  0.00    -0.449 OA
ATOM     25  C   UNL A   1      32.993  21.317  24.183  1.00  0.00     0.168 A 
ATOM     26  O   UNL A   1      32.067  20.344  22.134  1.00  0.00    -0.449 OA
ATOM     27  C   UNL A   1      31.811  18.965  21.849  1.00  0.00     0.468 C 
BRANCH  20  28
ATOM     28  O   UNL A   1      33.901  17.388  25.328  1.00  0.00    -0.493 OA
ATOM     29  C   UNL A   1      32.807  16.584  25.761  1.00  0.00     0.278 C 
ENDBRANCH  20  28
BRANCH  25  30
ATOM     30  O   UNL A   1      32.860  22.614  23.804  1.00  0.00    -0.492 OA
ATOM     31  C   UNL A   1      32.983  22.961  22.433  1.00  0.00     0.278 C 
ENDBRANCH  25  30
ENDBRANCH   9  19
BRANCH  14  32
ATOM     32  C   UNL A   1      36.697  23.411  25.814  1.00  0.00     0.046 A 
ATOM     33  C   UNL A   1      37.601  24.166  26.565  1.00  0.00     0.029 A 
ATOM     34  C   UNL A   1      37.047  22.149  25.313  1.00  0.00     0.029 A 
ATOM     35  C   UNL A   1      38.877  23.663  26.802  1.00  0.00     0.041 A 
ATOM     36  C   UNL A   1      38.337  21.666  25.535  1.00  0.00     0.041 A 
ATOM     37  C   UNL A   1      39.239  22.425  26.278  1.00  0.00     0.123 A 
ATOM     38  F   UNL A   1      40.475  21.957  26.492  1.00  0.00    -0.207 F 
ENDBRANCH  14  32
ENDBRANCH   6   8
ENDBRANCH   5   6
ENDBRANCH   4   5
ENDBRANCH   3   4
ENDBRANCH   2   3
ENDBRANCH   1   2
BRANCH   1  39
ATOM     39  C   UNL A   1      33.663  28.944  26.344  1.00  0.00     0.188 C 
BRANCH  39  40
ATOM     40  O   UNL A   1      34.705  29.429  27.161  1.00  0.00    -0.376 OA
BRANCH  40  41
ATOM     41  C   UNL A   1      34.791  30.764  27.635  1.00  0.00     0.202 C 
BRANCH  41  42
ATOM     42  C   UNL A   1      35.698  31.273  28.758  1.00  0.00     0.261 C 
BRANCH  42  43
ATOM     43  O   UNL A   1      37.068  31.291  28.438  1.00  0.00    -0.460 OA
BRANCH  43  44
ATOM     44  C   UNL A   1      37.807  30.491  29.233  1.00  0.00     0.338 C 
ATOM     45  O   UNL A   1      38.132  30.687  30.390  1.00  0.00    -0.246 OA
BRANCH  44  46
ATOM     46  C   UNL A   1      38.138  29.270  28.477  1.00  0.00     0.060 A 
ATOM     47  C   UNL A   1      38.339  28.148  29.279  1.00  0.00     0.016 A 
ATOM     48  C   UNL A   1      38.802  29.472  27.268  1.00  0.00     0.016 A 
ATOM     49  C   UNL A   1      39.563  27.550  29.170  1.00  0.00     0.010 A 
ATOM     50  C   UNL A   1      40.025  28.886  27.162  1.00  0.00     0.010 A 
ATOM     51  C   UNL A   1      40.436  28.069  28.215  1.00  0.00    -0.014 A 
BRANCH  51  52
ATOM     52  C   UNL A   1      41.841  27.792  28.342  1.00  0.00     0.031 A 
ATOM     53  C   UNL A   1      42.193  26.535  27.671  1.00  0.00     0.074 A 
ATOM     54  C   UNL A   1      42.686  28.685  28.890  1.00  0.00     0.049 A 
ATOM     55  N   UNL A   1      42.406  25.388  28.223  1.00  0.00    -0.248 NA
ATOM     56  C   UNL A   1      42.010  26.488  26.209  1.00  0.00     0.031 C 
ATOM     57  C   UNL A   1      42.434  30.067  29.318  1.00  0.00     0.029 A 
ATOM     58  N   UNL A   1      44.021  28.556  29.080  1.00  0.00    -0.354 N 
ATOM     59  C   UNL A   1      42.593  24.525  27.155  1.00  0.00     0.074 A 
ATOM     60  C   UNL A   1      42.029  25.173  26.003  1.00  0.00     0.031 C 
ATOM     61  C   UNL A   1      43.621  30.707  29.480  1.00  0.00     0.029 A 
ATOM     62  C   UNL A   1      44.697  29.748  29.296  1.00  0.00     0.049 A 
ATOM     63  H   UNL A   1      44.477  27.683  29.066  1.00  0.00     0.167 HD
ATOM     64  C   UNL A   1      43.527  23.538  27.199  1.00  0.00     0.031 A 
ATOM     65  C   UNL A   1      46.044  29.912  29.241  1.00  0.00     0.031 A 
ATOM     66  C   UNL A   1      43.984  23.304  28.544  1.00  0.00     0.049 A 
ATOM     67  C   UNL A   1      46.651  28.560  29.335  1.00  0.00     0.074 A 
ATOM     68  C   UNL A   1      43.404  22.852  29.711  1.00  0.00     0.029 A 
ATOM     69  N   UNL A   1      45.140  23.955  28.910  1.00  0.00    -0.354 N 
ATOM     70  N   UNL A   1      46.577  27.820  30.404  1.00  0.00    -0.248 NA
ATOM     71  C   UNL A   1      46.911  27.837  28.098  1.00  0.00     0.031 C 
ATOM     72  C   UNL A   1      44.020  23.608  30.751  1.00  0.00     0.029 A 
ATOM     73  C   UNL A   1      44.987  24.441  30.183  1.00  0.00     0.049 A 
ATOM     74  H   UNL A   1      45.943  24.056  28.350  1.00  0.00     0.167 HD
ATOM     75  C   UNL A   1      46.348  26.532  29.935  1.00  0.00     0.074 A 
ATOM     76  C   UNL A   1      46.672  26.587  28.510  1.00  0.00     0.031 C 
ATOM     77  C   UNL A   1      45.636  25.637  30.680  1.00  0.00     0.031 A 
BRANCH  64  78
ATOM     78  C   UNL A   1      44.344  23.151  25.992  1.00  0.00    -0.014 A 
ATOM     79  C   UNL A   1      44.230  21.844  25.500  1.00  0.00     0.009 A 
ATOM     80  C   UNL A   1      45.404  23.929  25.478  1.00  0.00     0.009 A 
ATOM     81  C   UNL A   1      45.157  21.334  24.584  1.00  0.00     0.001 A 
ATOM     82  C   UNL A   1      46.303  23.441  24.532  1.00  0.00     0.001 A 
ATOM     83  C   UNL A   1      46.192  22.130  24.103  1.00  0.00     0.000 A 
ENDBRANCH  64  78
BRANCH  65  84
ATOM     84  C   UNL A   1      46.818  31.080  28.762  1.00  0.00    -0.014 A 
ATOM     85  C   UNL A   1      47.550  31.882  29.652  1.00  0.00     0.009 A 
ATOM     86  C   UNL A   1      47.068  31.236  27.386  1.00  0.00     0.009 A 
ATOM     87  C   UNL A   1      48.516  32.786  29.181  1.00  0.00     0.001 A 
ATOM     88  C   UNL A   1      48.034  32.134  26.917  1.00  0.00     0.001 A 
ATOM     89  C   UNL A   1      48.767  32.902  27.816  1.00  0.00     0.000 A 
ENDBRANCH  65  84
BRANCH  77  90
ATOM     90  C   UNL A   1      45.302  26.037  32.099  1.00  0.00    -0.014 A 
ATOM     91  C   UNL A   1      46.100  25.687  33.206  1.00  0.00     0.009 A 
ATOM     92  C   UNL A   1      44.231  26.916  32.304  1.00  0.00     0.009 A 
ATOM     93  C   UNL A   1      45.817  26.188  34.482  1.00  0.00     0.001 A 
ATOM     94  C   UNL A   1      43.960  27.431  33.575  1.00  0.00     0.001 A 
ATOM     95  C   UNL A   1      44.749  27.064  34.663  1.00  0.00     0.000 A 
ENDBRANCH  77  90
ENDBRANCH  51  52
ENDBRANCH  44  46
ENDBRANCH  43  44
ENDBRANCH  42  43
ENDBRANCH  41  42
ENDBRANCH  40  41
ENDBRANCH  39  40
ENDBRANCH   1  39
TORSDOF 21
ENDMDL
