MODEL 1
REMARK VINA RESULT:     -10.1      0.000      0.000
REMARK SMILES Cc1nccnc1N1CCC2(CCC(=O)N([C@@H](C)C(=O)OCCOCCOCCOC(=O)c3ccc(-c4c5nc(c(-c6ccccc6)c6ccc([nH]6)c(-c6ccccc6)c6nc(c(-c7ccccc7)c7ccc4[nH]7)C=C6)C=C5)cc3)C2)CC1
REMARK SMILES IDX 25 1 24 2 23 3 22 4 21 5 19 6 20 7 17 8 18 9 16 10 8 11 9 12
REMARK SMILES IDX 83 13 10 14 82 15 11 16 12 17 81 18 13 19 14 20 15 21 7 22
REMARK SMILES IDX 1 23 2 24 3 25 4 26 6 27 5 28 26 29 27 30 28 31 29 32 30 33
REMARK SMILES IDX 31 34 32 35 33 36 34 37 80 38 35 39 79 40 36 41 37 42 38 43
REMARK SMILES IDX 73 44 39 45 78 46 72 47 74 48 40 49 77 50 71 51 70 52 41 54
REMARK SMILES IDX 63 55 48 56 62 57 49 58 52 59 61 60 75 61 50 62 51 63 60 65
REMARK SMILES IDX 76 66 53 67 42 68 43 69 47 70 44 71 46 72 45 73 64 74 65 75
REMARK SMILES IDX 69 76 66 77 68 78 67 79 54 80 55 81 59 82 56 83 58 84 57 85
REMARK H PARENT 74 53 52 64
REMARK Flexibility Score: inf
ROOT
ATOM      1  C   UNL A   1      39.600  23.708  27.117  1.00  0.00     0.188 C 
ENDROOT
BRANCH   1   2
ATOM      2  O   UNL A   1      38.771  24.253  26.102  1.00  0.00    -0.376 OA
BRANCH   2   3
ATOM      3  C   UNL A   1      37.558  23.572  25.789  1.00  0.00     0.202 C 
BRANCH   3   4
ATOM      4  C   UNL A   1      37.669  22.061  25.557  1.00  0.00     0.261 C 
BRANCH   4   5
ATOM      5  O   UNL A   1      36.595  21.534  24.745  1.00  0.00    -0.462 OA
BRANCH   5   6
ATOM      6  C   UNL A   1      35.359  21.539  25.300  1.00  0.00     0.328 C 
ATOM      7  O   UNL A   1      35.154  21.300  26.490  1.00  0.00    -0.250 OA
BRANCH   6   8
ATOM      8  C   UNL A   1      34.183  21.928  24.348  1.00  0.00     0.192 C 
ATOM      9  C   UNL A   1      34.789  22.689  23.165  1.00  0.00     0.044 C 
BRANCH   8  10
ATOM     10  N   UNL A   1      32.899  22.552  24.794  1.00  0.00    -0.329 N 
ATOM     11  N   UNL A   1      30.194  27.012  24.082  1.00  0.00    -0.355 N 
ATOM     12  C   UNL A   1      29.728  25.696  23.679  1.00  0.00     0.119 C 
ATOM     13  C   UNL A   1      30.572  27.108  25.485  1.00  0.00     0.119 C 
ATOM     14  C   UNL A   1      30.921  24.761  23.810  1.00  0.00     0.030 C 
ATOM     15  C   UNL A   1      31.758  26.155  25.736  1.00  0.00     0.030 C 
ATOM     16  C   UNL A   1      31.555  24.696  25.209  1.00  0.00    -0.008 C 
ATOM     17  C   UNL A   1      30.705  23.865  26.180  1.00  0.00     0.019 C 
ATOM     18  C   UNL A   1      32.933  23.991  25.105  1.00  0.00     0.127 C 
ATOM     19  C   UNL A   1      30.614  22.402  25.755  1.00  0.00     0.101 C 
ATOM     20  C   UNL A   1      31.938  21.744  25.390  1.00  0.00     0.223 C 
ATOM     21  O   UNL A   1      32.088  20.531  25.528  1.00  0.00    -0.275 OA
BRANCH  11  22
ATOM     22  C   UNL A   1      29.706  28.090  23.363  1.00  0.00     0.150 A 
ATOM     23  C   UNL A   1      32.016  28.780  22.528  1.00  0.00     0.071 C 
ATOM     24  C   UNL A   1      30.529  28.951  22.604  1.00  0.00     0.080 A 
ATOM     25  N   UNL A   1      30.027  29.945  21.811  1.00  0.00    -0.256 NA
ATOM     26  C   UNL A   1      28.685  30.032  21.747  1.00  0.00     0.131 A 
ATOM     27  N   UNL A   1      28.360  28.227  23.281  1.00  0.00    -0.236 NA
ATOM     28  C   UNL A   1      27.869  29.186  22.463  1.00  0.00     0.133 A 
ENDBRANCH  11  22
ENDBRANCH   8  10
ENDBRANCH   6   8
ENDBRANCH   5   6
ENDBRANCH   4   5
ENDBRANCH   3   4
ENDBRANCH   2   3
ENDBRANCH   1   2
BRANCH   1  29
ATOM     29  C   UNL A   1      40.976  23.158  26.723  1.00  0.00     0.188 C 
BRANCH  29  30
ATOM     30  O   UNL A   1      41.205  21.791  27.011  1.00  0.00    -0.376 OA
BRANCH  30  31
ATOM     31  C   UNL A   1      42.094  21.131  26.116  1.00  0.00     0.202 C 
BRANCH  31  32
ATOM     32  C   UNL A   1      43.250  22.034  25.690  1.00  0.00     0.261 C 
BRANCH  32  33
ATOM     33  O   UNL A   1      44.341  21.965  26.637  1.00  0.00    -0.460 OA
BRANCH  33  34
ATOM     34  C   UNL A   1      45.163  23.038  26.693  1.00  0.00     0.338 C 
ATOM     35  O   UNL A   1      46.260  23.142  26.181  1.00  0.00    -0.246 OA
BRANCH  34  36
ATOM     36  C   UNL A   1      44.519  24.104  27.497  1.00  0.00     0.060 A 
ATOM     37  C   UNL A   1      44.694  25.456  27.191  1.00  0.00     0.016 A 
ATOM     38  C   UNL A   1      43.790  23.754  28.628  1.00  0.00     0.016 A 
ATOM     39  C   UNL A   1      44.208  26.458  28.027  1.00  0.00     0.010 A 
ATOM     40  C   UNL A   1      43.228  24.758  29.427  1.00  0.00     0.010 A 
ATOM     41  C   UNL A   1      43.451  26.121  29.150  1.00  0.00    -0.014 A 
BRANCH  41  42
ATOM     42  C   UNL A   1      42.931  27.176  30.057  1.00  0.00     0.031 A 
ATOM     43  C   UNL A   1      43.597  27.416  31.384  1.00  0.00     0.074 A 
ATOM     44  C   UNL A   1      41.866  27.925  29.709  1.00  0.00     0.049 A 
ATOM     45  N   UNL A   1      43.209  28.161  32.388  1.00  0.00    -0.248 NA
ATOM     46  C   UNL A   1      44.878  26.733  31.604  1.00  0.00     0.031 C 
ATOM     47  C   UNL A   1      41.160  27.870  28.427  1.00  0.00     0.029 A 
ATOM     48  N   UNL A   1      41.172  28.867  30.429  1.00  0.00    -0.354 N 
ATOM     49  C   UNL A   1      44.190  28.016  33.363  1.00  0.00     0.074 A 
ATOM     50  C   UNL A   1      45.189  27.116  32.834  1.00  0.00     0.031 C 
ATOM     51  C   UNL A   1      40.123  28.721  28.460  1.00  0.00     0.029 A 
ATOM     52  C   UNL A   1      40.045  29.321  29.788  1.00  0.00     0.049 A 
ATOM     53  H   UNL A   1      41.454  29.186  31.316  1.00  0.00     0.167 HD
ATOM     54  C   UNL A   1      44.248  28.575  34.594  1.00  0.00     0.031 A 
ATOM     55  C   UNL A   1      39.023  30.074  30.237  1.00  0.00     0.031 A 
ATOM     56  C   UNL A   1      43.248  29.454  35.135  1.00  0.00     0.049 A 
ATOM     57  C   UNL A   1      39.032  30.561  31.659  1.00  0.00     0.074 A 
ATOM     58  C   UNL A   1      43.216  30.062  36.378  1.00  0.00     0.029 A 
ATOM     59  N   UNL A   1      42.097  29.837  34.470  1.00  0.00    -0.354 N 
ATOM     60  N   UNL A   1      39.955  30.412  32.579  1.00  0.00    -0.248 NA
ATOM     61  C   UNL A   1      37.849  31.309  32.109  1.00  0.00     0.031 C 
ATOM     62  C   UNL A   1      42.010  30.760  36.490  1.00  0.00     0.029 A 
ATOM     63  C   UNL A   1      41.322  30.636  35.293  1.00  0.00     0.049 A 
ATOM     64  H   UNL A   1      41.862  29.580  33.548  1.00  0.00     0.167 HD
ATOM     65  C   UNL A   1      39.473  31.065  33.706  1.00  0.00     0.074 A 
ATOM     66  C   UNL A   1      38.187  31.626  33.350  1.00  0.00     0.031 C 
ATOM     67  C   UNL A   1      40.045  31.187  34.929  1.00  0.00     0.031 A 
BRANCH  54  68
ATOM     68  C   UNL A   1      45.408  28.203  35.471  1.00  0.00    -0.014 A 
ATOM     69  C   UNL A   1      46.497  29.068  35.651  1.00  0.00     0.009 A 
ATOM     70  C   UNL A   1      45.379  26.988  36.172  1.00  0.00     0.009 A 
ATOM     71  C   UNL A   1      47.543  28.715  36.508  1.00  0.00     0.001 A 
ATOM     72  C   UNL A   1      46.414  26.646  37.042  1.00  0.00     0.001 A 
ATOM     73  C   UNL A   1      47.496  27.508  37.207  1.00  0.00     0.000 A 
ENDBRANCH  54  68
BRANCH  55  74
ATOM     74  C   UNL A   1      37.850  30.337  29.362  1.00  0.00    -0.014 A 
ATOM     75  C   UNL A   1      37.662  31.592  28.766  1.00  0.00     0.009 A 
ATOM     76  C   UNL A   1      36.887  29.335  29.153  1.00  0.00     0.009 A 
ATOM     77  C   UNL A   1      36.522  31.845  27.999  1.00  0.00     0.001 A 
ATOM     78  C   UNL A   1      35.766  29.581  28.361  1.00  0.00     0.001 A 
ATOM     79  C   UNL A   1      35.578  30.840  27.794  1.00  0.00     0.000 A 
ENDBRANCH  55  74
BRANCH  67  80
ATOM     80  C   UNL A   1      39.300  31.986  35.958  1.00  0.00    -0.014 A 
ATOM     81  C   UNL A   1      38.328  31.393  36.779  1.00  0.00     0.009 A 
ATOM     82  C   UNL A   1      39.599  33.348  36.129  1.00  0.00     0.009 A 
ATOM     83  C   UNL A   1      37.646  32.156  37.727  1.00  0.00     0.001 A 
ATOM     84  C   UNL A   1      38.935  34.101  37.099  1.00  0.00     0.001 A 
ATOM     85  C   UNL A   1      37.952  33.508  37.889  1.00  0.00     0.000 A 
ENDBRANCH  67  80
ENDBRANCH  41  42
ENDBRANCH  34  36
ENDBRANCH  33  34
ENDBRANCH  32  33
ENDBRANCH  31  32
ENDBRANCH  30  31
ENDBRANCH  29  30
ENDBRANCH   1  29
TORSDOF 19
ENDMDL
MODEL 2
REMARK VINA RESULT:      -9.9      5.063     10.246
REMARK SMILES Cc1nccnc1N1CCC2(CCC(=O)N([C@@H](C)C(=O)OCCOCCOCCOC(=O)c3ccc(-c4c5nc(c(-c6ccccc6)c6ccc([nH]6)c(-c6ccccc6)c6nc(c(-c7ccccc7)c7ccc4[nH]7)C=C6)C=C5)cc3)C2)CC1
REMARK SMILES IDX 25 1 24 2 23 3 22 4 21 5 19 6 20 7 17 8 18 9 16 10 8 11 9 12
REMARK SMILES IDX 83 13 10 14 82 15 11 16 12 17 81 18 13 19 14 20 15 21 7 22
REMARK SMILES IDX 1 23 2 24 3 25 4 26 6 27 5 28 26 29 27 30 28 31 29 32 30 33
REMARK SMILES IDX 31 34 32 35 33 36 34 37 80 38 35 39 79 40 36 41 37 42 38 43
REMARK SMILES IDX 73 44 39 45 78 46 72 47 74 48 40 49 77 50 71 51 70 52 41 54
REMARK SMILES IDX 63 55 48 56 62 57 49 58 52 59 61 60 75 61 50 62 51 63 60 65
REMARK SMILES IDX 76 66 53 67 42 68 43 69 47 70 44 71 46 72 45 73 64 74 65 75
REMARK SMILES IDX 69 76 66 77 68 78 67 79 54 80 55 81 59 82 56 83 58 84 57 85
REMARK H PARENT 74 53 52 64
REMARK Flexibility Score: inf
ROOT
ATOM      1  C   UNL A   1      32.219  28.333  25.198  1.00  0.00     0.188 C 
ENDROOT
BRANCH   1   2
ATOM      2  O   UNL A   1      31.197  28.200  24.222  1.00  0.00    -0.376 OA
BRANCH   2   3
ATOM      3  C   UNL A   1      30.313  27.087  24.324  1.00  0.00     0.202 C 
BRANCH   3   4
ATOM      4  C   UNL A   1      30.479  26.201  25.563  1.00  0.00     0.261 C 
BRANCH   4   5
ATOM      5  O   UNL A   1      30.614  24.797  25.240  1.00  0.00    -0.462 OA
BRANCH   5   6
ATOM      6  C   UNL A   1      30.609  23.934  26.284  1.00  0.00     0.328 C 
ATOM      7  O   UNL A   1      29.825  24.022  27.229  1.00  0.00    -0.250 OA
BRANCH   6   8
ATOM      8  C   UNL A   1      31.635  22.759  26.203  1.00  0.00     0.192 C 
ATOM      9  C   UNL A   1      32.023  22.395  27.640  1.00  0.00     0.044 C 
BRANCH   8  10
ATOM     10  N   UNL A   1      32.824  22.730  25.297  1.00  0.00    -0.329 N 
ATOM     11  N   UNL A   1      38.058  22.256  25.627  1.00  0.00    -0.355 N 
ATOM     12  C   UNL A   1      37.188  21.303  24.959  1.00  0.00     0.119 C 
ATOM     13  C   UNL A   1      37.907  23.628  25.164  1.00  0.00     0.119 C 
ATOM     14  C   UNL A   1      35.765  21.675  25.350  1.00  0.00     0.030 C 
ATOM     15  C   UNL A   1      36.470  24.092  25.477  1.00  0.00     0.030 C 
ATOM     16  C   UNL A   1      35.344  23.114  25.006  1.00  0.00    -0.008 C 
ATOM     17  C   UNL A   1      35.052  23.277  23.508  1.00  0.00     0.019 C 
ATOM     18  C   UNL A   1      34.027  23.445  25.757  1.00  0.00     0.127 C 
ATOM     19  C   UNL A   1      33.862  22.433  23.060  1.00  0.00     0.101 C 
ATOM     20  C   UNL A   1      32.620  22.537  23.936  1.00  0.00     0.223 C 
ATOM     21  O   UNL A   1      31.504  22.350  23.456  1.00  0.00    -0.275 OA
BRANCH  11  22
ATOM     22  C   UNL A   1      39.250  21.763  26.128  1.00  0.00     0.150 A 
ATOM     23  C   UNL A   1      39.639  23.788  27.630  1.00  0.00     0.071 C 
ATOM     24  C   UNL A   1      40.030  22.447  27.086  1.00  0.00     0.080 A 
ATOM     25  N   UNL A   1      41.148  21.903  27.655  1.00  0.00    -0.256 NA
ATOM     26  C   UNL A   1      41.445  20.641  27.292  1.00  0.00     0.131 A 
ATOM     27  N   UNL A   1      39.598  20.500  25.779  1.00  0.00    -0.236 NA
ATOM     28  C   UNL A   1      40.682  19.953  26.377  1.00  0.00     0.133 A 
ENDBRANCH  11  22
ENDBRANCH   8  10
ENDBRANCH   6   8
ENDBRANCH   5   6
ENDBRANCH   4   5
ENDBRANCH   3   4
ENDBRANCH   2   3
ENDBRANCH   1   2
BRANCH   1  29
ATOM     29  C   UNL A   1      32.687  29.742  25.581  1.00  0.00     0.188 C 
BRANCH  29  30
ATOM     30  O   UNL A   1      32.775  30.011  26.968  1.00  0.00    -0.376 OA
BRANCH  30  31
ATOM     31  C   UNL A   1      34.058  30.440  27.415  1.00  0.00     0.202 C 
BRANCH  31  32
ATOM     32  C   UNL A   1      35.116  29.352  27.240  1.00  0.00     0.261 C 
BRANCH  32  33
ATOM     33  O   UNL A   1      36.431  29.845  27.586  1.00  0.00    -0.460 OA
BRANCH  33  34
ATOM     34  C   UNL A   1      36.954  29.406  28.754  1.00  0.00     0.338 C 
ATOM     35  O   UNL A   1      36.379  29.318  29.821  1.00  0.00    -0.246 OA
BRANCH  34  36
ATOM     36  C   UNL A   1      38.375  29.040  28.546  1.00  0.00     0.060 A 
ATOM     37  C   UNL A   1      39.145  28.487  29.572  1.00  0.00     0.016 A 
ATOM     38  C   UNL A   1      38.977  29.327  27.326  1.00  0.00     0.016 A 
ATOM     39  C   UNL A   1      40.513  28.275  29.420  1.00  0.00     0.010 A 
ATOM     40  C   UNL A   1      40.336  29.038  27.141  1.00  0.00     0.010 A 
ATOM     41  C   UNL A   1      41.124  28.533  28.193  1.00  0.00    -0.014 A 
BRANCH  41  42
ATOM     42  C   UNL A   1      42.584  28.320  28.015  1.00  0.00     0.031 A 
ATOM     43  C   UNL A   1      43.544  29.438  28.317  1.00  0.00     0.074 A 
ATOM     44  C   UNL A   1      43.063  27.137  27.582  1.00  0.00     0.049 A 
ATOM     45  N   UNL A   1      44.827  29.522  28.074  1.00  0.00    -0.248 NA
ATOM     46  C   UNL A   1      42.984  30.614  28.996  1.00  0.00     0.031 C 
ATOM     47  C   UNL A   1      42.271  25.933  27.322  1.00  0.00     0.029 A 
ATOM     48  N   UNL A   1      44.346  26.767  27.257  1.00  0.00    -0.354 N 
ATOM     49  C   UNL A   1      45.219  30.767  28.551  1.00  0.00     0.074 A 
ATOM     50  C   UNL A   1      44.043  31.404  29.098  1.00  0.00     0.031 C 
ATOM     51  C   UNL A   1      43.080  24.968  26.858  1.00  0.00     0.029 A 
ATOM     52  C   UNL A   1      44.428  25.508  26.713  1.00  0.00     0.049 A 
ATOM     53  H   UNL A   1      45.129  27.345  27.399  1.00  0.00     0.167 HD
ATOM     54  C   UNL A   1      46.447  31.335  28.528  1.00  0.00     0.031 A 
ATOM     55  C   UNL A   1      45.450  24.882  26.099  1.00  0.00     0.031 A 
ATOM     56  C   UNL A   1      47.617  30.717  27.967  1.00  0.00     0.049 A 
ATOM     57  C   UNL A   1      46.766  25.591  25.946  1.00  0.00     0.074 A 
ATOM     58  C   UNL A   1      48.903  31.219  27.887  1.00  0.00     0.029 A 
ATOM     59  N   UNL A   1      47.636  29.466  27.375  1.00  0.00    -0.354 N 
ATOM     60  N   UNL A   1      47.127  26.771  26.389  1.00  0.00    -0.248 NA
ATOM     61  C   UNL A   1      47.814  24.884  25.195  1.00  0.00     0.031 C 
ATOM     62  C   UNL A   1      49.688  30.299  27.186  1.00  0.00     0.029 A 
ATOM     63  C   UNL A   1      48.903  29.198  26.885  1.00  0.00     0.049 A 
ATOM     64  H   UNL A   1      46.864  28.857  27.311  1.00  0.00     0.167 HD
ATOM     65  C   UNL A   1      48.447  26.937  25.989  1.00  0.00     0.074 A 
ATOM     66  C   UNL A   1      48.828  25.731  25.285  1.00  0.00     0.031 C 
ATOM     67  C   UNL A   1      49.270  27.996  26.186  1.00  0.00     0.031 A 
BRANCH  54  68
ATOM     68  C   UNL A   1      46.579  32.727  29.073  1.00  0.00    -0.014 A 
ATOM     69  C   UNL A   1      46.414  33.853  28.254  1.00  0.00     0.009 A 
ATOM     70  C   UNL A   1      46.816  32.909  30.445  1.00  0.00     0.009 A 
ATOM     71  C   UNL A   1      46.499  35.137  28.798  1.00  0.00     0.001 A 
ATOM     72  C   UNL A   1      46.881  34.192  30.989  1.00  0.00     0.001 A 
ATOM     73  C   UNL A   1      46.725  35.305  30.164  1.00  0.00     0.000 A 
ENDBRANCH  54  68
BRANCH  55  74
ATOM     74  C   UNL A   1      45.244  23.541  25.489  1.00  0.00    -0.014 A 
ATOM     75  C   UNL A   1      45.620  22.375  26.170  1.00  0.00     0.009 A 
ATOM     76  C   UNL A   1      44.703  23.429  24.197  1.00  0.00     0.009 A 
ATOM     77  C   UNL A   1      45.482  21.126  25.560  1.00  0.00     0.001 A 
ATOM     78  C   UNL A   1      44.537  22.178  23.603  1.00  0.00     0.001 A 
ATOM     79  C   UNL A   1      44.937  21.028  24.280  1.00  0.00     0.000 A 
ENDBRANCH  55  74
BRANCH  67  80
ATOM     80  C   UNL A   1      50.672  27.881  25.664  1.00  0.00    -0.014 A 
ATOM     81  C   UNL A   1      50.998  28.276  24.358  1.00  0.00     0.009 A 
ATOM     82  C   UNL A   1      51.689  27.400  26.505  1.00  0.00     0.009 A 
ATOM     83  C   UNL A   1      52.309  28.158  23.892  1.00  0.00     0.001 A 
ATOM     84  C   UNL A   1      53.004  27.311  26.046  1.00  0.00     0.001 A 
ATOM     85  C   UNL A   1      53.310  27.680  24.737  1.00  0.00     0.000 A 
ENDBRANCH  67  80
ENDBRANCH  41  42
ENDBRANCH  34  36
ENDBRANCH  33  34
ENDBRANCH  32  33
ENDBRANCH  31  32
ENDBRANCH  30  31
ENDBRANCH  29  30
ENDBRANCH   1  29
TORSDOF 19
ENDMDL
MODEL 3
REMARK VINA RESULT:      -9.9      4.578      9.583
REMARK SMILES Cc1nccnc1N1CCC2(CCC(=O)N([C@@H](C)C(=O)OCCOCCOCCOC(=O)c3ccc(-c4c5nc(c(-c6ccccc6)c6ccc([nH]6)c(-c6ccccc6)c6nc(c(-c7ccccc7)c7ccc4[nH]7)C=C6)C=C5)cc3)C2)CC1
REMARK SMILES IDX 25 1 24 2 23 3 22 4 21 5 19 6 20 7 17 8 18 9 16 10 8 11 9 12
REMARK SMILES IDX 83 13 10 14 82 15 11 16 12 17 81 18 13 19 14 20 15 21 7 22
REMARK SMILES IDX 1 23 2 24 3 25 4 26 6 27 5 28 26 29 27 30 28 31 29 32 30 33
REMARK SMILES IDX 31 34 32 35 33 36 34 37 80 38 35 39 79 40 36 41 37 42 38 43
REMARK SMILES IDX 73 44 39 45 78 46 72 47 74 48 40 49 77 50 71 51 70 52 41 54
REMARK SMILES IDX 63 55 48 56 62 57 49 58 52 59 61 60 75 61 50 62 51 63 60 65
REMARK SMILES IDX 76 66 53 67 42 68 43 69 47 70 44 71 46 72 45 73 64 74 65 75
REMARK SMILES IDX 69 76 66 77 68 78 67 79 54 80 55 81 59 82 56 83 58 84 57 85
REMARK H PARENT 74 53 52 64
REMARK Flexibility Score: inf
ROOT
ATOM      1  C   UNL A   1      30.467  30.859  24.810  1.00  0.00     0.188 C 
ENDROOT
BRANCH   1   2
ATOM      2  O   UNL A   1      29.579  30.295  23.857  1.00  0.00    -0.376 OA
BRANCH   2   3
ATOM      3  C   UNL A   1      30.124  29.835  22.623  1.00  0.00     0.202 C 
BRANCH   3   4
ATOM      4  C   UNL A   1      30.047  28.326  22.368  1.00  0.00     0.261 C 
BRANCH   4   5
ATOM      5  O   UNL A   1      31.064  27.580  23.076  1.00  0.00    -0.462 OA
BRANCH   5   6
ATOM      6  C   UNL A   1      32.334  27.707  22.620  1.00  0.00     0.328 C 
ATOM      7  O   UNL A   1      32.841  28.791  22.332  1.00  0.00    -0.250 OA
BRANCH   6   8
ATOM      8  C   UNL A   1      33.162  26.387  22.527  1.00  0.00     0.192 C 
ATOM      9  C   UNL A   1      32.726  25.667  21.247  1.00  0.00     0.044 C 
BRANCH   8  10
ATOM     10  N   UNL A   1      33.352  25.421  23.653  1.00  0.00    -0.329 N 
ATOM     11  N   UNL A   1      33.272  20.223  24.486  1.00  0.00    -0.355 N 
ATOM     12  C   UNL A   1      34.447  21.063  24.650  1.00  0.00     0.119 C 
ATOM     13  C   UNL A   1      32.109  20.668  25.240  1.00  0.00     0.119 C 
ATOM     14  C   UNL A   1      34.097  22.412  24.038  1.00  0.00     0.030 C 
ATOM     15  C   UNL A   1      31.697  22.061  24.723  1.00  0.00     0.030 C 
ATOM     16  C   UNL A   1      32.860  23.103  24.635  1.00  0.00    -0.008 C 
ATOM     17  C   UNL A   1      33.161  23.722  26.006  1.00  0.00     0.019 C 
ATOM     18  C   UNL A   1      32.436  24.268  23.702  1.00  0.00     0.127 C 
ATOM     19  C   UNL A   1      34.194  24.841  25.916  1.00  0.00     0.101 C 
ATOM     20  C   UNL A   1      33.945  25.874  24.825  1.00  0.00     0.223 C 
ATOM     21  O   UNL A   1      34.356  27.026  24.956  1.00  0.00    -0.275 OA
BRANCH  11  22
ATOM     22  C   UNL A   1      33.498  18.893  24.176  1.00  0.00     0.150 A 
ATOM     23  C   UNL A   1      32.065  18.975  22.068  1.00  0.00     0.071 C 
ATOM     24  C   UNL A   1      32.956  18.259  23.037  1.00  0.00     0.080 A 
ATOM     25  N   UNL A   1      33.274  16.977  22.681  1.00  0.00    -0.256 NA
ATOM     26  C   UNL A   1      34.184  16.356  23.454  1.00  0.00     0.131 A 
ATOM     27  N   UNL A   1      34.398  18.220  24.936  1.00  0.00    -0.236 NA
ATOM     28  C   UNL A   1      34.739  16.968  24.555  1.00  0.00     0.133 A 
ENDBRANCH  11  22
ENDBRANCH   8  10
ENDBRANCH   6   8
ENDBRANCH   5   6
ENDBRANCH   4   5
ENDBRANCH   3   4
ENDBRANCH   2   3
ENDBRANCH   1   2
BRANCH   1  29
ATOM     29  C   UNL A   1      31.619  29.997  25.337  1.00  0.00     0.188 C 
BRANCH  29  30
ATOM     30  O   UNL A   1      31.811  30.005  26.740  1.00  0.00    -0.376 OA
BRANCH  30  31
ATOM     31  C   UNL A   1      32.121  31.279  27.295  1.00  0.00     0.202 C 
BRANCH  31  32
ATOM     32  C   UNL A   1      33.620  31.574  27.242  1.00  0.00     0.261 C 
BRANCH  32  33
ATOM     33  O   UNL A   1      34.365  30.632  28.049  1.00  0.00    -0.460 OA
BRANCH  33  34
ATOM     34  C   UNL A   1      35.134  31.152  29.032  1.00  0.00     0.338 C 
ATOM     35  O   UNL A   1      34.832  32.050  29.794  1.00  0.00    -0.246 OA
BRANCH  34  36
ATOM     36  C   UNL A   1      36.442  30.454  29.049  1.00  0.00     0.060 A 
ATOM     37  C   UNL A   1      37.065  30.099  30.248  1.00  0.00     0.016 A 
ATOM     38  C   UNL A   1      37.100  30.219  27.847  1.00  0.00     0.016 A 
ATOM     39  C   UNL A   1      38.353  29.573  30.268  1.00  0.00     0.010 A 
ATOM     40  C   UNL A   1      38.364  29.614  27.859  1.00  0.00     0.010 A 
ATOM     41  C   UNL A   1      39.014  29.307  29.069  1.00  0.00    -0.014 A 
BRANCH  41  42
ATOM     42  C   UNL A   1      40.394  28.753  29.072  1.00  0.00     0.031 A 
ATOM     43  C   UNL A   1      41.564  29.665  29.319  1.00  0.00     0.074 A 
ATOM     44  C   UNL A   1      40.613  27.441  28.853  1.00  0.00     0.049 A 
ATOM     45  N   UNL A   1      42.846  29.426  29.199  1.00  0.00    -0.248 NA
ATOM     46  C   UNL A   1      41.248  31.025  29.773  1.00  0.00     0.031 C 
ATOM     47  C   UNL A   1      39.583  26.416  28.677  1.00  0.00     0.029 A 
ATOM     48  N   UNL A   1      41.794  26.752  28.714  1.00  0.00    -0.354 N 
ATOM     49  C   UNL A   1      43.482  30.613  29.543  1.00  0.00     0.074 A 
ATOM     50  C   UNL A   1      42.452  31.569  29.876  1.00  0.00     0.031 C 
ATOM     51  C   UNL A   1      40.174  25.237  28.431  1.00  0.00     0.029 A 
ATOM     52  C   UNL A   1      41.618  25.438  28.354  1.00  0.00     0.049 A 
ATOM     53  H   UNL A   1      42.679  27.159  28.857  1.00  0.00     0.167 HD
ATOM     54  C   UNL A   1      44.807  30.885  29.570  1.00  0.00     0.031 A 
ATOM     55  C   UNL A   1      42.506  24.516  27.938  1.00  0.00     0.031 A 
ATOM     56  C   UNL A   1      45.837  29.946  29.219  1.00  0.00     0.049 A 
ATOM     57  C   UNL A   1      43.958  24.885  27.828  1.00  0.00     0.074 A 
ATOM     58  C   UNL A   1      47.208  30.135  29.205  1.00  0.00     0.029 A 
ATOM     59  N   UNL A   1      45.606  28.646  28.806  1.00  0.00    -0.354 N 
ATOM     60  N   UNL A   1      44.553  26.010  28.143  1.00  0.00    -0.248 NA
ATOM     61  C   UNL A   1      44.862  23.858  27.290  1.00  0.00     0.031 C 
ATOM     62  C   UNL A   1      47.803  28.967  28.718  1.00  0.00     0.029 A 
ATOM     63  C   UNL A   1      46.806  28.033  28.488  1.00  0.00     0.049 A 
ATOM     64  H   UNL A   1      44.720  28.219  28.745  1.00  0.00     0.167 HD
ATOM     65  C   UNL A   1      45.899  25.818  27.861  1.00  0.00     0.074 A 
ATOM     66  C   UNL A   1      46.037  24.464  27.368  1.00  0.00     0.031 C 
ATOM     67  C   UNL A   1      46.930  26.687  27.998  1.00  0.00     0.031 A 
BRANCH  54  68
ATOM     68  C   UNL A   1      45.222  32.281  29.934  1.00  0.00    -0.014 A 
ATOM     69  C   UNL A   1      45.561  32.624  31.251  1.00  0.00     0.009 A 
ATOM     70  C   UNL A   1      45.327  33.253  28.927  1.00  0.00     0.009 A 
ATOM     71  C   UNL A   1      45.985  33.920  31.554  1.00  0.00     0.001 A 
ATOM     72  C   UNL A   1      45.770  34.541  29.228  1.00  0.00     0.001 A 
ATOM     73  C   UNL A   1      46.096  34.874  30.541  1.00  0.00     0.000 A 
ENDBRANCH  54  68
BRANCH  55  74
ATOM     74  C   UNL A   1      42.037  23.176  27.496  1.00  0.00    -0.014 A 
ATOM     75  C   UNL A   1      41.479  22.992  26.223  1.00  0.00     0.009 A 
ATOM     76  C   UNL A   1      42.112  22.078  28.370  1.00  0.00     0.009 A 
ATOM     77  C   UNL A   1      40.983  21.741  25.844  1.00  0.00     0.001 A 
ATOM     78  C   UNL A   1      41.644  20.824  27.977  1.00  0.00     0.001 A 
ATOM     79  C   UNL A   1      41.069  20.659  26.719  1.00  0.00     0.000 A 
ENDBRANCH  55  74
BRANCH  67  80
ATOM     80  C   UNL A   1      48.301  26.187  27.643  1.00  0.00    -0.014 A 
ATOM     81  C   UNL A   1      49.079  25.476  28.568  1.00  0.00     0.009 A 
ATOM     82  C   UNL A   1      48.806  26.405  26.351  1.00  0.00     0.009 A 
ATOM     83  C   UNL A   1      50.351  25.023  28.218  1.00  0.00     0.001 A 
ATOM     84  C   UNL A   1      50.067  25.925  25.994  1.00  0.00     0.001 A 
ATOM     85  C   UNL A   1      50.842  25.244  26.931  1.00  0.00     0.000 A 
ENDBRANCH  67  80
ENDBRANCH  41  42
ENDBRANCH  34  36
ENDBRANCH  33  34
ENDBRANCH  32  33
ENDBRANCH  31  32
ENDBRANCH  30  31
ENDBRANCH  29  30
ENDBRANCH   1  29
TORSDOF 19
ENDMDL
