MODEL 1
REMARK VINA RESULT:     -11.8      0.000      0.000
REMARK SMILES COc1ccc(NC(=O)N[C@@H]2C=C[C@H](C(=O)OCCOCCOCCOC(=O)c3ccc(-c4c5nc(c(-c6ccccc6)c6ccc([nH]6)c(-c6ccccc6)c6nc(c(-c7ccccc7)c7ccc4[nH]7)C=C6)C=C5)cc3)C2)c(C)c1
REMARK SMILES IDX 21 1 20 2 19 3 18 4 17 5 15 6 16 7 14 8 11 9 12 10 77 11
REMARK SMILES IDX 13 12 10 13 7 14 8 15 9 17 6 19 3 20 4 21 80 22 5 23 78 24
REMARK SMILES IDX 79 25 2 26 1 27 22 28 23 29 24 30 25 31 26 32 27 33 28 34
REMARK SMILES IDX 29 35 30 36 76 37 31 38 75 39 32 40 33 41 34 42 69 43 35 44
REMARK SMILES IDX 74 45 68 46 70 47 36 48 73 49 67 50 66 51 37 53 59 54 44 55
REMARK SMILES IDX 58 56 45 57 48 58 57 59 71 60 46 61 47 62 56 64 72 65 49 66
REMARK SMILES IDX 38 67 39 68 43 69 40 70 42 71 41 72 60 73 61 74 65 75 62 76
REMARK SMILES IDX 64 77 63 78 50 79 51 80 55 81 52 82 54 83 53 84
REMARK H PARENT 7 16 10 18 70 52 48 63
REMARK Flexibility Score: inf
ROOT
ATOM      1  C   UNL A   1      41.767  21.442  27.727  1.00  0.00     0.188 C 
ENDROOT
BRANCH   1   2
ATOM      2  O   UNL A   1      41.810  20.445  26.730  1.00  0.00    -0.376 OA
BRANCH   2   3
ATOM      3  C   UNL A   1      40.540  20.245  26.149  1.00  0.00     0.202 C 
BRANCH   3   4
ATOM      4  C   UNL A   1      39.517  21.411  26.223  1.00  0.00     0.261 C 
BRANCH   4   5
ATOM      5  O   UNL A   1      37.855  21.605  25.483  1.00  0.00    -0.463 OA
BRANCH   5   6
ATOM      6  C   UNL A   1      36.512  21.467  24.850  1.00  0.00     0.312 C 
ATOM      7  O   UNL A   1      35.895  20.423  25.057  1.00  0.00    -0.252 OA
BRANCH   6   8
ATOM      8  C   UNL A   1      35.574  22.735  23.702  1.00  0.00     0.124 C 
ATOM      9  C   UNL A   1      33.733  25.159  24.789  1.00  0.00     0.107 C 
ATOM     10  C   UNL A   1      32.871  24.488  23.125  1.00  0.00    -0.006 C 
ATOM     11  C   UNL A   1      35.548  24.350  24.960  1.00  0.00     0.048 C 
ATOM     12  C   UNL A   1      33.641  23.103  22.599  1.00  0.00    -0.014 C 
BRANCH   9  13
ATOM     13  N   UNL A   1      32.982  24.365  26.178  1.00  0.00    -0.332 N 
ATOM     14  N   UNL A   1      30.692  25.418  26.434  1.00  0.00    -0.308 N 
ATOM     15  C   UNL A   1      31.624  24.371  26.719  1.00  0.00     0.319 C 
ATOM     16  H   UNL A   1      29.774  25.309  26.769  1.00  0.00     0.171 HD
ATOM     17  O   UNL A   1      31.263  23.465  27.473  1.00  0.00    -0.248 OA
ATOM     18  H   UNL A   1      33.606  23.805  26.693  1.00  0.00     0.165 HD
BRANCH  14  19
ATOM     19  C   UNL A   1      30.978  26.577  25.724  1.00  0.00     0.046 A 
ATOM     20  C   UNL A   1      29.991  29.349  23.462  1.00  0.00     0.119 A 
ATOM     21  C   UNL A   1      29.340  27.736  23.290  1.00  0.00     0.048 A 
ATOM     22  C   UNL A   1      31.061  29.474  24.801  1.00  0.00     0.052 A 
ATOM     23  C   UNL A   1      30.128  26.420  24.621  1.00  0.00     0.030 A 
ATOM     24  C   UNL A   1      31.456  28.069  25.832  1.00  0.00    -0.024 A 
ATOM     25  C   UNL A   1      31.838  28.284  27.163  1.00  0.00     0.047 C 
BRANCH  20  26
ATOM     26  O   UNL A   1      29.752  30.399  22.649  1.00  0.00    -0.497 OA
ATOM     27  C   UNL A   1      28.393  30.815  22.662  1.00  0.00     0.278 C 
ENDBRANCH  20  26
ENDBRANCH  14  19
ENDBRANCH   9  13
ENDBRANCH   6   8
ENDBRANCH   5   6
ENDBRANCH   4   5
ENDBRANCH   3   4
ENDBRANCH   2   3
ENDBRANCH   1   2
BRANCH   1  28
ATOM     28  C   UNL A   1      42.775  22.547  27.513  1.00  0.00     0.188 C 
BRANCH  28  29
ATOM     29  O   UNL A   1      42.704  23.134  26.240  1.00  0.00    -0.376 OA
BRANCH  29  30
ATOM     30  C   UNL A   1      43.453  24.250  25.832  1.00  0.00     0.202 C 
BRANCH  30  31
ATOM     31  C   UNL A   1      42.411  25.180  25.307  1.00  0.00     0.261 C 
BRANCH  31  32
ATOM     32  O   UNL A   1      42.402  26.439  26.099  1.00  0.00    -0.460 OA
BRANCH  32  33
ATOM     33  C   UNL A   1      41.733  26.593  27.297  1.00  0.00     0.338 C 
ATOM     34  O   UNL A   1      40.672  26.024  27.533  1.00  0.00    -0.246 OA
BRANCH  33  35
ATOM     35  C   UNL A   1      42.397  27.496  28.345  1.00  0.00     0.060 A 
ATOM     36  C   UNL A   1      42.115  27.368  29.694  1.00  0.00     0.016 A 
ATOM     37  C   UNL A   1      43.181  28.609  28.043  1.00  0.00     0.016 A 
ATOM     38  C   UNL A   1      42.328  28.487  30.547  1.00  0.00     0.010 A 
ATOM     39  C   UNL A   1      43.143  29.776  28.884  1.00  0.00     0.010 A 
ATOM     40  C   UNL A   1      42.382  29.799  30.064  1.00  0.00    -0.014 A 
BRANCH  40  41
ATOM     41  C   UNL A   1      41.769  31.244  30.769  1.00  0.00     0.031 A 
ATOM     42  C   UNL A   1      42.767  31.579  31.795  1.00  0.00     0.074 A 
ATOM     43  C   UNL A   1      40.568  32.166  30.642  1.00  0.00     0.049 A 
ATOM     44  N   UNL A   1      42.447  32.298  32.796  1.00  0.00    -0.248 NA
ATOM     45  C   UNL A   1      44.087  30.948  31.922  1.00  0.00     0.031 C 
ATOM     46  C   UNL A   1      40.372  33.587  31.066  1.00  0.00     0.029 A 
ATOM     47  N   UNL A   1      39.215  32.087  29.939  1.00  0.00    -0.354 N 
ATOM     48  C   UNL A   1      43.519  32.353  33.625  1.00  0.00     0.074 A 
ATOM     49  C   UNL A   1      44.467  31.400  33.117  1.00  0.00     0.031 C 
ATOM     50  C   UNL A   1      39.110  34.064  30.835  1.00  0.00     0.029 A 
ATOM     51  C   UNL A   1      38.220  33.048  30.267  1.00  0.00     0.049 A 
ATOM     52  H   UNL A   1      39.036  31.386  29.272  1.00  0.00     0.167 HD
ATOM     53  C   UNL A   1      43.511  33.381  34.499  1.00  0.00     0.031 A 
ATOM     54  C   UNL A   1      36.843  32.847  30.530  1.00  0.00     0.031 A 
ATOM     55  C   UNL A   1      42.160  33.996  34.560  1.00  0.00     0.049 A 
ATOM     56  C   UNL A   1      36.658  33.200  32.120  1.00  0.00     0.074 A 
ATOM     57  C   UNL A   1      41.646  35.064  33.841  1.00  0.00     0.029 A 
ATOM     58  N   UNL A   1      41.035  33.284  35.021  1.00  0.00    -0.354 N 
ATOM     59  N   UNL A   1      37.714  33.492  32.858  1.00  0.00    -0.248 NA
ATOM     60  C   UNL A   1      35.495  32.991  33.005  1.00  0.00     0.031 C 
ATOM     61  C   UNL A   1      40.231  35.026  33.911  1.00  0.00     0.029 A 
ATOM     62  C   UNL A   1      39.840  33.915  34.635  1.00  0.00     0.049 A 
ATOM     63  H   UNL A   1      41.080  32.453  35.547  1.00  0.00     0.167 HD
ATOM     64  C   UNL A   1      37.477  33.396  34.203  1.00  0.00     0.074 A 
ATOM     65  C   UNL A   1      36.037  33.154  34.239  1.00  0.00     0.031 C 
ATOM     66  C   UNL A   1      38.497  33.519  35.130  1.00  0.00     0.031 A 
BRANCH  53  67
ATOM     67  C   UNL A   1      44.819  34.090  34.771  1.00  0.00    -0.014 A 
ATOM     68  C   UNL A   1      45.423  33.866  36.015  1.00  0.00     0.009 A 
ATOM     69  C   UNL A   1      45.421  35.086  33.968  1.00  0.00     0.009 A 
ATOM     70  C   UNL A   1      46.537  34.597  36.441  1.00  0.00     0.001 A 
ATOM     71  C   UNL A   1      46.536  35.823  34.387  1.00  0.00     0.001 A 
ATOM     72  C   UNL A   1      47.096  35.574  35.627  1.00  0.00     0.000 A 
ENDBRANCH  53  67
BRANCH  54  73
ATOM     73  C   UNL A   1      36.008  31.685  29.752  1.00  0.00    -0.014 A 
ATOM     74  C   UNL A   1      34.912  32.029  28.932  1.00  0.00     0.009 A 
ATOM     75  C   UNL A   1      36.365  30.319  29.594  1.00  0.00     0.009 A 
ATOM     76  C   UNL A   1      34.429  31.196  27.875  1.00  0.00     0.001 A 
ATOM     77  C   UNL A   1      35.979  29.529  28.462  1.00  0.00     0.001 A 
ATOM     78  C   UNL A   1      35.052  29.997  27.561  1.00  0.00     0.000 A 
ENDBRANCH  54  73
BRANCH  66  79
ATOM     79  C   UNL A   1      38.321  33.555  36.637  1.00  0.00    -0.014 A 
ATOM     80  C   UNL A   1      38.855  34.511  37.501  1.00  0.00     0.009 A 
ATOM     81  C   UNL A   1      37.598  32.499  37.252  1.00  0.00     0.009 A 
ATOM     82  C   UNL A   1      38.784  34.345  38.894  1.00  0.00     0.001 A 
ATOM     83  C   UNL A   1      37.453  32.371  38.629  1.00  0.00     0.001 A 
ATOM     84  C   UNL A   1      38.086  33.277  39.455  1.00  0.00     0.000 A 
ENDBRANCH  66  79
ENDBRANCH  40  41
ENDBRANCH  33  35
ENDBRANCH  32  33
ENDBRANCH  31  32
ENDBRANCH  30  31
ENDBRANCH  29  30
ENDBRANCH  28  29
ENDBRANCH   1  28
TORSDOF 20
ENDMDL
MODEL 2
REMARK VINA RESULT:     -11.6      3.690      8.987
REMARK SMILES COc1ccc(NC(=O)N[C@@H]2C=C[C@H](C(=O)OCCOCCOCCOC(=O)c3ccc(-c4c5nc(c(-c6ccccc6)c6ccc([nH]6)c(-c6ccccc6)c6nc(c(-c7ccccc7)c7ccc4[nH]7)C=C6)C=C5)cc3)C2)c(C)c1
REMARK SMILES IDX 21 1 20 2 19 3 18 4 17 5 15 6 16 7 14 8 11 9 12 10 77 11
REMARK SMILES IDX 13 12 10 13 7 14 8 15 9 17 6 19 3 20 4 21 80 22 5 23 78 24
REMARK SMILES IDX 79 25 2 26 1 27 22 28 23 29 24 30 25 31 26 32 27 33 28 34
REMARK SMILES IDX 29 35 30 36 76 37 31 38 75 39 32 40 33 41 34 42 69 43 35 44
REMARK SMILES IDX 74 45 68 46 70 47 36 48 73 49 67 50 66 51 37 53 59 54 44 55
REMARK SMILES IDX 58 56 45 57 48 58 57 59 71 60 46 61 47 62 56 64 72 65 49 66
REMARK SMILES IDX 38 67 39 68 43 69 40 70 42 71 41 72 60 73 61 74 65 75 62 76
REMARK SMILES IDX 64 77 63 78 50 79 51 80 55 81 52 82 54 83 53 84
REMARK H PARENT 7 16 10 18 70 52 48 63
REMARK Flexibility Score: inf
ROOT
ATOM      1  C   UNL A   1      37.644  29.867  29.378  1.00  0.00     0.188 C 
ENDROOT
BRANCH   1   2
ATOM      2  O   UNL A   1      36.304  29.534  29.092  1.00  0.00    -0.376 OA
BRANCH   2   3
ATOM      3  C   UNL A   1      36.033  29.640  27.711  1.00  0.00     0.202 C 
BRANCH   3   4
ATOM      4  C   UNL A   1      34.805  30.485  27.275  1.00  0.00     0.261 C 
BRANCH   4   5
ATOM      5  O   UNL A   1      33.150  29.985  26.676  1.00  0.00    -0.463 OA
BRANCH   5   6
ATOM      6  C   UNL A   1      31.940  29.328  26.103  1.00  0.00     0.312 C 
ATOM      7  O   UNL A   1      31.234  30.001  25.352  1.00  0.00    -0.252 OA
BRANCH   6   8
ATOM      8  C   UNL A   1      31.294  27.511  26.390  1.00  0.00     0.124 C 
ATOM      9  C   UNL A   1      32.721  24.862  25.208  1.00  0.00     0.107 C 
ATOM     10  C   UNL A   1      30.761  24.525  25.160  1.00  0.00    -0.006 C 
ATOM     11  C   UNL A   1      33.077  26.512  26.270  1.00  0.00     0.048 C 
ATOM     12  C   UNL A   1      29.929  25.915  25.565  1.00  0.00    -0.014 C 
BRANCH   9  13
ATOM     13  N   UNL A   1      33.231  25.476  23.630  1.00  0.00    -0.332 N 
ATOM     14  N   UNL A   1      33.450  23.448  22.128  1.00  0.00    -0.308 N 
ATOM     15  C   UNL A   1      33.340  24.863  22.308  1.00  0.00     0.319 C 
ATOM     16  H   UNL A   1      33.439  23.108  21.204  1.00  0.00     0.171 HD
ATOM     17  O   UNL A   1      33.372  25.578  21.304  1.00  0.00    -0.248 OA
ATOM     18  H   UNL A   1      33.495  26.423  23.646  1.00  0.00     0.165 HD
BRANCH  14  19
ATOM     19  C   UNL A   1      33.572  22.515  23.148  1.00  0.00     0.046 A 
ATOM     20  C   UNL A   1      33.362  19.043  24.443  1.00  0.00     0.119 A 
ATOM     21  C   UNL A   1      32.251  19.652  23.240  1.00  0.00     0.048 A 
ATOM     22  C   UNL A   1      34.547  20.210  24.878  1.00  0.00     0.052 A 
ATOM     23  C   UNL A   1      32.566  21.608  22.790  1.00  0.00     0.030 A 
ATOM     24  C   UNL A   1      34.556  21.855  24.179  1.00  0.00    -0.024 A 
ATOM     25  C   UNL A   1      35.766  22.557  24.101  1.00  0.00     0.047 C 
BRANCH  20  26
ATOM     26  O   UNL A   1      33.323  17.827  25.026  1.00  0.00    -0.497 OA
ATOM     27  C   UNL A   1      34.055  16.842  24.311  1.00  0.00     0.278 C 
ENDBRANCH  20  26
ENDBRANCH  14  19
ENDBRANCH   9  13
ENDBRANCH   6   8
ENDBRANCH   5   6
ENDBRANCH   4   5
ENDBRANCH   3   4
ENDBRANCH   2   3
ENDBRANCH   1   2
BRANCH   1  28
ATOM     28  C   UNL A   1      37.886  31.355  29.465  1.00  0.00     0.188 C 
BRANCH  28  29
ATOM     29  O   UNL A   1      36.717  32.105  29.671  1.00  0.00    -0.376 OA
BRANCH  29  30
ATOM     30  C   UNL A   1      36.379  33.268  28.962  1.00  0.00     0.202 C 
BRANCH  30  31
ATOM     31  C   UNL A   1      35.886  34.183  30.033  1.00  0.00     0.261 C 
BRANCH  31  32
ATOM     32  O   UNL A   1      34.757  33.551  30.767  1.00  0.00    -0.460 OA
BRANCH  32  33
ATOM     33  C   UNL A   1      34.594  33.614  32.137  1.00  0.00     0.338 C 
ATOM     34  O   UNL A   1      33.603  34.116  32.657  1.00  0.00    -0.246 OA
BRANCH  33  35
ATOM     35  C   UNL A   1      35.707  32.994  32.991  1.00  0.00     0.060 A 
ATOM     36  C   UNL A   1      36.513  33.771  33.806  1.00  0.00     0.016 A 
ATOM     37  C   UNL A   1      36.123  31.666  32.901  1.00  0.00     0.016 A 
ATOM     38  C   UNL A   1      37.797  33.279  34.169  1.00  0.00     0.010 A 
ATOM     39  C   UNL A   1      37.509  31.323  33.081  1.00  0.00     0.010 A 
ATOM     40  C   UNL A   1      38.461  32.296  33.426  1.00  0.00    -0.014 A 
BRANCH  40  41
ATOM     41  C   UNL A   1      40.136  32.155  33.058  1.00  0.00     0.031 A 
ATOM     42  C   UNL A   1      40.318  33.065  31.918  1.00  0.00     0.074 A 
ATOM     43  C   UNL A   1      41.359  31.391  33.539  1.00  0.00     0.049 A 
ATOM     44  N   UNL A   1      41.284  32.896  31.106  1.00  0.00    -0.248 NA
ATOM     45  C   UNL A   1      39.325  34.042  31.455  1.00  0.00     0.031 C 
ATOM     46  C   UNL A   1      42.819  31.664  33.362  1.00  0.00     0.029 A 
ATOM     47  N   UNL A   1      41.594  30.203  34.469  1.00  0.00    -0.354 N 
ATOM     48  C   UNL A   1      41.145  33.798  30.104  1.00  0.00     0.074 A 
ATOM     49  C   UNL A   1      39.852  34.400  30.284  1.00  0.00     0.031 C 
ATOM     50  C   UNL A   1      43.630  30.697  33.894  1.00  0.00     0.029 A 
ATOM     51  C   UNL A   1      42.873  29.585  34.473  1.00  0.00     0.049 A 
ATOM     52  H   UNL A   1      40.874  29.873  35.054  1.00  0.00     0.167 HD
ATOM     53  C   UNL A   1      42.269  34.046  29.399  1.00  0.00     0.031 A 
ATOM     54  C   UNL A   1      43.194  28.205  34.452  1.00  0.00     0.031 A 
ATOM     55  C   UNL A   1      43.294  33.009  29.683  1.00  0.00     0.049 A 
ATOM     56  C   UNL A   1      43.894  27.954  32.991  1.00  0.00     0.074 A 
ATOM     57  C   UNL A   1      44.308  33.010  30.628  1.00  0.00     0.029 A 
ATOM     58  N   UNL A   1      43.099  31.654  29.350  1.00  0.00    -0.354 N 
ATOM     59  N   UNL A   1      43.961  28.939  32.114  1.00  0.00    -0.248 NA
ATOM     60  C   UNL A   1      44.259  26.689  32.324  1.00  0.00     0.031 C 
ATOM     61  C   UNL A   1      44.754  31.679  30.824  1.00  0.00     0.029 A 
ATOM     62  C   UNL A   1      44.000  30.825  30.041  1.00  0.00     0.049 A 
ATOM     63  H   UNL A   1      42.420  31.330  28.714  1.00  0.00     0.167 HD
ATOM     64  C   UNL A   1      44.215  28.511  30.839  1.00  0.00     0.074 A 
ATOM     65  C   UNL A   1      44.474  27.089  31.044  1.00  0.00     0.031 C 
ATOM     66  C   UNL A   1      44.175  29.378  29.761  1.00  0.00     0.031 A 
BRANCH  53  67
ATOM     67  C   UNL A   1      42.545  35.474  28.984  1.00  0.00    -0.014 A 
ATOM     68  C   UNL A   1      43.330  36.251  29.845  1.00  0.00     0.009 A 
ATOM     69  C   UNL A   1      41.961  36.164  27.897  1.00  0.00     0.009 A 
ATOM     70  C   UNL A   1      43.505  37.626  29.652  1.00  0.00     0.001 A 
ATOM     71  C   UNL A   1      42.131  37.540  27.696  1.00  0.00     0.001 A 
ATOM     72  C   UNL A   1      42.909  38.271  28.576  1.00  0.00     0.000 A 
ENDBRANCH  53  67
BRANCH  54  73
ATOM     73  C   UNL A   1      42.243  27.118  35.206  1.00  0.00    -0.014 A 
ATOM     74  C   UNL A   1      42.170  25.792  34.730  1.00  0.00     0.009 A 
ATOM     75  C   UNL A   1      41.603  27.254  36.466  1.00  0.00     0.009 A 
ATOM     76  C   UNL A   1      41.771  24.686  35.545  1.00  0.00     0.001 A 
ATOM     77  C   UNL A   1      41.324  26.145  37.332  1.00  0.00     0.001 A 
ATOM     78  C   UNL A   1      41.470  24.853  36.888  1.00  0.00     0.000 A 
ENDBRANCH  54  73
BRANCH  66  79
ATOM     79  C   UNL A   1      44.563  29.032  28.335  1.00  0.00    -0.014 A 
ATOM     80  C   UNL A   1      43.873  28.168  27.485  1.00  0.00     0.009 A 
ATOM     81  C   UNL A   1      45.765  29.583  27.816  1.00  0.00     0.009 A 
ATOM     82  C   UNL A   1      44.422  27.779  26.252  1.00  0.00     0.001 A 
ATOM     83  C   UNL A   1      46.274  29.265  26.562  1.00  0.00     0.001 A 
ATOM     84  C   UNL A   1      45.619  28.324  25.793  1.00  0.00     0.000 A 
ENDBRANCH  66  79
ENDBRANCH  40  41
ENDBRANCH  33  35
ENDBRANCH  32  33
ENDBRANCH  31  32
ENDBRANCH  30  31
ENDBRANCH  29  30
ENDBRANCH  28  29
ENDBRANCH   1  28
TORSDOF 20
ENDMDL
MODEL 3
REMARK VINA RESULT:     -11.4      2.259      6.061
REMARK SMILES COc1ccc(NC(=O)N[C@@H]2C=C[C@H](C(=O)OCCOCCOCCOC(=O)c3ccc(-c4c5nc(c(-c6ccccc6)c6ccc([nH]6)c(-c6ccccc6)c6nc(c(-c7ccccc7)c7ccc4[nH]7)C=C6)C=C5)cc3)C2)c(C)c1
REMARK SMILES IDX 21 1 20 2 19 3 18 4 17 5 15 6 16 7 14 8 11 9 12 10 77 11
REMARK SMILES IDX 13 12 10 13 7 14 8 15 9 17 6 19 3 20 4 21 80 22 5 23 78 24
REMARK SMILES IDX 79 25 2 26 1 27 22 28 23 29 24 30 25 31 26 32 27 33 28 34
REMARK SMILES IDX 29 35 30 36 76 37 31 38 75 39 32 40 33 41 34 42 69 43 35 44
REMARK SMILES IDX 74 45 68 46 70 47 36 48 73 49 67 50 66 51 37 53 59 54 44 55
REMARK SMILES IDX 58 56 45 57 48 58 57 59 71 60 46 61 47 62 56 64 72 65 49 66
REMARK SMILES IDX 38 67 39 68 43 69 40 70 42 71 41 72 60 73 61 74 65 75 62 76
REMARK SMILES IDX 64 77 63 78 50 79 51 80 55 81 52 82 54 83 53 84
REMARK H PARENT 7 16 10 18 70 52 48 63
REMARK Flexibility Score: inf
ROOT
ATOM      1  C   UNL A   1      41.006  20.013  26.967  1.00  0.00     0.188 C 
ENDROOT
BRANCH   1   2
ATOM      2  O   UNL A   1      40.730  19.105  25.924  1.00  0.00    -0.376 OA
BRANCH   2   3
ATOM      3  C   UNL A   1      39.446  19.323  25.380  1.00  0.00     0.202 C 
BRANCH   3   4
ATOM      4  C   UNL A   1      38.818  20.733  25.550  1.00  0.00     0.261 C 
BRANCH   4   5
ATOM      5  O   UNL A   1      37.073  21.285  25.533  1.00  0.00    -0.463 OA
BRANCH   5   6
ATOM      6  C   UNL A   1      35.597  21.460  25.417  1.00  0.00     0.312 C 
ATOM      7  O   UNL A   1      34.912  21.131  26.385  1.00  0.00    -0.252 OA
BRANCH   6   8
ATOM      8  C   UNL A   1      34.570  22.146  23.907  1.00  0.00     0.124 C 
ATOM      9  C   UNL A   1      32.330  24.466  24.131  1.00  0.00     0.107 C 
ATOM     10  C   UNL A   1      31.691  23.185  22.749  1.00  0.00    -0.006 C 
ATOM     11  C   UNL A   1      34.226  24.046  24.588  1.00  0.00     0.048 C 
ATOM     12  C   UNL A   1      32.685  21.845  22.705  1.00  0.00    -0.014 C 
BRANCH   9  13
ATOM     13  N   UNL A   1      31.606  24.034  25.684  1.00  0.00    -0.332 N 
ATOM     14  N   UNL A   1      29.624  25.582  25.988  1.00  0.00    -0.308 N 
ATOM     15  C   UNL A   1      30.352  24.401  26.339  1.00  0.00     0.319 C 
ATOM     16  H   UNL A   1      28.748  25.717  26.417  1.00  0.00     0.171 HD
ATOM     17  O   UNL A   1      29.907  23.696  27.248  1.00  0.00    -0.248 OA
ATOM     18  H   UNL A   1      32.160  23.421  26.218  1.00  0.00     0.165 HD
BRANCH  14  19
ATOM     19  C   UNL A   1      30.050  26.553  25.092  1.00  0.00     0.046 A 
ATOM     20  C   UNL A   1      29.401  29.424  22.833  1.00  0.00     0.119 A 
ATOM     21  C   UNL A   1      28.252  28.123  23.031  1.00  0.00     0.048 A 
ATOM     22  C   UNL A   1      30.786  29.221  23.830  1.00  0.00     0.052 A 
ATOM     23  C   UNL A   1      28.921  26.659  24.269  1.00  0.00     0.030 A 
ATOM     24  C   UNL A   1      30.987  27.796  24.891  1.00  0.00    -0.024 A 
ATOM     25  C   UNL A   1      31.775  27.910  26.044  1.00  0.00     0.047 C 
BRANCH  20  26
ATOM     26  O   UNL A   1      29.289  30.468  21.985  1.00  0.00    -0.497 OA
ATOM     27  C   UNL A   1      28.041  31.138  22.087  1.00  0.00     0.278 C 
ENDBRANCH  20  26
ENDBRANCH  14  19
ENDBRANCH   9  13
ENDBRANCH   6   8
ENDBRANCH   5   6
ENDBRANCH   4   5
ENDBRANCH   3   4
ENDBRANCH   2   3
ENDBRANCH   1   2
BRANCH   1  28
ATOM     28  C   UNL A   1      42.278  20.800  26.754  1.00  0.00     0.188 C 
BRANCH  28  29
ATOM     29  O   UNL A   1      42.058  22.138  26.394  1.00  0.00    -0.376 OA
BRANCH  29  30
ATOM     30  C   UNL A   1      42.823  22.850  25.456  1.00  0.00     0.202 C 
BRANCH  30  31
ATOM     31  C   UNL A   1      43.489  23.894  26.287  1.00  0.00     0.261 C 
BRANCH  31  32
ATOM     32  O   UNL A   1      42.494  24.904  26.735  1.00  0.00    -0.460 OA
BRANCH  32  33
ATOM     33  C   UNL A   1      42.062  25.961  25.957  1.00  0.00     0.338 C 
ATOM     34  O   UNL A   1      42.563  26.221  24.868  1.00  0.00    -0.246 OA
BRANCH  33  35
ATOM     35  C   UNL A   1      40.894  26.788  26.508  1.00  0.00     0.060 A 
ATOM     36  C   UNL A   1      40.886  28.171  26.432  1.00  0.00     0.016 A 
ATOM     37  C   UNL A   1      39.850  26.267  27.271  1.00  0.00     0.016 A 
ATOM     38  C   UNL A   1      40.090  28.902  27.357  1.00  0.00     0.010 A 
ATOM     39  C   UNL A   1      39.266  27.043  28.334  1.00  0.00     0.010 A 
ATOM     40  C   UNL A   1      39.674  28.363  28.580  1.00  0.00    -0.014 A 
BRANCH  40  41
ATOM     41  C   UNL A   1      39.538  29.127  30.116  1.00  0.00     0.031 A 
ATOM     42  C   UNL A   1      38.684  30.293  29.849  1.00  0.00     0.074 A 
ATOM     43  C   UNL A   1      40.042  28.946  31.539  1.00  0.00     0.049 A 
ATOM     44  N   UNL A   1      38.730  31.313  30.610  1.00  0.00    -0.248 NA
ATOM     45  C   UNL A   1      37.929  30.516  28.610  1.00  0.00     0.031 C 
ATOM     46  C   UNL A   1      39.526  29.480  32.837  1.00  0.00     0.029 A 
ATOM     47  N   UNL A   1      41.109  28.081  32.205  1.00  0.00    -0.354 N 
ATOM     48  C   UNL A   1      37.931  32.267  30.070  1.00  0.00     0.074 A 
ATOM     49  C   UNL A   1      37.557  31.787  28.768  1.00  0.00     0.031 C 
ATOM     50  C   UNL A   1      40.299  29.145  33.917  1.00  0.00     0.029 A 
ATOM     51  C   UNL A   1      41.489  28.379  33.542  1.00  0.00     0.049 A 
ATOM     52  H   UNL A   1      41.524  27.332  31.719  1.00  0.00     0.167 HD
ATOM     53  C   UNL A   1      37.533  33.229  30.928  1.00  0.00     0.031 A 
ATOM     54  C   UNL A   1      42.789  28.453  34.101  1.00  0.00     0.031 A 
ATOM     55  C   UNL A   1      38.352  33.186  32.167  1.00  0.00     0.049 A 
ATOM     56  C   UNL A   1      43.003  30.036  34.469  1.00  0.00     0.074 A 
ATOM     57  C   UNL A   1      38.112  32.518  33.358  1.00  0.00     0.029 A 
ATOM     58  N   UNL A   1      39.737  33.438  32.156  1.00  0.00    -0.354 N 
ATOM     59  N   UNL A   1      42.079  30.921  34.140  1.00  0.00    -0.248 NA
ATOM     60  C   UNL A   1      44.222  30.750  34.895  1.00  0.00     0.031 C 
ATOM     61  C   UNL A   1      39.328  32.413  34.078  1.00  0.00     0.029 A 
ATOM     62  C   UNL A   1      40.349  32.973  33.334  1.00  0.00     0.049 A 
ATOM     63  H   UNL A   1      40.216  33.882  31.419  1.00  0.00     0.167 HD
ATOM     64  C   UNL A   1      42.534  32.212  34.160  1.00  0.00     0.074 A 
ATOM     65  C   UNL A   1      43.872  32.051  34.722  1.00  0.00     0.031 C 
ATOM     66  C   UNL A   1      41.757  33.262  33.705  1.00  0.00     0.031 A 
BRANCH  53  67
ATOM     67  C   UNL A   1      36.107  33.724  30.827  1.00  0.00    -0.014 A 
ATOM     68  C   UNL A   1      35.502  33.682  29.564  1.00  0.00     0.009 A 
ATOM     69  C   UNL A   1      35.368  34.380  31.839  1.00  0.00     0.009 A 
ATOM     70  C   UNL A   1      34.257  34.270  29.317  1.00  0.00     0.001 A 
ATOM     71  C   UNL A   1      34.121  34.972  31.600  1.00  0.00     0.001 A 
ATOM     72  C   UNL A   1      33.564  34.913  30.336  1.00  0.00     0.000 A 
ENDBRANCH  53  67
BRANCH  54  73
ATOM     73  C   UNL A   1      43.978  27.471  33.576  1.00  0.00    -0.014 A 
ATOM     74  C   UNL A   1      45.013  27.083  34.452  1.00  0.00     0.009 A 
ATOM     75  C   UNL A   1      44.019  26.732  32.364  1.00  0.00     0.009 A 
ATOM     76  C   UNL A   1      45.803  25.906  34.263  1.00  0.00     0.001 A 
ATOM     77  C   UNL A   1      44.712  25.485  32.224  1.00  0.00     0.001 A 
ATOM     78  C   UNL A   1      45.561  25.038  33.209  1.00  0.00     0.000 A 
ENDBRANCH  54  73
BRANCH  66  79
ATOM     79  C   UNL A   1      42.117  34.733  33.801  1.00  0.00    -0.014 A 
ATOM     80  C   UNL A   1      42.996  35.418  32.963  1.00  0.00     0.009 A 
ATOM     81  C   UNL A   1      41.564  35.489  34.869  1.00  0.00     0.009 A 
ATOM     82  C   UNL A   1      43.396  36.732  33.256  1.00  0.00     0.001 A 
ATOM     83  C   UNL A   1      41.893  36.817  35.118  1.00  0.00     0.001 A 
ATOM     84  C   UNL A   1      42.848  37.428  34.331  1.00  0.00     0.000 A 
ENDBRANCH  66  79
ENDBRANCH  40  41
ENDBRANCH  33  35
ENDBRANCH  32  33
ENDBRANCH  31  32
ENDBRANCH  30  31
ENDBRANCH  29  30
ENDBRANCH  28  29
ENDBRANCH   1  28
TORSDOF 20
ENDMDL
