MODEL 1
REMARK VINA RESULT:      -9.0      0.000      0.000
REMARK SMILES CCC(CC)(NC(=O)C[C@@H]1CCC[NH2+]C1)C(=O)OCCOCCOCCOC(=O)c1ccc(-c2c3nc(c(-c4ccccc4)c4ccc([nH]4)c(-c4ccccc4)c4nc(c(-c5ccccc5)c5ccc2[nH]5)C=C4)C=C3)cc1
REMARK SMILES IDX 22 1 21 2 20 3 19 4 18 5 16 6 17 7 3 8 2 9 1 10 4 11 5 12
REMARK SMILES IDX 6 13 7 14 8 16 9 17 10 18 11 19 15 20 12 21 14 22 13 23
REMARK SMILES IDX 23 26 24 27 25 28 26 29 27 30 28 31 29 32 30 33 31 34 77 35
REMARK SMILES IDX 32 36 76 37 33 38 34 39 35 40 70 41 36 42 75 43 69 44 71 45
REMARK SMILES IDX 37 46 74 47 68 48 67 49 38 51 60 52 45 53 59 54 46 55 49 56
REMARK SMILES IDX 58 57 72 58 47 59 48 60 57 62 73 63 50 64 39 65 40 66 44 67
REMARK SMILES IDX 41 68 43 69 42 70 61 71 62 72 66 73 63 74 65 75 64 76 51 77
REMARK SMILES IDX 52 78 56 79 53 80 55 81 54 82
REMARK H PARENT 6 15 14 24 14 25 71 50 49 61
REMARK Flexibility Score: inf
ROOT
ATOM      1  C   UNL A   1      40.543  22.430  26.480  1.00  0.00     0.188 C 
ENDROOT
BRANCH   1   2
ATOM      2  O   UNL A   1      39.406  21.818  25.840  1.00  0.00    -0.376 OA
BRANCH   2   3
ATOM      3  C   UNL A   1      38.134  22.470  25.913  1.00  0.00     0.202 C 
BRANCH   3   4
ATOM      4  C   UNL A   1      37.055  21.743  25.011  1.00  0.00     0.261 C 
BRANCH   4   5
ATOM      5  O   UNL A   1      35.681  22.267  25.168  1.00  0.00    -0.461 OA
BRANCH   5   6
ATOM      6  C   UNL A   1      35.131  23.156  24.268  1.00  0.00     0.331 C 
ATOM      7  O   UNL A   1      35.544  23.298  23.121  1.00  0.00    -0.249 OA
BRANCH   6   8
ATOM      8  C   UNL A   1      33.908  23.998  24.858  1.00  0.00     0.137 C 
BRANCH   8   9
ATOM      9  C   UNL A   1      32.669  24.121  23.928  1.00  0.00     0.037 C 
ATOM     10  C   UNL A   1      32.721  24.953  22.659  1.00  0.00     0.007 C 
ENDBRANCH   8   9
BRANCH   8  11
ATOM     11  C   UNL A   1      34.459  25.422  25.178  1.00  0.00     0.037 C 
ATOM     12  C   UNL A   1      33.469  26.393  25.841  1.00  0.00     0.007 C 
ENDBRANCH   8  11
BRANCH   8  13
ATOM     13  N   UNL A   1      33.382  23.413  26.113  1.00  0.00    -0.340 N 
ATOM     14  C   UNL A   1      32.223  22.727  26.291  1.00  0.00     0.221 C 
ATOM     15  H   UNL A   1      33.939  23.536  26.915  1.00  0.00     0.164 HD
ATOM     16  O   UNL A   1      31.630  22.906  27.358  1.00  0.00    -0.275 OA
BRANCH  14  17
ATOM     17  C   UNL A   1      31.749  21.657  25.325  1.00  0.00     0.109 C 
BRANCH  17  18
ATOM     18  C   UNL A   1      32.596  20.529  24.687  1.00  0.00     0.054 C 
ATOM     19  C   UNL A   1      32.400  20.007  23.242  1.00  0.00     0.016 C 
ATOM     20  C   UNL A   1      32.955  19.476  25.710  1.00  0.00     0.264 C 
ATOM     21  C   UNL A   1      32.342  18.512  22.982  1.00  0.00     0.062 C 
ATOM     22  N   UNL A   1      33.629  18.344  25.093  1.00  0.00    -0.346 N 
ATOM     23  C   UNL A   1      32.753  17.650  24.158  1.00  0.00     0.260 C 
ATOM     24  H   UNL A   1      34.451  18.680  24.591  1.00  0.00     0.346 HD
ATOM     25  H   UNL A   1      33.896  17.690  25.828  1.00  0.00     0.346 HD
ENDBRANCH  17  18
ENDBRANCH  14  17
ENDBRANCH   8  13
ENDBRANCH   6   8
ENDBRANCH   5   6
ENDBRANCH   4   5
ENDBRANCH   3   4
ENDBRANCH   2   3
ENDBRANCH   1   2
BRANCH   1  26
ATOM     26  C   UNL A   1      41.695  21.465  26.815  1.00  0.00     0.188 C 
BRANCH  26  27
ATOM     27  O   UNL A   1      41.321  20.157  27.225  1.00  0.00    -0.376 OA
BRANCH  27  28
ATOM     28  C   UNL A   1      41.581  19.100  26.311  1.00  0.00     0.202 C 
BRANCH  28  29
ATOM     29  C   UNL A   1      43.044  18.910  25.886  1.00  0.00     0.261 C 
BRANCH  29  30
ATOM     30  O   UNL A   1      43.352  19.489  24.599  1.00  0.00    -0.460 OA
BRANCH  30  31
ATOM     31  C   UNL A   1      44.682  19.641  24.349  1.00  0.00     0.338 C 
ATOM     32  O   UNL A   1      45.442  18.788  23.933  1.00  0.00    -0.246 OA
BRANCH  31  33
ATOM     33  C   UNL A   1      45.138  21.036  24.577  1.00  0.00     0.060 A 
ATOM     34  C   UNL A   1      45.696  21.325  25.827  1.00  0.00     0.016 A 
ATOM     35  C   UNL A   1      44.915  22.074  23.668  1.00  0.00     0.016 A 
ATOM     36  C   UNL A   1      46.027  22.638  26.180  1.00  0.00     0.010 A 
ATOM     37  C   UNL A   1      45.216  23.398  24.034  1.00  0.00     0.010 A 
ATOM     38  C   UNL A   1      45.750  23.692  25.303  1.00  0.00    -0.014 A 
BRANCH  38  39
ATOM     39  C   UNL A   1      45.702  25.083  25.836  1.00  0.00     0.031 A 
ATOM     40  C   UNL A   1      46.995  25.858  25.832  1.00  0.00     0.074 A 
ATOM     41  C   UNL A   1      44.581  25.670  26.293  1.00  0.00     0.049 A 
ATOM     42  N   UNL A   1      47.253  27.059  26.285  1.00  0.00    -0.248 NA
ATOM     43  C   UNL A   1      48.156  25.176  25.237  1.00  0.00     0.031 C 
ATOM     44  C   UNL A   1      43.249  25.076  26.306  1.00  0.00     0.029 A 
ATOM     45  N   UNL A   1      44.391  26.917  26.843  1.00  0.00    -0.354 N 
ATOM     46  C   UNL A   1      48.605  27.266  26.043  1.00  0.00     0.074 A 
ATOM     47  C   UNL A   1      49.116  26.068  25.416  1.00  0.00     0.031 C 
ATOM     48  C   UNL A   1      42.374  25.960  26.819  1.00  0.00     0.029 A 
ATOM     49  C   UNL A   1      43.095  27.161  27.236  1.00  0.00     0.049 A 
ATOM     50  H   UNL A   1      45.117  27.575  26.946  1.00  0.00     0.167 HD
ATOM     51  C   UNL A   1      49.367  28.348  26.325  1.00  0.00     0.031 A 
ATOM     52  C   UNL A   1      42.564  28.215  27.890  1.00  0.00     0.031 A 
ATOM     53  C   UNL A   1      48.882  29.526  26.989  1.00  0.00     0.049 A 
ATOM     54  C   UNL A   1      43.456  29.364  28.297  1.00  0.00     0.074 A 
ATOM     55  C   UNL A   1      49.580  30.669  27.336  1.00  0.00     0.029 A 
ATOM     56  N   UNL A   1      47.579  29.703  27.426  1.00  0.00    -0.354 N 
ATOM     57  N   UNL A   1      44.731  29.552  28.056  1.00  0.00    -0.248 NA
ATOM     58  C   UNL A   1      42.829  30.447  29.072  1.00  0.00     0.031 C 
ATOM     59  C   UNL A   1      48.713  31.512  28.039  1.00  0.00     0.029 A 
ATOM     60  C   UNL A   1      47.459  30.925  28.065  1.00  0.00     0.049 A 
ATOM     61  H   UNL A   1      46.847  29.055  27.300  1.00  0.00     0.167 HD
ATOM     62  C   UNL A   1      45.047  30.788  28.612  1.00  0.00     0.074 A 
ATOM     63  C   UNL A   1      43.828  31.309  29.193  1.00  0.00     0.031 C 
ATOM     64  C   UNL A   1      46.238  31.437  28.634  1.00  0.00     0.031 A 
BRANCH  51  65
ATOM     65  C   UNL A   1      50.826  28.262  25.975  1.00  0.00    -0.014 A 
ATOM     66  C   UNL A   1      51.774  27.778  26.893  1.00  0.00     0.009 A 
ATOM     67  C   UNL A   1      51.260  28.692  24.713  1.00  0.00     0.009 A 
ATOM     68  C   UNL A   1      53.132  27.771  26.565  1.00  0.00     0.001 A 
ATOM     69  C   UNL A   1      52.613  28.652  24.376  1.00  0.00     0.001 A 
ATOM     70  C   UNL A   1      53.549  28.204  25.307  1.00  0.00     0.000 A 
ENDBRANCH  51  65
BRANCH  52  71
ATOM     71  C   UNL A   1      41.115  28.242  28.242  1.00  0.00    -0.014 A 
ATOM     72  C   UNL A   1      40.639  27.548  29.367  1.00  0.00     0.009 A 
ATOM     73  C   UNL A   1      40.189  28.912  27.427  1.00  0.00     0.009 A 
ATOM     74  C   UNL A   1      39.271  27.500  29.651  1.00  0.00     0.001 A 
ATOM     75  C   UNL A   1      38.825  28.890  27.730  1.00  0.00     0.001 A 
ATOM     76  C   UNL A   1      38.365  28.176  28.835  1.00  0.00     0.000 A 
ENDBRANCH  52  71
BRANCH  64  77
ATOM     77  C   UNL A   1      46.274  32.808  29.252  1.00  0.00    -0.014 A 
ATOM     78  C   UNL A   1      46.585  33.002  30.607  1.00  0.00     0.009 A 
ATOM     79  C   UNL A   1      46.031  33.933  28.446  1.00  0.00     0.009 A 
ATOM     80  C   UNL A   1      46.615  34.289  31.149  1.00  0.00     0.001 A 
ATOM     81  C   UNL A   1      46.095  35.219  28.982  1.00  0.00     0.001 A 
ATOM     82  C   UNL A   1      46.374  35.397  30.335  1.00  0.00     0.000 A 
ENDBRANCH  64  77
ENDBRANCH  38  39
ENDBRANCH  31  33
ENDBRANCH  30  31
ENDBRANCH  29  30
ENDBRANCH  28  29
ENDBRANCH  27  28
ENDBRANCH  26  27
ENDBRANCH   1  26
TORSDOF 22
ENDMDL
MODEL 2
REMARK VINA RESULT:      -8.9      1.349      3.075
REMARK SMILES CCC(CC)(NC(=O)C[C@@H]1CCC[NH2+]C1)C(=O)OCCOCCOCCOC(=O)c1ccc(-c2c3nc(c(-c4ccccc4)c4ccc([nH]4)c(-c4ccccc4)c4nc(c(-c5ccccc5)c5ccc2[nH]5)C=C4)C=C3)cc1
REMARK SMILES IDX 22 1 21 2 20 3 19 4 18 5 16 6 17 7 3 8 2 9 1 10 4 11 5 12
REMARK SMILES IDX 6 13 7 14 8 16 9 17 10 18 11 19 15 20 12 21 14 22 13 23
REMARK SMILES IDX 23 26 24 27 25 28 26 29 27 30 28 31 29 32 30 33 31 34 77 35
REMARK SMILES IDX 32 36 76 37 33 38 34 39 35 40 70 41 36 42 75 43 69 44 71 45
REMARK SMILES IDX 37 46 74 47 68 48 67 49 38 51 60 52 45 53 59 54 46 55 49 56
REMARK SMILES IDX 58 57 72 58 47 59 48 60 57 62 73 63 50 64 39 65 40 66 44 67
REMARK SMILES IDX 41 68 43 69 42 70 61 71 62 72 66 73 63 74 65 75 64 76 51 77
REMARK SMILES IDX 52 78 56 79 53 80 55 81 54 82
REMARK H PARENT 6 15 14 24 14 25 71 50 49 61
REMARK Flexibility Score: inf
ROOT
ATOM      1  C   UNL A   1      38.264  21.934  25.983  1.00  0.00     0.188 C 
ENDROOT
BRANCH   1   2
ATOM      2  O   UNL A   1      37.798  21.194  24.837  1.00  0.00    -0.376 OA
BRANCH   2   3
ATOM      3  C   UNL A   1      37.409  19.827  25.005  1.00  0.00     0.202 C 
BRANCH   3   4
ATOM      4  C   UNL A   1      35.835  19.663  24.991  1.00  0.00     0.261 C 
BRANCH   4   5
ATOM      5  O   UNL A   1      35.094  20.933  24.831  1.00  0.00    -0.461 OA
BRANCH   5   6
ATOM      6  C   UNL A   1      33.908  21.175  25.492  1.00  0.00     0.331 C 
ATOM      7  O   UNL A   1      33.340  20.338  26.189  1.00  0.00    -0.249 OA
BRANCH   6   8
ATOM      8  C   UNL A   1      33.327  22.645  25.260  1.00  0.00     0.137 C 
BRANCH   8   9
ATOM      9  C   UNL A   1      33.072  23.037  23.777  1.00  0.00     0.037 C 
ATOM     10  C   UNL A   1      32.096  22.256  22.917  1.00  0.00     0.007 C 
ENDBRANCH   8   9
BRANCH   8  11
ATOM     11  C   UNL A   1      34.355  23.636  25.888  1.00  0.00     0.037 C 
ATOM     12  C   UNL A   1      35.123  24.525  24.897  1.00  0.00     0.007 C 
ENDBRANCH   8  11
BRANCH   8  13
ATOM     13  N   UNL A   1      32.023  22.842  25.933  1.00  0.00    -0.340 N 
ATOM     14  C   UNL A   1      31.384  24.014  26.186  1.00  0.00     0.221 C 
ATOM     15  H   UNL A   1      31.563  22.025  26.234  1.00  0.00     0.164 HD
ATOM     16  O   UNL A   1      30.756  24.087  27.246  1.00  0.00    -0.275 OA
BRANCH  14  17
ATOM     17  C   UNL A   1      31.281  25.127  25.161  1.00  0.00     0.109 C 
BRANCH  17  18
ATOM     18  C   UNL A   1      32.004  26.496  25.188  1.00  0.00     0.054 C 
ATOM     19  C   UNL A   1      32.565  27.156  26.472  1.00  0.00     0.016 C 
ATOM     20  C   UNL A   1      31.399  27.449  24.184  1.00  0.00     0.264 C 
ATOM     21  C   UNL A   1      32.277  28.622  26.753  1.00  0.00     0.062 C 
ATOM     22  N   UNL A   1      31.977  28.779  24.299  1.00  0.00    -0.346 N 
ATOM     23  C   UNL A   1      31.672  29.381  25.590  1.00  0.00     0.260 C 
ATOM     24  H   UNL A   1      32.989  28.712  24.194  1.00  0.00     0.346 HD
ATOM     25  H   UNL A   1      31.576  29.367  23.568  1.00  0.00     0.346 HD
ENDBRANCH  17  18
ENDBRANCH  14  17
ENDBRANCH   8  13
ENDBRANCH   6   8
ENDBRANCH   5   6
ENDBRANCH   4   5
ENDBRANCH   3   4
ENDBRANCH   2   3
ENDBRANCH   1   2
BRANCH   1  26
ATOM     26  C   UNL A   1      39.774  21.813  26.261  1.00  0.00     0.188 C 
BRANCH  26  27
ATOM     27  O   UNL A   1      40.341  20.519  26.110  1.00  0.00    -0.376 OA
BRANCH  27  28
ATOM     28  C   UNL A   1      41.470  20.216  26.918  1.00  0.00     0.202 C 
BRANCH  28  29
ATOM     29  C   UNL A   1      42.371  19.074  26.430  1.00  0.00     0.261 C 
BRANCH  29  30
ATOM     30  O   UNL A   1      42.757  19.195  25.043  1.00  0.00    -0.460 OA
BRANCH  30  31
ATOM     31  C   UNL A   1      44.097  19.327  24.836  1.00  0.00     0.338 C 
ATOM     32  O   UNL A   1      44.878  18.436  24.570  1.00  0.00    -0.246 OA
BRANCH  31  33
ATOM     33  C   UNL A   1      44.535  20.745  24.900  1.00  0.00     0.060 A 
ATOM     34  C   UNL A   1      45.324  21.117  25.994  1.00  0.00     0.016 A 
ATOM     35  C   UNL A   1      44.092  21.725  24.008  1.00  0.00     0.016 A 
ATOM     36  C   UNL A   1      45.668  22.456  26.209  1.00  0.00     0.010 A 
ATOM     37  C   UNL A   1      44.410  23.076  24.241  1.00  0.00     0.010 A 
ATOM     38  C   UNL A   1      45.178  23.453  25.359  1.00  0.00    -0.014 A 
BRANCH  38  39
ATOM     39  C   UNL A   1      45.186  24.869  25.824  1.00  0.00     0.031 A 
ATOM     40  C   UNL A   1      46.501  25.602  25.751  1.00  0.00     0.074 A 
ATOM     41  C   UNL A   1      44.095  25.512  26.279  1.00  0.00     0.049 A 
ATOM     42  N   UNL A   1      46.806  26.815  26.138  1.00  0.00    -0.248 NA
ATOM     43  C   UNL A   1      47.626  24.856  25.163  1.00  0.00     0.031 C 
ATOM     44  C   UNL A   1      42.747  24.961  26.352  1.00  0.00     0.029 A 
ATOM     45  N   UNL A   1      43.957  26.790  26.771  1.00  0.00    -0.354 N 
ATOM     46  C   UNL A   1      48.158  26.967  25.854  1.00  0.00     0.074 A 
ATOM     47  C   UNL A   1      48.617  25.725  25.275  1.00  0.00     0.031 C 
ATOM     48  C   UNL A   1      41.912  25.896  26.841  1.00  0.00     0.029 A 
ATOM     49  C   UNL A   1      42.679  27.093  27.182  1.00  0.00     0.049 A 
ATOM     50  H   UNL A   1      44.704  27.429  26.824  1.00  0.00     0.167 HD
ATOM     51  C   UNL A   1      48.959  28.038  26.065  1.00  0.00     0.031 A 
ATOM     52  C   UNL A   1      42.196  28.193  27.796  1.00  0.00     0.031 A 
ATOM     53  C   UNL A   1      48.526  29.261  26.682  1.00  0.00     0.049 A 
ATOM     54  C   UNL A   1      43.133  29.332  28.125  1.00  0.00     0.074 A 
ATOM     55  C   UNL A   1      49.267  30.397  26.955  1.00  0.00     0.029 A 
ATOM     56  N   UNL A   1      47.241  29.499  27.140  1.00  0.00    -0.354 N 
ATOM     57  N   UNL A   1      44.406  29.468  27.845  1.00  0.00    -0.248 NA
ATOM     58  C   UNL A   1      42.558  30.470  28.861  1.00  0.00     0.031 C 
ATOM     59  C   UNL A   1      48.444  31.299  27.636  1.00  0.00     0.029 A 
ATOM     60  C   UNL A   1      47.173  30.753  27.721  1.00  0.00     0.049 A 
ATOM     61  H   UNL A   1      46.487  28.869  27.063  1.00  0.00     0.167 HD
ATOM     62  C   UNL A   1      44.773  30.719  28.331  1.00  0.00     0.074 A 
ATOM     63  C   UNL A   1      43.586  31.306  28.915  1.00  0.00     0.031 C 
ATOM     64  C   UNL A   1      45.983  31.330  28.293  1.00  0.00     0.031 A 
BRANCH  51  65
ATOM     65  C   UNL A   1      50.405  27.889  25.685  1.00  0.00    -0.014 A 
ATOM     66  C   UNL A   1      50.836  28.050  24.358  1.00  0.00     0.009 A 
ATOM     67  C   UNL A   1      51.348  27.561  26.670  1.00  0.00     0.009 A 
ATOM     68  C   UNL A   1      52.176  27.839  24.021  1.00  0.00     0.001 A 
ATOM     69  C   UNL A   1      52.691  27.385  26.337  1.00  0.00     0.001 A 
ATOM     70  C   UNL A   1      53.101  27.511  25.011  1.00  0.00     0.000 A 
ENDBRANCH  51  65
BRANCH  52  71
ATOM     71  C   UNL A   1      40.758  28.283  28.181  1.00  0.00    -0.014 A 
ATOM     72  C   UNL A   1      39.865  29.066  27.431  1.00  0.00     0.009 A 
ATOM     73  C   UNL A   1      40.280  27.636  29.331  1.00  0.00     0.009 A 
ATOM     74  C   UNL A   1      38.537  29.221  27.838  1.00  0.00     0.001 A 
ATOM     75  C   UNL A   1      38.944  27.767  29.720  1.00  0.00     0.001 A 
ATOM     76  C   UNL A   1      38.076  28.567  28.979  1.00  0.00     0.000 A 
ENDBRANCH  52  71
BRANCH  64  77
ATOM     77  C   UNL A   1      46.076  32.728  28.842  1.00  0.00    -0.014 A 
ATOM     78  C   UNL A   1      45.820  33.855  28.047  1.00  0.00     0.009 A 
ATOM     79  C   UNL A   1      46.385  32.914  30.201  1.00  0.00     0.009 A 
ATOM     80  C   UNL A   1      45.910  35.140  28.589  1.00  0.00     0.001 A 
ATOM     81  C   UNL A   1      46.441  34.196  30.748  1.00  0.00     0.001 A 
ATOM     82  C   UNL A   1      46.216  35.309  29.940  1.00  0.00     0.000 A 
ENDBRANCH  64  77
ENDBRANCH  38  39
ENDBRANCH  31  33
ENDBRANCH  30  31
ENDBRANCH  29  30
ENDBRANCH  28  29
ENDBRANCH  27  28
ENDBRANCH  26  27
ENDBRANCH   1  26
TORSDOF 22
ENDMDL
MODEL 3
REMARK VINA RESULT:      -8.9      4.811      7.359
REMARK SMILES CCC(CC)(NC(=O)C[C@@H]1CCC[NH2+]C1)C(=O)OCCOCCOCCOC(=O)c1ccc(-c2c3nc(c(-c4ccccc4)c4ccc([nH]4)c(-c4ccccc4)c4nc(c(-c5ccccc5)c5ccc2[nH]5)C=C4)C=C3)cc1
REMARK SMILES IDX 22 1 21 2 20 3 19 4 18 5 16 6 17 7 3 8 2 9 1 10 4 11 5 12
REMARK SMILES IDX 6 13 7 14 8 16 9 17 10 18 11 19 15 20 12 21 14 22 13 23
REMARK SMILES IDX 23 26 24 27 25 28 26 29 27 30 28 31 29 32 30 33 31 34 77 35
REMARK SMILES IDX 32 36 76 37 33 38 34 39 35 40 70 41 36 42 75 43 69 44 71 45
REMARK SMILES IDX 37 46 74 47 68 48 67 49 38 51 60 52 45 53 59 54 46 55 49 56
REMARK SMILES IDX 58 57 72 58 47 59 48 60 57 62 73 63 50 64 39 65 40 66 44 67
REMARK SMILES IDX 41 68 43 69 42 70 61 71 62 72 66 73 63 74 65 75 64 76 51 77
REMARK SMILES IDX 52 78 56 79 53 80 55 81 54 82
REMARK H PARENT 6 15 14 24 14 25 71 50 49 61
REMARK Flexibility Score: inf
ROOT
ATOM      1  C   UNL A   1      37.287  21.880  25.748  1.00  0.00     0.188 C 
ENDROOT
BRANCH   1   2
ATOM      2  O   UNL A   1      36.746  21.088  24.673  1.00  0.00    -0.376 OA
BRANCH   2   3
ATOM      3  C   UNL A   1      36.190  19.803  24.969  1.00  0.00     0.202 C 
BRANCH   3   4
ATOM      4  C   UNL A   1      34.608  19.844  24.993  1.00  0.00     0.261 C 
BRANCH   4   5
ATOM      5  O   UNL A   1      34.027  21.127  24.543  1.00  0.00    -0.461 OA
BRANCH   5   6
ATOM      6  C   UNL A   1      32.829  21.600  25.039  1.00  0.00     0.331 C 
ATOM      7  O   UNL A   1      31.931  20.870  25.446  1.00  0.00    -0.249 OA
BRANCH   6   8
ATOM      8  C   UNL A   1      32.709  23.193  25.023  1.00  0.00     0.137 C 
BRANCH   8   9
ATOM      9  C   UNL A   1      33.149  23.886  23.703  1.00  0.00     0.037 C 
ATOM     10  C   UNL A   1      34.423  24.708  23.635  1.00  0.00     0.007 C 
ENDBRANCH   8   9
BRANCH   8  11
ATOM     11  C   UNL A   1      33.587  23.720  26.200  1.00  0.00     0.037 C 
ATOM     12  C   UNL A   1      34.068  22.663  27.206  1.00  0.00     0.007 C 
ENDBRANCH   8  11
BRANCH   8  13
ATOM     13  N   UNL A   1      31.318  23.650  25.244  1.00  0.00    -0.340 N 
ATOM     14  C   UNL A   1      30.898  24.868  25.674  1.00  0.00     0.221 C 
ATOM     15  H   UNL A   1      30.611  22.991  25.057  1.00  0.00     0.164 HD
ATOM     16  O   UNL A   1      29.910  24.887  26.413  1.00  0.00    -0.275 OA
BRANCH  14  17
ATOM     17  C   UNL A   1      31.482  26.166  25.149  1.00  0.00     0.109 C 
BRANCH  17  18
ATOM     18  C   UNL A   1      32.363  27.178  25.923  1.00  0.00     0.054 C 
ATOM     19  C   UNL A   1      31.886  27.973  27.163  1.00  0.00     0.016 C 
ATOM     20  C   UNL A   1      33.274  27.934  24.984  1.00  0.00     0.264 C 
ATOM     21  C   UNL A   1      32.146  29.468  27.246  1.00  0.00     0.062 C 
ATOM     22  N   UNL A   1      34.002  28.982  25.679  1.00  0.00    -0.346 N 
ATOM     23  C   UNL A   1      33.100  30.002  26.198  1.00  0.00     0.260 C 
ATOM     24  H   UNL A   1      34.519  28.569  26.456  1.00  0.00     0.346 HD
ATOM     25  H   UNL A   1      34.639  29.424  25.016  1.00  0.00     0.346 HD
ENDBRANCH  17  18
ENDBRANCH  14  17
ENDBRANCH   8  13
ENDBRANCH   6   8
ENDBRANCH   5   6
ENDBRANCH   4   5
ENDBRANCH   3   4
ENDBRANCH   2   3
ENDBRANCH   1   2
BRANCH   1  26
ATOM     26  C   UNL A   1      38.816  22.058  25.715  1.00  0.00     0.188 C 
BRANCH  26  27
ATOM     27  O   UNL A   1      39.590  20.868  25.797  1.00  0.00    -0.376 OA
BRANCH  27  28
ATOM     28  C   UNL A   1      40.682  20.877  26.706  1.00  0.00     0.202 C 
BRANCH  28  29
ATOM     29  C   UNL A   1      42.051  21.256  26.122  1.00  0.00     0.261 C 
BRANCH  29  30
ATOM     30  O   UNL A   1      42.067  22.550  25.481  1.00  0.00    -0.460 OA
BRANCH  30  31
ATOM     31  C   UNL A   1      42.943  23.441  26.024  1.00  0.00     0.338 C 
ATOM     32  O   UNL A   1      44.155  23.382  25.978  1.00  0.00    -0.246 OA
BRANCH  31  33
ATOM     33  C   UNL A   1      42.248  24.593  26.654  1.00  0.00     0.060 A 
ATOM     34  C   UNL A   1      42.898  25.831  26.604  1.00  0.00     0.016 A 
ATOM     35  C   UNL A   1      41.068  24.466  27.391  1.00  0.00     0.016 A 
ATOM     36  C   UNL A   1      42.385  26.940  27.288  1.00  0.00     0.010 A 
ATOM     37  C   UNL A   1      40.569  25.571  28.106  1.00  0.00     0.010 A 
ATOM     38  C   UNL A   1      41.240  26.809  28.080  1.00  0.00    -0.014 A 
BRANCH  38  39
ATOM     39  C   UNL A   1      40.954  27.841  29.115  1.00  0.00     0.031 A 
ATOM     40  C   UNL A   1      41.829  27.836  30.342  1.00  0.00     0.074 A 
ATOM     41  C   UNL A   1      39.983  28.767  28.999  1.00  0.00     0.049 A 
ATOM     42  N   UNL A   1      41.768  28.580  31.418  1.00  0.00    -0.248 NA
ATOM     43  C   UNL A   1      42.920  26.848  30.355  1.00  0.00     0.031 C 
ATOM     44  C   UNL A   1      39.099  28.939  27.852  1.00  0.00     0.029 A 
ATOM     45  N   UNL A   1      39.581  29.748  29.877  1.00  0.00    -0.354 N 
ATOM     46  C   UNL A   1      42.800  28.137  32.235  1.00  0.00     0.074 A 
ATOM     47  C   UNL A   1      43.464  27.057  31.542  1.00  0.00     0.031 C 
ATOM     48  C   UNL A   1      38.269  29.973  28.084  1.00  0.00     0.029 A 
ATOM     49  C   UNL A   1      38.516  30.494  29.427  1.00  0.00     0.049 A 
ATOM     50  H   UNL A   1      40.016  29.901  30.747  1.00  0.00     0.167 HD
ATOM     51  C   UNL A   1      43.165  28.576  33.463  1.00  0.00     0.031 A 
ATOM     52  C   UNL A   1      37.803  31.459  30.044  1.00  0.00     0.031 A 
ATOM     53  C   UNL A   1      42.485  29.618  34.182  1.00  0.00     0.049 A 
ATOM     54  C   UNL A   1      38.155  31.855  31.458  1.00  0.00     0.074 A 
ATOM     55  C   UNL A   1      42.768  30.122  35.440  1.00  0.00     0.029 A 
ATOM     56  N   UNL A   1      41.375  30.301  33.716  1.00  0.00    -0.354 N 
ATOM     57  N   UNL A   1      39.138  31.436  32.218  1.00  0.00    -0.248 NA
ATOM     58  C   UNL A   1      37.292  32.860  32.100  1.00  0.00     0.031 C 
ATOM     59  C   UNL A   1      41.788  31.067  35.759  1.00  0.00     0.029 A 
ATOM     60  C   UNL A   1      40.941  31.203  34.672  1.00  0.00     0.049 A 
ATOM     61  H   UNL A   1      40.956  30.165  32.834  1.00  0.00     0.167 HD
ATOM     62  C   UNL A   1      39.035  32.153  33.407  1.00  0.00     0.074 A 
ATOM     63  C   UNL A   1      37.902  33.041  33.262  1.00  0.00     0.031 C 
ATOM     64  C   UNL A   1      39.814  32.087  34.515  1.00  0.00     0.031 A 
BRANCH  51  65
ATOM     65  C   UNL A   1      44.312  27.867  34.125  1.00  0.00    -0.014 A 
ATOM     66  C   UNL A   1      44.124  26.670  34.836  1.00  0.00     0.009 A 
ATOM     67  C   UNL A   1      45.600  28.418  34.051  1.00  0.00     0.009 A 
ATOM     68  C   UNL A   1      45.197  26.067  35.498  1.00  0.00     0.001 A 
ATOM     69  C   UNL A   1      46.676  27.796  34.685  1.00  0.00     0.001 A 
ATOM     70  C   UNL A   1      46.471  26.629  35.418  1.00  0.00     0.000 A 
ENDBRANCH  51  65
BRANCH  52  71
ATOM     71  C   UNL A   1      36.652  32.114  29.357  1.00  0.00    -0.014 A 
ATOM     72  C   UNL A   1      36.815  33.353  28.714  1.00  0.00     0.009 A 
ATOM     73  C   UNL A   1      35.373  31.538  29.388  1.00  0.00     0.009 A 
ATOM     74  C   UNL A   1      35.720  34.010  28.145  1.00  0.00     0.001 A 
ATOM     75  C   UNL A   1      34.286  32.181  28.791  1.00  0.00     0.001 A 
ATOM     76  C   UNL A   1      34.457  33.421  28.179  1.00  0.00     0.000 A 
ENDBRANCH  52  71
BRANCH  64  77
ATOM     77  C   UNL A   1      39.508  33.040  35.640  1.00  0.00    -0.014 A 
ATOM     78  C   UNL A   1      40.036  34.339  35.673  1.00  0.00     0.009 A 
ATOM     79  C   UNL A   1      38.636  32.636  36.665  1.00  0.00     0.009 A 
ATOM     80  C   UNL A   1      39.729  35.200  36.729  1.00  0.00     0.001 A 
ATOM     81  C   UNL A   1      38.303  33.510  37.700  1.00  0.00     0.001 A 
ATOM     82  C   UNL A   1      38.859  34.787  37.739  1.00  0.00     0.000 A 
ENDBRANCH  64  77
ENDBRANCH  38  39
ENDBRANCH  31  33
ENDBRANCH  30  31
ENDBRANCH  29  30
ENDBRANCH  28  29
ENDBRANCH  27  28
ENDBRANCH  26  27
ENDBRANCH   1  26
TORSDOF 22
ENDMDL
