MODEL 1
REMARK VINA RESULT:     -10.3      0.000      0.000
REMARK SMILES CS(=O)(=O)Nc1ccc(-c2cc(Cl)cc3c2O[C@H](C(F)(F)F)C(C(=O)OCCOCCOCCOC(=O)c2ccc(-c4c5nc(c(-c6ccccc6)c6ccc([nH]6)c(-c6ccccc6)c6nc(c(-c7ccccc7)c7ccc4[nH]7)C=C6)C=C5)cc2)=C3)cc1
REMARK SMILES IDX 30 1 29 2 28 3 27 4 26 5 24 6 25 7 23 8 10 9 11 10 16 11
REMARK SMILES IDX 12 12 15 13 17 14 13 15 14 16 86 17 18 18 9 19 6 20 7 21
REMARK SMILES IDX 88 22 8 23 87 24 5 25 2 27 1 28 3 29 4 30 19 31 20 32 21 33
REMARK SMILES IDX 22 34 31 35 32 36 33 37 34 38 35 39 36 40 37 41 38 42 39 43
REMARK SMILES IDX 85 44 40 45 84 46 41 47 42 48 43 49 78 50 44 51 83 52 77 53
REMARK SMILES IDX 79 54 45 55 82 56 76 57 75 58 46 60 68 61 53 62 67 63 54 64
REMARK SMILES IDX 57 65 66 66 80 67 55 68 56 69 65 71 81 72 58 73 47 74 48 75
REMARK SMILES IDX 52 76 49 77 51 78 50 79 69 80 70 81 74 82 71 83 73 84 72 85
REMARK SMILES IDX 59 86 60 87 64 88 61 89 63 90 62 91
REMARK H PARENT 5 26 79 59 57 70
REMARK Flexibility Score: inf
ROOT
ATOM      1  C   UNL A   1      33.435  34.953  29.436  1.00  0.00     0.188 C 
ENDROOT
BRANCH   1   2
ATOM      2  O   UNL A   1      32.536  34.563  28.416  1.00  0.00    -0.376 OA
BRANCH   2   3
ATOM      3  C   UNL A   1      32.891  33.404  27.665  1.00  0.00     0.202 C 
BRANCH   3   4
ATOM      4  C   UNL A   1      31.766  32.734  26.856  1.00  0.00     0.261 C 
BRANCH   4   5
ATOM      5  O   UNL A   1      31.503  31.370  27.283  1.00  0.00    -0.460 OA
BRANCH   5   6
ATOM      6  C   UNL A   1      31.898  30.411  26.420  1.00  0.00     0.338 C 
ATOM      7  O   UNL A   1      31.718  30.456  25.210  1.00  0.00    -0.246 OA
BRANCH   6   8
ATOM      8  C   UNL A   1      32.704  29.340  27.074  1.00  0.00     0.087 C 
ATOM      9  C   UNL A   1      33.566  25.707  25.289  1.00  0.00     0.026 A 
ATOM     10  C   UNL A   1      32.572  25.587  24.288  1.00  0.00     0.033 A 
ATOM     11  C   UNL A   1      33.384  26.784  26.165  1.00  0.00     0.135 A 
ATOM     12  C   UNL A   1      31.390  26.327  24.289  1.00  0.00     0.042 A 
ATOM     13  C   UNL A   1      32.098  27.343  26.308  1.00  0.00     0.019 A 
ATOM     14  O   UNL A   1      34.414  27.495  26.781  1.00  0.00    -0.475 OA
ATOM     15  Cl  UNL A   1      30.238  26.147  23.030  1.00  0.00    -0.084 Cl
ATOM     16  C   UNL A   1      31.108  27.151  25.356  1.00  0.00     0.032 A 
ATOM     17  C   UNL A   1      31.906  28.312  27.408  1.00  0.00     0.027 C 
ATOM     18  C   UNL A   1      34.146  28.987  26.709  1.00  0.00     0.316 C 
BRANCH   9  19
ATOM     19  C   UNL A   1      34.323  24.431  25.522  1.00  0.00    -0.014 A 
ATOM     20  C   UNL A   1      34.473  21.564  25.636  1.00  0.00     0.048 A 
ATOM     21  C   UNL A   1      34.853  22.256  24.488  1.00  0.00     0.027 A 
ATOM     22  C   UNL A   1      34.148  22.311  26.765  1.00  0.00     0.027 A 
ATOM     23  C   UNL A   1      34.810  23.664  24.447  1.00  0.00     0.011 A 
ATOM     24  C   UNL A   1      34.085  23.723  26.713  1.00  0.00     0.011 A 
BRANCH  20  25
ATOM     25  N   UNL A   1      34.151  20.177  25.488  1.00  0.00    -0.284 N 
ATOM     26  H   UNL A   1      34.880  19.525  25.607  1.00  0.00     0.180 HD
BRANCH  25  27
ATOM     27  S   UNL A   1      32.635  19.581  25.129  1.00  0.00     0.229 S 
ATOM     28  C   UNL A   1      32.736  19.134  23.402  1.00  0.00     0.183 C 
ATOM     29  O   UNL A   1      31.652  20.625  25.291  1.00  0.00    -0.207 OA
ATOM     30  O   UNL A   1      32.542  18.336  25.870  1.00  0.00    -0.207 OA
ENDBRANCH  25  27
ENDBRANCH  20  25
ENDBRANCH   9  19
BRANCH  18  31
ATOM     31  C   UNL A   1      35.092  29.799  27.601  1.00  0.00     0.430 C 
ATOM     32  F   UNL A   1      36.147  30.286  26.912  1.00  0.00    -0.167 F 
ATOM     33  F   UNL A   1      34.461  30.838  28.191  1.00  0.00    -0.167 F 
ATOM     34  F   UNL A   1      35.590  29.025  28.599  1.00  0.00    -0.167 F 
ENDBRANCH  18  31
ENDBRANCH   6   8
ENDBRANCH   5   6
ENDBRANCH   4   5
ENDBRANCH   3   4
ENDBRANCH   2   3
ENDBRANCH   1   2
BRANCH   1  35
ATOM     35  C   UNL A   1      34.473  33.878  29.827  1.00  0.00     0.188 C 
BRANCH  35  36
ATOM     36  O   UNL A   1      35.812  33.982  29.369  1.00  0.00    -0.376 OA
BRANCH  36  37
ATOM     37  C   UNL A   1      36.873  34.003  30.315  1.00  0.00     0.202 C 
BRANCH  37  38
ATOM     38  C   UNL A   1      36.607  33.568  31.765  1.00  0.00     0.261 C 
BRANCH  38  39
ATOM     39  O   UNL A   1      37.154  32.290  32.143  1.00  0.00    -0.460 OA
BRANCH  39  40
ATOM     40  C   UNL A   1      36.721  31.232  31.417  1.00  0.00     0.338 C 
ATOM     41  O   UNL A   1      35.560  30.945  31.150  1.00  0.00    -0.246 OA
BRANCH  40  42
ATOM     42  C   UNL A   1      37.855  30.513  30.805  1.00  0.00     0.060 A 
ATOM     43  C   UNL A   1      38.632  29.693  31.629  1.00  0.00     0.016 A 
ATOM     44  C   UNL A   1      38.235  30.730  29.479  1.00  0.00     0.016 A 
ATOM     45  C   UNL A   1      39.803  29.117  31.135  1.00  0.00     0.010 A 
ATOM     46  C   UNL A   1      39.417  30.150  28.987  1.00  0.00     0.010 A 
ATOM     47  C   UNL A   1      40.222  29.351  29.815  1.00  0.00    -0.014 A 
BRANCH  47  48
ATOM     48  C   UNL A   1      41.585  28.914  29.385  1.00  0.00     0.031 A 
ATOM     49  C   UNL A   1      41.731  27.571  28.736  1.00  0.00     0.074 A 
ATOM     50  C   UNL A   1      42.675  29.691  29.546  1.00  0.00     0.049 A 
ATOM     51  N   UNL A   1      42.796  27.015  28.220  1.00  0.00    -0.248 NA
ATOM     52  C   UNL A   1      40.523  26.732  28.696  1.00  0.00     0.031 C 
ATOM     53  C   UNL A   1      42.655  30.991  30.188  1.00  0.00     0.029 A 
ATOM     54  N   UNL A   1      43.985  29.542  29.146  1.00  0.00    -0.354 N 
ATOM     55  C   UNL A   1      42.407  25.730  27.867  1.00  0.00     0.074 A 
ATOM     56  C   UNL A   1      40.999  25.609  28.179  1.00  0.00     0.031 C 
ATOM     57  C   UNL A   1      43.843  31.593  30.010  1.00  0.00     0.029 A 
ATOM     58  C   UNL A   1      44.763  30.667  29.353  1.00  0.00     0.049 A 
ATOM     59  H   UNL A   1      44.335  28.713  28.750  1.00  0.00     0.167 HD
ATOM     60  C   UNL A   1      43.168  24.724  27.379  1.00  0.00     0.031 A 
ATOM     61  C   UNL A   1      46.059  30.914  29.045  1.00  0.00     0.031 A 
ATOM     62  C   UNL A   1      44.572  24.838  27.092  1.00  0.00     0.049 A 
ATOM     63  C   UNL A   1      46.856  29.785  28.419  1.00  0.00     0.074 A 
ATOM     64  C   UNL A   1      45.434  23.865  26.618  1.00  0.00     0.029 A 
ATOM     65  N   UNL A   1      45.321  25.992  27.260  1.00  0.00    -0.354 N 
ATOM     66  N   UNL A   1      46.434  28.630  27.956  1.00  0.00    -0.248 NA
ATOM     67  C   UNL A   1      48.306  29.987  28.275  1.00  0.00     0.031 C 
ATOM     68  C   UNL A   1      46.718  24.416  26.554  1.00  0.00     0.029 A 
ATOM     69  C   UNL A   1      46.642  25.748  26.925  1.00  0.00     0.049 A 
ATOM     70  H   UNL A   1      44.967  26.855  27.571  1.00  0.00     0.167 HD
ATOM     71  C   UNL A   1      47.564  27.986  27.454  1.00  0.00     0.074 A 
ATOM     72  C   UNL A   1      48.664  28.919  27.580  1.00  0.00     0.031 C 
ATOM     73  C   UNL A   1      47.701  26.721  26.984  1.00  0.00     0.031 A 
BRANCH  60  74
ATOM     74  C   UNL A   1      42.513  23.381  27.230  1.00  0.00    -0.014 A 
ATOM     75  C   UNL A   1      42.001  22.936  26.003  1.00  0.00     0.009 A 
ATOM     76  C   UNL A   1      42.411  22.544  28.354  1.00  0.00     0.009 A 
ATOM     77  C   UNL A   1      41.369  21.693  25.913  1.00  0.00     0.001 A 
ATOM     78  C   UNL A   1      41.809  21.290  28.254  1.00  0.00     0.001 A 
ATOM     79  C   UNL A   1      41.278  20.871  27.036  1.00  0.00     0.000 A 
ENDBRANCH  60  74
BRANCH  61  80
ATOM     80  C   UNL A   1      46.696  32.263  29.262  1.00  0.00    -0.014 A 
ATOM     81  C   UNL A   1      47.361  32.549  30.468  1.00  0.00     0.009 A 
ATOM     82  C   UNL A   1      46.644  33.294  28.310  1.00  0.00     0.009 A 
ATOM     83  C   UNL A   1      47.946  33.796  30.717  1.00  0.00     0.001 A 
ATOM     84  C   UNL A   1      47.288  34.520  28.527  1.00  0.00     0.001 A 
ATOM     85  C   UNL A   1      47.933  34.775  29.734  1.00  0.00     0.000 A 
ENDBRANCH  61  80
BRANCH  73  86
ATOM     86  C   UNL A   1      49.070  26.290  26.521  1.00  0.00    -0.014 A 
ATOM     87  C   UNL A   1      49.546  26.614  25.238  1.00  0.00     0.009 A 
ATOM     88  C   UNL A   1      49.922  25.604  27.401  1.00  0.00     0.009 A 
ATOM     89  C   UNL A   1      50.822  26.219  24.833  1.00  0.00     0.001 A 
ATOM     90  C   UNL A   1      51.214  25.245  27.006  1.00  0.00     0.001 A 
ATOM     91  C   UNL A   1      51.657  25.541  25.719  1.00  0.00     0.000 A 
ENDBRANCH  73  86
ENDBRANCH  47  48
ENDBRANCH  40  42
ENDBRANCH  39  40
ENDBRANCH  38  39
ENDBRANCH  37  38
ENDBRANCH  36  37
ENDBRANCH  35  36
ENDBRANCH   1  35
TORSDOF 21
ENDMDL
MODEL 2
REMARK VINA RESULT:      -9.1      6.006      9.275
REMARK SMILES CS(=O)(=O)Nc1ccc(-c2cc(Cl)cc3c2O[C@H](C(F)(F)F)C(C(=O)OCCOCCOCCOC(=O)c2ccc(-c4c5nc(c(-c6ccccc6)c6ccc([nH]6)c(-c6ccccc6)c6nc(c(-c7ccccc7)c7ccc4[nH]7)C=C6)C=C5)cc2)=C3)cc1
REMARK SMILES IDX 30 1 29 2 28 3 27 4 26 5 24 6 25 7 23 8 10 9 11 10 16 11
REMARK SMILES IDX 12 12 15 13 17 14 13 15 14 16 86 17 18 18 9 19 6 20 7 21
REMARK SMILES IDX 88 22 8 23 87 24 5 25 2 27 1 28 3 29 4 30 19 31 20 32 21 33
REMARK SMILES IDX 22 34 31 35 32 36 33 37 34 38 35 39 36 40 37 41 38 42 39 43
REMARK SMILES IDX 85 44 40 45 84 46 41 47 42 48 43 49 78 50 44 51 83 52 77 53
REMARK SMILES IDX 79 54 45 55 82 56 76 57 75 58 46 60 68 61 53 62 67 63 54 64
REMARK SMILES IDX 57 65 66 66 80 67 55 68 56 69 65 71 81 72 58 73 47 74 48 75
REMARK SMILES IDX 52 76 49 77 51 78 50 79 69 80 70 81 74 82 71 83 73 84 72 85
REMARK SMILES IDX 59 86 60 87 64 88 61 89 63 90 62 91
REMARK H PARENT 5 26 79 59 57 70
REMARK Flexibility Score: inf
ROOT
ATOM      1  C   UNL A   1      32.940  33.545  27.591  1.00  0.00     0.188 C 
ENDROOT
BRANCH   1   2
ATOM      2  O   UNL A   1      31.648  33.146  27.177  1.00  0.00    -0.376 OA
BRANCH   2   3
ATOM      3  C   UNL A   1      31.492  31.775  26.819  1.00  0.00     0.202 C 
BRANCH   3   4
ATOM      4  C   UNL A   1      30.772  31.486  25.489  1.00  0.00     0.261 C 
BRANCH   4   5
ATOM      5  O   UNL A   1      30.937  30.111  25.049  1.00  0.00    -0.460 OA
BRANCH   5   6
ATOM      6  C   UNL A   1      30.183  29.753  23.988  1.00  0.00     0.338 C 
ATOM      7  O   UNL A   1      29.473  30.523  23.356  1.00  0.00    -0.246 OA
BRANCH   6   8
ATOM      8  C   UNL A   1      30.403  28.337  23.575  1.00  0.00     0.087 C 
ATOM      9  C   UNL A   1      33.023  25.769  25.490  1.00  0.00     0.026 A 
ATOM     10  C   UNL A   1      33.903  26.644  26.171  1.00  0.00     0.033 A 
ATOM     11  C   UNL A   1      32.137  26.403  24.610  1.00  0.00     0.135 A 
ATOM     12  C   UNL A   1      34.047  27.992  25.847  1.00  0.00     0.042 A 
ATOM     13  C   UNL A   1      32.457  27.684  24.118  1.00  0.00     0.019 A 
ATOM     14  O   UNL A   1      30.849  25.956  24.315  1.00  0.00    -0.475 OA
ATOM     15  Cl  UNL A   1      35.118  29.001  26.730  1.00  0.00    -0.084 Cl
ATOM     16  C   UNL A   1      33.381  28.500  24.752  1.00  0.00     0.032 A 
ATOM     17  C   UNL A   1      31.619  28.210  23.019  1.00  0.00     0.027 C 
ATOM     18  C   UNL A   1      29.869  27.116  24.326  1.00  0.00     0.316 C 
BRANCH   9  19
ATOM     19  C   UNL A   1      33.508  24.348  25.465  1.00  0.00    -0.014 A 
ATOM     20  C   UNL A   1      33.208  21.587  24.731  1.00  0.00     0.048 A 
ATOM     21  C   UNL A   1      33.951  22.461  23.941  1.00  0.00     0.027 A 
ATOM     22  C   UNL A   1      32.731  22.060  25.950  1.00  0.00     0.027 A 
ATOM     23  C   UNL A   1      34.124  23.807  24.320  1.00  0.00     0.011 A 
ATOM     24  C   UNL A   1      32.889  23.417  26.318  1.00  0.00     0.011 A 
BRANCH  20  25
ATOM     25  N   UNL A   1      32.734  20.386  24.111  1.00  0.00    -0.284 N 
ATOM     26  H   UNL A   1      32.092  20.479  23.370  1.00  0.00     0.180 HD
BRANCH  25  27
ATOM     27  S   UNL A   1      33.186  18.841  24.550  1.00  0.00     0.229 S 
ATOM     28  C   UNL A   1      32.775  17.843  23.126  1.00  0.00     0.183 C 
ATOM     29  O   UNL A   1      32.397  18.406  25.677  1.00  0.00    -0.207 OA
ATOM     30  O   UNL A   1      34.635  18.884  24.616  1.00  0.00    -0.207 OA
ENDBRANCH  25  27
ENDBRANCH  20  25
ENDBRANCH   9  19
BRANCH  18  31
ATOM     31  C   UNL A   1      28.503  26.738  23.743  1.00  0.00     0.430 C 
ATOM     32  F   UNL A   1      28.006  27.708  22.944  1.00  0.00    -0.167 F 
ATOM     33  F   UNL A   1      28.558  25.594  23.028  1.00  0.00    -0.167 F 
ATOM     34  F   UNL A   1      27.599  26.536  24.736  1.00  0.00    -0.167 F 
ENDBRANCH  18  31
ENDBRANCH   6   8
ENDBRANCH   5   6
ENDBRANCH   4   5
ENDBRANCH   3   4
ENDBRANCH   2   3
ENDBRANCH   1   2
BRANCH   1  35
ATOM     35  C   UNL A   1      33.880  32.385  27.985  1.00  0.00     0.188 C 
BRANCH  35  36
ATOM     36  O   UNL A   1      35.258  32.440  27.654  1.00  0.00    -0.376 OA
BRANCH  36  37
ATOM     37  C   UNL A   1      36.142  33.195  28.471  1.00  0.00     0.202 C 
BRANCH  37  38
ATOM     38  C   UNL A   1      35.570  34.216  29.468  1.00  0.00     0.261 C 
BRANCH  38  39
ATOM     39  O   UNL A   1      36.073  34.120  30.815  1.00  0.00    -0.460 OA
BRANCH  39  40
ATOM     40  C   UNL A   1      35.724  32.998  31.489  1.00  0.00     0.338 C 
ATOM     41  O   UNL A   1      34.626  32.456  31.503  1.00  0.00    -0.246 OA
BRANCH  40  42
ATOM     42  C   UNL A   1      36.906  32.366  32.107  1.00  0.00     0.060 A 
ATOM     43  C   UNL A   1      36.711  31.596  33.257  1.00  0.00     0.016 A 
ATOM     44  C   UNL A   1      38.200  32.620  31.648  1.00  0.00     0.016 A 
ATOM     45  C   UNL A   1      37.811  31.109  33.964  1.00  0.00     0.010 A 
ATOM     46  C   UNL A   1      39.304  32.129  32.365  1.00  0.00     0.010 A 
ATOM     47  C   UNL A   1      39.122  31.382  33.541  1.00  0.00    -0.014 A 
BRANCH  47  48
ATOM     48  C   UNL A   1      40.272  31.046  34.434  1.00  0.00     0.031 A 
ATOM     49  C   UNL A   1      40.634  32.011  35.523  1.00  0.00     0.074 A 
ATOM     50  C   UNL A   1      40.977  29.906  34.301  1.00  0.00     0.049 A 
ATOM     51  N   UNL A   1      41.541  31.897  36.457  1.00  0.00    -0.248 NA
ATOM     52  C   UNL A   1      39.897  33.284  35.537  1.00  0.00     0.031 C 
ATOM     53  C   UNL A   1      40.736  28.919  33.266  1.00  0.00     0.029 A 
ATOM     54  N   UNL A   1      41.990  29.350  35.053  1.00  0.00    -0.354 N 
ATOM     55  C   UNL A   1      41.542  33.116  37.120  1.00  0.00     0.074 A 
ATOM     56  C   UNL A   1      40.510  33.932  36.516  1.00  0.00     0.031 C 
ATOM     57  C   UNL A   1      41.457  27.816  33.525  1.00  0.00     0.029 A 
ATOM     58  C   UNL A   1      42.322  28.061  34.678  1.00  0.00     0.049 A 
ATOM     59  H   UNL A   1      42.436  29.827  35.789  1.00  0.00     0.167 HD
ATOM     60  C   UNL A   1      42.365  33.538  38.108  1.00  0.00     0.031 A 
ATOM     61  C   UNL A   1      43.214  27.189  35.205  1.00  0.00     0.031 A 
ATOM     62  C   UNL A   1      43.406  32.736  38.690  1.00  0.00     0.049 A 
ATOM     63  C   UNL A   1      44.060  27.673  36.368  1.00  0.00     0.074 A 
ATOM     64  C   UNL A   1      44.309  33.085  39.679  1.00  0.00     0.029 A 
ATOM     65  N   UNL A   1      43.688  31.427  38.332  1.00  0.00    -0.354 N 
ATOM     66  N   UNL A   1      43.943  28.773  37.077  1.00  0.00    -0.248 NA
ATOM     67  C   UNL A   1      45.162  26.802  36.804  1.00  0.00     0.031 C 
ATOM     68  C   UNL A   1      45.174  32.005  39.878  1.00  0.00     0.029 A 
ATOM     69  C   UNL A   1      44.768  30.962  39.061  1.00  0.00     0.049 A 
ATOM     70  H   UNL A   1      43.194  30.905  37.660  1.00  0.00     0.167 HD
ATOM     71  C   UNL A   1      44.943  28.708  38.046  1.00  0.00     0.074 A 
ATOM     72  C   UNL A   1      45.587  27.421  37.894  1.00  0.00     0.031 C 
ATOM     73  C   UNL A   1      45.338  29.645  38.944  1.00  0.00     0.031 A 
BRANCH  60  74
ATOM     74  C   UNL A   1      42.239  34.972  38.538  1.00  0.00    -0.014 A 
ATOM     75  C   UNL A   1      41.383  35.362  39.578  1.00  0.00     0.009 A 
ATOM     76  C   UNL A   1      43.003  35.950  37.882  1.00  0.00     0.009 A 
ATOM     77  C   UNL A   1      41.269  36.709  39.926  1.00  0.00     0.001 A 
ATOM     78  C   UNL A   1      42.912  37.291  38.253  1.00  0.00     0.001 A 
ATOM     79  C   UNL A   1      42.036  37.671  39.268  1.00  0.00     0.000 A 
ENDBRANCH  60  74
BRANCH  61  80
ATOM     80  C   UNL A   1      43.349  25.773  34.706  1.00  0.00    -0.014 A 
ATOM     81  C   UNL A   1      44.214  25.476  33.637  1.00  0.00     0.009 A 
ATOM     82  C   UNL A   1      42.622  24.701  35.247  1.00  0.00     0.009 A 
ATOM     83  C   UNL A   1      44.350  24.178  33.130  1.00  0.00     0.001 A 
ATOM     84  C   UNL A   1      42.808  23.388  34.788  1.00  0.00     0.001 A 
ATOM     85  C   UNL A   1      43.667  23.128  33.725  1.00  0.00     0.000 A 
ENDBRANCH  61  80
BRANCH  73  86
ATOM     86  C   UNL A   1      46.479  29.295  39.867  1.00  0.00    -0.014 A 
ATOM     87  C   UNL A   1      46.260  28.612  41.076  1.00  0.00     0.009 A 
ATOM     88  C   UNL A   1      47.798  29.595  39.493  1.00  0.00     0.009 A 
ATOM     89  C   UNL A   1      47.331  28.283  41.910  1.00  0.00     0.001 A 
ATOM     90  C   UNL A   1      48.871  29.229  40.310  1.00  0.00     0.001 A 
ATOM     91  C   UNL A   1      48.635  28.585  41.523  1.00  0.00     0.000 A 
ENDBRANCH  73  86
ENDBRANCH  47  48
ENDBRANCH  40  42
ENDBRANCH  39  40
ENDBRANCH  38  39
ENDBRANCH  37  38
ENDBRANCH  36  37
ENDBRANCH  35  36
ENDBRANCH   1  35
TORSDOF 21
ENDMDL
MODEL 3
REMARK VINA RESULT:      -8.8      7.389     11.408
REMARK SMILES CS(=O)(=O)Nc1ccc(-c2cc(Cl)cc3c2O[C@H](C(F)(F)F)C(C(=O)OCCOCCOCCOC(=O)c2ccc(-c4c5nc(c(-c6ccccc6)c6ccc([nH]6)c(-c6ccccc6)c6nc(c(-c7ccccc7)c7ccc4[nH]7)C=C6)C=C5)cc2)=C3)cc1
REMARK SMILES IDX 30 1 29 2 28 3 27 4 26 5 24 6 25 7 23 8 10 9 11 10 16 11
REMARK SMILES IDX 12 12 15 13 17 14 13 15 14 16 86 17 18 18 9 19 6 20 7 21
REMARK SMILES IDX 88 22 8 23 87 24 5 25 2 27 1 28 3 29 4 30 19 31 20 32 21 33
REMARK SMILES IDX 22 34 31 35 32 36 33 37 34 38 35 39 36 40 37 41 38 42 39 43
REMARK SMILES IDX 85 44 40 45 84 46 41 47 42 48 43 49 78 50 44 51 83 52 77 53
REMARK SMILES IDX 79 54 45 55 82 56 76 57 75 58 46 60 68 61 53 62 67 63 54 64
REMARK SMILES IDX 57 65 66 66 80 67 55 68 56 69 65 71 81 72 58 73 47 74 48 75
REMARK SMILES IDX 52 76 49 77 51 78 50 79 69 80 70 81 74 82 71 83 73 84 72 85
REMARK SMILES IDX 59 86 60 87 64 88 61 89 63 90 62 91
REMARK H PARENT 5 26 79 59 57 70
REMARK Flexibility Score: inf
ROOT
ATOM      1  C   UNL A   1      34.220  30.558  28.053  1.00  0.00     0.188 C 
ENDROOT
BRANCH   1   2
ATOM      2  O   UNL A   1      35.154  29.661  27.484  1.00  0.00    -0.376 OA
BRANCH   2   3
ATOM      3  C   UNL A   1      34.956  29.324  26.113  1.00  0.00     0.202 C 
BRANCH   3   4
ATOM      4  C   UNL A   1      33.757  28.414  25.792  1.00  0.00     0.261 C 
BRANCH   4   5
ATOM      5  O   UNL A   1      34.020  27.509  24.686  1.00  0.00    -0.460 OA
BRANCH   5   6
ATOM      6  C   UNL A   1      33.243  27.689  23.598  1.00  0.00     0.338 C 
ATOM      7  O   UNL A   1      33.424  28.562  22.759  1.00  0.00    -0.246 OA
BRANCH   6   8
ATOM      8  C   UNL A   1      32.207  26.627  23.443  1.00  0.00     0.087 C 
ATOM      9  C   UNL A   1      32.941  22.603  24.065  1.00  0.00     0.026 A 
ATOM     10  C   UNL A   1      34.347  22.500  23.936  1.00  0.00     0.033 A 
ATOM     11  C   UNL A   1      32.414  23.852  23.718  1.00  0.00     0.135 A 
ATOM     12  C   UNL A   1      35.132  23.467  23.309  1.00  0.00     0.042 A 
ATOM     13  C   UNL A   1      33.157  24.701  22.873  1.00  0.00     0.019 A 
ATOM     14  O   UNL A   1      31.281  24.429  24.294  1.00  0.00    -0.475 OA
ATOM     15  Cl  UNL A   1      36.836  23.289  23.207  1.00  0.00    -0.084 Cl
ATOM     16  C   UNL A   1      34.522  24.538  22.694  1.00  0.00     0.032 A 
ATOM     17  C   UNL A   1      32.466  25.897  22.347  1.00  0.00     0.027 C 
ATOM     18  C   UNL A   1      31.530  25.894  24.602  1.00  0.00     0.316 C 
BRANCH   9  19
ATOM     19  C   UNL A   1      32.252  21.268  24.076  1.00  0.00    -0.014 A 
ATOM     20  C   UNL A   1      32.302  18.396  24.019  1.00  0.00     0.048 A 
ATOM     21  C   UNL A   1      32.233  19.087  25.227  1.00  0.00     0.027 A 
ATOM     22  C   UNL A   1      32.209  19.135  22.843  1.00  0.00     0.027 A 
ATOM     23  C   UNL A   1      32.176  20.495  25.250  1.00  0.00     0.011 A 
ATOM     24  C   UNL A   1      32.173  20.548  22.870  1.00  0.00     0.011 A 
BRANCH  20  25
ATOM     25  N   UNL A   1      32.762  17.041  24.065  1.00  0.00    -0.284 N 
ATOM     26  H   UNL A   1      32.084  16.333  24.160  1.00  0.00     0.180 HD
BRANCH  25  27
ATOM     27  S   UNL A   1      34.359  16.570  23.970  1.00  0.00     0.229 S 
ATOM     28  C   UNL A   1      34.541  15.365  25.275  1.00  0.00     0.183 C 
ATOM     29  O   UNL A   1      35.215  17.699  24.246  1.00  0.00    -0.207 OA
ATOM     30  O   UNL A   1      34.456  15.839  22.720  1.00  0.00    -0.207 OA
ENDBRANCH  25  27
ENDBRANCH  20  25
ENDBRANCH   9  19
BRANCH  18  31
ATOM     31  C   UNL A   1      30.247  26.644  24.976  1.00  0.00     0.430 C 
ATOM     32  F   UNL A   1      30.477  27.631  25.870  1.00  0.00    -0.167 F 
ATOM     33  F   UNL A   1      29.647  27.188  23.895  1.00  0.00    -0.167 F 
ATOM     34  F   UNL A   1      29.346  25.798  25.540  1.00  0.00    -0.167 F 
ENDBRANCH  18  31
ENDBRANCH   6   8
ENDBRANCH   5   6
ENDBRANCH   4   5
ENDBRANCH   3   4
ENDBRANCH   2   3
ENDBRANCH   1   2
BRANCH   1  35
ATOM     35  C   UNL A   1      34.402  32.033  27.633  1.00  0.00     0.188 C 
BRANCH  35  36
ATOM     36  O   UNL A   1      33.987  33.077  28.498  1.00  0.00    -0.376 OA
BRANCH  36  37
ATOM     37  C   UNL A   1      34.922  33.647  29.404  1.00  0.00     0.202 C 
BRANCH  37  38
ATOM     38  C   UNL A   1      34.454  34.097  30.797  1.00  0.00     0.261 C 
BRANCH  38  39
ATOM     39  O   UNL A   1      34.169  33.037  31.730  1.00  0.00    -0.460 OA
BRANCH  39  40
ATOM     40  C   UNL A   1      35.167  32.143  31.921  1.00  0.00     0.338 C 
ATOM     41  O   UNL A   1      35.544  31.278  31.139  1.00  0.00    -0.246 OA
BRANCH  40  42
ATOM     42  C   UNL A   1      35.906  32.436  33.164  1.00  0.00     0.060 A 
ATOM     43  C   UNL A   1      35.485  33.523  33.936  1.00  0.00     0.016 A 
ATOM     44  C   UNL A   1      37.067  31.742  33.511  1.00  0.00     0.016 A 
ATOM     45  C   UNL A   1      36.242  33.934  35.033  1.00  0.00     0.010 A 
ATOM     46  C   UNL A   1      37.828  32.162  34.615  1.00  0.00     0.010 A 
ATOM     47  C   UNL A   1      37.433  33.273  35.378  1.00  0.00    -0.014 A 
BRANCH  47  48
ATOM     48  C   UNL A   1      38.336  33.869  36.408  1.00  0.00     0.031 A 
ATOM     49  C   UNL A   1      38.117  33.505  37.846  1.00  0.00     0.074 A 
ATOM     50  C   UNL A   1      39.344  34.704  36.086  1.00  0.00     0.049 A 
ATOM     51  N   UNL A   1      38.816  33.840  38.898  1.00  0.00    -0.248 NA
ATOM     52  C   UNL A   1      36.932  32.682  38.136  1.00  0.00     0.031 C 
ATOM     53  C   UNL A   1      39.627  35.149  34.735  1.00  0.00     0.029 A 
ATOM     54  N   UNL A   1      40.343  35.283  36.838  1.00  0.00    -0.354 N 
ATOM     55  C   UNL A   1      38.113  33.338  39.984  1.00  0.00     0.074 A 
ATOM     56  C   UNL A   1      36.963  32.632  39.458  1.00  0.00     0.031 C 
ATOM     57  C   UNL A   1      40.802  35.799  34.718  1.00  0.00     0.029 A 
ATOM     58  C   UNL A   1      41.300  35.939  36.084  1.00  0.00     0.049 A 
ATOM     59  H   UNL A   1      40.373  35.235  37.820  1.00  0.00     0.167 HD
ATOM     60  C   UNL A   1      38.371  33.498  41.302  1.00  0.00     0.031 A 
ATOM     61  C   UNL A   1      42.438  36.571  36.458  1.00  0.00     0.031 A 
ATOM     62  C   UNL A   1      39.500  34.220  41.823  1.00  0.00     0.049 A 
ATOM     63  C   UNL A   1      42.736  36.654  37.944  1.00  0.00     0.074 A 
ATOM     64  C   UNL A   1      39.833  34.458  43.145  1.00  0.00     0.029 A 
ATOM     65  N   UNL A   1      40.475  34.827  41.047  1.00  0.00    -0.354 N 
ATOM     66  N   UNL A   1      42.140  36.046  38.944  1.00  0.00    -0.248 NA
ATOM     67  C   UNL A   1      43.858  37.511  38.355  1.00  0.00     0.031 C 
ATOM     68  C   UNL A   1      40.979  35.258  43.167  1.00  0.00     0.029 A 
ATOM     69  C   UNL A   1      41.396  35.462  41.862  1.00  0.00     0.049 A 
ATOM     70  H   UNL A   1      40.509  34.809  40.064  1.00  0.00     0.167 HD
ATOM     71  C   UNL A   1      42.829  36.436  40.091  1.00  0.00     0.074 A 
ATOM     72  C   UNL A   1      43.942  37.250  39.650  1.00  0.00     0.031 C 
ATOM     73  C   UNL A   1      42.542  36.198  41.395  1.00  0.00     0.031 A 
BRANCH  60  74
ATOM     74  C   UNL A   1      37.349  32.971  42.268  1.00  0.00    -0.014 A 
ATOM     75  C   UNL A   1      36.269  33.750  42.705  1.00  0.00     0.009 A 
ATOM     76  C   UNL A   1      37.478  31.656  42.747  1.00  0.00     0.009 A 
ATOM     77  C   UNL A   1      35.358  33.235  43.630  1.00  0.00     0.001 A 
ATOM     78  C   UNL A   1      36.549  31.133  43.646  1.00  0.00     0.001 A 
ATOM     79  C   UNL A   1      35.496  31.927  44.095  1.00  0.00     0.000 A 
ENDBRANCH  60  74
BRANCH  61  80
ATOM     80  C   UNL A   1      43.413  37.137  35.456  1.00  0.00    -0.014 A 
ATOM     81  C   UNL A   1      43.039  38.213  34.631  1.00  0.00     0.009 A 
ATOM     82  C   UNL A   1      44.706  36.621  35.274  1.00  0.00     0.009 A 
ATOM     83  C   UNL A   1      43.906  38.751  33.673  1.00  0.00     0.001 A 
ATOM     84  C   UNL A   1      45.602  37.203  34.365  1.00  0.00     0.001 A 
ATOM     85  C   UNL A   1      45.200  38.263  33.559  1.00  0.00     0.000 A 
ENDBRANCH  61  80
BRANCH  73  86
ATOM     86  C   UNL A   1      43.471  36.774  42.434  1.00  0.00    -0.014 A 
ATOM     87  C   UNL A   1      44.595  36.061  42.888  1.00  0.00     0.009 A 
ATOM     88  C   UNL A   1      43.257  38.073  42.921  1.00  0.00     0.009 A 
ATOM     89  C   UNL A   1      45.452  36.617  43.840  1.00  0.00     0.001 A 
ATOM     90  C   UNL A   1      44.140  38.642  43.843  1.00  0.00     0.001 A 
ATOM     91  C   UNL A   1      45.228  37.909  44.311  1.00  0.00     0.000 A 
ENDBRANCH  73  86
ENDBRANCH  47  48
ENDBRANCH  40  42
ENDBRANCH  39  40
ENDBRANCH  38  39
ENDBRANCH  37  38
ENDBRANCH  36  37
ENDBRANCH  35  36
ENDBRANCH   1  35
TORSDOF 21
ENDMDL
