MODEL 1
REMARK VINA RESULT:      -9.6      0.000      0.000
REMARK SMILES CC[C@H](C)Oc1ccc(NC(=O)/C=C/C(=O)OCCOCCOCCOC(=O)c2ccc(-c3c4nc(c(-c5ccccc5)c5ccc([nH]5)c(-c5ccccc5)c5nc(c(-c6ccccc6)c6ccc3[nH]6)C=C5)C=C4)cc2)cc1
REMARK SMILES IDX 20 1 19 2 18 3 17 4 15 5 16 6 14 7 13 8 11 9 10 10 12 12
REMARK SMILES IDX 9 13 6 14 7 15 78 16 8 17 77 18 5 19 3 20 4 21 2 22 1 23
REMARK SMILES IDX 21 24 22 25 23 26 24 27 25 28 26 29 27 30 28 31 29 32 30 33
REMARK SMILES IDX 76 34 31 35 75 36 32 37 33 38 34 39 69 40 35 41 74 42 68 43
REMARK SMILES IDX 70 44 36 45 73 46 67 47 66 48 37 50 59 51 44 52 58 53 45 54
REMARK SMILES IDX 48 55 57 56 71 57 46 58 47 59 56 61 72 62 49 63 38 64 39 65
REMARK SMILES IDX 43 66 40 67 42 68 41 69 60 70 61 71 65 72 62 73 64 74 63 75
REMARK SMILES IDX 50 76 51 77 55 78 52 79 54 80 53 81
REMARK H PARENT 10 11 70 49 48 60
REMARK Flexibility Score: inf
ROOT
ATOM      1  O   UNL A   1      33.727  22.520  23.042  1.00  0.00    -0.376 OA
ENDROOT
BRANCH   1   2
ATOM      2  C   UNL A   1      33.228  23.402  22.039  1.00  0.00     0.202 C 
BRANCH   2   3
ATOM      3  C   UNL A   1      32.764  24.811  22.448  1.00  0.00     0.261 C 
BRANCH   3   4
ATOM      4  O   UNL A   1      33.651  25.886  22.072  1.00  0.00    -0.460 OA
BRANCH   4   5
ATOM      5  C   UNL A   1      33.551  27.010  22.829  1.00  0.00     0.331 C 
ATOM      6  O   UNL A   1      33.645  28.160  22.424  1.00  0.00    -0.247 OA
BRANCH   5   7
ATOM      7  C   UNL A   1      33.175  26.731  24.231  1.00  0.00     0.099 C 
ATOM      8  C   UNL A   1      31.974  26.969  24.775  1.00  0.00     0.079 C 
BRANCH   8   9
ATOM      9  C   UNL A   1      31.707  26.734  26.213  1.00  0.00     0.248 C 
ATOM     10  N   UNL A   1      32.234  27.523  27.198  1.00  0.00    -0.323 N 
ATOM     11  H   UNL A   1      32.073  27.171  28.103  1.00  0.00     0.170 HD
ATOM     12  O   UNL A   1      30.979  25.791  26.520  1.00  0.00    -0.270 OA
BRANCH  10  13
ATOM     13  C   UNL A   1      32.957  28.731  27.193  1.00  0.00     0.041 A 
ATOM     14  C   UNL A   1      34.267  31.206  27.449  1.00  0.00     0.119 A 
ATOM     15  C   UNL A   1      34.997  30.029  27.369  1.00  0.00     0.048 A 
ATOM     16  C   UNL A   1      32.894  31.163  27.257  1.00  0.00     0.048 A 
ATOM     17  C   UNL A   1      34.342  28.807  27.217  1.00  0.00     0.030 A 
ATOM     18  C   UNL A   1      32.238  29.928  27.143  1.00  0.00     0.030 A 
BRANCH  14  19
ATOM     19  O   UNL A   1      35.000  32.333  27.625  1.00  0.00    -0.491 OA
BRANCH  19  20
ATOM     20  C   UNL A   1      34.649  33.270  28.658  1.00  0.00     0.170 C 
ATOM     21  C   UNL A   1      35.886  33.797  29.372  1.00  0.00     0.053 C 
BRANCH  20  22
ATOM     22  C   UNL A   1      33.543  34.286  28.307  1.00  0.00     0.041 C 
ATOM     23  C   UNL A   1      33.333  35.419  29.299  1.00  0.00     0.008 C 
ENDBRANCH  20  22
ENDBRANCH  19  20
ENDBRANCH  14  19
ENDBRANCH  10  13
ENDBRANCH   8   9
ENDBRANCH   5   7
ENDBRANCH   4   5
ENDBRANCH   3   4
ENDBRANCH   2   3
ENDBRANCH   1   2
BRANCH   1  24
ATOM     24  C   UNL A   1      32.787  21.776  23.806  1.00  0.00     0.188 C 
BRANCH  24  25
ATOM     25  C   UNL A   1      33.297  20.652  24.732  1.00  0.00     0.188 C 
BRANCH  25  26
ATOM     26  O   UNL A   1      33.860  21.129  25.933  1.00  0.00    -0.376 OA
BRANCH  26  27
ATOM     27  C   UNL A   1      35.256  21.376  25.948  1.00  0.00     0.202 C 
BRANCH  27  28
ATOM     28  C   UNL A   1      36.207  20.466  25.149  1.00  0.00     0.261 C 
BRANCH  28  29
ATOM     29  O   UNL A   1      37.471  21.019  24.742  1.00  0.00    -0.460 OA
BRANCH  29  30
ATOM     30  C   UNL A   1      38.551  20.709  25.485  1.00  0.00     0.338 C 
ATOM     31  O   UNL A   1      39.059  19.599  25.624  1.00  0.00    -0.246 OA
BRANCH  30  32
ATOM     32  C   UNL A   1      39.121  21.954  26.033  1.00  0.00     0.060 A 
ATOM     33  C   UNL A   1      38.506  23.180  25.752  1.00  0.00     0.016 A 
ATOM     34  C   UNL A   1      40.300  21.913  26.784  1.00  0.00     0.016 A 
ATOM     35  C   UNL A   1      39.089  24.372  26.196  1.00  0.00     0.010 A 
ATOM     36  C   UNL A   1      40.892  23.108  27.211  1.00  0.00     0.010 A 
ATOM     37  C   UNL A   1      40.307  24.345  26.893  1.00  0.00    -0.014 A 
BRANCH  37  38
ATOM     38  C   UNL A   1      41.039  25.608  27.165  1.00  0.00     0.031 A 
ATOM     39  C   UNL A   1      40.448  26.604  28.123  1.00  0.00     0.074 A 
ATOM     40  C   UNL A   1      42.204  25.886  26.553  1.00  0.00     0.049 A 
ATOM     41  N   UNL A   1      40.922  27.759  28.517  1.00  0.00    -0.248 NA
ATOM     42  C   UNL A   1      39.133  26.263  28.690  1.00  0.00     0.031 C 
ATOM     43  C   UNL A   1      42.858  25.027  25.572  1.00  0.00     0.029 A 
ATOM     44  N   UNL A   1      43.047  26.965  26.673  1.00  0.00    -0.354 N 
ATOM     45  C   UNL A   1      39.947  28.301  29.346  1.00  0.00     0.074 A 
ATOM     46  C   UNL A   1      38.859  27.348  29.399  1.00  0.00     0.031 C 
ATOM     47  C   UNL A   1      44.021  25.593  25.208  1.00  0.00     0.029 A 
ATOM     48  C   UNL A   1      44.201  26.846  25.936  1.00  0.00     0.049 A 
ATOM     49  H   UNL A   1      42.843  27.748  27.234  1.00  0.00     0.167 HD
ATOM     50  C   UNL A   1      39.950  29.494  29.988  1.00  0.00     0.031 A 
ATOM     51  C   UNL A   1      45.290  27.641  25.882  1.00  0.00     0.031 A 
ATOM     52  C   UNL A   1      41.020  30.453  29.920  1.00  0.00     0.049 A 
ATOM     53  C   UNL A   1      45.300  28.926  26.670  1.00  0.00     0.074 A 
ATOM     54  C   UNL A   1      41.107  31.694  30.527  1.00  0.00     0.029 A 
ATOM     55  N   UNL A   1      42.190  30.278  29.198  1.00  0.00    -0.354 N 
ATOM     56  N   UNL A   1      44.393  29.405  27.485  1.00  0.00    -0.248 NA
ATOM     57  C   UNL A   1      46.482  29.788  26.515  1.00  0.00     0.031 C 
ATOM     58  C   UNL A   1      42.311  32.289  30.137  1.00  0.00     0.029 A 
ATOM     59  C   UNL A   1      42.999  31.394  29.333  1.00  0.00     0.049 A 
ATOM     60  H   UNL A   1      42.412  29.479  28.667  1.00  0.00     0.167 HD
ATOM     61  C   UNL A   1      44.890  30.623  27.932  1.00  0.00     0.074 A 
ATOM     62  C   UNL A   1      46.203  30.782  27.344  1.00  0.00     0.031 C 
ATOM     63  C   UNL A   1      44.300  31.542  28.736  1.00  0.00     0.031 A 
BRANCH  50  64
ATOM     64  C   UNL A   1      38.721  29.849  30.776  1.00  0.00    -0.014 A 
ATOM     65  C   UNL A   1      38.648  29.626  32.160  1.00  0.00     0.009 A 
ATOM     66  C   UNL A   1      37.621  30.427  30.122  1.00  0.00     0.009 A 
ATOM     67  C   UNL A   1      37.485  29.943  32.867  1.00  0.00     0.001 A 
ATOM     68  C   UNL A   1      36.472  30.770  30.836  1.00  0.00     0.001 A 
ATOM     69  C   UNL A   1      36.401  30.518  32.205  1.00  0.00     0.000 A 
ENDBRANCH  50  64
BRANCH  51  70
ATOM     70  C   UNL A   1      46.491  27.235  25.096  1.00  0.00    -0.014 A 
ATOM     71  C   UNL A   1      46.754  27.835  23.853  1.00  0.00     0.009 A 
ATOM     72  C   UNL A   1      47.369  26.246  25.560  1.00  0.00     0.009 A 
ATOM     73  C   UNL A   1      47.860  27.451  23.090  1.00  0.00     0.001 A 
ATOM     74  C   UNL A   1      48.491  25.883  24.810  1.00  0.00     0.001 A 
ATOM     75  C   UNL A   1      48.732  26.480  23.573  1.00  0.00     0.000 A 
ENDBRANCH  51  70
BRANCH  63  76
ATOM     76  C   UNL A   1      45.071  32.802  29.021  1.00  0.00    -0.014 A 
ATOM     77  C   UNL A   1      45.876  32.916  30.165  1.00  0.00     0.009 A 
ATOM     78  C   UNL A   1      45.022  33.872  28.114  1.00  0.00     0.009 A 
ATOM     79  C   UNL A   1      46.586  34.092  30.416  1.00  0.00     0.001 A 
ATOM     80  C   UNL A   1      45.756  35.036  28.354  1.00  0.00     0.001 A 
ATOM     81  C   UNL A   1      46.528  35.149  29.509  1.00  0.00     0.000 A 
ENDBRANCH  63  76
ENDBRANCH  37  38
ENDBRANCH  30  32
ENDBRANCH  29  30
ENDBRANCH  28  29
ENDBRANCH  27  28
ENDBRANCH  26  27
ENDBRANCH  25  26
ENDBRANCH  24  25
ENDBRANCH   1  24
TORSDOF 22
ENDMDL
MODEL 2
REMARK VINA RESULT:      -9.4      2.446      7.413
REMARK SMILES CC[C@H](C)Oc1ccc(NC(=O)/C=C/C(=O)OCCOCCOCCOC(=O)c2ccc(-c3c4nc(c(-c5ccccc5)c5ccc([nH]5)c(-c5ccccc5)c5nc(c(-c6ccccc6)c6ccc3[nH]6)C=C5)C=C4)cc2)cc1
REMARK SMILES IDX 20 1 19 2 18 3 17 4 15 5 16 6 14 7 13 8 11 9 10 10 12 12
REMARK SMILES IDX 9 13 6 14 7 15 78 16 8 17 77 18 5 19 3 20 4 21 2 22 1 23
REMARK SMILES IDX 21 24 22 25 23 26 24 27 25 28 26 29 27 30 28 31 29 32 30 33
REMARK SMILES IDX 76 34 31 35 75 36 32 37 33 38 34 39 69 40 35 41 74 42 68 43
REMARK SMILES IDX 70 44 36 45 73 46 67 47 66 48 37 50 59 51 44 52 58 53 45 54
REMARK SMILES IDX 48 55 57 56 71 57 46 58 47 59 56 61 72 62 49 63 38 64 39 65
REMARK SMILES IDX 43 66 40 67 42 68 41 69 60 70 61 71 65 72 62 73 64 74 63 75
REMARK SMILES IDX 50 76 51 77 55 78 52 79 54 80 53 81
REMARK H PARENT 10 11 70 49 48 60
REMARK Flexibility Score: inf
ROOT
ATOM      1  O   UNL A   1      35.812  23.491  23.872  1.00  0.00    -0.376 OA
ENDROOT
BRANCH   1   2
ATOM      2  C   UNL A   1      34.848  23.302  22.839  1.00  0.00     0.202 C 
BRANCH   2   3
ATOM      3  C   UNL A   1      33.563  24.150  22.853  1.00  0.00     0.261 C 
BRANCH   3   4
ATOM      4  O   UNL A   1      33.609  25.353  22.056  1.00  0.00    -0.460 OA
BRANCH   4   5
ATOM      5  C   UNL A   1      33.568  26.514  22.760  1.00  0.00     0.331 C 
ATOM      6  O   UNL A   1      33.713  27.638  22.301  1.00  0.00    -0.247 OA
BRANCH   5   7
ATOM      7  C   UNL A   1      33.190  26.319  24.175  1.00  0.00     0.099 C 
ATOM      8  C   UNL A   1      32.139  26.885  24.784  1.00  0.00     0.079 C 
BRANCH   8   9
ATOM      9  C   UNL A   1      31.880  26.698  26.230  1.00  0.00     0.248 C 
ATOM     10  N   UNL A   1      31.692  25.466  26.793  1.00  0.00    -0.323 N 
ATOM     11  H   UNL A   1      31.406  25.509  27.733  1.00  0.00     0.170 HD
ATOM     12  O   UNL A   1      31.837  27.700  26.944  1.00  0.00    -0.270 OA
BRANCH  10  13
ATOM     13  C   UNL A   1      31.821  24.149  26.312  1.00  0.00     0.041 A 
ATOM     14  C   UNL A   1      32.124  21.435  25.640  1.00  0.00     0.119 A 
ATOM     15  C   UNL A   1      30.941  22.102  25.356  1.00  0.00     0.048 A 
ATOM     16  C   UNL A   1      33.205  22.157  26.126  1.00  0.00     0.048 A 
ATOM     17  C   UNL A   1      30.806  23.454  25.670  1.00  0.00     0.030 A 
ATOM     18  C   UNL A   1      33.050  23.507  26.474  1.00  0.00     0.030 A 
BRANCH  14  19
ATOM     19  O   UNL A   1      32.138  20.117  25.322  1.00  0.00    -0.491 OA
BRANCH  19  20
ATOM     20  C   UNL A   1      32.963  19.642  24.244  1.00  0.00     0.170 C 
ATOM     21  C   UNL A   1      33.899  18.535  24.709  1.00  0.00     0.053 C 
BRANCH  20  22
ATOM     22  C   UNL A   1      32.262  19.457  22.883  1.00  0.00     0.041 C 
ATOM     23  C   UNL A   1      32.375  18.078  22.253  1.00  0.00     0.008 C 
ENDBRANCH  20  22
ENDBRANCH  19  20
ENDBRANCH  14  19
ENDBRANCH  10  13
ENDBRANCH   8   9
ENDBRANCH   5   7
ENDBRANCH   4   5
ENDBRANCH   3   4
ENDBRANCH   2   3
ENDBRANCH   1   2
BRANCH   1  24
ATOM     24  C   UNL A   1      36.801  22.486  24.054  1.00  0.00     0.188 C 
BRANCH  24  25
ATOM     25  C   UNL A   1      36.526  21.336  25.046  1.00  0.00     0.188 C 
BRANCH  25  26
ATOM     26  O   UNL A   1      37.430  20.262  24.921  1.00  0.00    -0.376 OA
BRANCH  26  27
ATOM     27  C   UNL A   1      38.779  20.497  25.283  1.00  0.00     0.202 C 
BRANCH  27  28
ATOM     28  C   UNL A   1      39.664  19.331  25.759  1.00  0.00     0.261 C 
BRANCH  28  29
ATOM     29  O   UNL A   1      41.021  19.288  25.286  1.00  0.00    -0.460 OA
BRANCH  29  30
ATOM     30  C   UNL A   1      42.000  19.445  26.196  1.00  0.00     0.338 C 
ATOM     31  O   UNL A   1      42.836  18.610  26.535  1.00  0.00    -0.246 OA
BRANCH  30  32
ATOM     32  C   UNL A   1      41.996  20.845  26.660  1.00  0.00     0.060 A 
ATOM     33  C   UNL A   1      42.290  21.875  25.758  1.00  0.00     0.016 A 
ATOM     34  C   UNL A   1      41.752  21.136  28.006  1.00  0.00     0.016 A 
ATOM     35  C   UNL A   1      42.373  23.196  26.209  1.00  0.00     0.010 A 
ATOM     36  C   UNL A   1      41.853  22.457  28.458  1.00  0.00     0.010 A 
ATOM     37  C   UNL A   1      42.195  23.490  27.570  1.00  0.00    -0.014 A 
BRANCH  37  38
ATOM     38  C   UNL A   1      42.503  24.847  28.087  1.00  0.00     0.031 A 
ATOM     39  C   UNL A   1      43.939  25.239  28.302  1.00  0.00     0.074 A 
ATOM     40  C   UNL A   1      41.525  25.720  28.387  1.00  0.00     0.049 A 
ATOM     41  N   UNL A   1      44.435  26.372  28.728  1.00  0.00    -0.248 NA
ATOM     42  C   UNL A   1      44.946  24.202  28.027  1.00  0.00     0.031 C 
ATOM     43  C   UNL A   1      40.097  25.447  28.265  1.00  0.00     0.029 A 
ATOM     44  N   UNL A   1      41.585  27.014  28.846  1.00  0.00    -0.354 N 
ATOM     45  C   UNL A   1      45.808  26.174  28.810  1.00  0.00     0.074 A 
ATOM     46  C   UNL A   1      46.065  24.813  28.388  1.00  0.00     0.031 C 
ATOM     47  C   UNL A   1      39.416  26.555  28.604  1.00  0.00     0.029 A 
ATOM     48  C   UNL A   1      40.355  27.617  28.953  1.00  0.00     0.049 A 
ATOM     49  H   UNL A   1      42.430  27.465  29.076  1.00  0.00     0.167 HD
ATOM     50  C   UNL A   1      46.765  27.039  29.221  1.00  0.00     0.031 A 
ATOM     51  C   UNL A   1      40.028  28.888  29.266  1.00  0.00     0.031 A 
ATOM     52  C   UNL A   1      46.511  28.385  29.663  1.00  0.00     0.049 A 
ATOM     53  C   UNL A   1      41.122  29.855  29.642  1.00  0.00     0.074 A 
ATOM     54  C   UNL A   1      47.417  29.333  30.107  1.00  0.00     0.029 A 
ATOM     55  N   UNL A   1      45.258  28.973  29.716  1.00  0.00    -0.354 N 
ATOM     56  N   UNL A   1      42.418  29.669  29.671  1.00  0.00    -0.248 NA
ATOM     57  C   UNL A   1      40.701  31.207  30.043  1.00  0.00     0.031 C 
ATOM     58  C   UNL A   1      46.705  30.480  30.473  1.00  0.00     0.029 A 
ATOM     59  C   UNL A   1      45.364  30.267  30.201  1.00  0.00     0.049 A 
ATOM     60  H   UNL A   1      44.417  28.536  29.451  1.00  0.00     0.167 HD
ATOM     61  C   UNL A   1      42.965  30.872  30.101  1.00  0.00     0.074 A 
ATOM     62  C   UNL A   1      41.865  31.799  30.264  1.00  0.00     0.031 C 
ATOM     63  C   UNL A   1      44.260  31.175  30.364  1.00  0.00     0.031 A 
BRANCH  50  64
ATOM     64  C   UNL A   1      48.177  26.527  29.264  1.00  0.00    -0.014 A 
ATOM     65  C   UNL A   1      48.691  25.890  30.405  1.00  0.00     0.009 A 
ATOM     66  C   UNL A   1      49.003  26.675  28.139  1.00  0.00     0.009 A 
ATOM     67  C   UNL A   1      50.014  25.444  30.429  1.00  0.00     0.001 A 
ATOM     68  C   UNL A   1      50.316  26.202  28.156  1.00  0.00     0.001 A 
ATOM     69  C   UNL A   1      50.823  25.595  29.304  1.00  0.00     0.000 A 
ENDBRANCH  50  64
BRANCH  51  70
ATOM     70  C   UNL A   1      38.612  29.351  29.192  1.00  0.00    -0.014 A 
ATOM     71  C   UNL A   1      38.101  29.866  27.989  1.00  0.00     0.009 A 
ATOM     72  C   UNL A   1      37.767  29.302  30.310  1.00  0.00     0.009 A 
ATOM     73  C   UNL A   1      36.786  30.328  27.906  1.00  0.00     0.001 A 
ATOM     74  C   UNL A   1      36.442  29.737  30.219  1.00  0.00     0.001 A 
ATOM     75  C   UNL A   1      35.954  30.256  29.021  1.00  0.00     0.000 A 
ENDBRANCH  51  70
BRANCH  63  76
ATOM     76  C   UNL A   1      44.553  32.564  30.860  1.00  0.00    -0.014 A 
ATOM     77  C   UNL A   1      44.572  32.854  32.234  1.00  0.00     0.009 A 
ATOM     78  C   UNL A   1      44.851  33.586  29.946  1.00  0.00     0.009 A 
ATOM     79  C   UNL A   1      44.846  34.149  32.680  1.00  0.00     0.001 A 
ATOM     80  C   UNL A   1      45.153  34.873  30.397  1.00  0.00     0.001 A 
ATOM     81  C   UNL A   1      45.139  35.155  31.762  1.00  0.00     0.000 A 
ENDBRANCH  63  76
ENDBRANCH  37  38
ENDBRANCH  30  32
ENDBRANCH  29  30
ENDBRANCH  28  29
ENDBRANCH  27  28
ENDBRANCH  26  27
ENDBRANCH  25  26
ENDBRANCH  24  25
ENDBRANCH   1  24
TORSDOF 22
ENDMDL
MODEL 3
REMARK VINA RESULT:      -9.2      3.654      8.003
REMARK SMILES CC[C@H](C)Oc1ccc(NC(=O)/C=C/C(=O)OCCOCCOCCOC(=O)c2ccc(-c3c4nc(c(-c5ccccc5)c5ccc([nH]5)c(-c5ccccc5)c5nc(c(-c6ccccc6)c6ccc3[nH]6)C=C5)C=C4)cc2)cc1
REMARK SMILES IDX 20 1 19 2 18 3 17 4 15 5 16 6 14 7 13 8 11 9 10 10 12 12
REMARK SMILES IDX 9 13 6 14 7 15 78 16 8 17 77 18 5 19 3 20 4 21 2 22 1 23
REMARK SMILES IDX 21 24 22 25 23 26 24 27 25 28 26 29 27 30 28 31 29 32 30 33
REMARK SMILES IDX 76 34 31 35 75 36 32 37 33 38 34 39 69 40 35 41 74 42 68 43
REMARK SMILES IDX 70 44 36 45 73 46 67 47 66 48 37 50 59 51 44 52 58 53 45 54
REMARK SMILES IDX 48 55 57 56 71 57 46 58 47 59 56 61 72 62 49 63 38 64 39 65
REMARK SMILES IDX 43 66 40 67 42 68 41 69 60 70 61 71 65 72 62 73 64 74 63 75
REMARK SMILES IDX 50 76 51 77 55 78 52 79 54 80 53 81
REMARK H PARENT 10 11 70 49 48 60
REMARK Flexibility Score: inf
ROOT
ATOM      1  O   UNL A   1      32.105  28.359  27.069  1.00  0.00    -0.376 OA
ENDROOT
BRANCH   1   2
ATOM      2  C   UNL A   1      31.466  27.129  26.734  1.00  0.00     0.202 C 
BRANCH   2   3
ATOM      3  C   UNL A   1      32.294  26.012  26.073  1.00  0.00     0.261 C 
BRANCH   3   4
ATOM      4  O   UNL A   1      32.242  24.732  26.738  1.00  0.00    -0.460 OA
BRANCH   4   5
ATOM      5  C   UNL A   1      32.698  23.682  26.006  1.00  0.00     0.331 C 
ATOM      6  O   UNL A   1      33.198  22.659  26.450  1.00  0.00    -0.247 OA
BRANCH   5   7
ATOM      7  C   UNL A   1      32.417  23.819  24.561  1.00  0.00     0.099 C 
ATOM      8  C   UNL A   1      33.326  24.093  23.615  1.00  0.00     0.079 C 
BRANCH   8   9
ATOM      9  C   UNL A   1      32.944  24.294  22.199  1.00  0.00     0.248 C 
ATOM     10  N   UNL A   1      32.141  25.323  21.792  1.00  0.00    -0.323 N 
ATOM     11  H   UNL A   1      31.872  25.255  20.847  1.00  0.00     0.170 HD
ATOM     12  O   UNL A   1      33.375  23.499  21.364  1.00  0.00    -0.270 OA
BRANCH  10  13
ATOM     13  C   UNL A   1      31.616  26.459  22.436  1.00  0.00     0.041 A 
ATOM     14  C   UNL A   1      30.592  28.872  23.456  1.00  0.00     0.119 A 
ATOM     15  C   UNL A   1      29.828  27.715  23.488  1.00  0.00     0.048 A 
ATOM     16  C   UNL A   1      31.916  28.795  23.049  1.00  0.00     0.048 A 
ATOM     17  C   UNL A   1      30.351  26.516  23.003  1.00  0.00     0.030 A 
ATOM     18  C   UNL A   1      32.423  27.595  22.527  1.00  0.00     0.030 A 
BRANCH  14  19
ATOM     19  O   UNL A   1      29.978  29.986  23.924  1.00  0.00    -0.491 OA
BRANCH  19  20
ATOM     20  C   UNL A   1      28.968  30.641  23.137  1.00  0.00     0.170 C 
ATOM     21  C   UNL A   1      28.759  32.080  23.589  1.00  0.00     0.053 C 
BRANCH  20  22
ATOM     22  C   UNL A   1      29.007  30.369  21.619  1.00  0.00     0.041 C 
ATOM     23  C   UNL A   1      28.088  31.224  20.761  1.00  0.00     0.008 C 
ENDBRANCH  20  22
ENDBRANCH  19  20
ENDBRANCH  14  19
ENDBRANCH  10  13
ENDBRANCH   8   9
ENDBRANCH   5   7
ENDBRANCH   4   5
ENDBRANCH   3   4
ENDBRANCH   2   3
ENDBRANCH   1   2
BRANCH   1  24
ATOM     24  C   UNL A   1      33.470  28.523  26.706  1.00  0.00     0.188 C 
BRANCH  24  25
ATOM     25  C   UNL A   1      34.202  29.818  27.114  1.00  0.00     0.188 C 
BRANCH  25  26
ATOM     26  O   UNL A   1      33.371  30.746  27.774  1.00  0.00    -0.376 OA
BRANCH  26  27
ATOM     27  C   UNL A   1      32.459  31.487  26.982  1.00  0.00     0.202 C 
BRANCH  27  28
ATOM     28  C   UNL A   1      32.084  32.926  27.381  1.00  0.00     0.261 C 
BRANCH  28  29
ATOM     29  O   UNL A   1      33.156  33.861  27.588  1.00  0.00    -0.460 OA
BRANCH  29  30
ATOM     30  C   UNL A   1      33.319  34.353  28.831  1.00  0.00     0.338 C 
ATOM     31  O   UNL A   1      32.497  34.987  29.489  1.00  0.00    -0.246 OA
BRANCH  30  32
ATOM     32  C   UNL A   1      34.626  33.908  29.349  1.00  0.00     0.060 A 
ATOM     33  C   UNL A   1      35.800  34.292  28.689  1.00  0.00     0.016 A 
ATOM     34  C   UNL A   1      34.688  33.064  30.462  1.00  0.00     0.016 A 
ATOM     35  C   UNL A   1      37.036  33.804  29.123  1.00  0.00     0.010 A 
ATOM     36  C   UNL A   1      35.925  32.562  30.884  1.00  0.00     0.010 A 
ATOM     37  C   UNL A   1      37.102  32.904  30.198  1.00  0.00    -0.014 A 
BRANCH  37  38
ATOM     38  C   UNL A   1      38.378  32.213  30.515  1.00  0.00     0.031 A 
ATOM     39  C   UNL A   1      39.281  32.790  31.569  1.00  0.00     0.074 A 
ATOM     40  C   UNL A   1      38.749  31.097  29.861  1.00  0.00     0.049 A 
ATOM     41  N   UNL A   1      40.428  32.345  32.014  1.00  0.00    -0.248 NA
ATOM     42  C   UNL A   1      38.843  34.055  32.181  1.00  0.00     0.031 C 
ATOM     43  C   UNL A   1      37.986  30.464  28.791  1.00  0.00     0.029 A 
ATOM     44  N   UNL A   1      39.856  30.296  30.008  1.00  0.00    -0.354 N 
ATOM     45  C   UNL A   1      40.869  33.293  32.929  1.00  0.00     0.074 A 
ATOM     46  C   UNL A   1      39.865  34.334  32.976  1.00  0.00     0.031 C 
ATOM     47  C   UNL A   1      38.629  29.349  28.404  1.00  0.00     0.029 A 
ATOM     48  C   UNL A   1      39.839  29.181  29.204  1.00  0.00     0.049 A 
ATOM     49  H   UNL A   1      40.591  30.501  30.631  1.00  0.00     0.167 HD
ATOM     50  C   UNL A   1      42.017  33.305  33.649  1.00  0.00     0.031 A 
ATOM     51  C   UNL A   1      40.685  28.132  29.145  1.00  0.00     0.031 A 
ATOM     52  C   UNL A   1      43.027  32.283  33.588  1.00  0.00     0.049 A 
ATOM     53  C   UNL A   1      41.915  28.133  30.016  1.00  0.00     0.074 A 
ATOM     54  C   UNL A   1      44.228  32.214  34.272  1.00  0.00     0.029 A 
ATOM     55  N   UNL A   1      42.954  31.149  32.794  1.00  0.00    -0.354 N 
ATOM     56  N   UNL A   1      42.298  29.011  30.910  1.00  0.00    -0.248 NA
ATOM     57  C   UNL A   1      42.839  26.999  29.857  1.00  0.00     0.031 C 
ATOM     58  C   UNL A   1      44.903  31.060  33.858  1.00  0.00     0.029 A 
ATOM     59  C   UNL A   1      44.095  30.382  32.961  1.00  0.00     0.049 A 
ATOM     60  H   UNL A   1      42.203  30.923  32.199  1.00  0.00     0.167 HD
ATOM     61  C   UNL A   1      43.506  28.543  31.411  1.00  0.00     0.074 A 
ATOM     62  C   UNL A   1      43.764  27.273  30.765  1.00  0.00     0.031 C 
ATOM     63  C   UNL A   1      44.342  29.124  32.306  1.00  0.00     0.031 A 
BRANCH  50  64
ATOM     64  C   UNL A   1      42.262  34.501  34.524  1.00  0.00    -0.014 A 
ATOM     65  C   UNL A   1      41.856  34.522  35.868  1.00  0.00     0.009 A 
ATOM     66  C   UNL A   1      42.923  35.622  33.996  1.00  0.00     0.009 A 
ATOM     67  C   UNL A   1      42.075  35.655  36.654  1.00  0.00     0.001 A 
ATOM     68  C   UNL A   1      43.166  36.742  34.793  1.00  0.00     0.001 A 
ATOM     69  C   UNL A   1      42.733  36.761  36.118  1.00  0.00     0.000 A 
ENDBRANCH  50  64
BRANCH  51  70
ATOM     70  C   UNL A   1      40.388  26.962  28.270  1.00  0.00    -0.014 A 
ATOM     71  C   UNL A   1      40.864  26.932  26.948  1.00  0.00     0.009 A 
ATOM     72  C   UNL A   1      39.621  25.882  28.728  1.00  0.00     0.009 A 
ATOM     73  C   UNL A   1      40.576  25.856  26.105  1.00  0.00     0.001 A 
ATOM     74  C   UNL A   1      39.356  24.793  27.893  1.00  0.00     0.001 A 
ATOM     75  C   UNL A   1      39.827  24.783  26.581  1.00  0.00     0.000 A 
ENDBRANCH  51  70
BRANCH  63  76
ATOM     76  C   UNL A   1      45.615  28.393  32.632  1.00  0.00    -0.014 A 
ATOM     77  C   UNL A   1      45.658  27.434  33.657  1.00  0.00     0.009 A 
ATOM     78  C   UNL A   1      46.775  28.638  31.881  1.00  0.00     0.009 A 
ATOM     79  C   UNL A   1      46.847  26.764  33.950  1.00  0.00     0.001 A 
ATOM     80  C   UNL A   1      47.955  27.944  32.157  1.00  0.00     0.001 A 
ATOM     81  C   UNL A   1      47.993  27.016  33.198  1.00  0.00     0.000 A 
ENDBRANCH  63  76
ENDBRANCH  37  38
ENDBRANCH  30  32
ENDBRANCH  29  30
ENDBRANCH  28  29
ENDBRANCH  27  28
ENDBRANCH  26  27
ENDBRANCH  25  26
ENDBRANCH  24  25
ENDBRANCH   1  24
TORSDOF 22
ENDMDL
