MODEL 1
REMARK VINA RESULT:      -9.9      0.000      0.000
REMARK SMILES O=C(OCCOCCOCCOC(=O)[C@@H]1C[C@@H]2CC[C@H]1N2C(=O)c1ccncc1Cl)c1ccc(-c2c3nc(c(-c4ccccc4)c4ccc([nH]4)c(-c4ccccc4)c4nc(c(-c5ccccc5)c5ccc2[nH]5)C=C4)C=C3)cc1
REMARK SMILES IDX 7 1 6 2 5 3 4 4 3 5 2 6 1 7 31 8 32 9 78 10 33 11 77 12
REMARK SMILES IDX 34 13 35 14 36 15 71 16 37 17 76 18 70 19 72 20 38 21 75 22
REMARK SMILES IDX 69 23 68 24 39 26 61 27 46 28 60 29 47 30 50 31 59 32 73 33
REMARK SMILES IDX 48 34 49 35 58 37 74 38 51 39 40 40 41 41 45 42 42 43 44 44
REMARK SMILES IDX 43 45 62 46 63 47 67 48 64 49 66 50 65 51 52 52 53 53 57 54
REMARK SMILES IDX 54 55 56 56 55 57 8 58 9 59 10 60 11 61 12 62 13 63 14 64
REMARK SMILES IDX 15 65 16 66 20 67 17 68 19 69 21 70 18 71 22 72 23 73 24 74
REMARK SMILES IDX 25 75 29 76 26 77 28 78 30 79 27 80
REMARK H PARENT 72 25 50 36
REMARK Flexibility Score: inf
ROOT
ATOM      1  C   UNL A   1      40.476  21.439  26.569  1.00  0.00     0.188 C 
ENDROOT
BRANCH   1   2
ATOM      2  O   UNL A   1      41.505  21.545  25.574  1.00  0.00    -0.376 OA
BRANCH   2   3
ATOM      3  C   UNL A   1      42.737  20.934  25.983  1.00  0.00     0.202 C 
BRANCH   3   4
ATOM      4  C   UNL A   1      44.010  21.635  25.488  1.00  0.00     0.261 C 
BRANCH   4   5
ATOM      5  O   UNL A   1      44.253  22.878  26.161  1.00  0.00    -0.460 OA
BRANCH   5   6
ATOM      6  C   UNL A   1      43.894  24.130  25.792  1.00  0.00     0.338 C 
ATOM      7  O   UNL A   1      44.117  24.467  24.628  1.00  0.00    -0.246 OA
BRANCH   6   8
ATOM      8  C   UNL A   1      43.229  25.138  26.684  1.00  0.00     0.060 A 
ATOM      9  C   UNL A   1      43.551  26.493  26.803  1.00  0.00     0.016 A 
ATOM     10  C   UNL A   1      42.158  24.660  27.462  1.00  0.00     0.016 A 
ATOM     11  C   UNL A   1      42.916  27.313  27.742  1.00  0.00     0.010 A 
ATOM     12  C   UNL A   1      41.496  25.482  28.380  1.00  0.00     0.010 A 
ATOM     13  C   UNL A   1      41.901  26.807  28.555  1.00  0.00    -0.014 A 
BRANCH  13  14
ATOM     14  C   UNL A   1      41.432  27.625  29.698  1.00  0.00     0.031 A 
ATOM     15  C   UNL A   1      42.268  27.648  30.933  1.00  0.00     0.074 A 
ATOM     16  C   UNL A   1      40.343  28.410  29.601  1.00  0.00     0.049 A 
ATOM     17  N   UNL A   1      42.118  28.362  32.014  1.00  0.00    -0.248 NA
ATOM     18  C   UNL A   1      43.414  26.725  30.966  1.00  0.00     0.031 C 
ATOM     19  C   UNL A   1      39.440  28.414  28.467  1.00  0.00     0.029 A 
ATOM     20  N   UNL A   1      39.821  29.367  30.432  1.00  0.00    -0.354 N 
ATOM     21  C   UNL A   1      43.120  27.942  32.874  1.00  0.00     0.074 A 
ATOM     22  C   UNL A   1      43.865  26.906  32.195  1.00  0.00     0.031 C 
ATOM     23  C   UNL A   1      38.533  29.391  28.607  1.00  0.00     0.029 A 
ATOM     24  C   UNL A   1      38.758  30.051  29.880  1.00  0.00     0.049 A 
ATOM     25  H   UNL A   1      40.171  29.549  31.334  1.00  0.00     0.167 HD
ATOM     26  C   UNL A   1      43.382  28.373  34.128  1.00  0.00     0.031 A 
ATOM     27  C   UNL A   1      38.045  31.090  30.352  1.00  0.00     0.031 A 
ATOM     28  C   UNL A   1      42.608  29.382  34.794  1.00  0.00     0.049 A 
ATOM     29  C   UNL A   1      38.378  31.578  31.730  1.00  0.00     0.074 A 
ATOM     30  C   UNL A   1      42.745  29.876  36.076  1.00  0.00     0.029 A 
ATOM     31  N   UNL A   1      41.535  30.052  34.215  1.00  0.00    -0.354 N 
ATOM     32  N   UNL A   1      39.331  31.171  32.536  1.00  0.00    -0.248 NA
ATOM     33  C   UNL A   1      37.529  32.642  32.279  1.00  0.00     0.031 C 
ATOM     34  C   UNL A   1      41.734  30.823  36.284  1.00  0.00     0.029 A 
ATOM     35  C   UNL A   1      41.001  30.956  35.113  1.00  0.00     0.049 A 
ATOM     36  H   UNL A   1      41.205  29.903  33.299  1.00  0.00     0.167 HD
ATOM     37  C   UNL A   1      39.195  31.922  33.690  1.00  0.00     0.074 A 
ATOM     38  C   UNL A   1      38.094  32.841  33.461  1.00  0.00     0.031 C 
ATOM     39  C   UNL A   1      39.903  31.852  34.844  1.00  0.00     0.031 A 
BRANCH  26  40
ATOM     40  C   UNL A   1      44.496  27.667  34.842  1.00  0.00    -0.014 A 
ATOM     41  C   UNL A   1      44.241  26.607  35.729  1.00  0.00     0.009 A 
ATOM     42  C   UNL A   1      45.806  28.154  34.722  1.00  0.00     0.009 A 
ATOM     43  C   UNL A   1      45.266  26.095  36.529  1.00  0.00     0.001 A 
ATOM     44  C   UNL A   1      46.833  27.619  35.500  1.00  0.00     0.001 A 
ATOM     45  C   UNL A   1      46.558  26.604  36.416  1.00  0.00     0.000 A 
ENDBRANCH  26  40
BRANCH  27  46
ATOM     46  C   UNL A   1      36.970  31.726  29.534  1.00  0.00    -0.014 A 
ATOM     47  C   UNL A   1      35.669  31.196  29.528  1.00  0.00     0.009 A 
ATOM     48  C   UNL A   1      37.227  32.868  28.757  1.00  0.00     0.009 A 
ATOM     49  C   UNL A   1      34.661  31.779  28.753  1.00  0.00     0.001 A 
ATOM     50  C   UNL A   1      36.211  33.471  28.011  1.00  0.00     0.001 A 
ATOM     51  C   UNL A   1      34.930  32.922  28.001  1.00  0.00     0.000 A 
ENDBRANCH  27  46
BRANCH  39  52
ATOM     52  C   UNL A   1      39.520  32.825  35.916  1.00  0.00    -0.014 A 
ATOM     53  C   UNL A   1      38.561  32.502  36.887  1.00  0.00     0.009 A 
ATOM     54  C   UNL A   1      40.145  34.081  35.957  1.00  0.00     0.009 A 
ATOM     55  C   UNL A   1      38.206  33.436  37.859  1.00  0.00     0.001 A 
ATOM     56  C   UNL A   1      39.808  35.001  36.946  1.00  0.00     0.001 A 
ATOM     57  C   UNL A   1      38.832  34.683  37.890  1.00  0.00     0.000 A 
ENDBRANCH  39  52
ENDBRANCH  13  14
ENDBRANCH   6   8
ENDBRANCH   5   6
ENDBRANCH   4   5
ENDBRANCH   3   4
ENDBRANCH   2   3
ENDBRANCH   1   2
BRANCH   1  58
ATOM     58  C   UNL A   1      39.103  21.905  26.081  1.00  0.00     0.188 C 
BRANCH  58  59
ATOM     59  O   UNL A   1      38.300  20.962  25.374  1.00  0.00    -0.376 OA
BRANCH  59  60
ATOM     60  C   UNL A   1      36.997  21.366  24.972  1.00  0.00     0.202 C 
BRANCH  60  61
ATOM     61  C   UNL A   1      36.880  22.601  24.072  1.00  0.00     0.261 C 
BRANCH  61  62
ATOM     62  O   UNL A   1      35.826  23.493  24.454  1.00  0.00    -0.463 OA
BRANCH  62  63
ATOM     63  C   UNL A   1      34.853  23.735  23.551  1.00  0.00     0.311 C 
ATOM     64  O   UNL A   1      34.867  23.328  22.390  1.00  0.00    -0.252 OA
BRANCH  63  65
ATOM     65  C   UNL A   1      33.740  24.630  24.069  1.00  0.00     0.124 C 
ATOM     66  C   UNL A   1      34.117  25.128  25.496  1.00  0.00     0.042 C 
ATOM     67  C   UNL A   1      32.283  24.105  24.260  1.00  0.00     0.100 C 
ATOM     68  C   UNL A   1      32.924  24.646  26.324  1.00  0.00     0.086 C 
ATOM     69  C   UNL A   1      32.232  22.761  24.989  1.00  0.00     0.028 C 
ATOM     70  N   UNL A   1      31.860  24.941  25.388  1.00  0.00    -0.332 N 
ATOM     71  C   UNL A   1      32.950  23.098  26.312  1.00  0.00     0.027 C 
BRANCH  70  72
ATOM     72  C   UNL A   1      30.789  25.748  25.657  1.00  0.00     0.256 C 
ATOM     73  O   UNL A   1      29.933  25.469  26.500  1.00  0.00    -0.269 OA
BRANCH  72  74
ATOM     74  C   UNL A   1      30.655  27.027  24.943  1.00  0.00     0.061 A 
ATOM     75  C   UNL A   1      29.939  27.051  23.744  1.00  0.00     0.035 A 
ATOM     76  C   UNL A   1      31.338  28.167  25.361  1.00  0.00     0.072 A 
ATOM     77  C   UNL A   1      29.874  28.248  23.050  1.00  0.00     0.112 A 
ATOM     78  C   UNL A   1      31.164  29.327  24.623  1.00  0.00     0.132 A 
ATOM     79  Cl  UNL A   1      32.440  28.191  26.676  1.00  0.00    -0.082 Cl
ATOM     80  N   UNL A   1      30.437  29.396  23.482  1.00  0.00    -0.263 NA
ENDBRANCH  72  74
ENDBRANCH  70  72
ENDBRANCH  63  65
ENDBRANCH  62  63
ENDBRANCH  61  62
ENDBRANCH  60  61
ENDBRANCH  59  60
ENDBRANCH  58  59
ENDBRANCH   1  58
TORSDOF 19
ENDMDL
MODEL 2
REMARK VINA RESULT:      -9.8      1.269      6.034
REMARK SMILES O=C(OCCOCCOCCOC(=O)[C@@H]1C[C@@H]2CC[C@H]1N2C(=O)c1ccncc1Cl)c1ccc(-c2c3nc(c(-c4ccccc4)c4ccc([nH]4)c(-c4ccccc4)c4nc(c(-c5ccccc5)c5ccc2[nH]5)C=C4)C=C3)cc1
REMARK SMILES IDX 7 1 6 2 5 3 4 4 3 5 2 6 1 7 31 8 32 9 78 10 33 11 77 12
REMARK SMILES IDX 34 13 35 14 36 15 71 16 37 17 76 18 70 19 72 20 38 21 75 22
REMARK SMILES IDX 69 23 68 24 39 26 61 27 46 28 60 29 47 30 50 31 59 32 73 33
REMARK SMILES IDX 48 34 49 35 58 37 74 38 51 39 40 40 41 41 45 42 42 43 44 44
REMARK SMILES IDX 43 45 62 46 63 47 67 48 64 49 66 50 65 51 52 52 53 53 57 54
REMARK SMILES IDX 54 55 56 56 55 57 8 58 9 59 10 60 11 61 12 62 13 63 14 64
REMARK SMILES IDX 15 65 16 66 20 67 17 68 19 69 21 70 18 71 22 72 23 73 24 74
REMARK SMILES IDX 25 75 29 76 26 77 28 78 30 79 27 80
REMARK H PARENT 72 25 50 36
REMARK Flexibility Score: inf
ROOT
ATOM      1  C   UNL A   1      40.012  21.292  26.520  1.00  0.00     0.188 C 
ENDROOT
BRANCH   1   2
ATOM      2  O   UNL A   1      41.212  21.805  25.922  1.00  0.00    -0.376 OA
BRANCH   2   3
ATOM      3  C   UNL A   1      42.329  20.917  26.071  1.00  0.00     0.202 C 
BRANCH   3   4
ATOM      4  C   UNL A   1      43.582  21.305  25.273  1.00  0.00     0.261 C 
BRANCH   4   5
ATOM      5  O   UNL A   1      44.298  22.398  25.866  1.00  0.00    -0.460 OA
BRANCH   5   6
ATOM      6  C   UNL A   1      44.219  23.720  25.585  1.00  0.00     0.338 C 
ATOM      7  O   UNL A   1      44.736  24.110  24.537  1.00  0.00    -0.246 OA
BRANCH   6   8
ATOM      8  C   UNL A   1      43.536  24.747  26.440  1.00  0.00     0.060 A 
ATOM      9  C   UNL A   1      43.667  26.136  26.347  1.00  0.00     0.016 A 
ATOM     10  C   UNL A   1      42.660  24.247  27.422  1.00  0.00     0.016 A 
ATOM     11  C   UNL A   1      43.047  26.989  27.266  1.00  0.00     0.010 A 
ATOM     12  C   UNL A   1      42.011  25.096  28.324  1.00  0.00     0.010 A 
ATOM     13  C   UNL A   1      42.235  26.474  28.276  1.00  0.00    -0.014 A 
BRANCH  13  14
ATOM     14  C   UNL A   1      41.804  27.376  29.371  1.00  0.00     0.031 A 
ATOM     15  C   UNL A   1      40.487  28.064  29.234  1.00  0.00     0.074 A 
ATOM     16  C   UNL A   1      42.519  27.498  30.504  1.00  0.00     0.049 A 
ATOM     17  N   UNL A   1      39.858  28.812  30.097  1.00  0.00    -0.248 NA
ATOM     18  C   UNL A   1      39.797  27.909  27.943  1.00  0.00     0.031 C 
ATOM     19  C   UNL A   1      43.831  26.915  30.707  1.00  0.00     0.029 A 
ATOM     20  N   UNL A   1      42.251  28.112  31.700  1.00  0.00    -0.354 N 
ATOM     21  C   UNL A   1      38.722  29.255  29.439  1.00  0.00     0.074 A 
ATOM     22  C   UNL A   1      38.753  28.703  28.104  1.00  0.00     0.031 C 
ATOM     23  C   UNL A   1      44.223  27.099  31.975  1.00  0.00     0.029 A 
ATOM     24  C   UNL A   1      43.206  27.870  32.666  1.00  0.00     0.049 A 
ATOM     25  H   UNL A   1      41.456  28.671  31.854  1.00  0.00     0.167 HD
ATOM     26  C   UNL A   1      37.748  30.069  29.906  1.00  0.00     0.031 A 
ATOM     27  C   UNL A   1      43.254  28.233  33.961  1.00  0.00     0.031 A 
ATOM     28  C   UNL A   1      37.755  30.632  31.226  1.00  0.00     0.049 A 
ATOM     29  C   UNL A   1      42.143  29.103  34.468  1.00  0.00     0.074 A 
ATOM     30  C   UNL A   1      36.851  31.502  31.804  1.00  0.00     0.029 A 
ATOM     31  N   UNL A   1      38.735  30.376  32.179  1.00  0.00    -0.354 N 
ATOM     32  N   UNL A   1      41.071  29.518  33.834  1.00  0.00    -0.248 NA
ATOM     33  C   UNL A   1      42.255  29.582  35.851  1.00  0.00     0.031 C 
ATOM     34  C   UNL A   1      37.302  31.797  33.096  1.00  0.00     0.029 A 
ATOM     35  C   UNL A   1      38.458  31.070  33.342  1.00  0.00     0.049 A 
ATOM     36  H   UNL A   1      39.513  29.787  32.044  1.00  0.00     0.167 HD
ATOM     37  C   UNL A   1      40.382  30.310  34.735  1.00  0.00     0.074 A 
ATOM     38  C   UNL A   1      41.137  30.282  35.975  1.00  0.00     0.031 C 
ATOM     39  C   UNL A   1      39.238  31.013  34.554  1.00  0.00     0.031 A 
BRANCH  26  40
ATOM     40  C   UNL A   1      36.676  30.434  28.923  1.00  0.00    -0.014 A 
ATOM     41  C   UNL A   1      36.486  31.764  28.507  1.00  0.00     0.009 A 
ATOM     42  C   UNL A   1      35.764  29.454  28.507  1.00  0.00     0.009 A 
ATOM     43  C   UNL A   1      35.366  32.112  27.749  1.00  0.00     0.001 A 
ATOM     44  C   UNL A   1      34.662  29.801  27.723  1.00  0.00     0.001 A 
ATOM     45  C   UNL A   1      34.454  31.131  27.361  1.00  0.00     0.000 A 
ENDBRANCH  26  40
BRANCH  27  46
ATOM     46  C   UNL A   1      44.367  27.786  34.849  1.00  0.00    -0.014 A 
ATOM     47  C   UNL A   1      44.182  26.715  35.741  1.00  0.00     0.009 A 
ATOM     48  C   UNL A   1      45.622  28.415  34.816  1.00  0.00     0.009 A 
ATOM     49  C   UNL A   1      45.217  26.301  36.587  1.00  0.00     0.001 A 
ATOM     50  C   UNL A   1      46.666  27.977  35.636  1.00  0.00     0.001 A 
ATOM     51  C   UNL A   1      46.461  26.926  36.528  1.00  0.00     0.000 A 
ENDBRANCH  27  46
BRANCH  39  52
ATOM     52  C   UNL A   1      38.729  31.768  35.744  1.00  0.00    -0.014 A 
ATOM     53  C   UNL A   1      38.921  33.152  35.867  1.00  0.00     0.009 A 
ATOM     54  C   UNL A   1      38.035  31.077  36.748  1.00  0.00     0.009 A 
ATOM     55  C   UNL A   1      38.458  33.825  36.997  1.00  0.00     0.001 A 
ATOM     56  C   UNL A   1      37.550  31.758  37.862  1.00  0.00     0.001 A 
ATOM     57  C   UNL A   1      37.770  33.129  37.991  1.00  0.00     0.000 A 
ENDBRANCH  39  52
ENDBRANCH  13  14
ENDBRANCH   6   8
ENDBRANCH   5   6
ENDBRANCH   4   5
ENDBRANCH   3   4
ENDBRANCH   2   3
ENDBRANCH   1   2
BRANCH   1  58
ATOM     58  C   UNL A   1      38.751  21.575  25.701  1.00  0.00     0.188 C 
BRANCH  58  59
ATOM     59  O   UNL A   1      38.159  20.479  25.006  1.00  0.00    -0.376 OA
BRANCH  59  60
ATOM     60  C   UNL A   1      36.739  20.389  24.994  1.00  0.00     0.202 C 
BRANCH  60  61
ATOM     61  C   UNL A   1      35.941  21.684  25.184  1.00  0.00     0.261 C 
BRANCH  61  62
ATOM     62  O   UNL A   1      35.366  21.818  26.490  1.00  0.00    -0.463 OA
BRANCH  62  63
ATOM     63  C   UNL A   1      34.021  21.833  26.583  1.00  0.00     0.311 C 
ATOM     64  O   UNL A   1      33.309  20.831  26.502  1.00  0.00    -0.252 OA
BRANCH  63  65
ATOM     65  C   UNL A   1      33.427  23.223  26.731  1.00  0.00     0.124 C 
ATOM     66  C   UNL A   1      31.957  23.091  27.232  1.00  0.00     0.042 C 
ATOM     67  C   UNL A   1      33.293  24.194  25.518  1.00  0.00     0.100 C 
ATOM     68  C   UNL A   1      31.184  23.831  26.139  1.00  0.00     0.086 C 
ATOM     69  C   UNL A   1      32.693  23.517  24.284  1.00  0.00     0.028 C 
ATOM     70  N   UNL A   1      32.093  24.935  25.920  1.00  0.00    -0.332 N 
ATOM     71  C   UNL A   1      31.341  23.016  24.832  1.00  0.00     0.027 C 
BRANCH  70  72
ATOM     72  C   UNL A   1      31.754  26.256  26.036  1.00  0.00     0.256 C 
ATOM     73  O   UNL A   1      31.333  26.752  27.084  1.00  0.00    -0.269 OA
BRANCH  72  74
ATOM     74  C   UNL A   1      31.924  27.146  24.877  1.00  0.00     0.061 A 
ATOM     75  C   UNL A   1      33.096  27.900  24.780  1.00  0.00     0.035 A 
ATOM     76  C   UNL A   1      30.893  27.352  23.963  1.00  0.00     0.072 A 
ATOM     77  C   UNL A   1      33.216  28.779  23.717  1.00  0.00     0.112 A 
ATOM     78  C   UNL A   1      31.135  28.216  22.906  1.00  0.00     0.132 A 
ATOM     79  Cl  UNL A   1      29.327  26.670  24.121  1.00  0.00    -0.082 Cl
ATOM     80  N   UNL A   1      32.279  28.926  22.756  1.00  0.00    -0.263 NA
ENDBRANCH  72  74
ENDBRANCH  70  72
ENDBRANCH  63  65
ENDBRANCH  62  63
ENDBRANCH  61  62
ENDBRANCH  60  61
ENDBRANCH  59  60
ENDBRANCH  58  59
ENDBRANCH   1  58
TORSDOF 19
ENDMDL
MODEL 3
REMARK VINA RESULT:      -9.7      3.512      8.877
REMARK SMILES O=C(OCCOCCOCCOC(=O)[C@@H]1C[C@@H]2CC[C@H]1N2C(=O)c1ccncc1Cl)c1ccc(-c2c3nc(c(-c4ccccc4)c4ccc([nH]4)c(-c4ccccc4)c4nc(c(-c5ccccc5)c5ccc2[nH]5)C=C4)C=C3)cc1
REMARK SMILES IDX 7 1 6 2 5 3 4 4 3 5 2 6 1 7 31 8 32 9 78 10 33 11 77 12
REMARK SMILES IDX 34 13 35 14 36 15 71 16 37 17 76 18 70 19 72 20 38 21 75 22
REMARK SMILES IDX 69 23 68 24 39 26 61 27 46 28 60 29 47 30 50 31 59 32 73 33
REMARK SMILES IDX 48 34 49 35 58 37 74 38 51 39 40 40 41 41 45 42 42 43 44 44
REMARK SMILES IDX 43 45 62 46 63 47 67 48 64 49 66 50 65 51 52 52 53 53 57 54
REMARK SMILES IDX 54 55 56 56 55 57 8 58 9 59 10 60 11 61 12 62 13 63 14 64
REMARK SMILES IDX 15 65 16 66 20 67 17 68 19 69 21 70 18 71 22 72 23 73 24 74
REMARK SMILES IDX 25 75 29 76 26 77 28 78 30 79 27 80
REMARK H PARENT 72 25 50 36
REMARK Flexibility Score: inf
ROOT
ATOM      1  C   UNL A   1      33.739  35.178  28.783  1.00  0.00     0.188 C 
ENDROOT
BRANCH   1   2
ATOM      2  O   UNL A   1      32.540  35.503  29.503  1.00  0.00    -0.376 OA
BRANCH   2   3
ATOM      3  C   UNL A   1      32.791  36.322  30.655  1.00  0.00     0.202 C 
BRANCH   3   4
ATOM      4  C   UNL A   1      32.348  35.716  31.994  1.00  0.00     0.261 C 
BRANCH   4   5
ATOM      5  O   UNL A   1      33.272  34.737  32.490  1.00  0.00    -0.460 OA
BRANCH   5   6
ATOM      6  C   UNL A   1      34.544  34.906  32.918  1.00  0.00     0.338 C 
ATOM      7  O   UNL A   1      34.798  35.928  33.557  1.00  0.00    -0.246 OA
BRANCH   6   8
ATOM      8  C   UNL A   1      35.670  33.939  32.690  1.00  0.00     0.060 A 
ATOM      9  C   UNL A   1      35.725  32.605  33.104  1.00  0.00     0.016 A 
ATOM     10  C   UNL A   1      36.772  34.436  31.968  1.00  0.00     0.016 A 
ATOM     11  C   UNL A   1      36.873  31.830  32.913  1.00  0.00     0.010 A 
ATOM     12  C   UNL A   1      37.911  33.656  31.744  1.00  0.00     0.010 A 
ATOM     13  C   UNL A   1      37.984  32.357  32.254  1.00  0.00    -0.014 A 
BRANCH  13  14
ATOM     14  C   UNL A   1      39.258  31.601  32.292  1.00  0.00     0.031 A 
ATOM     15  C   UNL A   1      40.134  31.766  33.489  1.00  0.00     0.074 A 
ATOM     16  C   UNL A   1      39.577  30.711  31.334  1.00  0.00     0.049 A 
ATOM     17  N   UNL A   1      41.236  31.138  33.793  1.00  0.00    -0.248 NA
ATOM     18  C   UNL A   1      39.728  32.793  34.462  1.00  0.00     0.031 C 
ATOM     19  C   UNL A   1      38.821  30.523  30.113  1.00  0.00     0.029 A 
ATOM     20  N   UNL A   1      40.583  29.786  31.236  1.00  0.00    -0.354 N 
ATOM     21  C   UNL A   1      41.681  31.725  34.967  1.00  0.00     0.074 A 
ATOM     22  C   UNL A   1      40.738  32.764  35.314  1.00  0.00     0.031 C 
ATOM     23  C   UNL A   1      39.310  29.480  29.427  1.00  0.00     0.029 A 
ATOM     24  C   UNL A   1      40.462  28.959  30.140  1.00  0.00     0.049 A 
ATOM     25  H   UNL A   1      41.321  29.718  31.886  1.00  0.00     0.167 HD
ATOM     26  C   UNL A   1      42.791  31.432  35.680  1.00  0.00     0.031 A 
ATOM     27  C   UNL A   1      41.200  27.902  29.753  1.00  0.00     0.031 A 
ATOM     28  C   UNL A   1      43.730  30.417  35.298  1.00  0.00     0.049 A 
ATOM     29  C   UNL A   1      42.405  27.570  30.582  1.00  0.00     0.074 A 
ATOM     30  C   UNL A   1      44.913  30.052  35.911  1.00  0.00     0.029 A 
ATOM     31  N   UNL A   1      43.586  29.600  34.181  1.00  0.00    -0.354 N 
ATOM     32  N   UNL A   1      42.817  28.135  31.692  1.00  0.00    -0.248 NA
ATOM     33  C   UNL A   1      43.264  26.483  30.096  1.00  0.00     0.031 C 
ATOM     34  C   UNL A   1      45.500  29.036  35.147  1.00  0.00     0.029 A 
ATOM     35  C   UNL A   1      44.657  28.732  34.087  1.00  0.00     0.049 A 
ATOM     36  H   UNL A   1      42.831  29.636  33.549  1.00  0.00     0.167 HD
ATOM     37  C   UNL A   1      43.985  27.478  32.039  1.00  0.00     0.074 A 
ATOM     38  C   UNL A   1      44.191  26.443  31.042  1.00  0.00     0.031 C 
ATOM     39  C   UNL A   1      44.823  27.716  33.077  1.00  0.00     0.031 A 
BRANCH  26  40
ATOM     40  C   UNL A   1      43.046  32.301  36.876  1.00  0.00    -0.014 A 
ATOM     41  C   UNL A   1      43.887  33.425  36.799  1.00  0.00     0.009 A 
ATOM     42  C   UNL A   1      42.541  31.914  38.126  1.00  0.00     0.009 A 
ATOM     43  C   UNL A   1      44.266  34.103  37.960  1.00  0.00     0.001 A 
ATOM     44  C   UNL A   1      42.898  32.612  39.280  1.00  0.00     0.001 A 
ATOM     45  C   UNL A   1      43.775  33.694  39.198  1.00  0.00     0.000 A 
ENDBRANCH  26  40
BRANCH  27  46
ATOM     46  C   UNL A   1      40.831  27.098  28.551  1.00  0.00    -0.014 A 
ATOM     47  C   UNL A   1      41.357  27.418  27.288  1.00  0.00     0.009 A 
ATOM     48  C   UNL A   1      39.956  26.004  28.650  1.00  0.00     0.009 A 
ATOM     49  C   UNL A   1      41.004  26.676  26.155  1.00  0.00     0.001 A 
ATOM     50  C   UNL A   1      39.631  25.242  27.523  1.00  0.00     0.001 A 
ATOM     51  C   UNL A   1      40.147  25.583  26.275  1.00  0.00     0.000 A 
ENDBRANCH  27  46
BRANCH  39  52
ATOM     52  C   UNL A   1      46.010  26.809  33.191  1.00  0.00    -0.014 A 
ATOM     53  C   UNL A   1      47.239  27.137  32.602  1.00  0.00     0.009 A 
ATOM     54  C   UNL A   1      45.890  25.613  33.915  1.00  0.00     0.009 A 
ATOM     55  C   UNL A   1      48.320  26.261  32.704  1.00  0.00     0.001 A 
ATOM     56  C   UNL A   1      46.980  24.755  34.039  1.00  0.00     0.001 A 
ATOM     57  C   UNL A   1      48.191  25.074  33.424  1.00  0.00     0.000 A 
ENDBRANCH  39  52
ENDBRANCH  13  14
ENDBRANCH   6   8
ENDBRANCH   5   6
ENDBRANCH   4   5
ENDBRANCH   3   4
ENDBRANCH   2   3
ENDBRANCH   1   2
BRANCH   1  58
ATOM     58  C   UNL A   1      33.778  33.733  28.282  1.00  0.00     0.188 C 
BRANCH  58  59
ATOM     59  O   UNL A   1      35.056  33.110  28.168  1.00  0.00    -0.376 OA
BRANCH  59  60
ATOM     60  C   UNL A   1      35.096  31.729  27.830  1.00  0.00     0.202 C 
BRANCH  60  61
ATOM     61  C   UNL A   1      33.762  31.027  27.546  1.00  0.00     0.261 C 
BRANCH  61  62
ATOM     62  O   UNL A   1      33.881  29.899  26.671  1.00  0.00    -0.463 OA
BRANCH  62  63
ATOM     63  C   UNL A   1      32.968  29.772  25.686  1.00  0.00     0.311 C 
ATOM     64  O   UNL A   1      31.915  30.406  25.631  1.00  0.00    -0.252 OA
BRANCH  63  65
ATOM     65  C   UNL A   1      33.315  28.710  24.657  1.00  0.00     0.124 C 
ATOM     66  C   UNL A   1      32.242  28.734  23.528  1.00  0.00     0.042 C 
ATOM     67  C   UNL A   1      33.389  27.197  25.029  1.00  0.00     0.100 C 
ATOM     68  C   UNL A   1      31.724  27.296  23.552  1.00  0.00     0.086 C 
ATOM     69  C   UNL A   1      32.185  26.731  25.850  1.00  0.00     0.028 C 
ATOM     70  N   UNL A   1      32.979  26.603  23.753  1.00  0.00    -0.332 N 
ATOM     71  C   UNL A   1      31.013  27.084  24.911  1.00  0.00     0.027 C 
BRANCH  70  72
ATOM     72  C   UNL A   1      33.476  25.637  22.920  1.00  0.00     0.256 C 
ATOM     73  O   UNL A   1      33.782  25.856  21.745  1.00  0.00    -0.269 OA
BRANCH  72  74
ATOM     74  C   UNL A   1      33.693  24.279  23.443  1.00  0.00     0.061 A 
ATOM     75  C   UNL A   1      35.004  23.822  23.591  1.00  0.00     0.035 A 
ATOM     76  C   UNL A   1      32.628  23.406  23.656  1.00  0.00     0.072 A 
ATOM     77  C   UNL A   1      35.193  22.520  24.025  1.00  0.00     0.112 A 
ATOM     78  C   UNL A   1      32.924  22.140  24.140  1.00  0.00     0.132 A 
ATOM     79  Cl  UNL A   1      30.998  23.776  23.273  1.00  0.00    -0.082 Cl
ATOM     80  N   UNL A   1      34.182  21.682  24.341  1.00  0.00    -0.263 NA
ENDBRANCH  72  74
ENDBRANCH  70  72
ENDBRANCH  63  65
ENDBRANCH  62  63
ENDBRANCH  61  62
ENDBRANCH  60  61
ENDBRANCH  59  60
ENDBRANCH  58  59
ENDBRANCH   1  58
TORSDOF 19
ENDMDL
