MODEL 1
REMARK VINA RESULT:      -9.3      0.000      0.000
REMARK SMILES Cc1ccccc1C(=O)Nc1ccc(OCC(=O)OCCOCCOCCOC(=O)c2ccc(-c3c4nc(c(-c5ccccc5)c5ccc([nH]5)c(-c5ccccc5)c5nc(c(-c6ccccc6)c6ccc3[nH]6)C=C5)C=C4)cc2)c(-c2nc3ccccc3s2)c1
REMARK SMILES IDX 23 1 22 2 21 3 20 4 19 5 17 6 18 7 16 8 15 9 14 10 11 11
REMARK SMILES IDX 12 12 89 13 13 14 79 15 10 16 8 17 9 18 7 20 1 21 2 22 3 23
REMARK SMILES IDX 4 24 6 25 5 26 80 27 81 28 88 29 82 30 87 31 83 32 86 33
REMARK SMILES IDX 84 34 85 35 24 36 25 37 26 38 27 39 28 40 29 41 30 42 31 43
REMARK SMILES IDX 32 44 78 45 33 46 77 47 34 48 35 49 36 50 71 51 37 52 76 53
REMARK SMILES IDX 70 54 72 55 38 56 75 57 69 58 68 59 39 61 61 62 46 63 60 64
REMARK SMILES IDX 47 65 50 66 59 67 73 68 48 69 49 70 58 72 74 73 51 74 40 75
REMARK SMILES IDX 41 76 45 77 42 78 44 79 43 80 62 81 63 82 67 83 64 84 66 85
REMARK SMILES IDX 65 86 52 87 53 88 57 89 54 90 56 91 55 92
REMARK H PARENT 10 19 72 60 50 71
REMARK Flexibility Score: inf
ROOT
ATOM      1  C   UNL A   1      50.790  28.390  28.362  1.00  0.00     0.188 C 
ENDROOT
BRANCH   1   2
ATOM      2  O   UNL A   1      49.706  27.544  27.951  1.00  0.00    -0.376 OA
BRANCH   2   3
ATOM      3  C   UNL A   1      49.812  26.109  28.114  1.00  0.00     0.202 C 
BRANCH   3   4
ATOM      4  C   UNL A   1      48.944  24.818  27.351  1.00  0.00     0.261 C 
BRANCH   4   5
ATOM      5  O   UNL A   1      47.461  24.522  26.444  1.00  0.00    -0.461 OA
BRANCH   5   6
ATOM      6  C   UNL A   1      46.910  24.358  25.048  1.00  0.00     0.344 C 
ATOM      7  O   UNL A   1      47.411  24.434  23.916  1.00  0.00    -0.248 OA
BRANCH   6   8
ATOM      8  C   UNL A   1      45.553  23.834  24.828  1.00  0.00     0.352 C 
BRANCH   8   9
ATOM      9  O   UNL A   1      44.778  24.973  24.751  1.00  0.00    -0.481 OA
BRANCH   9  10
ATOM     10  C   UNL A   1      43.625  24.882  25.606  1.00  0.00     0.130 A 
ATOM     11  C   UNL A   1      43.304  24.427  29.235  1.00  0.00     0.042 A 
ATOM     12  C   UNL A   1      44.098  25.808  28.518  1.00  0.00     0.030 A 
ATOM     13  C   UNL A   1      42.438  23.310  28.279  1.00  0.00     0.041 A 
ATOM     14  C   UNL A   1      44.294  26.087  26.800  1.00  0.00     0.049 A 
ATOM     15  C   UNL A   1      42.473  23.339  26.442  1.00  0.00     0.055 A 
BRANCH  11  16
ATOM     16  N   UNL A   1      43.791  24.095  30.573  1.00  0.00    -0.322 N 
ATOM     17  C   UNL A   1      44.517  24.660  31.663  1.00  0.00     0.255 C 
ATOM     18  O   UNL A   1      44.864  23.870  32.553  1.00  0.00    -0.269 OA
ATOM     19  H   UNL A   1      43.531  23.172  30.797  1.00  0.00     0.170 HD
BRANCH  17  20
ATOM     20  C   UNL A   1      44.764  26.110  32.014  1.00  0.00     0.043 A 
ATOM     21  C   UNL A   1      47.037  26.061  30.983  1.00  0.00     0.045 C 
ATOM     22  C   UNL A   1      46.023  26.682  31.903  1.00  0.00    -0.038 A 
ATOM     23  C   UNL A   1      46.251  27.917  32.564  1.00  0.00     0.004 A 
ATOM     24  C   UNL A   1      45.223  28.773  32.883  1.00  0.00     0.000 A 
ATOM     25  C   UNL A   1      43.749  27.083  32.008  1.00  0.00     0.014 A 
ATOM     26  C   UNL A   1      43.984  28.421  32.407  1.00  0.00     0.001 A 
ENDBRANCH  17  20
ENDBRANCH  11  16
BRANCH  15  27
ATOM     27  C   UNL A   1      40.660  23.106  26.455  1.00  0.00     0.128 A 
ATOM     28  N   UNL A   1      40.059  21.921  26.208  1.00  0.00    -0.236 NA
ATOM     29  S   UNL A   1      39.355  24.265  26.910  1.00  0.00    -0.114 S 
ATOM     30  C   UNL A   1      38.679  22.067  25.905  1.00  0.00     0.082 A 
ATOM     31  C   UNL A   1      38.150  23.311  26.208  1.00  0.00     0.055 A 
ATOM     32  C   UNL A   1      37.866  21.194  25.139  1.00  0.00     0.030 A 
ATOM     33  C   UNL A   1      36.881  23.756  25.796  1.00  0.00     0.021 A 
ATOM     34  C   UNL A   1      36.666  21.685  24.579  1.00  0.00     0.002 A 
ATOM     35  C   UNL A   1      36.190  22.955  24.893  1.00  0.00     0.002 A 
ENDBRANCH  15  27
ENDBRANCH   9  10
ENDBRANCH   8   9
ENDBRANCH   6   8
ENDBRANCH   5   6
ENDBRANCH   4   5
ENDBRANCH   3   4
ENDBRANCH   2   3
ENDBRANCH   1   2
BRANCH   1  36
ATOM     36  C   UNL A   1      50.204  29.408  29.252  1.00  0.00     0.188 C 
BRANCH  36  37
ATOM     37  O   UNL A   1      50.254  30.747  28.816  1.00  0.00    -0.376 OA
BRANCH  37  38
ATOM     38  C   UNL A   1      49.041  31.462  28.698  1.00  0.00     0.202 C 
BRANCH  38  39
ATOM     39  C   UNL A   1      48.293  31.384  27.355  1.00  0.00     0.261 C 
BRANCH  39  40
ATOM     40  O   UNL A   1      46.949  32.040  27.204  1.00  0.00    -0.460 OA
BRANCH  40  41
ATOM     41  C   UNL A   1      45.881  31.586  26.377  1.00  0.00     0.338 C 
ATOM     42  O   UNL A   1      46.048  30.812  25.438  1.00  0.00    -0.246 OA
BRANCH  41  43
ATOM     43  C   UNL A   1      44.680  32.695  26.315  1.00  0.00     0.060 A 
ATOM     44  C   UNL A   1      44.103  34.653  26.550  1.00  0.00     0.016 A 
ATOM     45  C   UNL A   1      44.203  31.601  27.556  1.00  0.00     0.016 A 
ATOM     46  C   UNL A   1      43.014  34.858  28.109  1.00  0.00     0.010 A 
ATOM     47  C   UNL A   1      43.576  32.087  28.942  1.00  0.00     0.010 A 
ATOM     48  C   UNL A   1      42.928  33.511  29.367  1.00  0.00    -0.014 A 
BRANCH  48  49
ATOM     49  C   UNL A   1      42.431  32.954  31.025  1.00  0.00     0.031 A 
ATOM     50  C   UNL A   1      43.341  33.017  32.516  1.00  0.00     0.074 A 
ATOM     51  C   UNL A   1      41.076  32.924  31.384  1.00  0.00     0.049 A 
ATOM     52  N   UNL A   1      43.709  31.983  33.256  1.00  0.00    -0.248 NA
ATOM     53  C   UNL A   1      44.033  34.251  33.231  1.00  0.00     0.031 C 
ATOM     54  C   UNL A   1      40.458  32.944  32.732  1.00  0.00     0.029 A 
ATOM     55  N   UNL A   1      39.900  32.947  30.620  1.00  0.00    -0.354 N 
ATOM     56  C   UNL A   1      44.442  32.573  34.334  1.00  0.00     0.074 A 
ATOM     57  C   UNL A   1      45.102  33.652  33.733  1.00  0.00     0.031 C 
ATOM     58  C   UNL A   1      39.126  32.706  32.696  1.00  0.00     0.029 A 
ATOM     59  C   UNL A   1      38.787  32.363  31.337  1.00  0.00     0.049 A 
ATOM     60  H   UNL A   1      39.838  33.315  29.709  1.00  0.00     0.167 HD
ATOM     61  C   UNL A   1      43.922  32.825  35.602  1.00  0.00     0.031 A 
ATOM     62  C   UNL A   1      38.185  31.186  30.940  1.00  0.00     0.031 A 
ATOM     63  C   UNL A   1      42.585  32.248  35.723  1.00  0.00     0.049 A 
ATOM     64  C   UNL A   1      38.807  30.045  31.779  1.00  0.00     0.074 A 
ATOM     65  C   UNL A   1      41.319  32.644  36.115  1.00  0.00     0.029 A 
ATOM     66  N   UNL A   1      42.385  31.065  35.046  1.00  0.00    -0.354 N 
ATOM     67  N   UNL A   1      39.532  30.292  32.844  1.00  0.00    -0.248 NA
ATOM     68  C   UNL A   1      38.713  28.603  31.572  1.00  0.00     0.031 C 
ATOM     69  C   UNL A   1      40.393  31.610  35.707  1.00  0.00     0.029 A 
ATOM     70  C   UNL A   1      41.105  30.601  35.077  1.00  0.00     0.049 A 
ATOM     71  H   UNL A   1      43.110  30.594  34.575  1.00  0.00     0.167 HD
ATOM     72  C   UNL A   1      40.065  29.174  33.401  1.00  0.00     0.074 A 
ATOM     73  C   UNL A   1      39.507  28.125  32.559  1.00  0.00     0.031 C 
ATOM     74  C   UNL A   1      40.913  29.271  34.481  1.00  0.00     0.031 A 
BRANCH  61  75
ATOM     75  C   UNL A   1      44.518  33.883  36.616  1.00  0.00    -0.014 A 
ATOM     76  C   UNL A   1      43.795  35.056  36.875  1.00  0.00     0.009 A 
ATOM     77  C   UNL A   1      45.737  33.809  37.351  1.00  0.00     0.009 A 
ATOM     78  C   UNL A   1      44.232  36.040  37.794  1.00  0.00     0.001 A 
ATOM     79  C   UNL A   1      46.196  34.790  38.253  1.00  0.00     0.001 A 
ATOM     80  C   UNL A   1      45.430  35.908  38.488  1.00  0.00     0.000 A 
ENDBRANCH  61  75
BRANCH  62  81
ATOM     81  C   UNL A   1      37.814  31.235  29.460  1.00  0.00    -0.014 A 
ATOM     82  C   UNL A   1      38.189  30.281  28.490  1.00  0.00     0.009 A 
ATOM     83  C   UNL A   1      36.544  31.728  29.281  1.00  0.00     0.009 A 
ATOM     84  C   UNL A   1      37.256  29.766  27.539  1.00  0.00     0.001 A 
ATOM     85  C   UNL A   1      35.577  30.964  28.616  1.00  0.00     0.001 A 
ATOM     86  C   UNL A   1      35.912  30.049  27.664  1.00  0.00     0.000 A 
ENDBRANCH  62  81
BRANCH  74  87
ATOM     87  C   UNL A   1      41.767  28.152  35.091  1.00  0.00    -0.014 A 
ATOM     88  C   UNL A   1      41.667  26.811  34.744  1.00  0.00     0.009 A 
ATOM     89  C   UNL A   1      42.746  28.442  36.088  1.00  0.00     0.009 A 
ATOM     90  C   UNL A   1      42.484  25.835  35.338  1.00  0.00     0.001 A 
ATOM     91  C   UNL A   1      43.599  27.492  36.646  1.00  0.00     0.001 A 
ATOM     92  C   UNL A   1      43.453  26.174  36.278  1.00  0.00     0.000 A 
ENDBRANCH  74  87
ENDBRANCH  48  49
ENDBRANCH  41  43
ENDBRANCH  40  41
ENDBRANCH  39  40
ENDBRANCH  38  39
ENDBRANCH  37  38
ENDBRANCH  36  37
ENDBRANCH   1  36
TORSDOF 22
ENDMDL
MODEL 2
REMARK VINA RESULT:      -9.1      1.646      2.335
REMARK SMILES Cc1ccccc1C(=O)Nc1ccc(OCC(=O)OCCOCCOCCOC(=O)c2ccc(-c3c4nc(c(-c5ccccc5)c5ccc([nH]5)c(-c5ccccc5)c5nc(c(-c6ccccc6)c6ccc3[nH]6)C=C5)C=C4)cc2)c(-c2nc3ccccc3s2)c1
REMARK SMILES IDX 23 1 22 2 21 3 20 4 19 5 17 6 18 7 16 8 15 9 14 10 11 11
REMARK SMILES IDX 12 12 89 13 13 14 79 15 10 16 8 17 9 18 7 20 1 21 2 22 3 23
REMARK SMILES IDX 4 24 6 25 5 26 80 27 81 28 88 29 82 30 87 31 83 32 86 33
REMARK SMILES IDX 84 34 85 35 24 36 25 37 26 38 27 39 28 40 29 41 30 42 31 43
REMARK SMILES IDX 32 44 78 45 33 46 77 47 34 48 35 49 36 50 71 51 37 52 76 53
REMARK SMILES IDX 70 54 72 55 38 56 75 57 69 58 68 59 39 61 61 62 46 63 60 64
REMARK SMILES IDX 47 65 50 66 59 67 73 68 48 69 49 70 58 72 74 73 51 74 40 75
REMARK SMILES IDX 41 76 45 77 42 78 44 79 43 80 62 81 63 82 67 83 64 84 66 85
REMARK SMILES IDX 65 86 52 87 53 88 57 89 54 90 56 91 55 92
REMARK H PARENT 10 19 72 60 50 71
REMARK Flexibility Score: inf
ROOT
ATOM      1  C   UNL A   1      50.600  28.575  28.391  1.00  0.00     0.188 C 
ENDROOT
BRANCH   1   2
ATOM      2  O   UNL A   1      49.557  27.693  27.950  1.00  0.00    -0.376 OA
BRANCH   2   3
ATOM      3  C   UNL A   1      49.685  26.267  28.160  1.00  0.00     0.202 C 
BRANCH   3   4
ATOM      4  C   UNL A   1      48.870  24.936  27.406  1.00  0.00     0.261 C 
BRANCH   4   5
ATOM      5  O   UNL A   1      47.410  24.578  26.484  1.00  0.00    -0.461 OA
BRANCH   5   6
ATOM      6  C   UNL A   1      46.882  24.389  25.083  1.00  0.00     0.344 C 
ATOM      7  O   UNL A   1      47.402  24.440  23.958  1.00  0.00    -0.248 OA
BRANCH   6   8
ATOM      8  C   UNL A   1      45.526  23.867  24.850  1.00  0.00     0.352 C 
BRANCH   8   9
ATOM      9  O   UNL A   1      44.796  24.997  24.543  1.00  0.00    -0.481 OA
BRANCH   9  10
ATOM     10  C   UNL A   1      43.601  25.083  25.338  1.00  0.00     0.130 A 
ATOM     11  C   UNL A   1      43.091  25.652  28.929  1.00  0.00     0.042 A 
ATOM     12  C   UNL A   1      43.863  26.818  27.884  1.00  0.00     0.030 A 
ATOM     13  C   UNL A   1      42.333  24.261  28.294  1.00  0.00     0.041 A 
ATOM     14  C   UNL A   1      44.146  26.613  26.168  1.00  0.00     0.049 A 
ATOM     15  C   UNL A   1      42.472  23.774  26.528  1.00  0.00     0.055 A 
BRANCH  11  16
ATOM     16  N   UNL A   1      43.515  25.739  30.326  1.00  0.00    -0.322 N 
ATOM     17  C   UNL A   1      43.894  26.696  31.314  1.00  0.00     0.255 C 
ATOM     18  O   UNL A   1      44.384  26.236  32.356  1.00  0.00    -0.269 OA
ATOM     19  H   UNL A   1      43.549  24.835  30.716  1.00  0.00     0.170 HD
BRANCH  17  20
ATOM     20  C   UNL A   1      43.614  28.180  31.383  1.00  0.00     0.043 A 
ATOM     21  C   UNL A   1      41.305  27.872  30.487  1.00  0.00     0.045 C 
ATOM     22  C   UNL A   1      42.498  28.740  30.779  1.00  0.00    -0.038 A 
ATOM     23  C   UNL A   1      42.481  30.146  30.589  1.00  0.00     0.004 A 
ATOM     24  C   UNL A   1      43.241  30.994  31.360  1.00  0.00     0.000 A 
ATOM     25  C   UNL A   1      44.128  29.010  32.396  1.00  0.00     0.014 A 
ATOM     26  C   UNL A   1      43.913  30.410  32.405  1.00  0.00     0.001 A 
ENDBRANCH  17  20
ENDBRANCH  11  16
BRANCH  15  27
ATOM     27  C   UNL A   1      40.673  23.447  26.530  1.00  0.00     0.128 A 
ATOM     28  N   UNL A   1      40.140  22.213  26.394  1.00  0.00    -0.236 NA
ATOM     29  S   UNL A   1      39.300  24.575  26.838  1.00  0.00    -0.114 S 
ATOM     30  C   UNL A   1      38.763  22.254  26.051  1.00  0.00     0.082 A 
ATOM     31  C   UNL A   1      38.163  23.493  26.214  1.00  0.00     0.055 A 
ATOM     32  C   UNL A   1      38.014  21.266  25.362  1.00  0.00     0.030 A 
ATOM     33  C   UNL A   1      36.884  23.825  25.734  1.00  0.00     0.021 A 
ATOM     34  C   UNL A   1      36.805  21.633  24.731  1.00  0.00     0.002 A 
ATOM     35  C   UNL A   1      36.257  22.902  24.905  1.00  0.00     0.002 A 
ENDBRANCH  15  27
ENDBRANCH   9  10
ENDBRANCH   8   9
ENDBRANCH   6   8
ENDBRANCH   5   6
ENDBRANCH   4   5
ENDBRANCH   3   4
ENDBRANCH   2   3
ENDBRANCH   1   2
BRANCH   1  36
ATOM     36  C   UNL A   1      49.958  29.564  29.275  1.00  0.00     0.188 C 
BRANCH  36  37
ATOM     37  O   UNL A   1      50.065  30.920  28.906  1.00  0.00    -0.376 OA
BRANCH  37  38
ATOM     38  C   UNL A   1      48.879  31.648  28.665  1.00  0.00     0.202 C 
BRANCH  38  39
ATOM     39  C   UNL A   1      48.308  31.631  27.236  1.00  0.00     0.261 C 
BRANCH  39  40
ATOM     40  O   UNL A   1      46.931  32.172  26.970  1.00  0.00    -0.460 OA
BRANCH  40  41
ATOM     41  C   UNL A   1      45.892  31.509  26.255  1.00  0.00     0.338 C 
ATOM     42  O   UNL A   1      46.090  30.518  25.557  1.00  0.00    -0.246 OA
BRANCH  41  43
ATOM     43  C   UNL A   1      44.695  32.553  25.864  1.00  0.00     0.060 A 
ATOM     44  C   UNL A   1      44.132  34.489  25.469  1.00  0.00     0.016 A 
ATOM     45  C   UNL A   1      44.241  31.922  27.400  1.00  0.00     0.016 A 
ATOM     46  C   UNL A   1      43.081  35.198  26.901  1.00  0.00     0.010 A 
ATOM     47  C   UNL A   1      43.649  32.835  28.569  1.00  0.00     0.010 A 
ATOM     48  C   UNL A   1      43.017  34.327  28.526  1.00  0.00    -0.014 A 
BRANCH  48  49
ATOM     49  C   UNL A   1      42.556  34.339  30.285  1.00  0.00     0.031 A 
ATOM     50  C   UNL A   1      43.410  35.051  31.633  1.00  0.00     0.074 A 
ATOM     51  C   UNL A   1      41.208  34.259  30.663  1.00  0.00     0.049 A 
ATOM     52  N   UNL A   1      43.893  34.408  32.685  1.00  0.00    -0.248 NA
ATOM     53  C   UNL A   1      43.914  36.539  31.843  1.00  0.00     0.031 C 
ATOM     54  C   UNL A   1      40.558  34.677  31.929  1.00  0.00     0.029 A 
ATOM     55  N   UNL A   1      40.059  33.851  29.969  1.00  0.00    -0.354 N 
ATOM     56  C   UNL A   1      44.513  35.437  33.463  1.00  0.00     0.074 A 
ATOM     57  C   UNL A   1      45.040  36.308  32.501  1.00  0.00     0.031 C 
ATOM     58  C   UNL A   1      39.271  34.267  32.012  1.00  0.00     0.029 A 
ATOM     59  C   UNL A   1      39.016  33.419  30.873  1.00  0.00     0.049 A 
ATOM     60  H   UNL A   1      39.972  33.857  28.988  1.00  0.00     0.167 HD
ATOM     61  C   UNL A   1      43.932  36.053  34.570  1.00  0.00     0.031 A 
ATOM     62  C   UNL A   1      38.585  32.110  30.937  1.00  0.00     0.031 A 
ATOM     63  C   UNL A   1      42.681  35.385  34.920  1.00  0.00     0.049 A 
ATOM     64  C   UNL A   1      39.332  31.437  32.114  1.00  0.00     0.074 A 
ATOM     65  C   UNL A   1      41.364  35.723  35.174  1.00  0.00     0.029 A 
ATOM     66  N   UNL A   1      42.657  34.023  34.715  1.00  0.00    -0.354 N 
ATOM     67  N   UNL A   1      39.989  32.142  33.003  1.00  0.00    -0.248 NA
ATOM     68  C   UNL A   1      39.435  30.018  32.439  1.00  0.00     0.031 C 
ATOM     69  C   UNL A   1      40.594  34.498  35.185  1.00  0.00     0.029 A 
ATOM     70  C   UNL A   1      41.450  33.435  34.940  1.00  0.00     0.049 A 
ATOM     71  H   UNL A   1      43.450  33.516  34.427  1.00  0.00     0.167 HD
ATOM     72  C   UNL A   1      40.651  31.379  33.910  1.00  0.00     0.074 A 
ATOM     73  C   UNL A   1      40.260  30.034  33.512  1.00  0.00     0.031 C 
ATOM     74  C   UNL A   1      41.451  31.967  34.864  1.00  0.00     0.031 A 
BRANCH  61  75
ATOM     75  C   UNL A   1      44.357  37.473  35.124  1.00  0.00    -0.014 A 
ATOM     76  C   UNL A   1      45.329  37.544  36.133  1.00  0.00     0.009 A 
ATOM     77  C   UNL A   1      43.882  38.755  34.720  1.00  0.00     0.009 A 
ATOM     78  C   UNL A   1      45.796  38.770  36.663  1.00  0.00     0.001 A 
ATOM     79  C   UNL A   1      44.322  39.983  35.252  1.00  0.00     0.001 A 
ATOM     80  C   UNL A   1      45.299  39.992  36.221  1.00  0.00     0.000 A 
ENDBRANCH  61  75
BRANCH  62  81
ATOM     81  C   UNL A   1      38.249  31.576  29.547  1.00  0.00    -0.014 A 
ATOM     82  C   UNL A   1      38.804  30.421  28.957  1.00  0.00     0.009 A 
ATOM     83  C   UNL A   1      36.919  31.757  29.252  1.00  0.00     0.009 A 
ATOM     84  C   UNL A   1      37.996  29.459  28.278  1.00  0.00     0.001 A 
ATOM     85  C   UNL A   1      36.112  30.660  28.929  1.00  0.00     0.001 A 
ATOM     86  C   UNL A   1      36.621  29.540  28.344  1.00  0.00     0.000 A 
ENDBRANCH  62  81
BRANCH  74  87
ATOM     87  C   UNL A   1      42.429  31.264  35.813  1.00  0.00    -0.014 A 
ATOM     88  C   UNL A   1      42.705  29.903  35.790  1.00  0.00     0.009 A 
ATOM     89  C   UNL A   1      43.135  32.001  36.811  1.00  0.00     0.009 A 
ATOM     90  C   UNL A   1      43.617  29.322  36.685  1.00  0.00     0.001 A 
ATOM     91  C   UNL A   1      44.082  31.447  37.670  1.00  0.00     0.001 A 
ATOM     92  C   UNL A   1      44.311  30.091  37.616  1.00  0.00     0.000 A 
ENDBRANCH  74  87
ENDBRANCH  48  49
ENDBRANCH  41  43
ENDBRANCH  40  41
ENDBRANCH  39  40
ENDBRANCH  38  39
ENDBRANCH  37  38
ENDBRANCH  36  37
ENDBRANCH   1  36
TORSDOF 22
ENDMDL
MODEL 3
REMARK VINA RESULT:      -8.9      8.734     15.098
REMARK SMILES Cc1ccccc1C(=O)Nc1ccc(OCC(=O)OCCOCCOCCOC(=O)c2ccc(-c3c4nc(c(-c5ccccc5)c5ccc([nH]5)c(-c5ccccc5)c5nc(c(-c6ccccc6)c6ccc3[nH]6)C=C5)C=C4)cc2)c(-c2nc3ccccc3s2)c1
REMARK SMILES IDX 23 1 22 2 21 3 20 4 19 5 17 6 18 7 16 8 15 9 14 10 11 11
REMARK SMILES IDX 12 12 89 13 13 14 79 15 10 16 8 17 9 18 7 20 1 21 2 22 3 23
REMARK SMILES IDX 4 24 6 25 5 26 80 27 81 28 88 29 82 30 87 31 83 32 86 33
REMARK SMILES IDX 84 34 85 35 24 36 25 37 26 38 27 39 28 40 29 41 30 42 31 43
REMARK SMILES IDX 32 44 78 45 33 46 77 47 34 48 35 49 36 50 71 51 37 52 76 53
REMARK SMILES IDX 70 54 72 55 38 56 75 57 69 58 68 59 39 61 61 62 46 63 60 64
REMARK SMILES IDX 47 65 50 66 59 67 73 68 48 69 49 70 58 72 74 73 51 74 40 75
REMARK SMILES IDX 41 76 45 77 42 78 44 79 43 80 62 81 63 82 67 83 64 84 66 85
REMARK SMILES IDX 65 86 52 87 53 88 57 89 54 90 56 91 55 92
REMARK H PARENT 10 19 72 60 50 71
REMARK Flexibility Score: inf
ROOT
ATOM      1  C   UNL A   1      48.913  37.801  26.531  1.00  0.00     0.188 C 
ENDROOT
BRANCH   1   2
ATOM      2  O   UNL A   1      47.635  38.429  26.715  1.00  0.00    -0.376 OA
BRANCH   2   3
ATOM      3  C   UNL A   1      47.389  39.738  26.148  1.00  0.00     0.202 C 
BRANCH   3   4
ATOM      4  C   UNL A   1      46.106  40.309  25.134  1.00  0.00     0.261 C 
BRANCH   4   5
ATOM      5  O   UNL A   1      44.610  41.240  25.224  1.00  0.00    -0.461 OA
BRANCH   5   6
ATOM      6  C   UNL A   1      43.674  42.103  24.414  1.00  0.00     0.344 C 
ATOM      7  O   UNL A   1      42.571  41.905  23.882  1.00  0.00    -0.248 OA
BRANCH   6   8
ATOM      8  C   UNL A   1      43.901  43.551  24.287  1.00  0.00     0.352 C 
BRANCH   8   9
ATOM      9  O   UNL A   1      45.266  43.648  24.111  1.00  0.00    -0.481 OA
BRANCH   9  10
ATOM     10  C   UNL A   1      45.605  43.821  22.725  1.00  0.00     0.130 A 
ATOM     11  C   UNL A   1      48.701  44.924  21.087  1.00  0.00     0.042 A 
ATOM     12  C   UNL A   1      48.611  43.490  22.078  1.00  0.00     0.030 A 
ATOM     13  C   UNL A   1      47.294  45.784  20.645  1.00  0.00     0.041 A 
ATOM     14  C   UNL A   1      47.175  42.908  22.894  1.00  0.00     0.049 A 
ATOM     15  C   UNL A   1      45.641  45.413  21.357  1.00  0.00     0.055 A 
BRANCH  11  16
ATOM     16  N   UNL A   1      50.030  45.533  21.047  1.00  0.00    -0.322 N 
ATOM     17  C   UNL A   1      50.728  46.705  21.462  1.00  0.00     0.255 C 
ATOM     18  O   UNL A   1      51.866  46.855  20.995  1.00  0.00    -0.269 OA
ATOM     19  H   UNL A   1      50.652  44.932  20.575  1.00  0.00     0.170 HD
BRANCH  17  20
ATOM     20  C   UNL A   1      50.384  47.705  22.543  1.00  0.00     0.043 A 
ATOM     21  C   UNL A   1      49.022  49.075  20.962  1.00  0.00     0.045 C 
ATOM     22  C   UNL A   1      49.788  48.922  22.247  1.00  0.00    -0.038 A 
ATOM     23  C   UNL A   1      49.812  49.933  23.244  1.00  0.00     0.004 A 
ATOM     24  C   UNL A   1      49.951  49.635  24.579  1.00  0.00     0.000 A 
ATOM     25  C   UNL A   1      50.183  47.341  23.887  1.00  0.00     0.014 A 
ATOM     26  C   UNL A   1      49.931  48.300  24.898  1.00  0.00     0.001 A 
ENDBRANCH  17  20
ENDBRANCH  11  16
BRANCH  15  27
ATOM     27  C   UNL A   1      44.946  45.524  19.669  1.00  0.00     0.128 A 
ATOM     28  N   UNL A   1      44.837  46.683  18.983  1.00  0.00    -0.236 NA
ATOM     29  S   UNL A   1      44.424  44.208  18.552  1.00  0.00    -0.114 S 
ATOM     30  C   UNL A   1      43.944  46.579  17.884  1.00  0.00     0.082 A 
ATOM     31  C   UNL A   1      43.599  45.281  17.542  1.00  0.00     0.055 A 
ATOM     32  C   UNL A   1      43.207  47.621  17.267  1.00  0.00     0.030 A 
ATOM     33  C   UNL A   1      42.570  44.943  16.644  1.00  0.00     0.021 A 
ATOM     34  C   UNL A   1      42.068  47.298  16.498  1.00  0.00     0.002 A 
ATOM     35  C   UNL A   1      41.748  45.975  16.204  1.00  0.00     0.002 A 
ENDBRANCH  15  27
ENDBRANCH   9  10
ENDBRANCH   8   9
ENDBRANCH   6   8
ENDBRANCH   5   6
ENDBRANCH   4   5
ENDBRANCH   3   4
ENDBRANCH   2   3
ENDBRANCH   1   2
BRANCH   1  36
ATOM     36  C   UNL A   1      48.891  36.575  27.348  1.00  0.00     0.188 C 
BRANCH  36  37
ATOM     37  O   UNL A   1      49.118  36.721  28.731  1.00  0.00    -0.376 OA
BRANCH  37  38
ATOM     38  C   UNL A   1      48.240  36.075  29.629  1.00  0.00     0.202 C 
BRANCH  38  39
ATOM     39  C   UNL A   1      46.769  35.922  29.206  1.00  0.00     0.261 C 
BRANCH  39  40
ATOM     40  O   UNL A   1      45.766  36.980  29.575  1.00  0.00    -0.460 OA
BRANCH  40  41
ATOM     41  C   UNL A   1      44.607  36.793  30.383  1.00  0.00     0.338 C 
ATOM     42  O   UNL A   1      43.650  37.562  30.364  1.00  0.00    -0.246 OA
BRANCH  41  43
ATOM     43  C   UNL A   1      44.978  35.987  31.756  1.00  0.00     0.060 A 
ATOM     44  C   UNL A   1      46.183  34.617  32.701  1.00  0.00     0.016 A 
ATOM     45  C   UNL A   1      43.387  35.464  31.360  1.00  0.00     0.016 A 
ATOM     46  C   UNL A   1      45.223  33.002  33.062  1.00  0.00     0.010 A 
ATOM     47  C   UNL A   1      42.928  33.938  31.468  1.00  0.00     0.010 A 
ATOM     48  C   UNL A   1      43.597  32.686  32.249  1.00  0.00    -0.014 A 
BRANCH  48  49
ATOM     49  C   UNL A   1      42.254  31.529  31.844  1.00  0.00     0.031 A 
ATOM     50  C   UNL A   1      42.040  30.565  30.402  1.00  0.00     0.074 A 
ATOM     51  C   UNL A   1      41.549  30.879  32.867  1.00  0.00     0.049 A 
ATOM     52  N   UNL A   1      41.027  30.638  29.553  1.00  0.00    -0.248 NA
ATOM     53  C   UNL A   1      43.025  29.527  29.720  1.00  0.00     0.031 C 
ATOM     54  C   UNL A   1      40.760  29.624  32.819  1.00  0.00     0.029 A 
ATOM     55  N   UNL A   1      41.426  31.144  34.240  1.00  0.00    -0.354 N 
ATOM     56  C   UNL A   1      41.349  29.668  28.549  1.00  0.00     0.074 A 
ATOM     57  C   UNL A   1      42.743  29.750  28.445  1.00  0.00     0.031 C 
ATOM     58  C   UNL A   1      40.058  29.408  33.956  1.00  0.00     0.029 A 
ATOM     59  C   UNL A   1      40.212  30.577  34.785  1.00  0.00     0.049 A 
ATOM     60  H   UNL A   1      42.083  31.653  34.768  1.00  0.00     0.167 HD
ATOM     61  C   UNL A   1      40.822  28.379  28.495  1.00  0.00     0.031 A 
ATOM     62  C   UNL A   1      39.177  31.357  35.260  1.00  0.00     0.031 A 
ATOM     63  C   UNL A   1      39.775  28.219  29.501  1.00  0.00     0.049 A 
ATOM     64  C   UNL A   1      38.135  31.479  34.122  1.00  0.00     0.074 A 
ATOM     65  C   UNL A   1      39.440  27.340  30.514  1.00  0.00     0.029 A 
ATOM     66  N   UNL A   1      39.010  29.338  29.745  1.00  0.00    -0.354 N 
ATOM     67  N   UNL A   1      38.176  30.704  33.066  1.00  0.00    -0.248 NA
ATOM     68  C   UNL A   1      37.002  32.394  34.016  1.00  0.00     0.031 C 
ATOM     69  C   UNL A   1      38.399  27.961  31.305  1.00  0.00     0.029 A 
ATOM     70  C   UNL A   1      38.114  29.204  30.763  1.00  0.00     0.049 A 
ATOM     71  H   UNL A   1      39.103  30.169  29.226  1.00  0.00     0.167 HD
ATOM     72  C   UNL A   1      37.237  31.013  32.136  1.00  0.00     0.074 A 
ATOM     73  C   UNL A   1      36.509  32.090  32.792  1.00  0.00     0.031 C 
ATOM     74  C   UNL A   1      37.197  30.340  30.936  1.00  0.00     0.031 A 
BRANCH  61  75
ATOM     75  C   UNL A   1      41.500  27.172  27.731  1.00  0.00    -0.014 A 
ATOM     76  C   UNL A   1      41.502  27.172  26.328  1.00  0.00     0.009 A 
ATOM     77  C   UNL A   1      42.153  26.032  28.286  1.00  0.00     0.009 A 
ATOM     78  C   UNL A   1      42.117  26.153  25.561  1.00  0.00     0.001 A 
ATOM     79  C   UNL A   1      42.750  24.999  27.536  1.00  0.00     0.001 A 
ATOM     80  C   UNL A   1      42.746  25.068  26.162  1.00  0.00     0.000 A 
ENDBRANCH  61  75
BRANCH  62  81
ATOM     81  C   UNL A   1      39.689  32.403  36.247  1.00  0.00    -0.014 A 
ATOM     82  C   UNL A   1      39.968  33.752  35.939  1.00  0.00     0.009 A 
ATOM     83  C   UNL A   1      39.131  32.229  37.491  1.00  0.00     0.009 A 
ATOM     84  C   UNL A   1      39.537  34.822  36.781  1.00  0.00     0.001 A 
ATOM     85  C   UNL A   1      38.406  33.265  38.091  1.00  0.00     0.001 A 
ATOM     86  C   UNL A   1      38.668  34.575  37.823  1.00  0.00     0.000 A 
ENDBRANCH  62  81
BRANCH  74  87
ATOM     87  C   UNL A   1      36.360  30.697  29.701  1.00  0.00    -0.014 A 
ATOM     88  C   UNL A   1      35.645  29.777  28.945  1.00  0.00     0.009 A 
ATOM     89  C   UNL A   1      36.269  32.047  29.245  1.00  0.00     0.009 A 
ATOM     90  C   UNL A   1      34.893  30.171  27.826  1.00  0.00     0.001 A 
ATOM     91  C   UNL A   1      35.484  32.459  28.170  1.00  0.00     0.001 A 
ATOM     92  C   UNL A   1      34.804  31.508  27.445  1.00  0.00     0.000 A 
ENDBRANCH  74  87
ENDBRANCH  48  49
ENDBRANCH  41  43
ENDBRANCH  40  41
ENDBRANCH  39  40
ENDBRANCH  38  39
ENDBRANCH  37  38
ENDBRANCH  36  37
ENDBRANCH   1  36
TORSDOF 22
ENDMDL
