MODEL 1
REMARK VINA RESULT:     -10.1      0.000      0.000
REMARK SMILES O=C(OCCOCCOCCOC(=O)c1ccc(C(F)(F)F)cc1NC(=O)c1ccon1)c1ccc(-c2c3nc(c(-c4ccccc4)c4ccc([nH]4)c(-c4ccccc4)c4nc(c(-c5ccccc5)c5ccc2[nH]5)C=C4)C=C3)cc1
REMARK SMILES IDX 7 1 6 2 5 3 4 4 3 5 2 6 1 7 33 8 34 9 80 10 35 11 79 12
REMARK SMILES IDX 36 13 37 14 38 15 73 16 39 17 78 18 72 19 74 20 40 21 77 22
REMARK SMILES IDX 71 23 70 24 41 26 63 27 48 28 62 29 49 30 52 31 61 32 75 33
REMARK SMILES IDX 50 34 51 35 60 37 76 38 53 39 42 40 43 41 47 42 44 43 46 44
REMARK SMILES IDX 45 45 64 46 65 47 69 48 66 49 68 50 67 51 54 52 55 53 59 54
REMARK SMILES IDX 56 55 58 56 57 57 8 58 9 59 10 60 11 61 12 62 13 63 14 64
REMARK SMILES IDX 15 65 16 66 24 67 17 68 23 69 18 70 25 71 26 72 27 74 28 75
REMARK SMILES IDX 29 76 32 77 30 78 31 79 19 80 20 81 21 82 22 83
REMARK H PARENT 74 25 52 36 25 73
REMARK Flexibility Score: inf
ROOT
ATOM      1  C   UNL A   1      35.267  33.173  28.002  1.00  0.00     0.188 C 
ENDROOT
BRANCH   1   2
ATOM      2  O   UNL A   1      34.340  34.216  27.665  1.00  0.00    -0.376 OA
BRANCH   2   3
ATOM      3  C   UNL A   1      33.274  34.352  28.612  1.00  0.00     0.202 C 
BRANCH   3   4
ATOM      4  C   UNL A   1      33.196  35.735  29.269  1.00  0.00     0.261 C 
BRANCH   4   5
ATOM      5  O   UNL A   1      32.314  35.743  30.404  1.00  0.00    -0.460 OA
BRANCH   5   6
ATOM      6  C   UNL A   1      32.645  35.677  31.718  1.00  0.00     0.338 C 
ATOM      7  O   UNL A   1      31.846  36.099  32.552  1.00  0.00    -0.246 OA
BRANCH   6   8
ATOM      8  C   UNL A   1      33.906  35.053  32.224  1.00  0.00     0.060 A 
ATOM      9  C   UNL A   1      35.148  35.685  32.288  1.00  0.00     0.016 A 
ATOM     10  C   UNL A   1      33.812  33.740  32.720  1.00  0.00     0.016 A 
ATOM     11  C   UNL A   1      36.289  34.996  32.689  1.00  0.00     0.010 A 
ATOM     12  C   UNL A   1      34.943  33.063  33.192  1.00  0.00     0.010 A 
ATOM     13  C   UNL A   1      36.199  33.675  33.129  1.00  0.00    -0.014 A 
BRANCH  13  14
ATOM     14  C   UNL A   1      37.444  32.922  33.399  1.00  0.00     0.031 A 
ATOM     15  C   UNL A   1      38.160  33.137  34.702  1.00  0.00     0.074 A 
ATOM     16  C   UNL A   1      37.863  31.967  32.549  1.00  0.00     0.049 A 
ATOM     17  N   UNL A   1      39.266  32.594  35.138  1.00  0.00    -0.248 NA
ATOM     18  C   UNL A   1      37.529  34.072  35.651  1.00  0.00     0.031 C 
ATOM     19  C   UNL A   1      37.191  31.574  31.309  1.00  0.00     0.029 A 
ATOM     20  N   UNL A   1      38.945  31.130  32.621  1.00  0.00    -0.354 N 
ATOM     21  C   UNL A   1      39.462  33.116  36.411  1.00  0.00     0.074 A 
ATOM     22  C   UNL A   1      38.381  34.042  36.665  1.00  0.00     0.031 C 
ATOM     23  C   UNL A   1      37.878  30.567  30.743  1.00  0.00     0.029 A 
ATOM     24  C   UNL A   1      39.064  30.294  31.540  1.00  0.00     0.049 A 
ATOM     25  H   UNL A   1      39.578  31.129  33.376  1.00  0.00     0.167 HD
ATOM     26  C   UNL A   1      40.447  32.840  37.297  1.00  0.00     0.031 A 
ATOM     27  C   UNL A   1      40.047  29.437  31.217  1.00  0.00     0.031 A 
ATOM     28  C   UNL A   1      41.536  31.939  37.042  1.00  0.00     0.049 A 
ATOM     29  C   UNL A   1      41.213  29.269  32.145  1.00  0.00     0.074 A 
ATOM     30  C   UNL A   1      42.605  31.616  37.859  1.00  0.00     0.029 A 
ATOM     31  N   UNL A   1      41.693  31.218  35.870  1.00  0.00    -0.354 N 
ATOM     32  N   UNL A   1      41.438  29.844  33.299  1.00  0.00    -0.248 NA
ATOM     33  C   UNL A   1      42.257  28.326  31.717  1.00  0.00     0.031 C 
ATOM     34  C   UNL A   1      43.435  30.730  37.160  1.00  0.00     0.029 A 
ATOM     35  C   UNL A   1      42.853  30.466  35.931  1.00  0.00     0.049 A 
ATOM     36  H   UNL A   1      41.071  31.236  35.107  1.00  0.00     0.167 HD
ATOM     37  C   UNL A   1      42.649  29.332  33.739  1.00  0.00     0.074 A 
ATOM     38  C   UNL A   1      43.109  28.400  32.728  1.00  0.00     0.031 C 
ATOM     39  C   UNL A   1      43.316  29.593  34.888  1.00  0.00     0.031 A 
BRANCH  26  40
ATOM     40  C   UNL A   1      40.402  33.572  38.606  1.00  0.00    -0.014 A 
ATOM     41  C   UNL A   1      41.084  34.786  38.786  1.00  0.00     0.009 A 
ATOM     42  C   UNL A   1      39.684  33.027  39.681  1.00  0.00     0.009 A 
ATOM     43  C   UNL A   1      41.078  35.420  40.031  1.00  0.00     0.001 A 
ATOM     44  C   UNL A   1      39.663  33.673  40.917  1.00  0.00     0.001 A 
ATOM     45  C   UNL A   1      40.368  34.863  41.093  1.00  0.00     0.000 A 
ENDBRANCH  26  40
BRANCH  27  46
ATOM     46  C   UNL A   1      40.066  28.740  29.910  1.00  0.00    -0.014 A 
ATOM     47  C   UNL A   1      40.532  29.375  28.752  1.00  0.00     0.009 A 
ATOM     48  C   UNL A   1      39.489  27.464  29.814  1.00  0.00     0.009 A 
ATOM     49  C   UNL A   1      40.395  28.749  27.511  1.00  0.00     0.001 A 
ATOM     50  C   UNL A   1      39.341  26.850  28.570  1.00  0.00     0.001 A 
ATOM     51  C   UNL A   1      39.793  27.493  27.420  1.00  0.00     0.000 A 
ENDBRANCH  27  46
BRANCH  39  52
ATOM     52  C   UNL A   1      44.600  28.853  35.093  1.00  0.00    -0.014 A 
ATOM     53  C   UNL A   1      45.826  29.403  34.685  1.00  0.00     0.009 A 
ATOM     54  C   UNL A   1      44.581  27.583  35.687  1.00  0.00     0.009 A 
ATOM     55  C   UNL A   1      47.006  28.677  34.843  1.00  0.00     0.001 A 
ATOM     56  C   UNL A   1      45.765  26.870  35.863  1.00  0.00     0.001 A 
ATOM     57  C   UNL A   1      46.975  27.413  35.433  1.00  0.00     0.000 A 
ENDBRANCH  39  52
ENDBRANCH  13  14
ENDBRANCH   6   8
ENDBRANCH   5   6
ENDBRANCH   4   5
ENDBRANCH   3   4
ENDBRANCH   2   3
ENDBRANCH   1   2
BRANCH   1  58
ATOM     58  C   UNL A   1      34.546  31.980  28.637  1.00  0.00     0.188 C 
BRANCH  58  59
ATOM     59  O   UNL A   1      34.847  30.707  28.067  1.00  0.00    -0.376 OA
BRANCH  59  60
ATOM     60  C   UNL A   1      33.988  30.229  27.037  1.00  0.00     0.202 C 
BRANCH  60  61
ATOM     61  C   UNL A   1      34.049  28.730  26.722  1.00  0.00     0.261 C 
BRANCH  61  62
ATOM     62  O   UNL A   1      32.971  28.232  25.904  1.00  0.00    -0.460 OA
BRANCH  62  63
ATOM     63  C   UNL A   1      33.176  28.382  24.576  1.00  0.00     0.340 C 
ATOM     64  O   UNL A   1      34.225  28.214  23.965  1.00  0.00    -0.246 OA
BRANCH  63  65
ATOM     65  C   UNL A   1      31.980  28.892  23.889  1.00  0.00     0.083 A 
ATOM     66  C   UNL A   1      31.228  29.896  24.516  1.00  0.00     0.018 A 
ATOM     67  C   UNL A   1      31.474  28.167  22.790  1.00  0.00     0.056 A 
ATOM     68  C   UNL A   1      29.927  30.155  24.090  1.00  0.00     0.014 A 
ATOM     69  C   UNL A   1      30.137  28.375  22.460  1.00  0.00     0.040 A 
ATOM     70  C   UNL A   1      29.356  29.371  23.082  1.00  0.00     0.058 A 
BRANCH  67  71
ATOM     71  N   UNL A   1      32.367  27.362  22.045  1.00  0.00    -0.320 N 
ATOM     72  C   UNL A   1      32.642  26.016  21.937  1.00  0.00     0.277 C 
ATOM     73  H   UNL A   1      32.938  27.902  21.452  1.00  0.00     0.170 HD
ATOM     74  O   UNL A   1      33.346  25.670  20.984  1.00  0.00    -0.267 OA
BRANCH  72  75
ATOM     75  C   UNL A   1      32.185  25.052  22.924  1.00  0.00     0.171 A 
ATOM     76  C   UNL A   1      32.907  24.404  23.954  1.00  0.00     0.079 A 
ATOM     77  N   UNL A   1      30.886  24.715  22.984  1.00  0.00    -0.075 NA
ATOM     78  C   UNL A   1      31.988  23.600  24.570  1.00  0.00     0.232 A 
ATOM     79  O   UNL A   1      30.773  23.799  24.013  1.00  0.00    -0.364 OA
ENDBRANCH  72  75
ENDBRANCH  67  71
BRANCH  70  80
ATOM     80  C   UNL A   1      27.910  29.558  22.680  1.00  0.00     0.416 C 
ATOM     81  F   UNL A   1      27.134  28.495  23.023  1.00  0.00    -0.166 F 
ATOM     82  F   UNL A   1      27.339  30.648  23.258  1.00  0.00    -0.166 F 
ATOM     83  F   UNL A   1      27.746  29.722  21.335  1.00  0.00    -0.166 F 
ENDBRANCH  70  80
ENDBRANCH  63  65
ENDBRANCH  62  63
ENDBRANCH  61  62
ENDBRANCH  60  61
ENDBRANCH  59  60
ENDBRANCH  58  59
ENDBRANCH   1  58
TORSDOF 20
ENDMDL
MODEL 2
REMARK VINA RESULT:     -10.0      3.475      5.033
REMARK SMILES O=C(OCCOCCOCCOC(=O)c1ccc(C(F)(F)F)cc1NC(=O)c1ccon1)c1ccc(-c2c3nc(c(-c4ccccc4)c4ccc([nH]4)c(-c4ccccc4)c4nc(c(-c5ccccc5)c5ccc2[nH]5)C=C4)C=C3)cc1
REMARK SMILES IDX 7 1 6 2 5 3 4 4 3 5 2 6 1 7 33 8 34 9 80 10 35 11 79 12
REMARK SMILES IDX 36 13 37 14 38 15 73 16 39 17 78 18 72 19 74 20 40 21 77 22
REMARK SMILES IDX 71 23 70 24 41 26 63 27 48 28 62 29 49 30 52 31 61 32 75 33
REMARK SMILES IDX 50 34 51 35 60 37 76 38 53 39 42 40 43 41 47 42 44 43 46 44
REMARK SMILES IDX 45 45 64 46 65 47 69 48 66 49 68 50 67 51 54 52 55 53 59 54
REMARK SMILES IDX 56 55 58 56 57 57 8 58 9 59 10 60 11 61 12 62 13 63 14 64
REMARK SMILES IDX 15 65 16 66 24 67 17 68 23 69 18 70 25 71 26 72 27 74 28 75
REMARK SMILES IDX 29 76 32 77 30 78 31 79 19 80 20 81 21 82 22 83
REMARK H PARENT 74 25 52 36 25 73
REMARK Flexibility Score: inf
ROOT
ATOM      1  C   UNL A   1      31.779  29.675  26.792  1.00  0.00     0.188 C 
ENDROOT
BRANCH   1   2
ATOM      2  O   UNL A   1      31.482  30.674  25.804  1.00  0.00    -0.376 OA
BRANCH   2   3
ATOM      3  C   UNL A   1      31.296  31.980  26.361  1.00  0.00     0.202 C 
BRANCH   3   4
ATOM      4  C   UNL A   1      32.447  32.445  27.261  1.00  0.00     0.261 C 
BRANCH   4   5
ATOM      5  O   UNL A   1      32.285  33.810  27.680  1.00  0.00    -0.460 OA
BRANCH   5   6
ATOM      6  C   UNL A   1      33.081  34.526  28.513  1.00  0.00     0.338 C 
ATOM      7  O   UNL A   1      32.664  35.594  28.958  1.00  0.00    -0.246 OA
BRANCH   6   8
ATOM      8  C   UNL A   1      34.421  34.057  28.985  1.00  0.00     0.060 A 
ATOM      9  C   UNL A   1      35.632  34.299  28.337  1.00  0.00     0.016 A 
ATOM     10  C   UNL A   1      34.458  33.363  30.207  1.00  0.00     0.016 A 
ATOM     11  C   UNL A   1      36.822  33.745  28.801  1.00  0.00     0.010 A 
ATOM     12  C   UNL A   1      35.661  32.863  30.719  1.00  0.00     0.010 A 
ATOM     13  C   UNL A   1      36.845  33.010  29.987  1.00  0.00    -0.014 A 
BRANCH  13  14
ATOM     14  C   UNL A   1      38.088  32.306  30.370  1.00  0.00     0.031 A 
ATOM     15  C   UNL A   1      38.960  32.895  31.442  1.00  0.00     0.074 A 
ATOM     16  C   UNL A   1      38.371  31.093  29.860  1.00  0.00     0.049 A 
ATOM     17  N   UNL A   1      40.093  32.453  31.923  1.00  0.00    -0.248 NA
ATOM     18  C   UNL A   1      38.478  34.136  32.072  1.00  0.00     0.031 C 
ATOM     19  C   UNL A   1      37.544  30.354  28.904  1.00  0.00     0.029 A 
ATOM     20  N   UNL A   1      39.427  30.254  30.105  1.00  0.00    -0.354 N 
ATOM     21  C   UNL A   1      40.456  33.357  32.914  1.00  0.00     0.074 A 
ATOM     22  C   UNL A   1      39.443  34.389  32.943  1.00  0.00     0.031 C 
ATOM     23  C   UNL A   1      38.126  29.170  28.651  1.00  0.00     0.029 A 
ATOM     24  C   UNL A   1      39.389  29.097  29.370  1.00  0.00     0.049 A 
ATOM     25  H   UNL A   1      40.144  30.462  30.747  1.00  0.00     0.167 HD
ATOM     26  C   UNL A   1      41.530  33.326  33.737  1.00  0.00     0.031 A 
ATOM     27  C   UNL A   1      40.299  28.114  29.261  1.00  0.00     0.031 A 
ATOM     28  C   UNL A   1      42.551  32.317  33.697  1.00  0.00     0.049 A 
ATOM     29  C   UNL A   1      41.561  28.186  30.068  1.00  0.00     0.074 A 
ATOM     30  C   UNL A   1      43.698  32.212  34.462  1.00  0.00     0.029 A 
ATOM     31  N   UNL A   1      42.544  31.234  32.832  1.00  0.00    -0.354 N 
ATOM     32  N   UNL A   1      41.940  29.098  30.926  1.00  0.00    -0.248 NA
ATOM     33  C   UNL A   1      42.515  27.082  29.885  1.00  0.00     0.031 C 
ATOM     34  C   UNL A   1      44.410  31.086  34.029  1.00  0.00     0.029 A 
ATOM     35  C   UNL A   1      43.678  30.467  33.029  1.00  0.00     0.049 A 
ATOM     36  H   UNL A   1      41.836  31.039  32.176  1.00  0.00     0.167 HD
ATOM     37  C   UNL A   1      43.178  28.679  31.390  1.00  0.00     0.074 A 
ATOM     38  C   UNL A   1      43.484  27.431  30.718  1.00  0.00     0.031 C 
ATOM     39  C   UNL A   1      43.985  29.263  32.307  1.00  0.00     0.031 A 
BRANCH  26  40
ATOM     40  C   UNL A   1      41.664  34.457  34.714  1.00  0.00    -0.014 A 
ATOM     41  C   UNL A   1      41.113  34.375  36.003  1.00  0.00     0.009 A 
ATOM     42  C   UNL A   1      42.332  35.629  34.331  1.00  0.00     0.009 A 
ATOM     43  C   UNL A   1      41.196  35.461  36.876  1.00  0.00     0.001 A 
ATOM     44  C   UNL A   1      42.432  36.706  35.213  1.00  0.00     0.001 A 
ATOM     45  C   UNL A   1      41.856  36.624  36.480  1.00  0.00     0.000 A 
ENDBRANCH  26  40
BRANCH  27  46
ATOM     46  C   UNL A   1      40.139  27.019  28.276  1.00  0.00    -0.014 A 
ATOM     47  C   UNL A   1      39.540  25.804  28.628  1.00  0.00     0.009 A 
ATOM     48  C   UNL A   1      40.715  27.163  27.004  1.00  0.00     0.009 A 
ATOM     49  C   UNL A   1      39.541  24.739  27.724  1.00  0.00     0.001 A 
ATOM     50  C   UNL A   1      40.727  26.092  26.110  1.00  0.00     0.001 A 
ATOM     51  C   UNL A   1      40.142  24.880  26.472  1.00  0.00     0.000 A 
ENDBRANCH  27  46
BRANCH  39  52
ATOM     52  C   UNL A   1      45.260  28.547  32.622  1.00  0.00    -0.014 A 
ATOM     53  C   UNL A   1      46.456  28.874  31.964  1.00  0.00     0.009 A 
ATOM     54  C   UNL A   1      45.260  27.520  33.577  1.00  0.00     0.009 A 
ATOM     55  C   UNL A   1      47.624  28.162  32.238  1.00  0.00     0.001 A 
ATOM     56  C   UNL A   1      46.434  26.826  33.864  1.00  0.00     0.001 A 
ATOM     57  C   UNL A   1      47.611  27.140  33.189  1.00  0.00     0.000 A 
ENDBRANCH  39  52
ENDBRANCH  13  14
ENDBRANCH   6   8
ENDBRANCH   5   6
ENDBRANCH   4   5
ENDBRANCH   3   4
ENDBRANCH   2   3
ENDBRANCH   1   2
BRANCH   1  58
ATOM     58  C   UNL A   1      31.522  28.268  26.246  1.00  0.00     0.188 C 
BRANCH  58  59
ATOM     59  O   UNL A   1      30.805  28.209  25.014  1.00  0.00    -0.376 OA
BRANCH  59  60
ATOM     60  C   UNL A   1      30.258  26.950  24.632  1.00  0.00     0.202 C 
BRANCH  60  61
ATOM     61  C   UNL A   1      30.417  25.793  25.625  1.00  0.00     0.261 C 
BRANCH  61  62
ATOM     62  O   UNL A   1      31.184  24.673  25.141  1.00  0.00    -0.460 OA
BRANCH  62  63
ATOM     63  C   UNL A   1      31.980  24.108  26.075  1.00  0.00     0.340 C 
ATOM     64  O   UNL A   1      31.904  24.241  27.291  1.00  0.00    -0.246 OA
BRANCH  63  65
ATOM     65  C   UNL A   1      33.080  23.342  25.472  1.00  0.00     0.083 A 
ATOM     66  C   UNL A   1      33.008  21.941  25.493  1.00  0.00     0.018 A 
ATOM     67  C   UNL A   1      34.281  24.014  25.165  1.00  0.00     0.056 A 
ATOM     68  C   UNL A   1      34.155  21.184  25.263  1.00  0.00     0.014 A 
ATOM     69  C   UNL A   1      35.428  23.234  25.047  1.00  0.00     0.040 A 
ATOM     70  C   UNL A   1      35.384  21.824  25.075  1.00  0.00     0.058 A 
BRANCH  67  71
ATOM     71  N   UNL A   1      34.228  25.403  24.904  1.00  0.00    -0.320 N 
ATOM     72  C   UNL A   1      33.784  26.208  23.877  1.00  0.00     0.277 C 
ATOM     73  H   UNL A   1      34.604  25.929  25.647  1.00  0.00     0.170 HD
ATOM     74  O   UNL A   1      33.690  27.415  24.121  1.00  0.00    -0.267 OA
BRANCH  72  75
ATOM     75  C   UNL A   1      33.497  25.683  22.553  1.00  0.00     0.171 A 
ATOM     76  C   UNL A   1      33.022  24.406  22.172  1.00  0.00     0.079 A 
ATOM     77  N   UNL A   1      33.608  26.477  21.476  1.00  0.00    -0.075 NA
ATOM     78  C   UNL A   1      32.943  24.456  20.808  1.00  0.00     0.232 A 
ATOM     79  O   UNL A   1      33.267  25.698  20.386  1.00  0.00    -0.364 OA
ENDBRANCH  72  75
ENDBRANCH  67  71
BRANCH  70  80
ATOM     80  C   UNL A   1      36.661  21.025  24.936  1.00  0.00     0.416 C 
ATOM     81  F   UNL A   1      36.438  19.683  24.949  1.00  0.00    -0.166 F 
ATOM     82  F   UNL A   1      37.325  21.289  23.779  1.00  0.00    -0.166 F 
ATOM     83  F   UNL A   1      37.554  21.266  25.939  1.00  0.00    -0.166 F 
ENDBRANCH  70  80
ENDBRANCH  63  65
ENDBRANCH  62  63
ENDBRANCH  61  62
ENDBRANCH  60  61
ENDBRANCH  59  60
ENDBRANCH  58  59
ENDBRANCH   1  58
TORSDOF 20
ENDMDL
MODEL 3
REMARK VINA RESULT:     -10.0      4.191      6.607
REMARK SMILES O=C(OCCOCCOCCOC(=O)c1ccc(C(F)(F)F)cc1NC(=O)c1ccon1)c1ccc(-c2c3nc(c(-c4ccccc4)c4ccc([nH]4)c(-c4ccccc4)c4nc(c(-c5ccccc5)c5ccc2[nH]5)C=C4)C=C3)cc1
REMARK SMILES IDX 7 1 6 2 5 3 4 4 3 5 2 6 1 7 33 8 34 9 80 10 35 11 79 12
REMARK SMILES IDX 36 13 37 14 38 15 73 16 39 17 78 18 72 19 74 20 40 21 77 22
REMARK SMILES IDX 71 23 70 24 41 26 63 27 48 28 62 29 49 30 52 31 61 32 75 33
REMARK SMILES IDX 50 34 51 35 60 37 76 38 53 39 42 40 43 41 47 42 44 43 46 44
REMARK SMILES IDX 45 45 64 46 65 47 69 48 66 49 68 50 67 51 54 52 55 53 59 54
REMARK SMILES IDX 56 55 58 56 57 57 8 58 9 59 10 60 11 61 12 62 13 63 14 64
REMARK SMILES IDX 15 65 16 66 24 67 17 68 23 69 18 70 25 71 26 72 27 74 28 75
REMARK SMILES IDX 29 76 32 77 30 78 31 79 19 80 20 81 21 82 22 83
REMARK H PARENT 74 25 52 36 25 73
REMARK Flexibility Score: inf
ROOT
ATOM      1  C   UNL A   1      33.266  35.929  29.908  1.00  0.00     0.188 C 
ENDROOT
BRANCH   1   2
ATOM      2  O   UNL A   1      32.813  35.181  31.046  1.00  0.00    -0.376 OA
BRANCH   2   3
ATOM      3  C   UNL A   1      33.796  35.084  32.084  1.00  0.00     0.202 C 
BRANCH   3   4
ATOM      4  C   UNL A   1      33.682  33.813  32.934  1.00  0.00     0.261 C 
BRANCH   4   5
ATOM      5  O   UNL A   1      34.598  32.793  32.503  1.00  0.00    -0.460 OA
BRANCH   5   6
ATOM      6  C   UNL A   1      35.774  32.432  33.075  1.00  0.00     0.338 C 
ATOM      7  O   UNL A   1      35.950  32.673  34.269  1.00  0.00    -0.246 OA
BRANCH   6   8
ATOM      8  C   UNL A   1      36.854  31.691  32.354  1.00  0.00     0.060 A 
ATOM      9  C   UNL A   1      37.884  30.973  32.964  1.00  0.00     0.016 A 
ATOM     10  C   UNL A   1      36.789  31.679  30.949  1.00  0.00     0.016 A 
ATOM     11  C   UNL A   1      38.899  30.388  32.212  1.00  0.00     0.010 A 
ATOM     12  C   UNL A   1      37.768  31.032  30.186  1.00  0.00     0.010 A 
ATOM     13  C   UNL A   1      38.859  30.427  30.818  1.00  0.00    -0.014 A 
BRANCH  13  14
ATOM     14  C   UNL A   1      40.027  29.937  30.054  1.00  0.00     0.031 A 
ATOM     15  C   UNL A   1      41.201  30.851  29.848  1.00  0.00     0.074 A 
ATOM     16  C   UNL A   1      40.094  28.652  29.657  1.00  0.00     0.049 A 
ATOM     17  N   UNL A   1      42.318  30.632  29.205  1.00  0.00    -0.248 NA
ATOM     18  C   UNL A   1      41.114  32.182  30.474  1.00  0.00     0.031 C 
ATOM     19  C   UNL A   1      39.076  27.629  29.902  1.00  0.00     0.029 A 
ATOM     20  N   UNL A   1      41.085  27.983  28.987  1.00  0.00    -0.354 N 
ATOM     21  C   UNL A   1      43.068  31.793  29.351  1.00  0.00     0.074 A 
ATOM     22  C   UNL A   1      42.268  32.725  30.115  1.00  0.00     0.031 C 
ATOM     23  C   UNL A   1      39.502  26.462  29.392  1.00  0.00     0.029 A 
ATOM     24  C   UNL A   1      40.783  26.670  28.731  1.00  0.00     0.049 A 
ATOM     25  H   UNL A   1      41.932  28.404  28.715  1.00  0.00     0.167 HD
ATOM     26  C   UNL A   1      44.316  32.058  28.901  1.00  0.00     0.031 A 
ATOM     27  C   UNL A   1      41.450  25.757  28.007  1.00  0.00     0.031 A 
ATOM     28  C   UNL A   1      45.106  31.145  28.123  1.00  0.00     0.049 A 
ATOM     29  C   UNL A   1      42.762  26.128  27.382  1.00  0.00     0.074 A 
ATOM     30  C   UNL A   1      46.369  31.327  27.588  1.00  0.00     0.029 A 
ATOM     31  N   UNL A   1      44.699  29.870  27.765  1.00  0.00    -0.354 N 
ATOM     32  N   UNL A   1      43.412  27.262  27.442  1.00  0.00    -0.248 NA
ATOM     33  C   UNL A   1      43.426  25.082  26.591  1.00  0.00     0.031 C 
ATOM     34  C   UNL A   1      46.707  30.176  26.867  1.00  0.00     0.029 A 
ATOM     35  C   UNL A   1      45.675  29.262  26.997  1.00  0.00     0.049 A 
ATOM     36  H   UNL A   1      43.841  29.458  28.020  1.00  0.00     0.167 HD
ATOM     37  C   UNL A   1      44.567  27.067  26.699  1.00  0.00     0.074 A 
ATOM     38  C   UNL A   1      44.526  25.707  26.199  1.00  0.00     0.031 C 
ATOM     39  C   UNL A   1      45.584  27.930  26.465  1.00  0.00     0.031 A 
BRANCH  26  40
ATOM     40  C   UNL A   1      44.871  33.417  29.210  1.00  0.00    -0.014 A 
ATOM     41  C   UNL A   1      44.619  34.514  28.370  1.00  0.00     0.009 A 
ATOM     42  C   UNL A   1      45.675  33.597  30.344  1.00  0.00     0.009 A 
ATOM     43  C   UNL A   1      45.194  35.757  28.642  1.00  0.00     0.001 A 
ATOM     44  C   UNL A   1      46.231  34.846  30.626  1.00  0.00     0.001 A 
ATOM     45  C   UNL A   1      45.999  35.921  29.769  1.00  0.00     0.000 A 
ENDBRANCH  26  40
BRANCH  27  46
ATOM     46  C   UNL A   1      40.867  24.428  27.712  1.00  0.00    -0.014 A 
ATOM     47  C   UNL A   1      41.408  23.256  28.256  1.00  0.00     0.009 A 
ATOM     48  C   UNL A   1      39.830  24.337  26.770  1.00  0.00     0.009 A 
ATOM     49  C   UNL A   1      40.933  22.010  27.840  1.00  0.00     0.001 A 
ATOM     50  C   UNL A   1      39.369  23.090  26.346  1.00  0.00     0.001 A 
ATOM     51  C   UNL A   1      39.923  21.928  26.881  1.00  0.00     0.000 A 
ENDBRANCH  27  46
BRANCH  39  52
ATOM     52  C   UNL A   1      46.718  27.411  25.638  1.00  0.00    -0.014 A 
ATOM     53  C   UNL A   1      47.721  26.611  26.205  1.00  0.00     0.009 A 
ATOM     54  C   UNL A   1      46.791  27.744  24.278  1.00  0.00     0.009 A 
ATOM     55  C   UNL A   1      48.795  26.177  25.427  1.00  0.00     0.001 A 
ATOM     56  C   UNL A   1      47.853  27.290  23.498  1.00  0.00     0.001 A 
ATOM     57  C   UNL A   1      48.859  26.516  24.075  1.00  0.00     0.000 A 
ENDBRANCH  39  52
ENDBRANCH  13  14
ENDBRANCH   6   8
ENDBRANCH   5   6
ENDBRANCH   4   5
ENDBRANCH   3   4
ENDBRANCH   2   3
ENDBRANCH   1   2
BRANCH   1  58
ATOM     58  C   UNL A   1      34.049  35.038  28.940  1.00  0.00     0.188 C 
BRANCH  58  59
ATOM     59  O   UNL A   1      33.612  33.682  28.863  1.00  0.00    -0.376 OA
BRANCH  59  60
ATOM     60  C   UNL A   1      34.435  32.767  28.146  1.00  0.00     0.202 C 
BRANCH  60  61
ATOM     61  C   UNL A   1      34.059  31.283  28.229  1.00  0.00     0.261 C 
BRANCH  61  62
ATOM     62  O   UNL A   1      34.054  30.582  26.970  1.00  0.00    -0.460 OA
BRANCH  62  63
ATOM     63  C   UNL A   1      33.378  29.412  26.996  1.00  0.00     0.340 C 
ATOM     64  O   UNL A   1      33.424  28.549  27.865  1.00  0.00    -0.246 OA
BRANCH  63  65
ATOM     65  C   UNL A   1      32.600  29.198  25.767  1.00  0.00     0.083 A 
ATOM     66  C   UNL A   1      31.756  30.227  25.324  1.00  0.00     0.018 A 
ATOM     67  C   UNL A   1      32.501  27.889  25.251  1.00  0.00     0.056 A 
ATOM     68  C   UNL A   1      30.757  29.952  24.394  1.00  0.00     0.014 A 
ATOM     69  C   UNL A   1      31.427  27.624  24.406  1.00  0.00     0.040 A 
ATOM     70  C   UNL A   1      30.558  28.639  23.954  1.00  0.00     0.058 A 
BRANCH  67  71
ATOM     71  N   UNL A   1      33.538  26.971  25.540  1.00  0.00    -0.320 N 
ATOM     72  C   UNL A   1      33.636  25.613  25.749  1.00  0.00     0.277 C 
ATOM     73  H   UNL A   1      34.413  27.418  25.611  1.00  0.00     0.170 HD
ATOM     74  O   UNL A   1      34.774  25.133  25.743  1.00  0.00    -0.267 OA
BRANCH  72  75
ATOM     75  C   UNL A   1      32.473  24.787  26.025  1.00  0.00     0.171 A 
ATOM     76  C   UNL A   1      31.752  23.927  25.162  1.00  0.00     0.079 A 
ATOM     77  N   UNL A   1      31.978  24.715  27.272  1.00  0.00    -0.075 NA
ATOM     78  C   UNL A   1      30.752  23.412  25.940  1.00  0.00     0.232 A 
ATOM     79  O   UNL A   1      30.896  23.859  27.208  1.00  0.00    -0.364 OA
ENDBRANCH  72  75
ENDBRANCH  67  71
BRANCH  70  80
ATOM     80  C   UNL A   1      29.410  28.295  23.032  1.00  0.00     0.416 C 
ATOM     81  F   UNL A   1      29.779  27.445  22.036  1.00  0.00    -0.166 F 
ATOM     82  F   UNL A   1      28.375  27.697  23.680  1.00  0.00    -0.166 F 
ATOM     83  F   UNL A   1      28.877  29.388  22.412  1.00  0.00    -0.166 F 
ENDBRANCH  70  80
ENDBRANCH  63  65
ENDBRANCH  62  63
ENDBRANCH  61  62
ENDBRANCH  60  61
ENDBRANCH  59  60
ENDBRANCH  58  59
ENDBRANCH   1  58
TORSDOF 20
ENDMDL
