MODEL 1
REMARK VINA RESULT:      -8.5      0.000      0.000
REMARK SMILES NS(=O)(=O)c1ccc(-n2nc(NC(=O)NCCCCCCCCCCC(=O)OCCOCCOCCOC(=O)c3ccc(-c4c5nc(c(-c6ccccc6)c6ccc([nH]6)c(-c6ccccc6)c6nc(c(-c7ccccc7)c7ccc4[nH]7)C=C6)C=C5)cc3)cc2-c2ccccc2)cc1
REMARK SMILES IDX 25 1 24 2 23 3 22 4 21 5 20 6 19 7 18 8 17 9 16 10 15 11
REMARK SMILES IDX 12 12 13 13 14 15 11 17 9 18 10 19 89 20 88 21 8 22 5 23
REMARK SMILES IDX 6 24 97 25 7 26 96 27 2 28 3 29 4 30 1 31 90 34 91 35 95 36
REMARK SMILES IDX 92 37 94 38 93 39 26 40 27 41 28 42 29 43 30 44 31 45 32 46
REMARK SMILES IDX 33 47 34 48 35 49 36 50 37 51 38 52 39 53 40 54 41 55 87 56
REMARK SMILES IDX 42 57 86 58 43 59 44 60 45 61 80 62 46 63 85 64 79 65 81 66
REMARK SMILES IDX 47 67 84 68 78 69 77 70 48 72 70 73 55 74 69 75 56 76 59 77
REMARK SMILES IDX 68 78 82 79 57 80 58 81 67 83 83 84 60 85 49 86 50 87 54 88
REMARK SMILES IDX 51 89 53 90 52 91 71 92 72 93 76 94 73 95 75 96 74 97 61 98
REMARK SMILES IDX 62 99 66 100 63 101 65 102 64 103
REMARK H PARENT 12 14 15 16 1 32 1 33 81 71 59 82
REMARK Flexibility Score: inf
ROOT
ATOM      1  C   UNL A   1      36.268  30.377  28.711  1.00  0.00     0.123 C 
ENDROOT
BRANCH   1   2
ATOM      2  C   UNL A   1      35.211  29.797  27.767  1.00  0.00     0.012 C 
BRANCH   2   3
ATOM      3  C   UNL A   1      33.909  30.588  27.636  1.00  0.00     0.001 C 
BRANCH   3   4
ATOM      4  C   UNL A   1      32.694  29.757  27.239  1.00  0.00     0.000 C 
BRANCH   4   5
ATOM      5  C   UNL A   1      31.943  30.296  26.024  1.00  0.00     0.000 C 
BRANCH   5   6
ATOM      6  C   UNL A   1      32.127  29.478  24.744  1.00  0.00     0.000 C 
BRANCH   6   7
ATOM      7  C   UNL A   1      32.094  27.954  24.912  1.00  0.00     0.000 C 
BRANCH   7   8
ATOM      8  C   UNL A   1      32.737  27.132  23.788  1.00  0.00     0.002 C 
BRANCH   8   9
ATOM      9  C   UNL A   1      32.322  25.663  23.703  1.00  0.00     0.021 C 
BRANCH   9  10
ATOM     10  C   UNL A   1      30.821  25.418  23.738  1.00  0.00     0.117 C 
BRANCH  10  11
ATOM     11  N   UNL A   1      30.166  25.920  24.927  1.00  0.00    -0.338 N 
ATOM     12  N   UNL A   1      30.246  24.007  26.336  1.00  0.00    -0.291 N 
ATOM     13  C   UNL A   1      29.852  25.274  26.074  1.00  0.00     0.320 C 
ATOM     14  H   UNL A   1      29.657  23.513  26.950  1.00  0.00     0.173 HD
ATOM     15  O   UNL A   1      29.072  25.829  26.853  1.00  0.00    -0.248 OA
ATOM     16  H   UNL A   1      29.911  26.870  24.898  1.00  0.00     0.165 HD
BRANCH  12  17
ATOM     17  C   UNL A   1      31.333  23.294  25.886  1.00  0.00     0.157 A 
ATOM     18  N   UNL A   1      32.534  21.661  25.249  1.00  0.00    -0.231 N 
ATOM     19  N   UNL A   1      31.277  22.154  25.199  1.00  0.00    -0.149 NA
ATOM     20  C   UNL A   1      33.448  22.645  25.613  1.00  0.00     0.076 A 
ATOM     21  C   UNL A   1      32.672  23.705  26.049  1.00  0.00     0.078 A 
BRANCH  18  22
ATOM     22  C   UNL A   1      32.747  20.271  25.036  1.00  0.00     0.065 A 
ATOM     23  C   UNL A   1      33.256  17.564  24.604  1.00  0.00     0.082 A 
ATOM     24  C   UNL A   1      33.196  18.055  25.910  1.00  0.00     0.024 A 
ATOM     25  C   UNL A   1      33.024  18.408  23.511  1.00  0.00     0.024 A 
ATOM     26  C   UNL A   1      32.946  19.410  26.124  1.00  0.00     0.030 A 
ATOM     27  C   UNL A   1      32.740  19.760  23.729  1.00  0.00     0.030 A 
BRANCH  23  28
ATOM     28  S   UNL A   1      33.748  15.887  24.331  1.00  0.00     0.238 S 
ATOM     29  O   UNL A   1      34.259  15.755  22.984  1.00  0.00    -0.207 OA
ATOM     30  O   UNL A   1      32.740  15.005  24.864  1.00  0.00    -0.207 OA
BRANCH  28  31
ATOM     31  N   UNL A   1      35.083  15.728  25.333  1.00  0.00    -0.225 NA
ATOM     32  H   UNL A   1      35.859  15.330  24.805  1.00  0.00     0.137 HD
ATOM     33  H   UNL A   1      34.852  15.112  26.113  1.00  0.00     0.137 HD
ENDBRANCH  28  31
ENDBRANCH  23  28
ENDBRANCH  18  22
BRANCH  20  34
ATOM     34  C   UNL A   1      34.901  22.522  25.515  1.00  0.00     0.000 A 
ATOM     35  C   UNL A   1      35.491  21.282  25.222  1.00  0.00     0.010 A 
ATOM     36  C   UNL A   1      35.727  23.630  25.739  1.00  0.00     0.010 A 
ATOM     37  C   UNL A   1      36.879  21.145  25.192  1.00  0.00     0.001 A 
ATOM     38  C   UNL A   1      37.116  23.492  25.701  1.00  0.00     0.001 A 
ATOM     39  C   UNL A   1      37.690  22.249  25.434  1.00  0.00     0.000 A 
ENDBRANCH  20  34
ENDBRANCH  12  17
ENDBRANCH  10  11
ENDBRANCH   9  10
ENDBRANCH   8   9
ENDBRANCH   7   8
ENDBRANCH   6   7
ENDBRANCH   5   6
ENDBRANCH   4   5
ENDBRANCH   3   4
ENDBRANCH   2   3
ENDBRANCH   1   2
BRANCH   1  40
ATOM     40  C   UNL A   1      36.612  29.609  29.975  1.00  0.00     0.305 C 
ATOM     41  O   UNL A   1      35.841  29.548  30.925  1.00  0.00    -0.252 OA
BRANCH  40  42
ATOM     42  O   UNL A   1      37.861  29.090  29.956  1.00  0.00    -0.463 OA
BRANCH  42  43
ATOM     43  C   UNL A   1      38.939  29.925  30.409  1.00  0.00     0.261 C 
BRANCH  43  44
ATOM     44  C   UNL A   1      40.306  29.482  29.861  1.00  0.00     0.202 C 
BRANCH  44  45
ATOM     45  O   UNL A   1      40.319  28.992  28.518  1.00  0.00    -0.376 OA
BRANCH  45  46
ATOM     46  C   UNL A   1      41.503  28.315  28.095  1.00  0.00     0.188 C 
BRANCH  46  47
ATOM     47  C   UNL A   1      42.648  28.262  29.118  1.00  0.00     0.188 C 
BRANCH  47  48
ATOM     48  O   UNL A   1      42.931  26.942  29.571  1.00  0.00    -0.376 OA
BRANCH  48  49
ATOM     49  C   UNL A   1      42.162  25.860  29.046  1.00  0.00     0.202 C 
BRANCH  49  50
ATOM     50  C   UNL A   1      42.948  24.663  28.509  1.00  0.00     0.261 C 
BRANCH  50  51
ATOM     51  O   UNL A   1      43.852  24.982  27.455  1.00  0.00    -0.460 OA
BRANCH  51  52
ATOM     52  C   UNL A   1      44.681  24.031  26.976  1.00  0.00     0.338 C 
ATOM     53  O   UNL A   1      44.671  22.839  27.209  1.00  0.00    -0.246 OA
BRANCH  52  54
ATOM     54  C   UNL A   1      45.599  24.713  26.046  1.00  0.00     0.060 A 
ATOM     55  C   UNL A   1      46.882  24.193  25.879  1.00  0.00     0.016 A 
ATOM     56  C   UNL A   1      45.213  25.921  25.431  1.00  0.00     0.016 A 
ATOM     57  C   UNL A   1      47.842  24.994  25.293  1.00  0.00     0.010 A 
ATOM     58  C   UNL A   1      46.160  26.712  24.834  1.00  0.00     0.010 A 
ATOM     59  C   UNL A   1      47.481  26.282  24.877  1.00  0.00    -0.014 A 
BRANCH  59  60
ATOM     60  C   UNL A   1      48.526  27.267  24.710  1.00  0.00     0.031 A 
ATOM     61  C   UNL A   1      49.073  27.451  23.358  1.00  0.00     0.074 A 
ATOM     62  C   UNL A   1      48.858  28.069  25.742  1.00  0.00     0.049 A 
ATOM     63  N   UNL A   1      50.283  27.240  22.967  1.00  0.00    -0.248 NA
ATOM     64  C   UNL A   1      48.148  27.876  22.298  1.00  0.00     0.031 C 
ATOM     65  C   UNL A   1      48.140  28.210  27.016  1.00  0.00     0.029 A 
ATOM     66  N   UNL A   1      49.834  29.013  25.823  1.00  0.00    -0.354 N 
ATOM     67  C   UNL A   1      50.330  27.695  21.657  1.00  0.00     0.074 A 
ATOM     68  C   UNL A   1      48.967  27.926  21.248  1.00  0.00     0.031 C 
ATOM     69  C   UNL A   1      48.576  29.317  27.651  1.00  0.00     0.029 A 
ATOM     70  C   UNL A   1      49.686  29.877  26.897  1.00  0.00     0.049 A 
ATOM     71  H   UNL A   1      50.577  29.077  25.180  1.00  0.00     0.167 HD
ATOM     72  C   UNL A   1      51.493  28.120  21.099  1.00  0.00     0.031 A 
ATOM     73  C   UNL A   1      50.384  31.010  27.131  1.00  0.00     0.031 A 
ATOM     74  C   UNL A   1      52.650  27.671  21.829  1.00  0.00     0.049 A 
ATOM     75  C   UNL A   1      51.635  30.950  26.347  1.00  0.00     0.074 A 
ATOM     76  C   UNL A   1      53.200  26.449  22.153  1.00  0.00     0.029 A 
ATOM     77  N   UNL A   1      53.253  28.598  22.641  1.00  0.00    -0.354 N 
ATOM     78  N   UNL A   1      52.606  30.119  26.593  1.00  0.00    -0.248 NA
ATOM     79  C   UNL A   1      51.697  31.609  25.049  1.00  0.00     0.031 C 
ATOM     80  C   UNL A   1      53.859  26.642  23.403  1.00  0.00     0.029 A 
ATOM     81  C   UNL A   1      53.682  27.975  23.783  1.00  0.00     0.049 A 
ATOM     82  H   UNL A   1      53.358  29.555  22.437  1.00  0.00     0.167 HD
ATOM     83  C   UNL A   1      53.151  29.834  25.352  1.00  0.00     0.074 A 
ATOM     84  C   UNL A   1      52.675  30.900  24.479  1.00  0.00     0.031 C 
ATOM     85  C   UNL A   1      53.682  28.605  25.087  1.00  0.00     0.031 A 
BRANCH  72  86
ATOM     86  C   UNL A   1      51.557  29.306  20.168  1.00  0.00    -0.014 A 
ATOM     87  C   UNL A   1      52.106  29.130  18.886  1.00  0.00     0.009 A 
ATOM     88  C   UNL A   1      51.372  30.633  20.603  1.00  0.00     0.009 A 
ATOM     89  C   UNL A   1      52.494  30.227  18.106  1.00  0.00     0.001 A 
ATOM     90  C   UNL A   1      51.714  31.730  19.808  1.00  0.00     0.001 A 
ATOM     91  C   UNL A   1      52.299  31.524  18.569  1.00  0.00     0.000 A 
ENDBRANCH  72  86
BRANCH  73  92
ATOM     92  C   UNL A   1      49.936  32.223  27.841  1.00  0.00    -0.014 A 
ATOM     93  C   UNL A   1      49.233  32.133  29.051  1.00  0.00     0.009 A 
ATOM     94  C   UNL A   1      50.405  33.491  27.445  1.00  0.00     0.009 A 
ATOM     95  C   UNL A   1      49.036  33.267  29.849  1.00  0.00     0.001 A 
ATOM     96  C   UNL A   1      50.200  34.623  28.237  1.00  0.00     0.001 A 
ATOM     97  C   UNL A   1      49.527  34.508  29.447  1.00  0.00     0.000 A 
ENDBRANCH  73  92
BRANCH  85  98
ATOM     98  C   UNL A   1      54.016  27.729  26.266  1.00  0.00    -0.014 A 
ATOM     99  C   UNL A   1      55.258  27.777  26.921  1.00  0.00     0.009 A 
ATOM    100  C   UNL A   1      53.008  26.913  26.804  1.00  0.00     0.009 A 
ATOM    101  C   UNL A   1      55.499  27.003  28.060  1.00  0.00     0.001 A 
ATOM    102  C   UNL A   1      53.242  26.155  27.955  1.00  0.00     0.001 A 
ATOM    103  C   UNL A   1      54.489  26.195  28.578  1.00  0.00     0.000 A 
ENDBRANCH  85  98
ENDBRANCH  59  60
ENDBRANCH  52  54
ENDBRANCH  51  52
ENDBRANCH  50  51
ENDBRANCH  49  50
ENDBRANCH  48  49
ENDBRANCH  47  48
ENDBRANCH  46  47
ENDBRANCH  45  46
ENDBRANCH  44  45
ENDBRANCH  43  44
ENDBRANCH  42  43
ENDBRANCH  40  42
ENDBRANCH   1  40
TORSDOF 32
ENDMDL
MODEL 2
REMARK VINA RESULT:      -8.1     12.981     18.554
REMARK SMILES NS(=O)(=O)c1ccc(-n2nc(NC(=O)NCCCCCCCCCCC(=O)OCCOCCOCCOC(=O)c3ccc(-c4c5nc(c(-c6ccccc6)c6ccc([nH]6)c(-c6ccccc6)c6nc(c(-c7ccccc7)c7ccc4[nH]7)C=C6)C=C5)cc3)cc2-c2ccccc2)cc1
REMARK SMILES IDX 25 1 24 2 23 3 22 4 21 5 20 6 19 7 18 8 17 9 16 10 15 11
REMARK SMILES IDX 12 12 13 13 14 15 11 17 9 18 10 19 89 20 88 21 8 22 5 23
REMARK SMILES IDX 6 24 97 25 7 26 96 27 2 28 3 29 4 30 1 31 90 34 91 35 95 36
REMARK SMILES IDX 92 37 94 38 93 39 26 40 27 41 28 42 29 43 30 44 31 45 32 46
REMARK SMILES IDX 33 47 34 48 35 49 36 50 37 51 38 52 39 53 40 54 41 55 87 56
REMARK SMILES IDX 42 57 86 58 43 59 44 60 45 61 80 62 46 63 85 64 79 65 81 66
REMARK SMILES IDX 47 67 84 68 78 69 77 70 48 72 70 73 55 74 69 75 56 76 59 77
REMARK SMILES IDX 68 78 82 79 57 80 58 81 67 83 83 84 60 85 49 86 50 87 54 88
REMARK SMILES IDX 51 89 53 90 52 91 71 92 72 93 76 94 73 95 75 96 74 97 61 98
REMARK SMILES IDX 62 99 66 100 63 101 65 102 64 103
REMARK H PARENT 12 14 15 16 1 32 1 33 81 71 59 82
REMARK Flexibility Score: inf
ROOT
ATOM      1  C   UNL A   1      39.326  28.802  31.085  1.00  0.00     0.123 C 
ENDROOT
BRANCH   1   2
ATOM      2  C   UNL A   1      40.500  28.211  30.300  1.00  0.00     0.012 C 
BRANCH   2   3
ATOM      3  C   UNL A   1      40.404  28.284  28.775  1.00  0.00     0.001 C 
BRANCH   3   4
ATOM      4  C   UNL A   1      39.566  27.184  28.134  1.00  0.00     0.000 C 
BRANCH   4   5
ATOM      5  C   UNL A   1      40.190  25.794  28.226  1.00  0.00     0.000 C 
BRANCH   5   6
ATOM      6  C   UNL A   1      39.235  24.643  27.901  1.00  0.00     0.000 C 
BRANCH   6   7
ATOM      7  C   UNL A   1      38.864  24.477  26.422  1.00  0.00     0.000 C 
BRANCH   7   8
ATOM      8  C   UNL A   1      37.830  23.391  26.099  1.00  0.00     0.002 C 
BRANCH   8   9
ATOM      9  C   UNL A   1      36.845  23.709  24.973  1.00  0.00     0.021 C 
BRANCH   9  10
ATOM     10  C   UNL A   1      35.396  23.857  25.412  1.00  0.00     0.117 C 
BRANCH  10  11
ATOM     11  N   UNL A   1      34.703  22.601  25.605  1.00  0.00    -0.338 N 
ATOM     12  N   UNL A   1      32.602  23.356  26.419  1.00  0.00    -0.291 N 
ATOM     13  C   UNL A   1      33.471  22.367  26.112  1.00  0.00     0.320 C 
ATOM     14  H   UNL A   1      31.955  23.130  27.125  1.00  0.00     0.173 HD
ATOM     15  O   UNL A   1      33.185  21.206  26.418  1.00  0.00    -0.248 OA
ATOM     16  H   UNL A   1      35.202  21.799  25.327  1.00  0.00     0.165 HD
BRANCH  12  17
ATOM     17  C   UNL A   1      32.472  24.626  25.908  1.00  0.00     0.157 A 
ATOM     18  N   UNL A   1      32.633  26.736  25.719  1.00  0.00    -0.231 N 
ATOM     19  N   UNL A   1      33.301  25.642  26.144  1.00  0.00    -0.149 NA
ATOM     20  C   UNL A   1      31.582  26.391  24.876  1.00  0.00     0.076 A 
ATOM     21  C   UNL A   1      31.457  25.019  25.010  1.00  0.00     0.078 A 
BRANCH  18  22
ATOM     22  C   UNL A   1      32.995  28.016  26.225  1.00  0.00     0.065 A 
ATOM     23  C   UNL A   1      33.714  30.486  27.301  1.00  0.00     0.082 A 
ATOM     24  C   UNL A   1      34.685  29.691  26.688  1.00  0.00     0.024 A 
ATOM     25  C   UNL A   1      32.377  30.073  27.346  1.00  0.00     0.024 A 
ATOM     26  C   UNL A   1      34.326  28.454  26.154  1.00  0.00     0.030 A 
ATOM     27  C   UNL A   1      32.011  28.847  26.781  1.00  0.00     0.030 A 
BRANCH  23  28
ATOM     28  S   UNL A   1      34.206  31.968  28.132  1.00  0.00     0.238 S 
ATOM     29  O   UNL A   1      34.528  31.657  29.507  1.00  0.00    -0.207 OA
ATOM     30  O   UNL A   1      33.303  33.033  27.772  1.00  0.00    -0.207 OA
BRANCH  28  31
ATOM     31  N   UNL A   1      35.670  32.331  27.400  1.00  0.00    -0.225 NA
ATOM     32  H   UNL A   1      35.904  33.308  27.575  1.00  0.00     0.137 HD
ATOM     33  H   UNL A   1      35.596  32.175  26.395  1.00  0.00     0.137 HD
ENDBRANCH  28  31
ENDBRANCH  23  28
ENDBRANCH  18  22
BRANCH  20  34
ATOM     34  C   UNL A   1      30.825  27.326  24.045  1.00  0.00     0.000 A 
ATOM     35  C   UNL A   1      29.424  27.256  23.994  1.00  0.00     0.010 A 
ATOM     36  C   UNL A   1      31.486  28.285  23.269  1.00  0.00     0.010 A 
ATOM     37  C   UNL A   1      28.701  28.103  23.154  1.00  0.00     0.001 A 
ATOM     38  C   UNL A   1      30.759  29.136  22.433  1.00  0.00     0.001 A 
ATOM     39  C   UNL A   1      29.370  29.040  22.371  1.00  0.00     0.000 A 
ENDBRANCH  20  34
ENDBRANCH  12  17
ENDBRANCH  10  11
ENDBRANCH   9  10
ENDBRANCH   8   9
ENDBRANCH   7   8
ENDBRANCH   6   7
ENDBRANCH   5   6
ENDBRANCH   4   5
ENDBRANCH   3   4
ENDBRANCH   2   3
ENDBRANCH   1   2
BRANCH   1  40
ATOM     40  C   UNL A   1      39.085  28.321  32.505  1.00  0.00     0.305 C 
ATOM     41  O   UNL A   1      38.159  27.570  32.785  1.00  0.00    -0.252 OA
BRANCH  40  42
ATOM     42  O   UNL A   1      39.937  28.869  33.401  1.00  0.00    -0.463 OA
BRANCH  42  43
ATOM     43  C   UNL A   1      39.722  30.239  33.777  1.00  0.00     0.261 C 
BRANCH  43  44
ATOM     44  C   UNL A   1      38.410  30.445  34.554  1.00  0.00     0.202 C 
BRANCH  44  45
ATOM     45  O   UNL A   1      37.608  31.557  34.152  1.00  0.00    -0.376 OA
BRANCH  45  46
ATOM     46  C   UNL A   1      38.254  32.564  33.372  1.00  0.00     0.188 C 
BRANCH  46  47
ATOM     47  C   UNL A   1      37.502  33.896  33.238  1.00  0.00     0.188 C 
BRANCH  47  48
ATOM     48  O   UNL A   1      37.862  34.843  34.239  1.00  0.00    -0.376 OA
BRANCH  48  49
ATOM     49  C   UNL A   1      38.941  34.530  35.119  1.00  0.00     0.202 C 
BRANCH  49  50
ATOM     50  C   UNL A   1      38.632  34.568  36.616  1.00  0.00     0.261 C 
BRANCH  50  51
ATOM     51  O   UNL A   1      39.660  35.157  37.410  1.00  0.00    -0.460 OA
BRANCH  51  52
ATOM     52  C   UNL A   1      39.505  35.239  38.748  1.00  0.00     0.338 C 
ATOM     53  O   UNL A   1      39.233  34.349  39.529  1.00  0.00    -0.246 OA
BRANCH  52  54
ATOM     54  C   UNL A   1      39.787  36.640  39.111  1.00  0.00     0.060 A 
ATOM     55  C   UNL A   1      41.103  37.094  39.032  1.00  0.00     0.016 A 
ATOM     56  C   UNL A   1      38.761  37.456  39.627  1.00  0.00     0.016 A 
ATOM     57  C   UNL A   1      41.430  38.269  39.680  1.00  0.00     0.010 A 
ATOM     58  C   UNL A   1      39.079  38.631  40.258  1.00  0.00     0.010 A 
ATOM     59  C   UNL A   1      40.425  38.959  40.370  1.00  0.00    -0.014 A 
BRANCH  59  60
ATOM     60  C   UNL A   1      40.819  39.886  41.407  1.00  0.00     0.031 A 
ATOM     61  C   UNL A   1      40.867  41.312  41.056  1.00  0.00     0.074 A 
ATOM     62  C   UNL A   1      40.984  39.443  42.670  1.00  0.00     0.049 A 
ATOM     63  N   UNL A   1      41.899  42.085  41.057  1.00  0.00    -0.248 NA
ATOM     64  C   UNL A   1      39.622  41.948  40.602  1.00  0.00     0.031 C 
ATOM     65  C   UNL A   1      40.619  38.120  43.196  1.00  0.00     0.029 A 
ATOM     66  N   UNL A   1      41.398  40.120  43.776  1.00  0.00    -0.354 N 
ATOM     67  C   UNL A   1      41.406  43.356  40.797  1.00  0.00     0.074 A 
ATOM     68  C   UNL A   1      40.038  43.193  40.373  1.00  0.00     0.031 C 
ATOM     69  C   UNL A   1      40.635  38.160  44.544  1.00  0.00     0.029 A 
ATOM     70  C   UNL A   1      41.135  39.458  44.965  1.00  0.00     0.049 A 
ATOM     71  H   UNL A   1      41.843  40.997  43.735  1.00  0.00     0.167 HD
ATOM     72  C   UNL A   1      42.063  44.467  41.221  1.00  0.00     0.031 A 
ATOM     73  C   UNL A   1      41.263  39.953  46.216  1.00  0.00     0.031 A 
ATOM     74  C   UNL A   1      43.436  44.198  41.562  1.00  0.00     0.049 A 
ATOM     75  C   UNL A   1      42.164  41.123  46.158  1.00  0.00     0.074 A 
ATOM     76  C   UNL A   1      44.549  43.742  40.890  1.00  0.00     0.029 A 
ATOM     77  N   UNL A   1      43.719  44.099  42.901  1.00  0.00    -0.354 N 
ATOM     78  N   UNL A   1      43.436  41.047  45.894  1.00  0.00    -0.248 NA
ATOM     79  C   UNL A   1      41.593  42.461  46.076  1.00  0.00     0.031 C 
ATOM     80  C   UNL A   1      45.328  43.047  41.862  1.00  0.00     0.029 A 
ATOM     81  C   UNL A   1      44.654  43.114  43.084  1.00  0.00     0.049 A 
ATOM     82  H   UNL A   1      43.316  44.645  43.613  1.00  0.00     0.167 HD
ATOM     83  C   UNL A   1      43.726  42.218  45.214  1.00  0.00     0.074 A 
ATOM     84  C   UNL A   1      42.614  43.111  45.511  1.00  0.00     0.031 C 
ATOM     85  C   UNL A   1      44.683  42.243  44.241  1.00  0.00     0.031 A 
BRANCH  72  86
ATOM     86  C   UNL A   1      41.340  45.681  41.749  1.00  0.00    -0.014 A 
ATOM     87  C   UNL A   1      41.877  46.954  41.492  1.00  0.00     0.009 A 
ATOM     88  C   UNL A   1      40.327  45.605  42.726  1.00  0.00     0.009 A 
ATOM     89  C   UNL A   1      41.456  48.079  42.212  1.00  0.00     0.001 A 
ATOM     90  C   UNL A   1      39.871  46.734  43.412  1.00  0.00     0.001 A 
ATOM     91  C   UNL A   1      40.456  47.967  43.172  1.00  0.00     0.000 A 
ENDBRANCH  72  86
BRANCH  73  92
ATOM     92  C   UNL A   1      40.495  39.587  47.421  1.00  0.00    -0.014 A 
ATOM     93  C   UNL A   1      39.201  40.085  47.630  1.00  0.00     0.009 A 
ATOM     94  C   UNL A   1      40.945  38.553  48.263  1.00  0.00     0.009 A 
ATOM     95  C   UNL A   1      38.379  39.545  48.627  1.00  0.00     0.001 A 
ATOM     96  C   UNL A   1      40.129  38.020  49.264  1.00  0.00     0.001 A 
ATOM     97  C   UNL A   1      38.839  38.507  49.436  1.00  0.00     0.000 A 
ENDBRANCH  73  92
BRANCH  85  98
ATOM     98  C   UNL A   1      45.662  41.098  44.206  1.00  0.00    -0.014 A 
ATOM     99  C   UNL A   1      46.678  40.939  45.165  1.00  0.00     0.009 A 
ATOM    100  C   UNL A   1      45.485  40.090  43.246  1.00  0.00     0.009 A 
ATOM    101  C   UNL A   1      47.515  39.820  45.142  1.00  0.00     0.001 A 
ATOM    102  C   UNL A   1      46.310  38.962  43.236  1.00  0.00     0.001 A 
ATOM    103  C   UNL A   1      47.328  38.831  44.179  1.00  0.00     0.000 A 
ENDBRANCH  85  98
ENDBRANCH  59  60
ENDBRANCH  52  54
ENDBRANCH  51  52
ENDBRANCH  50  51
ENDBRANCH  49  50
ENDBRANCH  48  49
ENDBRANCH  47  48
ENDBRANCH  46  47
ENDBRANCH  45  46
ENDBRANCH  44  45
ENDBRANCH  43  44
ENDBRANCH  42  43
ENDBRANCH  40  42
ENDBRANCH   1  40
TORSDOF 32
ENDMDL
MODEL 3
REMARK VINA RESULT:      -8.0      7.500     12.109
REMARK SMILES NS(=O)(=O)c1ccc(-n2nc(NC(=O)NCCCCCCCCCCC(=O)OCCOCCOCCOC(=O)c3ccc(-c4c5nc(c(-c6ccccc6)c6ccc([nH]6)c(-c6ccccc6)c6nc(c(-c7ccccc7)c7ccc4[nH]7)C=C6)C=C5)cc3)cc2-c2ccccc2)cc1
REMARK SMILES IDX 25 1 24 2 23 3 22 4 21 5 20 6 19 7 18 8 17 9 16 10 15 11
REMARK SMILES IDX 12 12 13 13 14 15 11 17 9 18 10 19 89 20 88 21 8 22 5 23
REMARK SMILES IDX 6 24 97 25 7 26 96 27 2 28 3 29 4 30 1 31 90 34 91 35 95 36
REMARK SMILES IDX 92 37 94 38 93 39 26 40 27 41 28 42 29 43 30 44 31 45 32 46
REMARK SMILES IDX 33 47 34 48 35 49 36 50 37 51 38 52 39 53 40 54 41 55 87 56
REMARK SMILES IDX 42 57 86 58 43 59 44 60 45 61 80 62 46 63 85 64 79 65 81 66
REMARK SMILES IDX 47 67 84 68 78 69 77 70 48 72 70 73 55 74 69 75 56 76 59 77
REMARK SMILES IDX 68 78 82 79 57 80 58 81 67 83 83 84 60 85 49 86 50 87 54 88
REMARK SMILES IDX 51 89 53 90 52 91 71 92 72 93 76 94 73 95 75 96 74 97 61 98
REMARK SMILES IDX 62 99 66 100 63 101 65 102 64 103
REMARK H PARENT 12 14 15 16 1 32 1 33 81 71 59 82
REMARK Flexibility Score: inf
ROOT
ATOM      1  C   UNL A   1      42.538  36.536  27.903  1.00  0.00     0.123 C 
ENDROOT
BRANCH   1   2
ATOM      2  C   UNL A   1      43.152  37.282  29.091  1.00  0.00     0.012 C 
BRANCH   2   3
ATOM      3  C   UNL A   1      44.001  36.448  30.052  1.00  0.00     0.001 C 
BRANCH   3   4
ATOM      4  C   UNL A   1      43.228  35.814  31.202  1.00  0.00     0.000 C 
BRANCH   4   5
ATOM      5  C   UNL A   1      43.491  34.321  31.380  1.00  0.00     0.000 C 
BRANCH   5   6
ATOM      6  C   UNL A   1      42.288  33.421  31.087  1.00  0.00     0.000 C 
BRANCH   6   7
ATOM      7  C   UNL A   1      41.299  33.946  30.038  1.00  0.00     0.000 C 
BRANCH   7   8
ATOM      8  C   UNL A   1      39.837  34.070  30.486  1.00  0.00     0.002 C 
BRANCH   8   9
ATOM      9  C   UNL A   1      38.901  32.939  30.057  1.00  0.00     0.021 C 
BRANCH   9  10
ATOM     10  C   UNL A   1      39.457  31.537  30.254  1.00  0.00     0.117 C 
BRANCH  10  11
ATOM     11  N   UNL A   1      38.907  30.549  29.351  1.00  0.00    -0.338 N 
ATOM     12  N   UNL A   1      37.445  29.364  30.803  1.00  0.00    -0.291 N 
ATOM     13  C   UNL A   1      38.049  29.534  29.605  1.00  0.00     0.320 C 
ATOM     14  H   UNL A   1      37.197  28.435  31.009  1.00  0.00     0.173 HD
ATOM     15  O   UNL A   1      37.913  28.664  28.740  1.00  0.00    -0.248 OA
ATOM     16  H   UNL A   1      39.200  30.626  28.414  1.00  0.00     0.165 HD
BRANCH  12  17
ATOM     17  C   UNL A   1      37.119  30.275  31.780  1.00  0.00     0.157 A 
ATOM     18  N   UNL A   1      36.271  31.973  32.734  1.00  0.00    -0.231 N 
ATOM     19  N   UNL A   1      36.026  31.036  31.793  1.00  0.00    -0.149 NA
ATOM     20  C   UNL A   1      37.313  31.589  33.571  1.00  0.00     0.076 A 
ATOM     21  C   UNL A   1      37.884  30.494  32.946  1.00  0.00     0.078 A 
BRANCH  18  22
ATOM     22  C   UNL A   1      35.552  33.201  32.701  1.00  0.00     0.065 A 
ATOM     23  C   UNL A   1      34.120  35.589  32.548  1.00  0.00     0.082 A 
ATOM     24  C   UNL A   1      33.508  34.450  33.076  1.00  0.00     0.024 A 
ATOM     25  C   UNL A   1      35.457  35.554  32.132  1.00  0.00     0.024 A 
ATOM     26  C   UNL A   1      34.223  33.255  33.148  1.00  0.00     0.030 A 
ATOM     27  C   UNL A   1      36.184  34.363  32.236  1.00  0.00     0.030 A 
BRANCH  23  28
ATOM     28  S   UNL A   1      33.158  37.051  32.293  1.00  0.00     0.238 S 
ATOM     29  O   UNL A   1      32.027  37.039  33.194  1.00  0.00    -0.207 OA
ATOM     30  O   UNL A   1      33.015  37.281  30.877  1.00  0.00    -0.207 OA
BRANCH  28  31
ATOM     31  N   UNL A   1      34.170  38.260  32.862  1.00  0.00    -0.225 NA
ATOM     32  H   UNL A   1      34.251  38.187  33.876  1.00  0.00     0.137 HD
ATOM     33  H   UNL A   1      33.782  39.172  32.618  1.00  0.00     0.137 HD
ENDBRANCH  28  31
ENDBRANCH  23  28
ENDBRANCH  18  22
BRANCH  20  34
ATOM     34  C   UNL A   1      37.663  32.237  34.834  1.00  0.00     0.000 A 
ATOM     35  C   UNL A   1      38.917  32.011  35.423  1.00  0.00     0.010 A 
ATOM     36  C   UNL A   1      36.747  33.069  35.486  1.00  0.00     0.010 A 
ATOM     37  C   UNL A   1      39.233  32.575  36.660  1.00  0.00     0.001 A 
ATOM     38  C   UNL A   1      37.067  33.639  36.721  1.00  0.00     0.001 A 
ATOM     39  C   UNL A   1      38.306  33.386  37.309  1.00  0.00     0.000 A 
ENDBRANCH  20  34
ENDBRANCH  12  17
ENDBRANCH  10  11
ENDBRANCH   9  10
ENDBRANCH   8   9
ENDBRANCH   7   8
ENDBRANCH   6   7
ENDBRANCH   5   6
ENDBRANCH   4   5
ENDBRANCH   3   4
ENDBRANCH   2   3
ENDBRANCH   1   2
BRANCH   1  40
ATOM     40  C   UNL A   1      43.419  36.226  26.706  1.00  0.00     0.305 C 
ATOM     41  O   UNL A   1      44.512  36.758  26.552  1.00  0.00    -0.252 OA
BRANCH  40  42
ATOM     42  O   UNL A   1      42.835  35.385  25.822  1.00  0.00    -0.463 OA
BRANCH  42  43
ATOM     43  C   UNL A   1      43.585  34.236  25.397  1.00  0.00     0.261 C 
BRANCH  43  44
ATOM     44  C   UNL A   1      44.209  33.464  26.573  1.00  0.00     0.202 C 
BRANCH  44  45
ATOM     45  O   UNL A   1      44.966  32.300  26.232  1.00  0.00    -0.376 OA
BRANCH  45  46
ATOM     46  C   UNL A   1      46.133  32.044  27.015  1.00  0.00     0.188 C 
BRANCH  46  47
ATOM     47  C   UNL A   1      46.988  30.847  26.574  1.00  0.00     0.188 C 
BRANCH  47  48
ATOM     48  O   UNL A   1      46.461  30.175  25.433  1.00  0.00    -0.376 OA
BRANCH  48  49
ATOM     49  C   UNL A   1      45.935  28.858  25.598  1.00  0.00     0.202 C 
BRANCH  49  50
ATOM     50  C   UNL A   1      46.347  27.824  24.550  1.00  0.00     0.261 C 
BRANCH  50  51
ATOM     51  O   UNL A   1      47.699  27.387  24.660  1.00  0.00    -0.460 OA
BRANCH  51  52
ATOM     52  C   UNL A   1      47.971  26.067  24.720  1.00  0.00     0.338 C 
ATOM     53  O   UNL A   1      47.824  25.229  23.852  1.00  0.00    -0.246 OA
BRANCH  52  54
ATOM     54  C   UNL A   1      48.549  25.824  26.054  1.00  0.00     0.060 A 
ATOM     55  C   UNL A   1      48.032  24.781  26.821  1.00  0.00     0.016 A 
ATOM     56  C   UNL A   1      49.526  26.698  26.570  1.00  0.00     0.016 A 
ATOM     57  C   UNL A   1      48.319  24.759  28.172  1.00  0.00     0.010 A 
ATOM     58  C   UNL A   1      49.826  26.669  27.907  1.00  0.00     0.010 A 
ATOM     59  C   UNL A   1      49.129  25.769  28.705  1.00  0.00    -0.014 A 
BRANCH  59  60
ATOM     60  C   UNL A   1      49.053  26.031  30.125  1.00  0.00     0.031 A 
ATOM     61  C   UNL A   1      50.191  25.607  30.953  1.00  0.00     0.074 A 
ATOM     62  C   UNL A   1      48.035  26.768  30.614  1.00  0.00     0.049 A 
ATOM     63  N   UNL A   1      50.186  24.737  31.904  1.00  0.00    -0.248 NA
ATOM     64  C   UNL A   1      51.508  26.186  30.655  1.00  0.00     0.031 C 
ATOM     65  C   UNL A   1      47.047  27.533  29.840  1.00  0.00     0.029 A 
ATOM     66  N   UNL A   1      47.741  27.087  31.904  1.00  0.00    -0.354 N 
ATOM     67  C   UNL A   1      51.454  24.798  32.464  1.00  0.00     0.074 A 
ATOM     68  C   UNL A   1      52.267  25.581  31.568  1.00  0.00     0.031 C 
ATOM     69  C   UNL A   1      46.400  28.383  30.664  1.00  0.00     0.029 A 
ATOM     70  C   UNL A   1      46.831  28.125  32.028  1.00  0.00     0.049 A 
ATOM     71  H   UNL A   1      48.137  26.624  32.677  1.00  0.00     0.167 HD
ATOM     72  C   UNL A   1      51.672  24.445  33.758  1.00  0.00     0.031 A 
ATOM     73  C   UNL A   1      46.489  28.775  33.162  1.00  0.00     0.031 A 
ATOM     74  C   UNL A   1      50.598  23.655  34.300  1.00  0.00     0.049 A 
ATOM     75  C   UNL A   1      46.858  27.922  34.311  1.00  0.00     0.074 A 
ATOM     76  C   UNL A   1      50.030  22.431  34.016  1.00  0.00     0.029 A 
ATOM     77  N   UNL A   1      49.718  24.312  35.124  1.00  0.00    -0.354 N 
ATOM     78  N   UNL A   1      46.269  26.797  34.597  1.00  0.00    -0.248 NA
ATOM     79  C   UNL A   1      48.125  28.149  34.991  1.00  0.00     0.031 C 
ATOM     80  C   UNL A   1      48.660  22.545  34.394  1.00  0.00     0.029 A 
ATOM     81  C   UNL A   1      48.455  23.832  34.895  1.00  0.00     0.049 A 
ATOM     82  H   UNL A   1      49.956  25.012  35.773  1.00  0.00     0.167 HD
ATOM     83  C   UNL A   1      47.266  26.007  35.145  1.00  0.00     0.074 A 
ATOM     84  C   UNL A   1      48.321  26.939  35.520  1.00  0.00     0.031 C 
ATOM     85  C   UNL A   1      47.264  24.653  34.964  1.00  0.00     0.031 A 
BRANCH  72  86
ATOM     86  C   UNL A   1      52.631  25.194  34.650  1.00  0.00    -0.014 A 
ATOM     87  C   UNL A   1      53.970  24.772  34.707  1.00  0.00     0.009 A 
ATOM     88  C   UNL A   1      52.207  26.100  35.642  1.00  0.00     0.009 A 
ATOM     89  C   UNL A   1      54.821  25.197  35.736  1.00  0.00     0.001 A 
ATOM     90  C   UNL A   1      53.067  26.562  36.642  1.00  0.00     0.001 A 
ATOM     91  C   UNL A   1      54.368  26.089  36.702  1.00  0.00     0.000 A 
ENDBRANCH  72  86
BRANCH  73  92
ATOM     92  C   UNL A   1      46.041  30.174  33.308  1.00  0.00    -0.014 A 
ATOM     93  C   UNL A   1      44.763  30.475  33.799  1.00  0.00     0.009 A 
ATOM     94  C   UNL A   1      46.964  31.230  33.183  1.00  0.00     0.009 A 
ATOM     95  C   UNL A   1      44.432  31.781  34.180  1.00  0.00     0.001 A 
ATOM     96  C   UNL A   1      46.631  32.535  33.554  1.00  0.00     0.001 A 
ATOM     97  C   UNL A   1      45.368  32.808  34.066  1.00  0.00     0.000 A 
ENDBRANCH  73  92
BRANCH  85  98
ATOM     98  C   UNL A   1      45.974  24.020  34.511  1.00  0.00    -0.014 A 
ATOM     99  C   UNL A   1      45.097  23.368  35.395  1.00  0.00     0.009 A 
ATOM    100  C   UNL A   1      45.576  24.184  33.176  1.00  0.00     0.009 A 
ATOM    101  C   UNL A   1      43.873  22.863  34.947  1.00  0.00     0.001 A 
ATOM    102  C   UNL A   1      44.344  23.697  32.733  1.00  0.00     0.001 A 
ATOM    103  C   UNL A   1      43.496  23.031  33.617  1.00  0.00     0.000 A 
ENDBRANCH  85  98
ENDBRANCH  59  60
ENDBRANCH  52  54
ENDBRANCH  51  52
ENDBRANCH  50  51
ENDBRANCH  49  50
ENDBRANCH  48  49
ENDBRANCH  47  48
ENDBRANCH  46  47
ENDBRANCH  45  46
ENDBRANCH  44  45
ENDBRANCH  43  44
ENDBRANCH  42  43
ENDBRANCH  40  42
ENDBRANCH   1  40
TORSDOF 32
ENDMDL
