MODEL 1
REMARK VINA RESULT:     -11.5      0.000      0.000
REMARK SMILES O=C(OCCOCCOCCOC(=O)c1ccc(-c2c3nc(c(-c4ccccc4)c4ccc([nH]4)c(-c4ccccc4)c4nc(c(-c5ccccc5)c5ccc2[nH]5)C=C4)C=C3)cc1)C1=Cc2cc(S(F)(F)(F)(F)F)cc(Br)c2O[C@@H]1C(F)(F)F
REMARK SMILES IDX 8 1 7 2 6 3 5 4 4 5 3 6 2 7 1 8 63 9 64 10 79 11 65 12 78 13
REMARK SMILES IDX 66 14 77 15 67 16 75 17 74 18 76 19 80 20 81 21 82 22 83 23
REMARK SMILES IDX 68 24 69 25 70 26 71 27 72 28 73 29 9 30 10 31 11 32 12 33
REMARK SMILES IDX 13 34 14 35 15 36 16 37 62 38 17 39 61 40 18 41 19 42 20 43
REMARK SMILES IDX 55 44 21 45 60 46 54 47 56 48 22 49 59 50 53 51 52 52 23 54
REMARK SMILES IDX 45 55 30 56 44 57 31 58 34 59 43 60 57 61 32 62 33 63 42 65
REMARK SMILES IDX 58 66 35 67 24 68 25 69 29 70 26 71 28 72 27 73 46 74 47 75
REMARK SMILES IDX 51 76 48 77 50 78 49 79 36 80 37 81 41 82 38 83 40 84 39 85
REMARK H PARENT 56 53 34 64
REMARK Flexibility Score: inf
ROOT
ATOM      1  C   UNL A   1      35.843  20.811  25.116  1.00  0.00     0.188 C 
ENDROOT
BRANCH   1   2
ATOM      2  C   UNL A   1      35.421  22.080  25.840  1.00  0.00     0.188 C 
BRANCH   2   3
ATOM      3  O   UNL A   1      34.074  21.953  26.272  1.00  0.00    -0.376 OA
BRANCH   3   4
ATOM      4  C   UNL A   1      33.802  22.931  27.266  1.00  0.00     0.202 C 
BRANCH   4   5
ATOM      5  C   UNL A   1      32.320  23.266  27.255  1.00  0.00     0.261 C 
BRANCH   5   6
ATOM      6  O   UNL A   1      32.132  24.568  26.720  1.00  0.00    -0.460 OA
BRANCH   6   7
ATOM      7  C   UNL A   1      31.031  24.831  25.863  1.00  0.00     0.338 C 
ATOM      8  O   UNL A   1      29.994  25.407  26.319  1.00  0.00    -0.246 OA
BRANCH   7   9
ATOM      9  C   UNL A   1      31.093  24.425  24.399  1.00  0.00     0.087 C 
ATOM     10  C   UNL A   1      31.047  25.375  23.426  1.00  0.00     0.027 C 
ATOM     11  C   UNL A   1      31.206  22.957  24.023  1.00  0.00     0.316 C 
ATOM     12  C   UNL A   1      30.934  26.844  23.804  1.00  0.00     0.020 A 
ATOM     13  O   UNL A   1      32.575  26.296  25.433  1.00  0.00    -0.474 OA
ATOM     14  C   UNL A   1      29.993  27.699  23.255  1.00  0.00     0.036 A 
ATOM     15  C   UNL A   1      31.735  27.240  24.785  1.00  0.00     0.142 A 
ATOM     16  C   UNL A   1      30.171  29.055  23.616  1.00  0.00     0.109 A 
ATOM     17  C   UNL A   1      31.760  28.556  25.180  1.00  0.00     0.062 A 
ATOM     18  C   UNL A   1      30.898  29.469  24.639  1.00  0.00     0.044 A 
ATOM     19  Br  UNL A   1      33.048  29.133  26.540  1.00  0.00    -0.047 Br
BRANCH  11  20
ATOM     20  C   UNL A   1      32.485  22.735  23.230  1.00  0.00     0.430 C 
ATOM     21  F   UNL A   1      33.442  23.526  23.703  1.00  0.00    -0.167 F 
ATOM     22  F   UNL A   1      32.862  21.464  23.347  1.00  0.00    -0.167 F 
ATOM     23  F   UNL A   1      32.267  23.017  21.949  1.00  0.00    -0.167 F 
ENDBRANCH  11  20
BRANCH  16  24
ATOM     24  S   UNL A   1      29.345  30.311  22.608  1.00  0.00     0.310 S 
ATOM     25  F   UNL A   1      28.448  29.232  21.868  1.00  0.00    -0.094 F 
ATOM     26  F   UNL A   1      30.425  30.084  21.483  1.00  0.00    -0.094 F 
ATOM     27  F   UNL A   1      28.639  31.397  21.749  1.00  0.00    -0.094 F 
ATOM     28  F   UNL A   1      28.195  30.425  23.683  1.00  0.00    -0.094 F 
ATOM     29  F   UNL A   1      29.988  29.131  23.441  1.00  0.00    -0.094 F 
ENDBRANCH  16  24
ENDBRANCH   7   9
ENDBRANCH   6   7
ENDBRANCH   5   6
ENDBRANCH   4   5
ENDBRANCH   3   4
ENDBRANCH   2   3
ENDBRANCH   1   2
BRANCH   1  30
ATOM     30  O   UNL A   1      37.160  20.968  24.612  1.00  0.00    -0.376 OA
BRANCH  30  31
ATOM     31  C   UNL A   1      37.927  19.815  24.924  1.00  0.00     0.202 C 
BRANCH  31  32
ATOM     32  C   UNL A   1      39.228  20.235  25.589  1.00  0.00     0.261 C 
BRANCH  32  33
ATOM     33  O   UNL A   1      40.105  19.121  25.659  1.00  0.00    -0.460 OA
BRANCH  33  34
ATOM     34  C   UNL A   1      41.477  19.316  25.971  1.00  0.00     0.338 C 
ATOM     35  O   UNL A   1      42.324  18.407  25.702  1.00  0.00    -0.246 OA
BRANCH  34  36
ATOM     36  C   UNL A   1      41.932  20.610  26.626  1.00  0.00     0.060 A 
ATOM     37  C   UNL A   1      41.766  20.816  27.986  1.00  0.00     0.016 A 
ATOM     38  C   UNL A   1      42.335  21.589  25.824  1.00  0.00     0.016 A 
ATOM     39  C   UNL A   1      41.774  22.180  28.364  1.00  0.00     0.010 A 
ATOM     40  C   UNL A   1      42.451  22.874  26.295  1.00  0.00     0.010 A 
ATOM     41  C   UNL A   1      42.245  23.161  27.615  1.00  0.00    -0.014 A 
BRANCH  41  42
ATOM     42  C   UNL A   1      42.541  24.536  28.192  1.00  0.00     0.031 A 
ATOM     43  C   UNL A   1      43.895  24.807  28.397  1.00  0.00     0.074 A 
ATOM     44  C   UNL A   1      41.534  25.476  28.334  1.00  0.00     0.049 A 
ATOM     45  N   UNL A   1      44.451  25.975  28.718  1.00  0.00    -0.248 NA
ATOM     46  C   UNL A   1      44.962  23.801  28.280  1.00  0.00     0.031 C 
ATOM     47  C   UNL A   1      40.167  25.214  28.121  1.00  0.00     0.029 A 
ATOM     48  N   UNL A   1      41.658  26.799  28.696  1.00  0.00    -0.354 N 
ATOM     49  C   UNL A   1      45.777  25.844  28.809  1.00  0.00     0.074 A 
ATOM     50  C   UNL A   1      46.123  24.443  28.534  1.00  0.00     0.031 C 
ATOM     51  C   UNL A   1      39.475  26.358  28.363  1.00  0.00     0.029 A 
ATOM     52  C   UNL A   1      40.398  27.356  28.730  1.00  0.00     0.049 A 
ATOM     53  H   UNL A   1      42.500  27.266  28.896  1.00  0.00     0.167 HD
ATOM     54  C   UNL A   1      46.710  26.838  29.107  1.00  0.00     0.031 A 
ATOM     55  C   UNL A   1      40.054  28.657  29.062  1.00  0.00     0.031 A 
ATOM     56  C   UNL A   1      46.369  28.151  29.397  1.00  0.00     0.049 A 
ATOM     57  C   UNL A   1      40.983  29.638  29.417  1.00  0.00     0.074 A 
ATOM     58  C   UNL A   1      47.297  29.167  29.692  1.00  0.00     0.029 A 
ATOM     59  N   UNL A   1      45.108  28.701  29.454  1.00  0.00    -0.354 N 
ATOM     60  N   UNL A   1      42.309  29.517  29.469  1.00  0.00    -0.248 NA
ATOM     61  C   UNL A   1      40.627  31.010  29.802  1.00  0.00     0.031 C 
ATOM     62  C   UNL A   1      46.605  30.312  29.933  1.00  0.00     0.029 A 
ATOM     63  C   UNL A   1      45.233  30.030  29.794  1.00  0.00     0.049 A 
ATOM     64  H   UNL A   1      44.262  28.226  29.282  1.00  0.00     0.167 HD
ATOM     65  C   UNL A   1      42.863  30.676  29.831  1.00  0.00     0.074 A 
ATOM     66  C   UNL A   1      41.788  31.651  30.058  1.00  0.00     0.031 C 
ATOM     67  C   UNL A   1      44.222  30.960  29.979  1.00  0.00     0.031 A 
BRANCH  54  68
ATOM     68  C   UNL A   1      48.183  26.462  29.116  1.00  0.00    -0.014 A 
ATOM     69  C   UNL A   1      48.945  26.549  27.962  1.00  0.00     0.009 A 
ATOM     70  C   UNL A   1      48.708  26.035  30.258  1.00  0.00     0.009 A 
ATOM     71  C   UNL A   1      50.190  25.883  28.047  1.00  0.00     0.001 A 
ATOM     72  C   UNL A   1      49.981  25.521  30.293  1.00  0.00     0.001 A 
ATOM     73  C   UNL A   1      50.770  25.520  29.176  1.00  0.00     0.000 A 
ENDBRANCH  54  68
BRANCH  55  74
ATOM     74  C   UNL A   1      38.582  29.037  29.037  1.00  0.00    -0.014 A 
ATOM     75  C   UNL A   1      38.046  29.501  27.846  1.00  0.00     0.009 A 
ATOM     76  C   UNL A   1      37.837  28.919  30.129  1.00  0.00     0.009 A 
ATOM     77  C   UNL A   1      36.768  30.093  27.986  1.00  0.00     0.001 A 
ATOM     78  C   UNL A   1      36.549  29.399  30.152  1.00  0.00     0.001 A 
ATOM     79  C   UNL A   1      35.975  29.926  29.028  1.00  0.00     0.000 A 
ENDBRANCH  55  74
BRANCH  67  80
ATOM     80  C   UNL A   1      44.617  32.376  30.365  1.00  0.00    -0.014 A 
ATOM     81  C   UNL A   1      44.715  32.765  31.691  1.00  0.00     0.009 A 
ATOM     82  C   UNL A   1      44.740  33.256  29.379  1.00  0.00     0.009 A 
ATOM     83  C   UNL A   1      44.657  34.166  31.883  1.00  0.00     0.001 A 
ATOM     84  C   UNL A   1      44.814  34.602  29.646  1.00  0.00     0.001 A 
ATOM     85  C   UNL A   1      44.856  35.060  30.933  1.00  0.00     0.000 A 
ENDBRANCH  67  80
ENDBRANCH  41  42
ENDBRANCH  34  36
ENDBRANCH  33  34
ENDBRANCH  32  33
ENDBRANCH  31  32
ENDBRANCH  30  31
ENDBRANCH   1  30
TORSDOF 19
ENDMDL
MODEL 2
REMARK VINA RESULT:     -11.0      3.880      7.409
REMARK SMILES O=C(OCCOCCOCCOC(=O)c1ccc(-c2c3nc(c(-c4ccccc4)c4ccc([nH]4)c(-c4ccccc4)c4nc(c(-c5ccccc5)c5ccc2[nH]5)C=C4)C=C3)cc1)C1=Cc2cc(S(F)(F)(F)(F)F)cc(Br)c2O[C@@H]1C(F)(F)F
REMARK SMILES IDX 8 1 7 2 6 3 5 4 4 5 3 6 2 7 1 8 63 9 64 10 79 11 65 12 78 13
REMARK SMILES IDX 66 14 77 15 67 16 75 17 74 18 76 19 80 20 81 21 82 22 83 23
REMARK SMILES IDX 68 24 69 25 70 26 71 27 72 28 73 29 9 30 10 31 11 32 12 33
REMARK SMILES IDX 13 34 14 35 15 36 16 37 62 38 17 39 61 40 18 41 19 42 20 43
REMARK SMILES IDX 55 44 21 45 60 46 54 47 56 48 22 49 59 50 53 51 52 52 23 54
REMARK SMILES IDX 45 55 30 56 44 57 31 58 34 59 43 60 57 61 32 62 33 63 42 65
REMARK SMILES IDX 58 66 35 67 24 68 25 69 29 70 26 71 28 72 27 73 46 74 47 75
REMARK SMILES IDX 51 76 48 77 50 78 49 79 36 80 37 81 41 82 38 83 40 84 39 85
REMARK H PARENT 56 53 34 64
REMARK Flexibility Score: inf
ROOT
ATOM      1  C   UNL A   1      35.692  21.106  24.871  1.00  0.00     0.188 C 
ENDROOT
BRANCH   1   2
ATOM      2  C   UNL A   1      34.732  21.512  25.978  1.00  0.00     0.188 C 
BRANCH   2   3
ATOM      3  O   UNL A   1      33.874  22.540  25.507  1.00  0.00    -0.376 OA
BRANCH   3   4
ATOM      4  C   UNL A   1      33.958  23.662  26.375  1.00  0.00     0.202 C 
BRANCH   4   5
ATOM      5  C   UNL A   1      32.566  24.222  26.616  1.00  0.00     0.261 C 
BRANCH   5   6
ATOM      6  O   UNL A   1      32.408  25.430  25.886  1.00  0.00    -0.460 OA
BRANCH   6   7
ATOM      7  C   UNL A   1      31.287  25.602  25.031  1.00  0.00     0.338 C 
ATOM      8  O   UNL A   1      30.159  25.923  25.521  1.00  0.00    -0.246 OA
BRANCH   7   9
ATOM      9  C   UNL A   1      31.436  25.403  23.532  1.00  0.00     0.087 C 
ATOM     10  C   UNL A   1      31.212  26.442  22.681  1.00  0.00     0.027 C 
ATOM     11  C   UNL A   1      31.835  24.043  22.982  1.00  0.00     0.316 C 
ATOM     12  C   UNL A   1      30.814  27.802  23.232  1.00  0.00     0.020 A 
ATOM     13  O   UNL A   1      32.519  27.378  24.832  1.00  0.00    -0.474 OA
ATOM     14  C   UNL A   1      29.728  28.522  22.763  1.00  0.00     0.036 A 
ATOM     15  C   UNL A   1      31.516  28.217  24.279  1.00  0.00     0.142 A 
ATOM     16  C   UNL A   1      29.636  29.830  23.293  1.00  0.00     0.109 A 
ATOM     17  C   UNL A   1      31.282  29.453  24.833  1.00  0.00     0.062 A 
ATOM     18  C   UNL A   1      30.262  30.244  24.380  1.00  0.00     0.044 A 
ATOM     19  Br  UNL A   1      32.424  30.091  26.292  1.00  0.00    -0.047 Br
BRANCH  11  20
ATOM     20  C   UNL A   1      33.137  24.172  22.208  1.00  0.00     0.430 C 
ATOM     21  F   UNL A   1      34.015  24.862  22.929  1.00  0.00    -0.167 F 
ATOM     22  F   UNL A   1      33.625  22.960  21.958  1.00  0.00    -0.167 F 
ATOM     23  F   UNL A   1      32.911  24.805  21.061  1.00  0.00    -0.167 F 
ENDBRANCH  11  20
BRANCH  16  24
ATOM     24  S   UNL A   1      28.589  31.021  22.421  1.00  0.00     0.310 S 
ATOM     25  F   UNL A   1      27.362  30.017  22.372  1.00  0.00    -0.094 F 
ATOM     26  F   UNL A   1      29.064  30.401  21.053  1.00  0.00    -0.094 F 
ATOM     27  F   UNL A   1      27.695  32.053  21.675  1.00  0.00    -0.094 F 
ATOM     28  F   UNL A   1      28.018  31.537  23.800  1.00  0.00    -0.094 F 
ATOM     29  F   UNL A   1      29.404  29.907  23.191  1.00  0.00    -0.094 F 
ENDBRANCH  16  24
ENDBRANCH   7   9
ENDBRANCH   6   7
ENDBRANCH   5   6
ENDBRANCH   4   5
ENDBRANCH   3   4
ENDBRANCH   2   3
ENDBRANCH   1   2
BRANCH   1  30
ATOM     30  O   UNL A   1      36.969  20.833  25.428  1.00  0.00    -0.376 OA
BRANCH  30  31
ATOM     31  C   UNL A   1      37.880  21.853  25.044  1.00  0.00     0.202 C 
BRANCH  31  32
ATOM     32  C   UNL A   1      38.559  22.418  26.281  1.00  0.00     0.261 C 
BRANCH  32  33
ATOM     33  O   UNL A   1      38.759  23.813  26.115  1.00  0.00    -0.460 OA
BRANCH  33  34
ATOM     34  C   UNL A   1      39.965  24.416  26.562  1.00  0.00     0.338 C 
ATOM     35  O   UNL A   1      41.086  23.913  26.235  1.00  0.00    -0.246 OA
BRANCH  34  36
ATOM     36  C   UNL A   1      39.916  25.662  27.431  1.00  0.00     0.060 A 
ATOM     37  C   UNL A   1      40.731  26.749  27.165  1.00  0.00     0.016 A 
ATOM     38  C   UNL A   1      39.193  25.599  28.544  1.00  0.00     0.016 A 
ATOM     39  C   UNL A   1      40.937  27.598  28.278  1.00  0.00     0.010 A 
ATOM     40  C   UNL A   1      39.348  26.539  29.533  1.00  0.00     0.010 A 
ATOM     41  C   UNL A   1      40.181  27.610  29.361  1.00  0.00    -0.014 A 
BRANCH  41  42
ATOM     42  C   UNL A   1      40.234  28.752  30.362  1.00  0.00     0.031 A 
ATOM     43  C   UNL A   1      39.274  29.747  30.168  1.00  0.00     0.074 A 
ATOM     44  C   UNL A   1      41.075  28.693  31.460  1.00  0.00     0.049 A 
ATOM     45  N   UNL A   1      38.974  30.758  30.982  1.00  0.00    -0.248 NA
ATOM     46  C   UNL A   1      38.403  29.831  28.985  1.00  0.00     0.031 C 
ATOM     47  C   UNL A   1      42.041  27.689  31.668  1.00  0.00     0.029 A 
ATOM     48  N   UNL A   1      41.136  29.563  32.526  1.00  0.00    -0.354 N 
ATOM     49  C   UNL A   1      37.985  31.490  30.465  1.00  0.00     0.074 A 
ATOM     50  C   UNL A   1      37.608  30.907  29.170  1.00  0.00     0.031 C 
ATOM     51  C   UNL A   1      42.683  27.956  32.835  1.00  0.00     0.029 A 
ATOM     52  C   UNL A   1      42.129  29.132  33.378  1.00  0.00     0.049 A 
ATOM     53  H   UNL A   1      40.569  30.357  32.656  1.00  0.00     0.167 HD
ATOM     54  C   UNL A   1      37.382  32.619  31.022  1.00  0.00     0.031 A 
ATOM     55  C   UNL A   1      42.544  29.717  34.563  1.00  0.00     0.031 A 
ATOM     56  C   UNL A   1      37.768  33.179  32.230  1.00  0.00     0.049 A 
ATOM     57  C   UNL A   1      41.980  30.880  35.093  1.00  0.00     0.074 A 
ATOM     58  C   UNL A   1      37.166  34.312  32.809  1.00  0.00     0.029 A 
ATOM     59  N   UNL A   1      38.777  32.762  33.069  1.00  0.00    -0.354 N 
ATOM     60  N   UNL A   1      40.965  31.588  34.594  1.00  0.00    -0.248 NA
ATOM     61  C   UNL A   1      42.433  31.527  36.331  1.00  0.00     0.031 C 
ATOM     62  C   UNL A   1      37.808  34.580  33.977  1.00  0.00     0.029 A 
ATOM     63  C   UNL A   1      38.823  33.620  34.146  1.00  0.00     0.049 A 
ATOM     64  H   UNL A   1      39.364  31.985  32.924  1.00  0.00     0.167 HD
ATOM     65  C   UNL A   1      40.694  32.624  35.390  1.00  0.00     0.074 A 
ATOM     66  C   UNL A   1      41.638  32.605  36.514  1.00  0.00     0.031 C 
ATOM     67  C   UNL A   1      39.694  33.585  35.223  1.00  0.00     0.031 A 
BRANCH  54  68
ATOM     68  C   UNL A   1      36.238  33.270  30.262  1.00  0.00    -0.014 A 
ATOM     69  C   UNL A   1      34.926  33.109  30.678  1.00  0.00     0.009 A 
ATOM     70  C   UNL A   1      36.535  33.984  29.182  1.00  0.00     0.009 A 
ATOM     71  C   UNL A   1      33.967  33.504  29.716  1.00  0.00     0.001 A 
ATOM     72  C   UNL A   1      35.541  34.455  28.360  1.00  0.00     0.001 A 
ATOM     73  C   UNL A   1      34.223  34.279  28.678  1.00  0.00     0.000 A 
ENDBRANCH  54  68
BRANCH  55  74
ATOM     74  C   UNL A   1      43.678  29.056  35.331  1.00  0.00    -0.014 A 
ATOM     75  C   UNL A   1      43.365  28.018  36.194  1.00  0.00     0.009 A 
ATOM     76  C   UNL A   1      44.931  29.464  35.168  1.00  0.00     0.009 A 
ATOM     77  C   UNL A   1      44.421  27.661  37.066  1.00  0.00     0.001 A 
ATOM     78  C   UNL A   1      45.935  28.972  35.966  1.00  0.00     0.001 A 
ATOM     79  C   UNL A   1      45.687  27.988  36.882  1.00  0.00     0.000 A 
ENDBRANCH  55  74
BRANCH  67  80
ATOM     80  C   UNL A   1      39.551  34.658  36.291  1.00  0.00    -0.014 A 
ATOM     81  C   UNL A   1      40.196  35.879  36.182  1.00  0.00     0.009 A 
ATOM     82  C   UNL A   1      38.885  34.327  37.391  1.00  0.00     0.009 A 
ATOM     83  C   UNL A   1      40.322  36.571  37.410  1.00  0.00     0.001 A 
ATOM     84  C   UNL A   1      38.945  35.120  38.511  1.00  0.00     0.001 A 
ATOM     85  C   UNL A   1      39.613  36.312  38.492  1.00  0.00     0.000 A 
ENDBRANCH  67  80
ENDBRANCH  41  42
ENDBRANCH  34  36
ENDBRANCH  33  34
ENDBRANCH  32  33
ENDBRANCH  31  32
ENDBRANCH  30  31
ENDBRANCH   1  30
TORSDOF 19
ENDMDL
MODEL 3
REMARK VINA RESULT:     -11.0      3.075      7.596
REMARK SMILES O=C(OCCOCCOCCOC(=O)c1ccc(-c2c3nc(c(-c4ccccc4)c4ccc([nH]4)c(-c4ccccc4)c4nc(c(-c5ccccc5)c5ccc2[nH]5)C=C4)C=C3)cc1)C1=Cc2cc(S(F)(F)(F)(F)F)cc(Br)c2O[C@@H]1C(F)(F)F
REMARK SMILES IDX 8 1 7 2 6 3 5 4 4 5 3 6 2 7 1 8 63 9 64 10 79 11 65 12 78 13
REMARK SMILES IDX 66 14 77 15 67 16 75 17 74 18 76 19 80 20 81 21 82 22 83 23
REMARK SMILES IDX 68 24 69 25 70 26 71 27 72 28 73 29 9 30 10 31 11 32 12 33
REMARK SMILES IDX 13 34 14 35 15 36 16 37 62 38 17 39 61 40 18 41 19 42 20 43
REMARK SMILES IDX 55 44 21 45 60 46 54 47 56 48 22 49 59 50 53 51 52 52 23 54
REMARK SMILES IDX 45 55 30 56 44 57 31 58 34 59 43 60 57 61 32 62 33 63 42 65
REMARK SMILES IDX 58 66 35 67 24 68 25 69 29 70 26 71 28 72 27 73 46 74 47 75
REMARK SMILES IDX 51 76 48 77 50 78 49 79 36 80 37 81 41 82 38 83 40 84 39 85
REMARK H PARENT 56 53 34 64
REMARK Flexibility Score: inf
ROOT
ATOM      1  C   UNL A   1      40.873  21.711  26.321  1.00  0.00     0.188 C 
ENDROOT
BRANCH   1   2
ATOM      2  C   UNL A   1      39.402  21.388  26.113  1.00  0.00     0.188 C 
BRANCH   2   3
ATOM      3  O   UNL A   1      38.660  22.596  26.027  1.00  0.00    -0.376 OA
BRANCH   3   4
ATOM      4  C   UNL A   1      37.428  22.348  25.362  1.00  0.00     0.202 C 
BRANCH   4   5
ATOM      5  C   UNL A   1      36.692  23.661  25.153  1.00  0.00     0.261 C 
BRANCH   5   6
ATOM      6  O   UNL A   1      35.782  23.527  24.072  1.00  0.00    -0.460 OA
BRANCH   6   7
ATOM      7  C   UNL A   1      34.646  24.375  23.990  1.00  0.00     0.338 C 
ATOM      8  O   UNL A   1      34.474  25.292  24.854  1.00  0.00    -0.246 OA
BRANCH   7   9
ATOM      9  C   UNL A   1      33.636  24.188  22.870  1.00  0.00     0.087 C 
ATOM     10  C   UNL A   1      32.925  23.030  22.781  1.00  0.00     0.027 C 
ATOM     11  C   UNL A   1      33.419  25.292  21.849  1.00  0.00     0.316 C 
ATOM     12  C   UNL A   1      33.143  21.925  23.803  1.00  0.00     0.020 A 
ATOM     13  O   UNL A   1      33.111  23.709  25.372  1.00  0.00    -0.474 OA
ATOM     14  C   UNL A   1      33.380  20.606  23.455  1.00  0.00     0.036 A 
ATOM     15  C   UNL A   1      33.199  22.325  25.067  1.00  0.00     0.142 A 
ATOM     16  C   UNL A   1      33.385  19.715  24.554  1.00  0.00     0.109 A 
ATOM     17  C   UNL A   1      33.341  21.412  26.084  1.00  0.00     0.062 A 
ATOM     18  C   UNL A   1      33.521  20.083  25.816  1.00  0.00     0.044 A 
ATOM     19  Br  UNL A   1      33.287  22.022  27.946  1.00  0.00    -0.047 Br
BRANCH  11  20
ATOM     20  C   UNL A   1      31.968  25.746  21.895  1.00  0.00     0.430 C 
ATOM     21  F   UNL A   1      31.555  26.034  20.665  1.00  0.00    -0.167 F 
ATOM     22  F   UNL A   1      31.216  24.771  22.398  1.00  0.00    -0.167 F 
ATOM     23  F   UNL A   1      31.865  26.827  22.662  1.00  0.00    -0.167 F 
ENDBRANCH  11  20
BRANCH  16  24
ATOM     24  S   UNL A   1      33.191  17.949  24.209  1.00  0.00     0.310 S 
ATOM     25  F   UNL A   1      32.808  18.213  22.693  1.00  0.00    -0.094 F 
ATOM     26  F   UNL A   1      31.657  18.076  24.548  1.00  0.00    -0.094 F 
ATOM     27  F   UNL A   1      33.030  16.430  23.922  1.00  0.00    -0.094 F 
ATOM     28  F   UNL A   1      34.697  17.871  23.741  1.00  0.00    -0.094 F 
ATOM     29  F   UNL A   1      33.343  19.512  24.390  1.00  0.00    -0.094 F 
ENDBRANCH  16  24
ENDBRANCH   7   9
ENDBRANCH   6   7
ENDBRANCH   5   6
ENDBRANCH   4   5
ENDBRANCH   3   4
ENDBRANCH   2   3
ENDBRANCH   1   2
BRANCH   1  30
ATOM     30  O   UNL A   1      41.667  20.818  25.555  1.00  0.00    -0.376 OA
BRANCH  30  31
ATOM     31  C   UNL A   1      41.708  19.552  26.197  1.00  0.00     0.202 C 
BRANCH  31  32
ATOM     32  C   UNL A   1      43.024  18.863  25.875  1.00  0.00     0.261 C 
BRANCH  32  33
ATOM     33  O   UNL A   1      43.408  19.175  24.545  1.00  0.00    -0.460 OA
BRANCH  33  34
ATOM     34  C   UNL A   1      44.719  19.650  24.276  1.00  0.00     0.338 C 
ATOM     35  O   UNL A   1      45.576  18.880  23.738  1.00  0.00    -0.246 OA
BRANCH  34  36
ATOM     36  C   UNL A   1      45.099  21.078  24.634  1.00  0.00     0.060 A 
ATOM     37  C   UNL A   1      45.665  21.378  25.861  1.00  0.00     0.016 A 
ATOM     38  C   UNL A   1      44.714  22.036  23.799  1.00  0.00     0.016 A 
ATOM     39  C   UNL A   1      45.520  22.732  26.244  1.00  0.00     0.010 A 
ATOM     40  C   UNL A   1      44.726  23.352  24.194  1.00  0.00     0.010 A 
ATOM     41  C   UNL A   1      45.218  23.716  25.416  1.00  0.00    -0.014 A 
BRANCH  41  42
ATOM     42  C   UNL A   1      45.406  25.174  25.803  1.00  0.00     0.031 A 
ATOM     43  C   UNL A   1      44.260  25.803  26.292  1.00  0.00     0.074 A 
ATOM     44  C   UNL A   1      46.666  25.748  25.809  1.00  0.00     0.049 A 
ATOM     45  N   UNL A   1      44.173  27.004  26.864  1.00  0.00    -0.248 NA
ATOM     46  C   UNL A   1      42.916  25.209  26.255  1.00  0.00     0.031 C 
ATOM     47  C   UNL A   1      47.828  25.117  25.325  1.00  0.00     0.029 A 
ATOM     48  N   UNL A   1      47.024  26.996  26.268  1.00  0.00    -0.354 N 
ATOM     49  C   UNL A   1      42.912  27.255  27.221  1.00  0.00     0.074 A 
ATOM     50  C   UNL A   1      42.084  26.106  26.829  1.00  0.00     0.031 C 
ATOM     51  C   UNL A   1      48.870  25.976  25.478  1.00  0.00     0.029 A 
ATOM     52  C   UNL A   1      48.377  27.158  26.063  1.00  0.00     0.049 A 
ATOM     53  H   UNL A   1      46.419  27.657  26.673  1.00  0.00     0.167 HD
ATOM     54  C   UNL A   1      42.420  28.394  27.860  1.00  0.00     0.031 A 
ATOM     55  C   UNL A   1      49.153  28.267  26.359  1.00  0.00     0.031 A 
ATOM     56  C   UNL A   1      43.205  29.487  28.195  1.00  0.00     0.049 A 
ATOM     57  C   UNL A   1      48.650  29.431  26.945  1.00  0.00     0.074 A 
ATOM     58  C   UNL A   1      42.726  30.639  28.846  1.00  0.00     0.029 A 
ATOM     59  N   UNL A   1      44.552  29.658  27.968  1.00  0.00    -0.354 N 
ATOM     60  N   UNL A   1      47.398  29.665  27.338  1.00  0.00    -0.248 NA
ATOM     61  C   UNL A   1      49.457  30.625  27.233  1.00  0.00     0.031 C 
ATOM     62  C   UNL A   1      43.769  31.499  29.001  1.00  0.00     0.029 A 
ATOM     63  C   UNL A   1      44.915  30.898  28.448  1.00  0.00     0.049 A 
ATOM     64  H   UNL A   1      45.152  29.008  27.536  1.00  0.00     0.167 HD
ATOM     65  C   UNL A   1      47.303  30.884  27.872  1.00  0.00     0.074 A 
ATOM     66  C   UNL A   1      48.624  31.522  27.806  1.00  0.00     0.031 C 
ATOM     67  C   UNL A   1      46.168  31.489  28.414  1.00  0.00     0.031 A 
BRANCH  54  68
ATOM     68  C   UNL A   1      40.940  28.441  28.206  1.00  0.00    -0.014 A 
ATOM     69  C   UNL A   1      40.023  28.997  27.329  1.00  0.00     0.009 A 
ATOM     70  C   UNL A   1      40.560  27.947  29.379  1.00  0.00     0.009 A 
ATOM     71  C   UNL A   1      38.757  29.248  27.907  1.00  0.00     0.001 A 
ATOM     72  C   UNL A   1      39.271  28.112  29.822  1.00  0.00     0.001 A 
ATOM     73  C   UNL A   1      38.326  28.706  29.032  1.00  0.00     0.000 A 
ENDBRANCH  54  68
BRANCH  55  74
ATOM     74  C   UNL A   1      50.636  28.214  26.027  1.00  0.00    -0.014 A 
ATOM     75  C   UNL A   1      51.511  27.780  27.009  1.00  0.00     0.009 A 
ATOM     76  C   UNL A   1      51.071  28.569  24.824  1.00  0.00     0.009 A 
ATOM     77  C   UNL A   1      52.872  28.032  26.716  1.00  0.00     0.001 A 
ATOM     78  C   UNL A   1      52.417  28.663  24.567  1.00  0.00     0.001 A 
ATOM     79  C   UNL A   1      53.340  28.308  25.512  1.00  0.00     0.000 A 
ENDBRANCH  55  74
BRANCH  67  80
ATOM     80  C   UNL A   1      46.315  32.882  29.005  1.00  0.00    -0.014 A 
ATOM     81  C   UNL A   1      46.183  34.018  28.224  1.00  0.00     0.009 A 
ATOM     82  C   UNL A   1      46.701  32.960  30.273  1.00  0.00     0.009 A 
ATOM     83  C   UNL A   1      46.763  35.176  28.794  1.00  0.00     0.001 A 
ATOM     84  C   UNL A   1      47.129  34.153  30.803  1.00  0.00     0.001 A 
ATOM     85  C   UNL A   1      47.080  35.305  30.068  1.00  0.00     0.000 A 
ENDBRANCH  67  80
ENDBRANCH  41  42
ENDBRANCH  34  36
ENDBRANCH  33  34
ENDBRANCH  32  33
ENDBRANCH  31  32
ENDBRANCH  30  31
ENDBRANCH   1  30
TORSDOF 19
ENDMDL
