MODEL 1
REMARK VINA RESULT:     -11.2      0.000      0.000
REMARK SMILES CC(C)N1C[C@@]2(CCCN(c3ccc(C(=O)OCCOCCOCCOC(=O)c4ccc(-c5c6nc(c(-c7ccccc7)c7ccc([nH]7)c(-c7ccccc7)c7nc(c(-c8ccccc8)c8ccc5[nH]8)C=C7)C=C6)cc4)cn3)C2)CCC1=O
REMARK SMILES IDX 21 1 20 2 19 3 18 4 17 5 15 6 16 7 14 8 11 9 12 10 78 11
REMARK SMILES IDX 13 12 77 13 10 14 4 15 5 16 82 17 6 18 81 19 83 20 7 21
REMARK SMILES IDX 79 22 80 23 8 24 9 25 2 26 1 27 3 28 22 29 23 30 24 31 25 32
REMARK SMILES IDX 26 33 27 34 28 35 29 36 30 37 76 38 31 39 75 40 32 41 33 42
REMARK SMILES IDX 34 43 69 44 35 45 74 46 68 47 70 48 36 49 73 50 67 51 66 52
REMARK SMILES IDX 37 54 59 55 44 56 58 57 45 58 48 59 57 60 71 61 46 62 47 63
REMARK SMILES IDX 56 65 72 66 49 67 38 68 39 69 43 70 40 71 42 72 41 73 60 74
REMARK SMILES IDX 61 75 65 76 62 77 64 78 63 79 50 80 51 81 55 82 52 83 54 84
REMARK SMILES IDX 53 85
REMARK H PARENT 70 53 48 64
REMARK Flexibility Score: inf
ROOT
ATOM      1  C   UNL A   1      33.050  36.020  29.616  1.00  0.00     0.188 C 
ENDROOT
BRANCH   1   2
ATOM      2  O   UNL A   1      32.576  34.858  28.945  1.00  0.00    -0.376 OA
BRANCH   2   3
ATOM      3  C   UNL A   1      33.363  34.232  27.945  1.00  0.00     0.202 C 
BRANCH   3   4
ATOM      4  C   UNL A   1      34.040  32.902  28.286  1.00  0.00     0.261 C 
BRANCH   4   5
ATOM      5  O   UNL A   1      33.470  31.753  27.647  1.00  0.00    -0.460 OA
BRANCH   5   6
ATOM      6  C   UNL A   1      34.268  30.659  27.570  1.00  0.00     0.339 C 
ATOM      7  O   UNL A   1      35.252  30.398  28.240  1.00  0.00    -0.246 OA
BRANCH   6   8
ATOM      8  C   UNL A   1      33.676  29.738  26.597  1.00  0.00     0.078 A 
ATOM      9  C   UNL A   1      32.548  28.131  24.649  1.00  0.00     0.128 A 
ATOM     10  C   UNL A   1      33.641  27.681  25.395  1.00  0.00     0.048 A 
ATOM     11  N   UNL A   1      32.019  29.353  24.880  1.00  0.00    -0.238 NA
ATOM     12  C   UNL A   1      34.240  28.501  26.345  1.00  0.00     0.021 A 
ATOM     13  C   UNL A   1      32.553  30.107  25.876  1.00  0.00     0.129 A 
BRANCH   9  14
ATOM     14  N   UNL A   1      32.010  27.368  23.636  1.00  0.00    -0.356 N 
ATOM     15  N   UNL A   1      32.076  23.023  24.720  1.00  0.00    -0.340 N 
ATOM     16  C   UNL A   1      31.006  23.717  24.018  1.00  0.00     0.128 C 
ATOM     17  C   UNL A   1      32.339  23.309  26.058  1.00  0.00     0.222 C 
ATOM     18  C   UNL A   1      30.947  25.231  24.280  1.00  0.00     0.006 C 
ATOM     19  C   UNL A   1      32.033  24.723  26.520  1.00  0.00     0.101 C 
ATOM     20  O   UNL A   1      32.903  22.527  26.820  1.00  0.00    -0.275 OA
ATOM     21  C   UNL A   1      29.655  25.763  23.585  1.00  0.00     0.012 C 
ATOM     22  C   UNL A   1      32.204  25.921  23.670  1.00  0.00     0.127 C 
ATOM     23  C   UNL A   1      30.855  25.376  25.813  1.00  0.00     0.020 C 
ATOM     24  C   UNL A   1      29.592  27.275  23.359  1.00  0.00     0.022 C 
ATOM     25  C   UNL A   1      30.903  27.844  22.828  1.00  0.00     0.118 C 
BRANCH  15  26
ATOM     26  C   UNL A   1      32.571  21.777  24.105  1.00  0.00     0.078 C 
ATOM     27  C   UNL A   1      31.971  21.529  22.719  1.00  0.00     0.031 C 
ATOM     28  C   UNL A   1      34.095  21.691  24.094  1.00  0.00     0.031 C 
ENDBRANCH  15  26
ENDBRANCH   9  14
ENDBRANCH   6   8
ENDBRANCH   5   6
ENDBRANCH   4   5
ENDBRANCH   3   4
ENDBRANCH   2   3
ENDBRANCH   1   2
BRANCH   1  29
ATOM     29  C   UNL A   1      32.655  36.310  31.081  1.00  0.00     0.188 C 
BRANCH  29  30
ATOM     30  O   UNL A   1      32.983  35.254  31.962  1.00  0.00    -0.376 OA
BRANCH  30  31
ATOM     31  C   UNL A   1      34.216  35.328  32.655  1.00  0.00     0.202 C 
BRANCH  31  32
ATOM     32  C   UNL A   1      34.604  34.183  33.603  1.00  0.00     0.261 C 
BRANCH  32  33
ATOM     33  O   UNL A   1      35.672  33.330  33.175  1.00  0.00    -0.460 OA
BRANCH  33  34
ATOM     34  C   UNL A   1      35.431  32.492  32.142  1.00  0.00     0.338 C 
ATOM     35  O   UNL A   1      34.353  32.199  31.665  1.00  0.00    -0.246 OA
BRANCH  34  36
ATOM     36  C   UNL A   1      36.742  32.064  31.606  1.00  0.00     0.060 A 
ATOM     37  C   UNL A   1      37.082  32.367  30.281  1.00  0.00     0.016 A 
ATOM     38  C   UNL A   1      37.636  31.376  32.429  1.00  0.00     0.016 A 
ATOM     39  C   UNL A   1      38.319  31.956  29.769  1.00  0.00     0.010 A 
ATOM     40  C   UNL A   1      38.860  30.950  31.911  1.00  0.00     0.010 A 
ATOM     41  C   UNL A   1      39.198  31.214  30.571  1.00  0.00    -0.014 A 
BRANCH  41  42
ATOM     42  C   UNL A   1      40.380  30.531  29.994  1.00  0.00     0.031 A 
ATOM     43  C   UNL A   1      41.642  31.330  29.819  1.00  0.00     0.074 A 
ATOM     44  C   UNL A   1      40.325  29.258  29.563  1.00  0.00     0.049 A 
ATOM     45  N   UNL A   1      42.738  31.025  29.173  1.00  0.00    -0.248 NA
ATOM     46  C   UNL A   1      41.661  32.660  30.451  1.00  0.00     0.031 C 
ATOM     47  C   UNL A   1      39.185  28.358  29.717  1.00  0.00     0.029 A 
ATOM     48  N   UNL A   1      41.254  28.514  28.879  1.00  0.00    -0.354 N 
ATOM     49  C   UNL A   1      43.567  32.133  29.303  1.00  0.00     0.074 A 
ATOM     50  C   UNL A   1      42.845  33.120  30.077  1.00  0.00     0.031 C 
ATOM     51  C   UNL A   1      39.473  27.188  29.119  1.00  0.00     0.029 A 
ATOM     52  C   UNL A   1      40.796  27.275  28.502  1.00  0.00     0.049 A 
ATOM     53  H   UNL A   1      42.162  28.838  28.677  1.00  0.00     0.167 HD
ATOM     54  C   UNL A   1      44.814  32.317  28.813  1.00  0.00     0.031 A 
ATOM     55  C   UNL A   1      41.363  26.338  27.715  1.00  0.00     0.031 A 
ATOM     56  C   UNL A   1      45.524  31.348  28.024  1.00  0.00     0.049 A 
ATOM     57  C   UNL A   1      42.717  26.600  27.106  1.00  0.00     0.074 A 
ATOM     58  C   UNL A   1      46.795  31.440  27.485  1.00  0.00     0.029 A 
ATOM     59  N   UNL A   1      45.017  30.112  27.657  1.00  0.00    -0.354 N 
ATOM     60  N   UNL A   1      43.498  27.645  27.240  1.00  0.00    -0.248 NA
ATOM     61  C   UNL A   1      43.267  25.551  26.231  1.00  0.00     0.031 C 
ATOM     62  C   UNL A   1      47.037  30.278  26.747  1.00  0.00     0.029 A 
ATOM     63  C   UNL A   1      45.941  29.440  26.878  1.00  0.00     0.049 A 
ATOM     64  H   UNL A   1      44.131  29.765  27.911  1.00  0.00     0.167 HD
ATOM     65  C   UNL A   1      44.641  27.365  26.501  1.00  0.00     0.074 A 
ATOM     66  C   UNL A   1      44.454  26.052  25.919  1.00  0.00     0.031 C 
ATOM     67  C   UNL A   1      45.749  28.125  26.325  1.00  0.00     0.031 A 
BRANCH  54  68
ATOM     68  C   UNL A   1      45.470  33.641  29.080  1.00  0.00    -0.014 A 
ATOM     69  C   UNL A   1      46.265  33.845  30.220  1.00  0.00     0.009 A 
ATOM     70  C   UNL A   1      45.307  34.695  28.167  1.00  0.00     0.009 A 
ATOM     71  C   UNL A   1      46.856  35.088  30.453  1.00  0.00     0.001 A 
ATOM     72  C   UNL A   1      45.921  35.927  28.390  1.00  0.00     0.001 A 
ATOM     73  C   UNL A   1      46.688  36.126  29.538  1.00  0.00     0.000 A 
ENDBRANCH  54  68
BRANCH  55  74
ATOM     74  C   UNL A   1      40.640  25.072  27.420  1.00  0.00    -0.014 A 
ATOM     75  C   UNL A   1      41.082  23.855  27.961  1.00  0.00     0.009 A 
ATOM     76  C   UNL A   1      39.522  25.070  26.571  1.00  0.00     0.009 A 
ATOM     77  C   UNL A   1      40.433  22.661  27.640  1.00  0.00     0.001 A 
ATOM     78  C   UNL A   1      38.859  23.877  26.274  1.00  0.00     0.001 A 
ATOM     79  C   UNL A   1      39.320  22.673  26.801  1.00  0.00     0.000 A 
ENDBRANCH  55  74
BRANCH  67  80
ATOM     80  C   UNL A   1      46.879  27.543  25.524  1.00  0.00    -0.014 A 
ATOM     81  C   UNL A   1      47.013  27.798  24.152  1.00  0.00     0.009 A 
ATOM     82  C   UNL A   1      47.873  26.798  26.179  1.00  0.00     0.009 A 
ATOM     83  C   UNL A   1      48.114  27.303  23.448  1.00  0.00     0.001 A 
ATOM     84  C   UNL A   1      48.984  26.327  25.480  1.00  0.00     0.001 A 
ATOM     85  C   UNL A   1      49.101  26.576  24.113  1.00  0.00     0.000 A 
ENDBRANCH  67  80
ENDBRANCH  41  42
ENDBRANCH  34  36
ENDBRANCH  33  34
ENDBRANCH  32  33
ENDBRANCH  31  32
ENDBRANCH  30  31
ENDBRANCH  29  30
ENDBRANCH   1  29
TORSDOF 19
ENDMDL
MODEL 2
REMARK VINA RESULT:     -10.9      4.494     10.591
REMARK SMILES CC(C)N1C[C@@]2(CCCN(c3ccc(C(=O)OCCOCCOCCOC(=O)c4ccc(-c5c6nc(c(-c7ccccc7)c7ccc([nH]7)c(-c7ccccc7)c7nc(c(-c8ccccc8)c8ccc5[nH]8)C=C7)C=C6)cc4)cn3)C2)CCC1=O
REMARK SMILES IDX 21 1 20 2 19 3 18 4 17 5 15 6 16 7 14 8 11 9 12 10 78 11
REMARK SMILES IDX 13 12 77 13 10 14 4 15 5 16 82 17 6 18 81 19 83 20 7 21
REMARK SMILES IDX 79 22 80 23 8 24 9 25 2 26 1 27 3 28 22 29 23 30 24 31 25 32
REMARK SMILES IDX 26 33 27 34 28 35 29 36 30 37 76 38 31 39 75 40 32 41 33 42
REMARK SMILES IDX 34 43 69 44 35 45 74 46 68 47 70 48 36 49 73 50 67 51 66 52
REMARK SMILES IDX 37 54 59 55 44 56 58 57 45 58 48 59 57 60 71 61 46 62 47 63
REMARK SMILES IDX 56 65 72 66 49 67 38 68 39 69 43 70 40 71 42 72 41 73 60 74
REMARK SMILES IDX 61 75 65 76 62 77 64 78 63 79 50 80 51 81 55 82 52 83 54 84
REMARK SMILES IDX 53 85
REMARK H PARENT 70 53 48 64
REMARK Flexibility Score: inf
ROOT
ATOM      1  C   UNL A   1      42.253  19.360  27.235  1.00  0.00     0.188 C 
ENDROOT
BRANCH   1   2
ATOM      2  O   UNL A   1      41.015  19.954  27.610  1.00  0.00    -0.376 OA
BRANCH   2   3
ATOM      3  C   UNL A   1      40.836  21.358  27.525  1.00  0.00     0.202 C 
BRANCH   3   4
ATOM      4  C   UNL A   1      40.292  21.939  26.217  1.00  0.00     0.261 C 
BRANCH   4   5
ATOM      5  O   UNL A   1      38.936  22.399  26.277  1.00  0.00    -0.460 OA
BRANCH   5   6
ATOM      6  C   UNL A   1      38.028  21.664  25.587  1.00  0.00     0.339 C 
ATOM      7  O   UNL A   1      38.190  20.581  25.052  1.00  0.00    -0.246 OA
BRANCH   6   8
ATOM      8  C   UNL A   1      36.733  22.339  25.688  1.00  0.00     0.078 A 
ATOM      9  C   UNL A   1      34.253  23.520  26.018  1.00  0.00     0.128 A 
ATOM     10  C   UNL A   1      35.374  24.296  25.708  1.00  0.00     0.048 A 
ATOM     11  N   UNL A   1      34.365  22.179  26.147  1.00  0.00    -0.238 NA
ATOM     12  C   UNL A   1      36.631  23.714  25.584  1.00  0.00     0.021 A 
ATOM     13  C   UNL A   1      35.580  21.611  25.929  1.00  0.00     0.129 A 
BRANCH   9  14
ATOM     14  N   UNL A   1      33.023  24.097  26.243  1.00  0.00    -0.356 N 
ATOM     15  N   UNL A   1      32.279  27.425  23.339  1.00  0.00    -0.340 N 
ATOM     16  C   UNL A   1      31.297  26.459  23.808  1.00  0.00     0.128 C 
ATOM     17  C   UNL A   1      33.333  27.016  22.524  1.00  0.00     0.222 C 
ATOM     18  C   UNL A   1      31.893  25.130  24.302  1.00  0.00     0.006 C 
ATOM     19  C   UNL A   1      33.823  25.592  22.717  1.00  0.00     0.101 C 
ATOM     20  O   UNL A   1      33.939  27.773  21.769  1.00  0.00    -0.275 OA
ATOM     21  C   UNL A   1      30.694  24.177  24.602  1.00  0.00     0.012 C 
ATOM     22  C   UNL A   1      32.719  25.372  25.601  1.00  0.00     0.127 C 
ATOM     23  C   UNL A   1      32.742  24.603  23.128  1.00  0.00     0.020 C 
ATOM     24  C   UNL A   1      31.008  22.962  25.478  1.00  0.00     0.022 C 
ATOM     25  C   UNL A   1      31.881  23.314  26.677  1.00  0.00     0.118 C 
BRANCH  15  26
ATOM     26  C   UNL A   1      31.899  28.847  23.422  1.00  0.00     0.078 C 
ATOM     27  C   UNL A   1      30.481  29.106  22.908  1.00  0.00     0.031 C 
ATOM     28  C   UNL A   1      32.122  29.436  24.813  1.00  0.00     0.031 C 
ENDBRANCH  15  26
ENDBRANCH   9  14
ENDBRANCH   6   8
ENDBRANCH   5   6
ENDBRANCH   4   5
ENDBRANCH   3   4
ENDBRANCH   2   3
ENDBRANCH   1   2
BRANCH   1  29
ATOM     29  C   UNL A   1      42.708  19.332  25.759  1.00  0.00     0.188 C 
BRANCH  29  30
ATOM     30  O   UNL A   1      43.918  20.030  25.538  1.00  0.00    -0.376 OA
BRANCH  30  31
ATOM     31  C   UNL A   1      43.850  21.433  25.360  1.00  0.00     0.202 C 
BRANCH  31  32
ATOM     32  C   UNL A   1      45.157  22.240  25.319  1.00  0.00     0.261 C 
BRANCH  32  33
ATOM     33  O   UNL A   1      45.265  23.331  26.242  1.00  0.00    -0.460 OA
BRANCH  33  34
ATOM     34  C   UNL A   1      45.055  24.579  25.767  1.00  0.00     0.338 C 
ATOM     35  O   UNL A   1      45.374  25.018  24.681  1.00  0.00    -0.246 OA
BRANCH  34  36
ATOM     36  C   UNL A   1      44.258  25.307  26.778  1.00  0.00     0.060 A 
ATOM     37  C   UNL A   1      44.351  26.702  26.863  1.00  0.00     0.016 A 
ATOM     38  C   UNL A   1      43.406  24.600  27.631  1.00  0.00     0.016 A 
ATOM     39  C   UNL A   1      43.603  27.394  27.823  1.00  0.00     0.010 A 
ATOM     40  C   UNL A   1      42.677  25.289  28.600  1.00  0.00     0.010 A 
ATOM     41  C   UNL A   1      42.791  26.685  28.720  1.00  0.00    -0.014 A 
BRANCH  41  42
ATOM     42  C   UNL A   1      42.205  27.341  29.914  1.00  0.00     0.031 A 
ATOM     43  C   UNL A   1      40.911  28.089  29.745  1.00  0.00     0.074 A 
ATOM     44  C   UNL A   1      42.832  27.343  31.103  1.00  0.00     0.049 A 
ATOM     45  N   UNL A   1      40.301  28.896  30.575  1.00  0.00    -0.248 NA
ATOM     46  C   UNL A   1      40.222  27.911  28.456  1.00  0.00     0.031 C 
ATOM     47  C   UNL A   1      44.061  26.618  31.417  1.00  0.00     0.029 A 
ATOM     48  N   UNL A   1      42.526  28.008  32.265  1.00  0.00    -0.354 N 
ATOM     49  C   UNL A   1      39.168  29.336  29.901  1.00  0.00     0.074 A 
ATOM     50  C   UNL A   1      39.181  28.719  28.592  1.00  0.00     0.031 C 
ATOM     51  C   UNL A   1      44.419  26.899  32.683  1.00  0.00     0.029 A 
ATOM     52  C   UNL A   1      43.472  27.858  33.250  1.00  0.00     0.049 A 
ATOM     53  H   UNL A   1      41.706  28.542  32.381  1.00  0.00     0.167 HD
ATOM     54  C   UNL A   1      38.207  30.187  30.329  1.00  0.00     0.031 A 
ATOM     55  C   UNL A   1      43.581  28.459  34.452  1.00  0.00     0.031 A 
ATOM     56  C   UNL A   1      38.204  30.819  31.619  1.00  0.00     0.049 A 
ATOM     57  C   UNL A   1      42.546  29.471  34.874  1.00  0.00     0.074 A 
ATOM     58  C   UNL A   1      37.272  31.694  32.148  1.00  0.00     0.029 A 
ATOM     59  N   UNL A   1      39.188  30.648  32.579  1.00  0.00    -0.354 N 
ATOM     60  N   UNL A   1      41.475  29.875  34.236  1.00  0.00    -0.248 NA
ATOM     61  C   UNL A   1      42.740  30.114  36.184  1.00  0.00     0.031 C 
ATOM     62  C   UNL A   1      37.719  32.092  33.411  1.00  0.00     0.029 A 
ATOM     63  C   UNL A   1      38.897  31.419  33.690  1.00  0.00     0.049 A 
ATOM     64  H   UNL A   1      39.976  30.066  32.485  1.00  0.00     0.167 HD
ATOM     65  C   UNL A   1      40.850  30.787  35.078  1.00  0.00     0.074 A 
ATOM     66  C   UNL A   1      41.661  30.879  36.275  1.00  0.00     0.031 C 
ATOM     67  C   UNL A   1      39.704  31.482  34.881  1.00  0.00     0.031 A 
BRANCH  54  68
ATOM     68  C   UNL A   1      37.102  30.517  29.367  1.00  0.00    -0.014 A 
ATOM     69  C   UNL A   1      36.075  29.600  29.094  1.00  0.00     0.009 A 
ATOM     70  C   UNL A   1      37.077  31.773  28.742  1.00  0.00     0.009 A 
ATOM     71  C   UNL A   1      35.063  29.924  28.188  1.00  0.00     0.001 A 
ATOM     72  C   UNL A   1      36.051  32.104  27.857  1.00  0.00     0.001 A 
ATOM     73  C   UNL A   1      35.050  31.176  27.574  1.00  0.00     0.000 A 
ENDBRANCH  54  68
BRANCH  55  74
ATOM     74  C   UNL A   1      44.736  28.153  35.339  1.00  0.00    -0.014 A 
ATOM     75  C   UNL A   1      44.654  27.122  36.287  1.00  0.00     0.009 A 
ATOM     76  C   UNL A   1      45.916  28.909  35.261  1.00  0.00     0.009 A 
ATOM     77  C   UNL A   1      45.720  26.871  37.154  1.00  0.00     0.001 A 
ATOM     78  C   UNL A   1      46.990  28.638  36.111  1.00  0.00     0.001 A 
ATOM     79  C   UNL A   1      46.888  27.626  37.062  1.00  0.00     0.000 A 
ENDBRANCH  55  74
BRANCH  67  80
ATOM     80  C   UNL A   1      39.213  32.357  35.999  1.00  0.00    -0.014 A 
ATOM     81  C   UNL A   1      39.493  33.731  36.033  1.00  0.00     0.009 A 
ATOM     82  C   UNL A   1      38.381  31.807  36.988  1.00  0.00     0.009 A 
ATOM     83  C   UNL A   1      38.962  34.533  37.046  1.00  0.00     0.001 A 
ATOM     84  C   UNL A   1      37.831  32.615  37.984  1.00  0.00     0.001 A 
ATOM     85  C   UNL A   1      38.127  33.976  38.014  1.00  0.00     0.000 A 
ENDBRANCH  67  80
ENDBRANCH  41  42
ENDBRANCH  34  36
ENDBRANCH  33  34
ENDBRANCH  32  33
ENDBRANCH  31  32
ENDBRANCH  30  31
ENDBRANCH  29  30
ENDBRANCH   1  29
TORSDOF 19
ENDMDL
MODEL 3
REMARK VINA RESULT:     -10.2      0.980      5.787
REMARK SMILES CC(C)N1C[C@@]2(CCCN(c3ccc(C(=O)OCCOCCOCCOC(=O)c4ccc(-c5c6nc(c(-c7ccccc7)c7ccc([nH]7)c(-c7ccccc7)c7nc(c(-c8ccccc8)c8ccc5[nH]8)C=C7)C=C6)cc4)cn3)C2)CCC1=O
REMARK SMILES IDX 21 1 20 2 19 3 18 4 17 5 15 6 16 7 14 8 11 9 12 10 78 11
REMARK SMILES IDX 13 12 77 13 10 14 4 15 5 16 82 17 6 18 81 19 83 20 7 21
REMARK SMILES IDX 79 22 80 23 8 24 9 25 2 26 1 27 3 28 22 29 23 30 24 31 25 32
REMARK SMILES IDX 26 33 27 34 28 35 29 36 30 37 76 38 31 39 75 40 32 41 33 42
REMARK SMILES IDX 34 43 69 44 35 45 74 46 68 47 70 48 36 49 73 50 67 51 66 52
REMARK SMILES IDX 37 54 59 55 44 56 58 57 45 58 48 59 57 60 71 61 46 62 47 63
REMARK SMILES IDX 56 65 72 66 49 67 38 68 39 69 43 70 40 71 42 72 41 73 60 74
REMARK SMILES IDX 61 75 65 76 62 77 64 78 63 79 50 80 51 81 55 82 52 83 54 84
REMARK SMILES IDX 53 85
REMARK H PARENT 70 53 48 64
REMARK Flexibility Score: inf
ROOT
ATOM      1  C   UNL A   1      35.407  33.910  30.574  1.00  0.00     0.188 C 
ENDROOT
BRANCH   1   2
ATOM      2  O   UNL A   1      35.759  34.226  29.232  1.00  0.00    -0.376 OA
BRANCH   2   3
ATOM      3  C   UNL A   1      35.021  33.687  28.148  1.00  0.00     0.202 C 
BRANCH   3   4
ATOM      4  C   UNL A   1      33.613  33.155  28.425  1.00  0.00     0.261 C 
BRANCH   4   5
ATOM      5  O   UNL A   1      33.121  32.215  27.462  1.00  0.00    -0.460 OA
BRANCH   5   6
ATOM      6  C   UNL A   1      33.751  31.015  27.429  1.00  0.00     0.339 C 
ATOM      7  O   UNL A   1      34.609  30.596  28.185  1.00  0.00    -0.246 OA
BRANCH   6   8
ATOM      8  C   UNL A   1      33.132  30.211  26.372  1.00  0.00     0.078 A 
ATOM      9  C   UNL A   1      32.017  28.553  24.460  1.00  0.00     0.128 A 
ATOM     10  C   UNL A   1      31.310  29.658  24.940  1.00  0.00     0.048 A 
ATOM     11  N   UNL A   1      33.262  28.288  24.914  1.00  0.00    -0.238 NA
ATOM     12  C   UNL A   1      31.846  30.470  25.933  1.00  0.00     0.021 A 
ATOM     13  C   UNL A   1      33.814  29.143  25.814  1.00  0.00     0.129 A 
BRANCH   9  14
ATOM     14  N   UNL A   1      31.455  27.684  23.550  1.00  0.00    -0.356 N 
ATOM     15  N   UNL A   1      32.053  23.437  24.840  1.00  0.00    -0.340 N 
ATOM     16  C   UNL A   1      30.855  23.986  24.223  1.00  0.00     0.128 C 
ATOM     17  C   UNL A   1      32.421  23.826  26.126  1.00  0.00     0.222 C 
ATOM     18  C   UNL A   1      30.676  25.502  24.412  1.00  0.00     0.006 C 
ATOM     19  C   UNL A   1      32.028  25.232  26.545  1.00  0.00     0.101 C 
ATOM     20  O   UNL A   1      33.133  23.146  26.863  1.00  0.00    -0.275 OA
ATOM     21  C   UNL A   1      29.275  25.871  23.833  1.00  0.00     0.012 C 
ATOM     22  C   UNL A   1      31.791  26.266  23.637  1.00  0.00     0.127 C 
ATOM     23  C   UNL A   1      30.726  25.731  25.936  1.00  0.00     0.020 C 
ATOM     24  C   UNL A   1      29.042  27.354  23.538  1.00  0.00     0.022 C 
ATOM     25  C   UNL A   1      30.231  28.007  22.842  1.00  0.00     0.118 C 
BRANCH  15  26
ATOM     26  C   UNL A   1      32.601  22.206  24.240  1.00  0.00     0.078 C 
ATOM     27  C   UNL A   1      34.119  22.269  24.057  1.00  0.00     0.031 C 
ATOM     28  C   UNL A   1      32.164  20.944  24.980  1.00  0.00     0.031 C 
ENDBRANCH  15  26
ENDBRANCH   9  14
ENDBRANCH   6   8
ENDBRANCH   5   6
ENDBRANCH   4   5
ENDBRANCH   3   4
ENDBRANCH   2   3
ENDBRANCH   1   2
BRANCH   1  29
ATOM     29  C   UNL A   1      34.499  34.847  31.400  1.00  0.00     0.188 C 
BRANCH  29  30
ATOM     30  O   UNL A   1      33.722  34.161  32.363  1.00  0.00    -0.376 OA
BRANCH  30  31
ATOM     31  C   UNL A   1      34.310  33.054  33.021  1.00  0.00     0.202 C 
BRANCH  31  32
ATOM     32  C   UNL A   1      35.404  33.306  34.069  1.00  0.00     0.261 C 
BRANCH  32  33
ATOM     33  O   UNL A   1      36.760  33.151  33.631  1.00  0.00    -0.460 OA
BRANCH  33  34
ATOM     34  C   UNL A   1      37.481  32.141  34.166  1.00  0.00     0.338 C 
ATOM     35  O   UNL A   1      37.399  31.691  35.291  1.00  0.00    -0.246 OA
BRANCH  34  36
ATOM     36  C   UNL A   1      38.334  31.591  33.090  1.00  0.00     0.060 A 
ATOM     37  C   UNL A   1      39.461  30.826  33.420  1.00  0.00     0.016 A 
ATOM     38  C   UNL A   1      38.003  31.824  31.753  1.00  0.00     0.016 A 
ATOM     39  C   UNL A   1      40.275  30.310  32.405  1.00  0.00     0.010 A 
ATOM     40  C   UNL A   1      38.826  31.326  30.743  1.00  0.00     0.010 A 
ATOM     41  C   UNL A   1      39.981  30.590  31.063  1.00  0.00    -0.014 A 
BRANCH  41  42
ATOM     42  C   UNL A   1      40.955  30.302  29.983  1.00  0.00     0.031 A 
ATOM     43  C   UNL A   1      40.870  28.969  29.292  1.00  0.00     0.074 A 
ATOM     44  C   UNL A   1      41.940  31.161  29.667  1.00  0.00     0.049 A 
ATOM     45  N   UNL A   1      41.709  28.406  28.461  1.00  0.00    -0.248 NA
ATOM     46  C   UNL A   1      39.679  28.157  29.592  1.00  0.00     0.031 C 
ATOM     47  C   UNL A   1      42.108  32.503  30.221  1.00  0.00     0.029 A 
ATOM     48  N   UNL A   1      43.007  31.012  28.814  1.00  0.00    -0.354 N 
ATOM     49  C   UNL A   1      41.158  27.167  28.157  1.00  0.00     0.074 A 
ATOM     50  C   UNL A   1      39.922  27.054  28.899  1.00  0.00     0.031 C 
ATOM     51  C   UNL A   1      43.228  33.045  29.712  1.00  0.00     0.029 A 
ATOM     52  C   UNL A   1      43.879  32.072  28.836  1.00  0.00     0.049 A 
ATOM     53  H   UNL A   1      43.133  30.220  28.242  1.00  0.00     0.167 HD
ATOM     54  C   UNL A   1      41.643  26.204  27.340  1.00  0.00     0.031 A 
ATOM     55  C   UNL A   1      45.084  32.221  28.249  1.00  0.00     0.031 A 
ATOM     56  C   UNL A   1      42.882  26.304  26.619  1.00  0.00     0.049 A 
ATOM     57  C   UNL A   1      45.648  31.099  27.413  1.00  0.00     0.074 A 
ATOM     58  C   UNL A   1      43.458  25.383  25.762  1.00  0.00     0.029 A 
ATOM     59  N   UNL A   1      43.740  27.391  26.680  1.00  0.00    -0.354 N 
ATOM     60  N   UNL A   1      45.117  29.936  27.123  1.00  0.00    -0.248 NA
ATOM     61  C   UNL A   1      46.981  31.312  26.826  1.00  0.00     0.031 C 
ATOM     62  C   UNL A   1      44.690  25.892  25.343  1.00  0.00     0.029 A 
ATOM     63  C   UNL A   1      44.853  27.153  25.893  1.00  0.00     0.049 A 
ATOM     64  H   UNL A   1      43.582  28.208  27.205  1.00  0.00     0.167 HD
ATOM     65  C   UNL A   1      46.031  29.296  26.294  1.00  0.00     0.074 A 
ATOM     66  C   UNL A   1      47.151  30.199  26.126  1.00  0.00     0.031 C 
ATOM     67  C   UNL A   1      45.948  28.072  25.719  1.00  0.00     0.031 A 
BRANCH  54  68
ATOM     68  C   UNL A   1      40.847  24.937  27.222  1.00  0.00    -0.014 A 
ATOM     69  C   UNL A   1      41.297  23.736  27.793  1.00  0.00     0.009 A 
ATOM     70  C   UNL A   1      39.616  24.950  26.547  1.00  0.00     0.009 A 
ATOM     71  C   UNL A   1      40.545  22.567  27.661  1.00  0.00     0.001 A 
ATOM     72  C   UNL A   1      38.855  23.786  26.440  1.00  0.00     0.001 A 
ATOM     73  C   UNL A   1      39.324  22.594  26.989  1.00  0.00     0.000 A 
ENDBRANCH  54  68
BRANCH  55  74
ATOM     74  C   UNL A   1      45.869  33.468  28.456  1.00  0.00    -0.014 A 
ATOM     75  C   UNL A   1      46.713  33.604  29.568  1.00  0.00     0.009 A 
ATOM     76  C   UNL A   1      45.754  34.540  27.557  1.00  0.00     0.009 A 
ATOM     77  C   UNL A   1      47.408  34.795  29.788  1.00  0.00     0.001 A 
ATOM     78  C   UNL A   1      46.472  35.720  27.765  1.00  0.00     0.001 A 
ATOM     79  C   UNL A   1      47.291  35.850  28.884  1.00  0.00     0.000 A 
ENDBRANCH  55  74
BRANCH  67  80
ATOM     80  C   UNL A   1      47.060  27.651  24.801  1.00  0.00    -0.014 A 
ATOM     81  C   UNL A   1      48.038  26.732  25.207  1.00  0.00     0.009 A 
ATOM     82  C   UNL A   1      47.072  28.119  23.477  1.00  0.00     0.009 A 
ATOM     83  C   UNL A   1      49.018  26.304  24.308  1.00  0.00     0.001 A 
ATOM     84  C   UNL A   1      48.036  27.670  22.574  1.00  0.00     0.001 A 
ATOM     85  C   UNL A   1      49.011  26.767  22.992  1.00  0.00     0.000 A 
ENDBRANCH  67  80
ENDBRANCH  41  42
ENDBRANCH  34  36
ENDBRANCH  33  34
ENDBRANCH  32  33
ENDBRANCH  31  32
ENDBRANCH  30  31
ENDBRANCH  29  30
ENDBRANCH   1  29
TORSDOF 19
ENDMDL
