MODEL 1
REMARK VINA RESULT:      -9.9      0.000      0.000
REMARK SMILES CC[C@H]1CCCCN1S(=O)(=O)c1ccc2oc(C(=O)OCCOCCOCCOC(=O)c3ccc(-c4c5nc(c(-c6ccccc6)c6ccc([nH]6)c(-c6ccccc6)c6nc(c(-c7ccccc7)c7ccc4[nH]7)C=C6)C=C5)cc3)c(C)c2c1
REMARK SMILES IDX 24 1 23 2 22 3 21 4 20 5 18 6 19 7 17 8 12 9 13 10 83 11
REMARK SMILES IDX 14 12 82 13 15 14 80 15 16 16 81 17 9 18 10 19 11 20 8 21
REMARK SMILES IDX 3 22 4 23 5 24 7 25 6 26 2 27 1 28 25 29 26 30 27 31 28 32
REMARK SMILES IDX 29 33 30 34 31 35 32 36 33 37 79 38 34 39 78 40 35 41 36 42
REMARK SMILES IDX 37 43 72 44 38 45 77 46 71 47 73 48 39 49 76 50 70 51 69 52
REMARK SMILES IDX 40 54 62 55 47 56 61 57 48 58 51 59 60 60 74 61 49 62 50 63
REMARK SMILES IDX 59 65 75 66 52 67 41 68 42 69 46 70 43 71 45 72 44 73 63 74
REMARK SMILES IDX 64 75 68 76 65 77 67 78 66 79 53 80 54 81 58 82 55 83 57 84
REMARK SMILES IDX 56 85
REMARK H PARENT 73 53 51 64
REMARK Flexibility Score: inf
ROOT
ATOM      1  C   UNL A   1      37.168  19.977  24.962  1.00  0.00     0.188 C 
ENDROOT
BRANCH   1   2
ATOM      2  O   UNL A   1      35.830  19.496  24.882  1.00  0.00    -0.376 OA
BRANCH   2   3
ATOM      3  C   UNL A   1      35.579  18.108  24.706  1.00  0.00     0.202 C 
BRANCH   3   4
ATOM      4  C   UNL A   1      34.166  17.702  24.287  1.00  0.00     0.261 C 
BRANCH   4   5
ATOM      5  O   UNL A   1      33.444  18.777  23.669  1.00  0.00    -0.457 OA
BRANCH   5   6
ATOM      6  C   UNL A   1      32.754  19.593  24.516  1.00  0.00     0.374 C 
ATOM      7  O   UNL A   1      32.075  19.201  25.457  1.00  0.00    -0.242 OA
BRANCH   6   8
ATOM      8  C   UNL A   1      33.020  20.983  24.209  1.00  0.00     0.215 A 
ATOM      9  C   UNL A   1      33.704  25.467  23.692  1.00  0.00     0.083 A 
ATOM     10  C   UNL A   1      34.354  25.269  24.914  1.00  0.00     0.025 A 
ATOM     11  C   UNL A   1      33.249  24.386  22.917  1.00  0.00     0.034 A 
ATOM     12  C   UNL A   1      34.475  23.982  25.449  1.00  0.00     0.049 A 
ATOM     13  C   UNL A   1      33.258  23.108  23.498  1.00  0.00     0.025 A 
ATOM     14  C   UNL A   1      33.864  22.954  24.734  1.00  0.00     0.135 A 
ATOM     15  C   UNL A   1      32.722  21.830  23.142  1.00  0.00     0.010 A 
ATOM     16  O   UNL A   1      33.744  21.672  25.150  1.00  0.00    -0.449 OA
ATOM     17  C   UNL A   1      31.932  21.550  21.912  1.00  0.00     0.049 C 
BRANCH   9  18
ATOM     18  S   UNL A   1      33.422  27.115  23.076  1.00  0.00     0.243 S 
ATOM     19  O   UNL A   1      33.962  27.161  21.734  1.00  0.00    -0.207 OA
ATOM     20  O   UNL A   1      33.862  28.045  24.094  1.00  0.00    -0.207 OA
BRANCH  18  21
ATOM     21  N   UNL A   1      31.698  27.227  22.968  1.00  0.00    -0.195 NA
ATOM     22  C   UNL A   1      30.964  26.550  24.108  1.00  0.00     0.073 C 
ATOM     23  C   UNL A   1      29.462  26.512  23.772  1.00  0.00     0.020 C 
ATOM     24  C   UNL A   1      28.896  27.902  23.518  1.00  0.00     0.003 C 
ATOM     25  C   UNL A   1      31.161  28.584  22.649  1.00  0.00     0.103 C 
ATOM     26  C   UNL A   1      29.662  28.555  22.382  1.00  0.00     0.017 C 
BRANCH  22  27
ATOM     27  C   UNL A   1      31.289  27.197  25.472  1.00  0.00     0.017 C 
ATOM     28  C   UNL A   1      31.368  26.215  26.633  1.00  0.00     0.005 C 
ENDBRANCH  22  27
ENDBRANCH  18  21
ENDBRANCH   9  18
ENDBRANCH   6   8
ENDBRANCH   5   6
ENDBRANCH   4   5
ENDBRANCH   3   4
ENDBRANCH   2   3
ENDBRANCH   1   2
BRANCH   1  29
ATOM     29  C   UNL A   1      37.450  21.440  25.358  1.00  0.00     0.188 C 
BRANCH  29  30
ATOM     30  O   UNL A   1      38.811  21.833  25.272  1.00  0.00    -0.376 OA
BRANCH  30  31
ATOM     31  C   UNL A   1      39.556  21.744  26.480  1.00  0.00     0.202 C 
BRANCH  31  32
ATOM     32  C   UNL A   1      40.415  20.478  26.562  1.00  0.00     0.261 C 
BRANCH  32  33
ATOM     33  O   UNL A   1      41.707  20.676  27.161  1.00  0.00    -0.460 OA
BRANCH  33  34
ATOM     34  C   UNL A   1      42.678  21.157  26.353  1.00  0.00     0.338 C 
ATOM     35  O   UNL A   1      43.082  20.668  25.315  1.00  0.00    -0.246 OA
BRANCH  34  36
ATOM     36  C   UNL A   1      43.071  22.490  26.851  1.00  0.00     0.060 A 
ATOM     37  C   UNL A   1      43.102  22.707  28.233  1.00  0.00     0.016 A 
ATOM     38  C   UNL A   1      43.385  23.521  25.961  1.00  0.00     0.016 A 
ATOM     39  C   UNL A   1      43.414  23.974  28.729  1.00  0.00     0.010 A 
ATOM     40  C   UNL A   1      43.683  24.792  26.460  1.00  0.00     0.010 A 
ATOM     41  C   UNL A   1      43.667  25.033  27.844  1.00  0.00    -0.014 A 
BRANCH  41  42
ATOM     42  C   UNL A   1      43.737  26.421  28.361  1.00  0.00     0.031 A 
ATOM     43  C   UNL A   1      42.457  27.198  28.512  1.00  0.00     0.074 A 
ATOM     44  C   UNL A   1      44.908  26.981  28.713  1.00  0.00     0.049 A 
ATOM     45  N   UNL A   1      42.272  28.409  28.974  1.00  0.00    -0.248 NA
ATOM     46  C   UNL A   1      41.222  26.519  28.088  1.00  0.00     0.031 C 
ATOM     47  C   UNL A   1      46.217  26.335  28.641  1.00  0.00     0.029 A 
ATOM     48  N   UNL A   1      45.176  28.234  29.208  1.00  0.00    -0.354 N 
ATOM     49  C   UNL A   1      40.904  28.634  28.899  1.00  0.00     0.074 A 
ATOM     50  C   UNL A   1      40.307  27.448  28.321  1.00  0.00     0.031 C 
ATOM     51  C   UNL A   1      47.152  27.198  29.077  1.00  0.00     0.029 A 
ATOM     52  C   UNL A   1      46.510  28.460  29.441  1.00  0.00     0.049 A 
ATOM     53  H   UNL A   1      44.478  28.905  29.380  1.00  0.00     0.167 HD
ATOM     54  C   UNL A   1      40.200  29.724  29.284  1.00  0.00     0.031 A 
ATOM     55  C   UNL A   1      47.140  29.565  29.889  1.00  0.00     0.031 A 
ATOM     56  C   UNL A   1      40.780  30.911  29.848  1.00  0.00     0.049 A 
ATOM     57  C   UNL A   1      46.339  30.792  30.241  1.00  0.00     0.074 A 
ATOM     58  C   UNL A   1      40.140  32.053  30.296  1.00  0.00     0.029 A 
ATOM     59  N   UNL A   1      42.138  31.115  30.028  1.00  0.00    -0.354 N 
ATOM     60  N   UNL A   1      45.040  30.966  30.225  1.00  0.00    -0.248 NA
ATOM     61  C   UNL A   1      47.098  31.973  30.683  1.00  0.00     0.031 C 
ATOM     62  C   UNL A   1      41.116  32.969  30.704  1.00  0.00     0.029 A 
ATOM     63  C   UNL A   1      42.358  32.376  30.552  1.00  0.00     0.049 A 
ATOM     64  H   UNL A   1      42.841  30.459  29.815  1.00  0.00     0.167 HD
ATOM     65  C   UNL A   1      44.825  32.260  30.684  1.00  0.00     0.074 A 
ATOM     66  C   UNL A   1      46.125  32.824  30.979  1.00  0.00     0.031 C 
ATOM     67  C   UNL A   1      43.655  32.922  30.850  1.00  0.00     0.031 A 
BRANCH  54  68
ATOM     68  C   UNL A   1      38.714  29.690  29.085  1.00  0.00    -0.014 A 
ATOM     69  C   UNL A   1      37.847  29.396  30.149  1.00  0.00     0.009 A 
ATOM     70  C   UNL A   1      38.173  29.998  27.828  1.00  0.00     0.009 A 
ATOM     71  C   UNL A   1      36.465  29.388  29.950  1.00  0.00     0.001 A 
ATOM     72  C   UNL A   1      36.791  30.011  27.638  1.00  0.00     0.001 A 
ATOM     73  C   UNL A   1      35.939  29.700  28.697  1.00  0.00     0.000 A 
ENDBRANCH  54  68
BRANCH  55  74
ATOM     74  C   UNL A   1      48.620  29.582  30.029  1.00  0.00    -0.014 A 
ATOM     75  C   UNL A   1      49.436  29.926  28.941  1.00  0.00     0.009 A 
ATOM     76  C   UNL A   1      49.223  29.198  31.236  1.00  0.00     0.009 A 
ATOM     77  C   UNL A   1      50.827  29.855  29.050  1.00  0.00     0.001 A 
ATOM     78  C   UNL A   1      50.615  29.152  31.349  1.00  0.00     0.001 A 
ATOM     79  C   UNL A   1      51.415  29.469  30.254  1.00  0.00     0.000 A 
ENDBRANCH  55  74
BRANCH  67  80
ATOM     80  C   UNL A   1      43.718  34.314  31.412  1.00  0.00    -0.014 A 
ATOM     81  C   UNL A   1      43.672  34.544  32.795  1.00  0.00     0.009 A 
ATOM     82  C   UNL A   1      43.873  35.406  30.543  1.00  0.00     0.009 A 
ATOM     83  C   UNL A   1      43.754  35.845  33.296  1.00  0.00     0.001 A 
ATOM     84  C   UNL A   1      43.979  36.703  31.049  1.00  0.00     0.001 A 
ATOM     85  C   UNL A   1      43.912  36.922  32.424  1.00  0.00     0.000 A 
ENDBRANCH  67  80
ENDBRANCH  41  42
ENDBRANCH  34  36
ENDBRANCH  33  34
ENDBRANCH  32  33
ENDBRANCH  31  32
ENDBRANCH  30  31
ENDBRANCH  29  30
ENDBRANCH   1  29
TORSDOF 20
ENDMDL
MODEL 2
REMARK VINA RESULT:      -9.7      5.577     10.807
REMARK SMILES CC[C@H]1CCCCN1S(=O)(=O)c1ccc2oc(C(=O)OCCOCCOCCOC(=O)c3ccc(-c4c5nc(c(-c6ccccc6)c6ccc([nH]6)c(-c6ccccc6)c6nc(c(-c7ccccc7)c7ccc4[nH]7)C=C6)C=C5)cc3)c(C)c2c1
REMARK SMILES IDX 24 1 23 2 22 3 21 4 20 5 18 6 19 7 17 8 12 9 13 10 83 11
REMARK SMILES IDX 14 12 82 13 15 14 80 15 16 16 81 17 9 18 10 19 11 20 8 21
REMARK SMILES IDX 3 22 4 23 5 24 7 25 6 26 2 27 1 28 25 29 26 30 27 31 28 32
REMARK SMILES IDX 29 33 30 34 31 35 32 36 33 37 79 38 34 39 78 40 35 41 36 42
REMARK SMILES IDX 37 43 72 44 38 45 77 46 71 47 73 48 39 49 76 50 70 51 69 52
REMARK SMILES IDX 40 54 62 55 47 56 61 57 48 58 51 59 60 60 74 61 49 62 50 63
REMARK SMILES IDX 59 65 75 66 52 67 41 68 42 69 46 70 43 71 45 72 44 73 63 74
REMARK SMILES IDX 64 75 68 76 65 77 67 78 66 79 53 80 54 81 58 82 55 83 57 84
REMARK SMILES IDX 56 85
REMARK H PARENT 73 53 51 64
REMARK Flexibility Score: inf
ROOT
ATOM      1  C   UNL A   1      34.612  33.836  33.185  1.00  0.00     0.188 C 
ENDROOT
BRANCH   1   2
ATOM      2  O   UNL A   1      35.270  34.019  31.936  1.00  0.00    -0.376 OA
BRANCH   2   3
ATOM      3  C   UNL A   1      36.686  34.114  31.881  1.00  0.00     0.202 C 
BRANCH   3   4
ATOM      4  C   UNL A   1      37.443  32.929  31.278  1.00  0.00     0.261 C 
BRANCH   4   5
ATOM      5  O   UNL A   1      36.755  31.684  31.465  1.00  0.00    -0.457 OA
BRANCH   5   6
ATOM      6  C   UNL A   1      36.277  31.093  30.332  1.00  0.00     0.374 C 
ATOM      7  O   UNL A   1      35.217  31.385  29.792  1.00  0.00    -0.242 OA
BRANCH   6   8
ATOM      8  C   UNL A   1      37.244  30.153  29.805  1.00  0.00     0.215 A 
ATOM      9  C   UNL A   1      40.624  27.419  28.411  1.00  0.00     0.083 A 
ATOM     10  C   UNL A   1      40.836  27.369  29.793  1.00  0.00     0.025 A 
ATOM     11  C   UNL A   1      39.479  28.023  27.864  1.00  0.00     0.034 A 
ATOM     12  C   UNL A   1      39.955  28.017  30.666  1.00  0.00     0.049 A 
ATOM     13  C   UNL A   1      38.657  28.775  28.717  1.00  0.00     0.025 A 
ATOM     14  C   UNL A   1      38.924  28.747  30.077  1.00  0.00     0.135 A 
ATOM     15  C   UNL A   1      37.558  29.673  28.534  1.00  0.00     0.010 A 
ATOM     16  O   UNL A   1      38.060  29.554  30.733  1.00  0.00    -0.449 OA
ATOM     17  C   UNL A   1      36.975  30.049  27.217  1.00  0.00     0.049 C 
BRANCH   9  18
ATOM     18  S   UNL A   1      41.818  26.719  27.290  1.00  0.00     0.243 S 
ATOM     19  O   UNL A   1      43.103  27.294  27.629  1.00  0.00    -0.207 OA
ATOM     20  O   UNL A   1      41.279  26.828  25.950  1.00  0.00    -0.207 OA
BRANCH  18  21
ATOM     21  N   UNL A   1      41.850  25.041  27.711  1.00  0.00    -0.195 NA
ATOM     22  C   UNL A   1      41.916  24.108  26.518  1.00  0.00     0.073 C 
ATOM     23  C   UNL A   1      41.697  22.665  27.011  1.00  0.00     0.020 C 
ATOM     24  C   UNL A   1      42.713  22.259  28.068  1.00  0.00     0.003 C 
ATOM     25  C   UNL A   1      42.802  24.670  28.800  1.00  0.00     0.103 C 
ATOM     26  C   UNL A   1      42.629  23.221  29.239  1.00  0.00     0.017 C 
BRANCH  22  27
ATOM     27  C   UNL A   1      43.211  24.305  25.700  1.00  0.00     0.017 C 
ATOM     28  C   UNL A   1      43.436  23.261  24.615  1.00  0.00     0.005 C 
ENDBRANCH  22  27
ENDBRANCH  18  21
ENDBRANCH   9  18
ENDBRANCH   6   8
ENDBRANCH   5   6
ENDBRANCH   4   5
ENDBRANCH   3   4
ENDBRANCH   2   3
ENDBRANCH   1   2
BRANCH   1  29
ATOM     29  C   UNL A   1      35.142  34.525  34.458  1.00  0.00     0.188 C 
BRANCH  29  30
ATOM     30  O   UNL A   1      35.730  33.653  35.412  1.00  0.00    -0.376 OA
BRANCH  30  31
ATOM     31  C   UNL A   1      37.129  33.808  35.611  1.00  0.00     0.202 C 
BRANCH  31  32
ATOM     32  C   UNL A   1      37.571  33.472  37.039  1.00  0.00     0.261 C 
BRANCH  32  33
ATOM     33  O   UNL A   1      38.737  32.635  37.117  1.00  0.00    -0.460 OA
BRANCH  33  34
ATOM     34  C   UNL A   1      38.615  31.385  36.617  1.00  0.00     0.338 C 
ATOM     35  O   UNL A   1      37.788  30.546  36.923  1.00  0.00    -0.246 OA
BRANCH  34  36
ATOM     36  C   UNL A   1      39.561  31.246  35.493  1.00  0.00     0.060 A 
ATOM     37  C   UNL A   1      39.085  30.748  34.274  1.00  0.00     0.016 A 
ATOM     38  C   UNL A   1      40.908  31.584  35.646  1.00  0.00     0.016 A 
ATOM     39  C   UNL A   1      39.969  30.553  33.212  1.00  0.00     0.010 A 
ATOM     40  C   UNL A   1      41.794  31.374  34.585  1.00  0.00     0.010 A 
ATOM     41  C   UNL A   1      41.335  30.828  33.375  1.00  0.00    -0.014 A 
BRANCH  41  42
ATOM     42  C   UNL A   1      42.303  30.376  32.345  1.00  0.00     0.031 A 
ATOM     43  C   UNL A   1      42.919  29.011  32.487  1.00  0.00     0.074 A 
ATOM     44  C   UNL A   1      42.616  31.148  31.290  1.00  0.00     0.049 A 
ATOM     45  N   UNL A   1      43.759  28.393  31.695  1.00  0.00    -0.248 NA
ATOM     46  C   UNL A   1      42.535  28.236  33.679  1.00  0.00     0.031 C 
ATOM     47  C   UNL A   1      42.077  32.478  31.018  1.00  0.00     0.029 A 
ATOM     48  N   UNL A   1      43.474  30.911  30.244  1.00  0.00    -0.354 N 
ATOM     49  C   UNL A   1      44.001  27.162  32.289  1.00  0.00     0.074 A 
ATOM     50  C   UNL A   1      43.244  27.128  33.522  1.00  0.00     0.031 C 
ATOM     51  C   UNL A   1      42.617  32.941  29.875  1.00  0.00     0.029 A 
ATOM     52  C   UNL A   1      43.552  31.949  29.349  1.00  0.00     0.049 A 
ATOM     53  H   UNL A   1      43.984  30.075  30.145  1.00  0.00     0.167 HD
ATOM     54  C   UNL A   1      44.775  26.144  31.848  1.00  0.00     0.031 A 
ATOM     55  C   UNL A   1      44.300  32.083  28.236  1.00  0.00     0.031 A 
ATOM     56  C   UNL A   1      45.541  26.169  30.633  1.00  0.00     0.049 A 
ATOM     57  C   UNL A   1      45.211  30.962  27.806  1.00  0.00     0.074 A 
ATOM     58  C   UNL A   1      46.330  25.169  30.091  1.00  0.00     0.029 A 
ATOM     59  N   UNL A   1      45.624  27.255  29.778  1.00  0.00    -0.354 N 
ATOM     60  N   UNL A   1      45.380  29.779  28.346  1.00  0.00    -0.248 NA
ATOM     61  C   UNL A   1      46.029  31.197  26.605  1.00  0.00     0.031 C 
ATOM     62  C   UNL A   1      46.929  25.669  28.930  1.00  0.00     0.029 A 
ATOM     63  C   UNL A   1      46.475  26.961  28.728  1.00  0.00     0.049 A 
ATOM     64  H   UNL A   1      45.147  28.108  29.898  1.00  0.00     0.167 HD
ATOM     65  C   UNL A   1      46.295  29.119  27.533  1.00  0.00     0.074 A 
ATOM     66  C   UNL A   1      46.639  30.028  26.460  1.00  0.00     0.031 C 
ATOM     67  C   UNL A   1      46.802  27.870  27.661  1.00  0.00     0.031 A 
BRANCH  54  68
ATOM     68  C   UNL A   1      44.851  24.915  32.705  1.00  0.00    -0.014 A 
ATOM     69  C   UNL A   1      43.942  23.859  32.538  1.00  0.00     0.009 A 
ATOM     70  C   UNL A   1      45.870  24.796  33.661  1.00  0.00     0.009 A 
ATOM     71  C   UNL A   1      44.039  22.714  33.332  1.00  0.00     0.001 A 
ATOM     72  C   UNL A   1      45.977  23.641  34.437  1.00  0.00     0.001 A 
ATOM     73  C   UNL A   1      45.059  22.604  34.277  1.00  0.00     0.000 A 
ENDBRANCH  54  68
BRANCH  55  74
ATOM     74  C   UNL A   1      44.238  33.334  27.434  1.00  0.00    -0.014 A 
ATOM     75  C   UNL A   1      44.794  34.525  27.926  1.00  0.00     0.009 A 
ATOM     76  C   UNL A   1      43.571  33.354  26.200  1.00  0.00     0.009 A 
ATOM     77  C   UNL A   1      44.656  35.718  27.211  1.00  0.00     0.001 A 
ATOM     78  C   UNL A   1      43.457  34.544  25.476  1.00  0.00     0.001 A 
ATOM     79  C   UNL A   1      43.989  35.726  25.987  1.00  0.00     0.000 A 
ENDBRANCH  55  74
BRANCH  67  80
ATOM     80  C   UNL A   1      47.751  27.393  26.599  1.00  0.00    -0.014 A 
ATOM     81  C   UNL A   1      49.141  27.499  26.763  1.00  0.00     0.009 A 
ATOM     82  C   UNL A   1      47.245  26.786  25.439  1.00  0.00     0.009 A 
ATOM     83  C   UNL A   1      50.005  27.028  25.772  1.00  0.00     0.001 A 
ATOM     84  C   UNL A   1      48.113  26.295  24.461  1.00  0.00     0.001 A 
ATOM     85  C   UNL A   1      49.492  26.423  24.626  1.00  0.00     0.000 A 
ENDBRANCH  67  80
ENDBRANCH  41  42
ENDBRANCH  34  36
ENDBRANCH  33  34
ENDBRANCH  32  33
ENDBRANCH  31  32
ENDBRANCH  30  31
ENDBRANCH  29  30
ENDBRANCH   1  29
TORSDOF 20
ENDMDL
MODEL 3
REMARK VINA RESULT:      -9.5      3.844      5.116
REMARK SMILES CC[C@H]1CCCCN1S(=O)(=O)c1ccc2oc(C(=O)OCCOCCOCCOC(=O)c3ccc(-c4c5nc(c(-c6ccccc6)c6ccc([nH]6)c(-c6ccccc6)c6nc(c(-c7ccccc7)c7ccc4[nH]7)C=C6)C=C5)cc3)c(C)c2c1
REMARK SMILES IDX 24 1 23 2 22 3 21 4 20 5 18 6 19 7 17 8 12 9 13 10 83 11
REMARK SMILES IDX 14 12 82 13 15 14 80 15 16 16 81 17 9 18 10 19 11 20 8 21
REMARK SMILES IDX 3 22 4 23 5 24 7 25 6 26 2 27 1 28 25 29 26 30 27 31 28 32
REMARK SMILES IDX 29 33 30 34 31 35 32 36 33 37 79 38 34 39 78 40 35 41 36 42
REMARK SMILES IDX 37 43 72 44 38 45 77 46 71 47 73 48 39 49 76 50 70 51 69 52
REMARK SMILES IDX 40 54 62 55 47 56 61 57 48 58 51 59 60 60 74 61 49 62 50 63
REMARK SMILES IDX 59 65 75 66 52 67 41 68 42 69 46 70 43 71 45 72 44 73 63 74
REMARK SMILES IDX 64 75 68 76 65 77 67 78 66 79 53 80 54 81 58 82 55 83 57 84
REMARK SMILES IDX 56 85
REMARK H PARENT 73 53 51 64
REMARK Flexibility Score: inf
ROOT
ATOM      1  C   UNL A   1      35.712  21.446  25.979  1.00  0.00     0.188 C 
ENDROOT
BRANCH   1   2
ATOM      2  O   UNL A   1      34.410  21.753  26.467  1.00  0.00    -0.376 OA
BRANCH   2   3
ATOM      3  C   UNL A   1      33.518  20.709  26.829  1.00  0.00     0.202 C 
BRANCH   3   4
ATOM      4  C   UNL A   1      32.948  19.853  25.697  1.00  0.00     0.261 C 
BRANCH   4   5
ATOM      5  O   UNL A   1      31.852  20.489  25.024  1.00  0.00    -0.457 OA
BRANCH   5   6
ATOM      6  C   UNL A   1      32.139  21.040  23.810  1.00  0.00     0.374 C 
ATOM      7  O   UNL A   1      32.305  20.399  22.779  1.00  0.00    -0.242 OA
BRANCH   6   8
ATOM      8  C   UNL A   1      32.116  22.486  23.892  1.00  0.00     0.215 A 
ATOM      9  C   UNL A   1      31.587  27.001  24.307  1.00  0.00     0.083 A 
ATOM     10  C   UNL A   1      31.115  26.593  25.559  1.00  0.00     0.025 A 
ATOM     11  C   UNL A   1      32.216  26.102  23.429  1.00  0.00     0.034 A 
ATOM     12  C   UNL A   1      31.166  25.244  25.927  1.00  0.00     0.049 A 
ATOM     13  C   UNL A   1      32.164  24.734  23.736  1.00  0.00     0.025 A 
ATOM     14  C   UNL A   1      31.643  24.357  24.964  1.00  0.00     0.135 A 
ATOM     15  C   UNL A   1      32.489  23.525  23.041  1.00  0.00     0.010 A 
ATOM     16  O   UNL A   1      31.638  23.008  25.068  1.00  0.00    -0.449 OA
ATOM     17  C   UNL A   1      33.024  23.459  21.654  1.00  0.00     0.049 C 
BRANCH   9  18
ATOM     18  S   UNL A   1      31.394  28.691  23.777  1.00  0.00     0.243 S 
ATOM     19  O   UNL A   1      31.851  28.757  22.405  1.00  0.00    -0.207 OA
ATOM     20  O   UNL A   1      31.969  29.540  24.800  1.00  0.00    -0.207 OA
BRANCH  18  21
ATOM     21  N   UNL A   1      29.682  28.937  23.788  1.00  0.00    -0.195 NA
ATOM     22  C   UNL A   1      29.247  30.273  23.219  1.00  0.00     0.073 C 
ATOM     23  C   UNL A   1      27.746  30.464  23.505  1.00  0.00     0.020 C 
ATOM     24  C   UNL A   1      26.904  29.335  22.929  1.00  0.00     0.003 C 
ATOM     25  C   UNL A   1      28.865  27.792  23.285  1.00  0.00     0.103 C 
ATOM     26  C   UNL A   1      27.374  28.014  23.508  1.00  0.00     0.017 C 
BRANCH  22  27
ATOM     27  C   UNL A   1      29.630  30.420  21.730  1.00  0.00     0.017 C 
ATOM     28  C   UNL A   1      28.667  31.271  20.914  1.00  0.00     0.005 C 
ENDBRANCH  22  27
ENDBRANCH  18  21
ENDBRANCH   9  18
ENDBRANCH   6   8
ENDBRANCH   5   6
ENDBRANCH   4   5
ENDBRANCH   3   4
ENDBRANCH   2   3
ENDBRANCH   1   2
BRANCH   1  29
ATOM     29  C   UNL A   1      36.310  22.233  24.796  1.00  0.00     0.188 C 
BRANCH  29  30
ATOM     30  O   UNL A   1      37.476  22.984  25.101  1.00  0.00    -0.376 OA
BRANCH  30  31
ATOM     31  C   UNL A   1      38.505  22.276  25.779  1.00  0.00     0.202 C 
BRANCH  31  32
ATOM     32  C   UNL A   1      39.502  23.200  26.487  1.00  0.00     0.261 C 
BRANCH  32  33
ATOM     33  O   UNL A   1      39.316  24.598  26.204  1.00  0.00    -0.460 OA
BRANCH  33  34
ATOM     34  C   UNL A   1      40.436  25.350  26.123  1.00  0.00     0.338 C 
ATOM     35  O   UNL A   1      41.163  25.488  25.156  1.00  0.00    -0.246 OA
BRANCH  34  36
ATOM     36  C   UNL A   1      40.556  26.132  27.368  1.00  0.00     0.060 A 
ATOM     37  C   UNL A   1      39.602  25.941  28.374  1.00  0.00     0.016 A 
ATOM     38  C   UNL A   1      41.588  27.059  27.534  1.00  0.00     0.016 A 
ATOM     39  C   UNL A   1      39.659  26.708  29.539  1.00  0.00     0.010 A 
ATOM     40  C   UNL A   1      41.635  27.836  28.695  1.00  0.00     0.010 A 
ATOM     41  C   UNL A   1      40.652  27.688  29.688  1.00  0.00    -0.014 A 
BRANCH  41  42
ATOM     42  C   UNL A   1      40.554  28.671  30.794  1.00  0.00     0.031 A 
ATOM     43  C   UNL A   1      39.511  29.752  30.706  1.00  0.00     0.074 A 
ATOM     44  C   UNL A   1      41.357  28.598  31.871  1.00  0.00     0.049 A 
ATOM     45  N   UNL A   1      39.219  30.696  31.565  1.00  0.00    -0.248 NA
ATOM     46  C   UNL A   1      38.685  29.771  29.487  1.00  0.00     0.031 C 
ATOM     47  C   UNL A   1      42.391  27.591  32.096  1.00  0.00     0.029 A 
ATOM     48  N   UNL A   1      41.418  29.400  32.984  1.00  0.00    -0.354 N 
ATOM     49  C   UNL A   1      38.178  31.415  30.994  1.00  0.00     0.074 A 
ATOM     50  C   UNL A   1      37.907  30.820  29.703  1.00  0.00     0.031 C 
ATOM     51  C   UNL A   1      42.986  27.836  33.278  1.00  0.00     0.029 A 
ATOM     52  C   UNL A   1      42.387  29.025  33.881  1.00  0.00     0.049 A 
ATOM     53  H   UNL A   1      40.822  30.171  33.126  1.00  0.00     0.167 HD
ATOM     54  C   UNL A   1      37.499  32.472  31.499  1.00  0.00     0.031 A 
ATOM     55  C   UNL A   1      42.751  29.584  35.052  1.00  0.00     0.031 A 
ATOM     56  C   UNL A   1      37.767  33.079  32.773  1.00  0.00     0.049 A 
ATOM     57  C   UNL A   1      42.028  30.805  35.556  1.00  0.00     0.074 A 
ATOM     58  C   UNL A   1      37.107  34.134  33.379  1.00  0.00     0.029 A 
ATOM     59  N   UNL A   1      38.783  32.693  33.631  1.00  0.00    -0.354 N 
ATOM     60  N   UNL A   1      41.003  31.435  35.035  1.00  0.00    -0.248 NA
ATOM     61  C   UNL A   1      42.509  31.386  36.820  1.00  0.00     0.031 C 
ATOM     62  C   UNL A   1      37.757  34.418  34.585  1.00  0.00     0.029 A 
ATOM     63  C   UNL A   1      38.789  33.510  34.748  1.00  0.00     0.049 A 
ATOM     64  H   UNL A   1      39.407  31.949  33.470  1.00  0.00     0.167 HD
ATOM     65  C   UNL A   1      40.698  32.462  35.921  1.00  0.00     0.074 A 
ATOM     66  C   UNL A   1      41.638  32.367  37.017  1.00  0.00     0.031 C 
ATOM     67  C   UNL A   1      39.724  33.399  35.836  1.00  0.00     0.031 A 
BRANCH  54  68
ATOM     68  C   UNL A   1      36.407  33.056  30.653  1.00  0.00    -0.014 A 
ATOM     69  C   UNL A   1      35.060  32.745  30.893  1.00  0.00     0.009 A 
ATOM     70  C   UNL A   1      36.729  33.962  29.631  1.00  0.00     0.009 A 
ATOM     71  C   UNL A   1      34.056  33.314  30.108  1.00  0.00     0.001 A 
ATOM     72  C   UNL A   1      35.721  34.545  28.863  1.00  0.00     0.001 A 
ATOM     73  C   UNL A   1      34.386  34.217  29.097  1.00  0.00     0.000 A 
ENDBRANCH  54  68
BRANCH  55  74
ATOM     74  C   UNL A   1      43.871  29.008  35.844  1.00  0.00    -0.014 A 
ATOM     75  C   UNL A   1      45.187  29.454  35.649  1.00  0.00     0.009 A 
ATOM     76  C   UNL A   1      43.634  27.969  36.757  1.00  0.00     0.009 A 
ATOM     77  C   UNL A   1      46.247  28.849  36.329  1.00  0.00     0.001 A 
ATOM     78  C   UNL A   1      44.693  27.384  37.454  1.00  0.00     0.001 A 
ATOM     79  C   UNL A   1      45.999  27.816  37.231  1.00  0.00     0.000 A 
ENDBRANCH  55  74
BRANCH  67  80
ATOM     80  C   UNL A   1      39.594  34.372  36.973  1.00  0.00    -0.014 A 
ATOM     81  C   UNL A   1      40.180  35.645  36.913  1.00  0.00     0.009 A 
ATOM     82  C   UNL A   1      38.834  34.023  38.101  1.00  0.00     0.009 A 
ATOM     83  C   UNL A   1      40.028  36.542  37.973  1.00  0.00     0.001 A 
ATOM     84  C   UNL A   1      38.664  34.931  39.148  1.00  0.00     0.001 A 
ATOM     85  C   UNL A   1      39.267  36.187  39.086  1.00  0.00     0.000 A 
ENDBRANCH  67  80
ENDBRANCH  41  42
ENDBRANCH  34  36
ENDBRANCH  33  34
ENDBRANCH  32  33
ENDBRANCH  31  32
ENDBRANCH  30  31
ENDBRANCH  29  30
ENDBRANCH   1  29
TORSDOF 20
ENDMDL
