MODEL 1
REMARK VINA RESULT:     -11.3      0.000      0.000
REMARK SMILES O=C1NC(=O)/C(=C/c2ccc(OCc3cn(-c4ccc(C(=O)OCCOCCOCCOC(=O)c5ccc(-c6c7nc(c(-c8ccccc8)c8ccc([nH]8)c(-c8ccccc8)c8nc(c(-c9ccccc9)c9ccc6[nH]9)C=C8)C=C7)cc5)cc4)nn3)cc2)S1
REMARK SMILES IDX 26 1 25 2 24 3 23 4 21 5 22 6 20 7 17 8 18 9 84 10 19 11
REMARK SMILES IDX 83 12 16 13 14 14 15 15 86 16 85 17 13 18 12 19 11 20 8 21
REMARK SMILES IDX 9 22 88 23 10 24 87 25 7 26 1 27 2 28 3 29 89 30 4 31 6 33
REMARK SMILES IDX 5 34 27 35 28 36 29 37 30 38 31 39 32 40 33 41 34 42 35 43
REMARK SMILES IDX 36 44 82 45 37 46 81 47 38 48 39 49 40 50 75 51 41 52 80 53
REMARK SMILES IDX 74 54 76 55 42 56 79 57 73 58 72 59 43 61 65 62 50 63 64 64
REMARK SMILES IDX 51 65 54 66 63 67 77 68 52 69 53 70 62 72 78 73 55 74 44 75
REMARK SMILES IDX 45 76 49 77 46 78 48 79 47 80 66 81 67 82 71 83 68 84 70 85
REMARK SMILES IDX 69 86 56 87 57 88 61 89 58 90 60 91 59 92
REMARK H PARENT 3 32 76 60 54 71
REMARK Flexibility Score: inf
ROOT
ATOM      1  O   UNL A   1      34.293  31.301  27.274  1.00  0.00    -0.376 OA
ENDROOT
BRANCH   1   2
ATOM      2  C   UNL A   1      32.876  31.230  27.284  1.00  0.00     0.202 C 
BRANCH   2   3
ATOM      3  C   UNL A   1      32.012  30.360  26.345  1.00  0.00     0.261 C 
BRANCH   3   4
ATOM      4  O   UNL A   1      32.644  29.721  25.236  1.00  0.00    -0.460 OA
BRANCH   4   5
ATOM      5  C   UNL A   1      31.942  28.723  24.652  1.00  0.00     0.338 C 
ATOM      6  O   UNL A   1      30.853  28.812  24.111  1.00  0.00    -0.246 OA
BRANCH   5   7
ATOM      7  C   UNL A   1      32.782  27.512  24.581  1.00  0.00     0.060 A 
ATOM      8  C   UNL A   1      34.220  25.139  24.359  1.00  0.00     0.066 A 
ATOM      9  C   UNL A   1      33.703  25.750  23.208  1.00  0.00     0.029 A 
ATOM     10  C   UNL A   1      34.097  25.763  25.609  1.00  0.00     0.029 A 
ATOM     11  C   UNL A   1      32.950  26.914  23.327  1.00  0.00     0.018 A 
ATOM     12  C   UNL A   1      33.400  26.971  25.714  1.00  0.00     0.018 A 
BRANCH   8  13
ATOM     13  N   UNL A   1      34.757  23.837  24.243  1.00  0.00    -0.220 N 
ATOM     14  C   UNL A   1      36.072  22.102  24.395  1.00  0.00     0.120 A 
ATOM     15  C   UNL A   1      36.085  23.469  24.204  1.00  0.00     0.144 A 
ATOM     16  N   UNL A   1      34.771  21.684  24.466  1.00  0.00    -0.131 NA
ATOM     17  N   UNL A   1      33.983  22.739  24.373  1.00  0.00    -0.062 NA
BRANCH  14  18
ATOM     18  C   UNL A   1      37.190  21.144  24.645  1.00  0.00     0.289 C 
BRANCH  18  19
ATOM     19  O   UNL A   1      37.766  21.204  25.959  1.00  0.00    -0.487 OA
BRANCH  19  20
ATOM     20  C   UNL A   1      39.128  21.272  26.062  1.00  0.00     0.119 A 
ATOM     21  C   UNL A   1      41.907  21.674  25.976  1.00  0.00    -0.024 A 
ATOM     22  C   UNL A   1      41.041  22.769  26.012  1.00  0.00     0.012 A 
ATOM     23  C   UNL A   1      41.379  20.385  26.078  1.00  0.00     0.012 A 
ATOM     24  C   UNL A   1      39.658  22.564  26.051  1.00  0.00     0.047 A 
ATOM     25  C   UNL A   1      39.999  20.187  26.143  1.00  0.00     0.047 A 
BRANCH  21  26
ATOM     26  C   UNL A   1      43.353  21.866  25.840  1.00  0.00     0.029 C 
ATOM     27  O   UNL A   1      46.124  17.716  25.139  1.00  0.00    -0.261 OA
ATOM     28  C   UNL A   1      45.662  18.837  25.294  1.00  0.00     0.290 C 
ATOM     29  N   UNL A   1      46.382  19.980  25.408  1.00  0.00    -0.282 N 
ATOM     30  S   UNL A   1      43.954  19.198  25.410  1.00  0.00    -0.022 SA
ATOM     31  C   UNL A   1      45.707  21.151  25.587  1.00  0.00     0.265 C 
ATOM     32  H   UNL A   1      47.365  19.965  25.363  1.00  0.00     0.174 HD
ATOM     33  C   UNL A   1      44.245  20.886  25.634  1.00  0.00     0.083 C 
ATOM     34  O   UNL A   1      46.231  22.246  25.707  1.00  0.00    -0.268 OA
ENDBRANCH  21  26
ENDBRANCH  19  20
ENDBRANCH  18  19
ENDBRANCH  14  18
ENDBRANCH   8  13
ENDBRANCH   5   7
ENDBRANCH   4   5
ENDBRANCH   3   4
ENDBRANCH   2   3
ENDBRANCH   1   2
BRANCH   1  35
ATOM     35  C   UNL A   1      34.952  32.436  27.784  1.00  0.00     0.188 C 
BRANCH  35  36
ATOM     36  C   UNL A   1      34.334  33.012  29.074  1.00  0.00     0.188 C 
BRANCH  36  37
ATOM     37  O   UNL A   1      34.219  34.411  29.273  1.00  0.00    -0.376 OA
BRANCH  37  38
ATOM     38  C   UNL A   1      32.987  35.031  29.607  1.00  0.00     0.202 C 
BRANCH  38  39
ATOM     39  C   UNL A   1      32.872  36.316  30.425  1.00  0.00     0.261 C 
BRANCH  39  40
ATOM     40  O   UNL A   1      33.449  36.303  31.716  1.00  0.00    -0.460 OA
BRANCH  40  41
ATOM     41  C   UNL A   1      33.121  35.207  32.430  1.00  0.00     0.338 C 
ATOM     42  O   UNL A   1      32.015  34.880  32.826  1.00  0.00    -0.246 OA
BRANCH  41  43
ATOM     43  C   UNL A   1      34.348  34.509  32.807  1.00  0.00     0.060 A 
ATOM     44  C   UNL A   1      35.510  35.275  32.904  1.00  0.00     0.016 A 
ATOM     45  C   UNL A   1      34.372  33.109  32.745  1.00  0.00     0.016 A 
ATOM     46  C   UNL A   1      36.720  34.637  32.748  1.00  0.00     0.010 A 
ATOM     47  C   UNL A   1      35.579  32.478  32.567  1.00  0.00     0.010 A 
ATOM     48  C   UNL A   1      36.730  33.260  32.493  1.00  0.00    -0.014 A 
BRANCH  48  49
ATOM     49  C   UNL A   1      38.008  32.623  32.266  1.00  0.00     0.031 A 
ATOM     50  C   UNL A   1      38.829  32.558  33.489  1.00  0.00     0.074 A 
ATOM     51  C   UNL A   1      38.355  32.069  31.089  1.00  0.00     0.049 A 
ATOM     52  N   UNL A   1      39.921  33.201  33.727  1.00  0.00    -0.248 NA
ATOM     53  C   UNL A   1      38.280  31.837  34.650  1.00  0.00     0.031 C 
ATOM     54  C   UNL A   1      37.507  31.861  29.912  1.00  0.00     0.029 A 
ATOM     55  N   UNL A   1      39.522  31.461  30.739  1.00  0.00    -0.354 N 
ATOM     56  C   UNL A   1      40.321  32.785  34.989  1.00  0.00     0.074 A 
ATOM     57  C   UNL A   1      39.186  32.127  35.584  1.00  0.00     0.031 C 
ATOM     58  C   UNL A   1      38.106  30.974  29.085  1.00  0.00     0.029 A 
ATOM     59  C   UNL A   1      39.424  30.655  29.611  1.00  0.00     0.049 A 
ATOM     60  H   UNL A   1      40.361  31.583  31.239  1.00  0.00     0.167 HD
ATOM     61  C   UNL A   1      41.641  32.715  35.303  1.00  0.00     0.031 A 
ATOM     62  C   UNL A   1      40.334  29.741  29.190  1.00  0.00     0.031 A 
ATOM     63  C   UNL A   1      42.445  33.510  34.406  1.00  0.00     0.049 A 
ATOM     64  C   UNL A   1      41.627  30.061  29.832  1.00  0.00     0.074 A 
ATOM     65  C   UNL A   1      42.474  34.841  34.039  1.00  0.00     0.029 A 
ATOM     66  N   UNL A   1      43.142  32.830  33.438  1.00  0.00    -0.354 N 
ATOM     67  N   UNL A   1      42.342  31.103  29.529  1.00  0.00    -0.248 NA
ATOM     68  C   UNL A   1      41.938  29.444  31.112  1.00  0.00     0.031 C 
ATOM     69  C   UNL A   1      42.810  34.838  32.652  1.00  0.00     0.029 A 
ATOM     70  C   UNL A   1      43.036  33.518  32.259  1.00  0.00     0.049 A 
ATOM     71  H   UNL A   1      43.636  31.989  33.570  1.00  0.00     0.167 HD
ATOM     72  C   UNL A   1      42.832  31.553  30.746  1.00  0.00     0.074 A 
ATOM     73  C   UNL A   1      42.666  30.422  31.657  1.00  0.00     0.031 C 
ATOM     74  C   UNL A   1      43.046  32.885  30.959  1.00  0.00     0.031 A 
BRANCH  61  75
ATOM     75  C   UNL A   1      42.214  31.543  36.066  1.00  0.00    -0.014 A 
ATOM     76  C   UNL A   1      43.112  31.801  37.114  1.00  0.00     0.009 A 
ATOM     77  C   UNL A   1      42.150  30.212  35.603  1.00  0.00     0.009 A 
ATOM     78  C   UNL A   1      43.957  30.800  37.608  1.00  0.00     0.001 A 
ATOM     79  C   UNL A   1      42.958  29.201  36.124  1.00  0.00     0.001 A 
ATOM     80  C   UNL A   1      43.885  29.503  37.106  1.00  0.00     0.000 A 
ENDBRANCH  61  75
BRANCH  62  81
ATOM     81  C   UNL A   1      40.124  28.456  28.485  1.00  0.00    -0.014 A 
ATOM     82  C   UNL A   1      40.796  28.188  27.280  1.00  0.00     0.009 A 
ATOM     83  C   UNL A   1      39.497  27.380  29.136  1.00  0.00     0.009 A 
ATOM     84  C   UNL A   1      40.885  26.883  26.777  1.00  0.00     0.001 A 
ATOM     85  C   UNL A   1      39.579  26.078  28.631  1.00  0.00     0.001 A 
ATOM     86  C   UNL A   1      40.290  25.826  27.462  1.00  0.00     0.000 A 
ENDBRANCH  62  81
BRANCH  74  87
ATOM     87  C   UNL A   1      43.065  33.794  29.753  1.00  0.00    -0.014 A 
ATOM     88  C   UNL A   1      42.003  34.645  29.395  1.00  0.00     0.009 A 
ATOM     89  C   UNL A   1      44.248  33.861  29.003  1.00  0.00     0.009 A 
ATOM     90  C   UNL A   1      42.108  35.493  28.287  1.00  0.00     0.001 A 
ATOM     91  C   UNL A   1      44.363  34.727  27.914  1.00  0.00     0.001 A 
ATOM     92  C   UNL A   1      43.288  35.534  27.549  1.00  0.00     0.000 A 
ENDBRANCH  74  87
ENDBRANCH  48  49
ENDBRANCH  41  43
ENDBRANCH  40  41
ENDBRANCH  39  40
ENDBRANCH  38  39
ENDBRANCH  37  38
ENDBRANCH  36  37
ENDBRANCH  35  36
ENDBRANCH   1  35
TORSDOF 22
ENDMDL
MODEL 2
REMARK VINA RESULT:     -11.0      3.887      7.878
REMARK SMILES O=C1NC(=O)/C(=C/c2ccc(OCc3cn(-c4ccc(C(=O)OCCOCCOCCOC(=O)c5ccc(-c6c7nc(c(-c8ccccc8)c8ccc([nH]8)c(-c8ccccc8)c8nc(c(-c9ccccc9)c9ccc6[nH]9)C=C8)C=C7)cc5)cc4)nn3)cc2)S1
REMARK SMILES IDX 26 1 25 2 24 3 23 4 21 5 22 6 20 7 17 8 18 9 84 10 19 11
REMARK SMILES IDX 83 12 16 13 14 14 15 15 86 16 85 17 13 18 12 19 11 20 8 21
REMARK SMILES IDX 9 22 88 23 10 24 87 25 7 26 1 27 2 28 3 29 89 30 4 31 6 33
REMARK SMILES IDX 5 34 27 35 28 36 29 37 30 38 31 39 32 40 33 41 34 42 35 43
REMARK SMILES IDX 36 44 82 45 37 46 81 47 38 48 39 49 40 50 75 51 41 52 80 53
REMARK SMILES IDX 74 54 76 55 42 56 79 57 73 58 72 59 43 61 65 62 50 63 64 64
REMARK SMILES IDX 51 65 54 66 63 67 77 68 52 69 53 70 62 72 78 73 55 74 44 75
REMARK SMILES IDX 45 76 49 77 46 78 48 79 47 80 66 81 67 82 71 83 68 84 70 85
REMARK SMILES IDX 69 86 56 87 57 88 61 89 58 90 60 91 59 92
REMARK H PARENT 3 32 76 60 54 71
REMARK Flexibility Score: inf
ROOT
ATOM      1  O   UNL A   1      36.371  32.329  34.060  1.00  0.00    -0.376 OA
ENDROOT
BRANCH   1   2
ATOM      2  C   UNL A   1      36.750  32.271  32.695  1.00  0.00     0.202 C 
BRANCH   2   3
ATOM      3  C   UNL A   1      36.070  33.037  31.539  1.00  0.00     0.261 C 
BRANCH   3   4
ATOM      4  O   UNL A   1      35.346  32.290  30.561  1.00  0.00    -0.460 OA
BRANCH   4   5
ATOM      5  C   UNL A   1      35.912  32.222  29.334  1.00  0.00     0.338 C 
ATOM      6  O   UNL A   1      37.011  32.636  29.008  1.00  0.00    -0.246 OA
BRANCH   5   7
ATOM      7  C   UNL A   1      35.075  31.378  28.458  1.00  0.00     0.060 A 
ATOM      8  C   UNL A   1      33.649  29.772  26.688  1.00  0.00     0.066 A 
ATOM      9  C   UNL A   1      34.847  29.301  27.244  1.00  0.00     0.029 A 
ATOM     10  C   UNL A   1      33.118  31.006  27.088  1.00  0.00     0.029 A 
ATOM     11  C   UNL A   1      35.578  30.124  28.097  1.00  0.00     0.018 A 
ATOM     12  C   UNL A   1      33.821  31.800  28.000  1.00  0.00     0.018 A 
BRANCH   8  13
ATOM     13  N   UNL A   1      33.061  29.029  25.639  1.00  0.00    -0.220 N 
ATOM     14  C   UNL A   1      31.632  27.938  24.403  1.00  0.00     0.120 A 
ATOM     15  C   UNL A   1      32.007  28.144  25.714  1.00  0.00     0.144 A 
ATOM     16  N   UNL A   1      32.493  28.624  23.590  1.00  0.00    -0.131 NA
ATOM     17  N   UNL A   1      33.353  29.281  24.345  1.00  0.00    -0.062 NA
BRANCH  14  18
ATOM     18  C   UNL A   1      30.442  27.240  23.830  1.00  0.00     0.289 C 
BRANCH  18  19
ATOM     19  O   UNL A   1      30.712  26.399  22.698  1.00  0.00    -0.487 OA
BRANCH  19  20
ATOM     20  C   UNL A   1      31.507  25.302  22.886  1.00  0.00     0.119 A 
ATOM     21  C   UNL A   1      33.170  23.170  23.648  1.00  0.00    -0.024 A 
ATOM     22  C   UNL A   1      32.044  23.490  24.411  1.00  0.00     0.012 A 
ATOM     23  C   UNL A   1      33.403  23.862  22.457  1.00  0.00     0.012 A 
ATOM     24  C   UNL A   1      31.221  24.554  24.029  1.00  0.00     0.047 A 
ATOM     25  C   UNL A   1      32.563  24.906  22.068  1.00  0.00     0.047 A 
BRANCH  21  26
ATOM     26  C   UNL A   1      34.096  22.121  24.082  1.00  0.00     0.029 C 
ATOM     27  O   UNL A   1      32.084  17.611  25.079  1.00  0.00    -0.261 OA
ATOM     28  C   UNL A   1      32.780  18.599  24.894  1.00  0.00     0.290 C 
ATOM     29  N   UNL A   1      34.109  18.688  25.143  1.00  0.00    -0.282 N 
ATOM     30  S   UNL A   1      32.190  20.122  24.267  1.00  0.00    -0.022 SA
ATOM     31  C   UNL A   1      34.733  19.872  24.888  1.00  0.00     0.265 C 
ATOM     32  H   UNL A   1      34.609  17.918  25.500  1.00  0.00     0.174 HD
ATOM     33  C   UNL A   1      33.748  20.860  24.376  1.00  0.00     0.083 C 
ATOM     34  O   UNL A   1      35.921  20.087  25.071  1.00  0.00    -0.268 OA
ENDBRANCH  21  26
ENDBRANCH  19  20
ENDBRANCH  18  19
ENDBRANCH  14  18
ENDBRANCH   8  13
ENDBRANCH   5   7
ENDBRANCH   4   5
ENDBRANCH   3   4
ENDBRANCH   2   3
ENDBRANCH   1   2
BRANCH   1  35
ATOM     35  C   UNL A   1      36.329  33.565  34.735  1.00  0.00     0.188 C 
BRANCH  35  36
ATOM     36  C   UNL A   1      37.666  33.996  35.369  1.00  0.00     0.188 C 
BRANCH  36  37
ATOM     37  O   UNL A   1      38.703  33.059  35.608  1.00  0.00    -0.376 OA
BRANCH  37  38
ATOM     38  C   UNL A   1      39.879  33.010  34.817  1.00  0.00     0.202 C 
BRANCH  38  39
ATOM     39  C   UNL A   1      40.200  34.004  33.702  1.00  0.00     0.261 C 
BRANCH  39  40
ATOM     40  O   UNL A   1      40.936  33.509  32.600  1.00  0.00    -0.460 OA
BRANCH  40  41
ATOM     41  C   UNL A   1      40.233  33.511  31.450  1.00  0.00     0.338 C 
ATOM     42  O   UNL A   1      39.356  34.289  31.115  1.00  0.00    -0.246 OA
BRANCH  41  43
ATOM     43  C   UNL A   1      40.578  32.314  30.687  1.00  0.00     0.060 A 
ATOM     44  C   UNL A   1      39.650  31.273  30.686  1.00  0.00     0.016 A 
ATOM     45  C   UNL A   1      41.906  32.139  30.272  1.00  0.00     0.016 A 
ATOM     46  C   UNL A   1      40.107  29.998  30.442  1.00  0.00     0.010 A 
ATOM     47  C   UNL A   1      42.364  30.864  30.051  1.00  0.00     0.010 A 
ATOM     48  C   UNL A   1      41.476  29.803  30.216  1.00  0.00    -0.014 A 
BRANCH  48  49
ATOM     49  C   UNL A   1      41.945  28.448  30.029  1.00  0.00     0.031 A 
ATOM     50  C   UNL A   1      42.722  27.959  31.182  1.00  0.00     0.074 A 
ATOM     51  C   UNL A   1      41.615  27.696  28.962  1.00  0.00     0.049 A 
ATOM     52  N   UNL A   1      43.986  27.702  31.214  1.00  0.00    -0.248 NA
ATOM     53  C   UNL A   1      42.059  27.922  32.496  1.00  0.00     0.031 C 
ATOM     54  C   UNL A   1      40.646  28.011  27.909  1.00  0.00     0.029 A 
ATOM     55  N   UNL A   1      41.999  26.426  28.657  1.00  0.00    -0.354 N 
ATOM     56  C   UNL A   1      44.233  27.250  32.503  1.00  0.00     0.074 A 
ATOM     57  C   UNL A   1      43.081  27.604  33.291  1.00  0.00     0.031 C 
ATOM     58  C   UNL A   1      40.345  26.880  27.231  1.00  0.00     0.029 A 
ATOM     59  C   UNL A   1      41.189  25.799  27.717  1.00  0.00     0.049 A 
ATOM     60  H   UNL A   1      42.782  25.990  29.065  1.00  0.00     0.167 HD
ATOM     61  C   UNL A   1      45.205  26.329  32.732  1.00  0.00     0.031 A 
ATOM     62  C   UNL A   1      41.170  24.476  27.421  1.00  0.00     0.031 A 
ATOM     63  C   UNL A   1      46.152  26.271  31.645  1.00  0.00     0.049 A 
ATOM     64  C   UNL A   1      42.441  23.888  27.898  1.00  0.00     0.074 A 
ATOM     65  C   UNL A   1      46.985  27.180  31.024  1.00  0.00     0.029 A 
ATOM     66  N   UNL A   1      46.033  25.209  30.782  1.00  0.00    -0.354 N 
ATOM     67  N   UNL A   1      43.595  24.127  27.348  1.00  0.00    -0.248 NA
ATOM     68  C   UNL A   1      42.494  23.352  29.249  1.00  0.00     0.031 C 
ATOM     69  C   UNL A   1      46.974  26.816  29.645  1.00  0.00     0.029 A 
ATOM     70  C   UNL A   1      46.194  25.667  29.502  1.00  0.00     0.049 A 
ATOM     71  H   UNL A   1      45.861  24.275  31.040  1.00  0.00     0.167 HD
ATOM     72  C   UNL A   1      44.471  24.235  28.418  1.00  0.00     0.074 A 
ATOM     73  C   UNL A   1      43.770  23.616  29.541  1.00  0.00     0.031 C 
ATOM     74  C   UNL A   1      45.545  25.076  28.352  1.00  0.00     0.031 A 
BRANCH  61  75
ATOM     75  C   UNL A   1      44.987  25.162  33.667  1.00  0.00    -0.014 A 
ATOM     76  C   UNL A   1      44.001  24.217  33.339  1.00  0.00     0.009 A 
ATOM     77  C   UNL A   1      45.485  25.123  34.987  1.00  0.00     0.009 A 
ATOM     78  C   UNL A   1      43.485  23.343  34.304  1.00  0.00     0.001 A 
ATOM     79  C   UNL A   1      45.006  24.223  35.939  1.00  0.00     0.001 A 
ATOM     80  C   UNL A   1      43.982  23.353  35.605  1.00  0.00     0.000 A 
ENDBRANCH  61  75
BRANCH  62  81
ATOM     81  C   UNL A   1      40.040  23.620  26.995  1.00  0.00    -0.014 A 
ATOM     82  C   UNL A   1      38.823  24.198  26.592  1.00  0.00     0.009 A 
ATOM     83  C   UNL A   1      40.245  22.261  26.705  1.00  0.00     0.009 A 
ATOM     84  C   UNL A   1      37.874  23.457  25.875  1.00  0.00     0.001 A 
ATOM     85  C   UNL A   1      39.294  21.519  25.995  1.00  0.00     0.001 A 
ATOM     86  C   UNL A   1      38.118  22.122  25.564  1.00  0.00     0.000 A 
ENDBRANCH  62  81
BRANCH  74  87
ATOM     87  C   UNL A   1      45.940  25.606  26.994  1.00  0.00    -0.014 A 
ATOM     88  C   UNL A   1      45.275  26.658  26.339  1.00  0.00     0.009 A 
ATOM     89  C   UNL A   1      47.094  25.079  26.396  1.00  0.00     0.009 A 
ATOM     90  C   UNL A   1      45.722  27.127  25.099  1.00  0.00     0.001 A 
ATOM     91  C   UNL A   1      47.557  25.564  25.172  1.00  0.00     0.001 A 
ATOM     92  C   UNL A   1      46.864  26.580  24.517  1.00  0.00     0.000 A 
ENDBRANCH  74  87
ENDBRANCH  48  49
ENDBRANCH  41  43
ENDBRANCH  40  41
ENDBRANCH  39  40
ENDBRANCH  38  39
ENDBRANCH  37  38
ENDBRANCH  36  37
ENDBRANCH  35  36
ENDBRANCH   1  35
TORSDOF 22
ENDMDL
MODEL 3
REMARK VINA RESULT:     -10.2      3.230      7.783
REMARK SMILES O=C1NC(=O)/C(=C/c2ccc(OCc3cn(-c4ccc(C(=O)OCCOCCOCCOC(=O)c5ccc(-c6c7nc(c(-c8ccccc8)c8ccc([nH]8)c(-c8ccccc8)c8nc(c(-c9ccccc9)c9ccc6[nH]9)C=C8)C=C7)cc5)cc4)nn3)cc2)S1
REMARK SMILES IDX 26 1 25 2 24 3 23 4 21 5 22 6 20 7 17 8 18 9 84 10 19 11
REMARK SMILES IDX 83 12 16 13 14 14 15 15 86 16 85 17 13 18 12 19 11 20 8 21
REMARK SMILES IDX 9 22 88 23 10 24 87 25 7 26 1 27 2 28 3 29 89 30 4 31 6 33
REMARK SMILES IDX 5 34 27 35 28 36 29 37 30 38 31 39 32 40 33 41 34 42 35 43
REMARK SMILES IDX 36 44 82 45 37 46 81 47 38 48 39 49 40 50 75 51 41 52 80 53
REMARK SMILES IDX 74 54 76 55 42 56 79 57 73 58 72 59 43 61 65 62 50 63 64 64
REMARK SMILES IDX 51 65 54 66 63 67 77 68 52 69 53 70 62 72 78 73 55 74 44 75
REMARK SMILES IDX 45 76 49 77 46 78 48 79 47 80 66 81 67 82 71 83 68 84 70 85
REMARK SMILES IDX 69 86 56 87 57 88 61 89 58 90 60 91 59 92
REMARK H PARENT 3 32 76 60 54 71
REMARK Flexibility Score: inf
ROOT
ATOM      1  O   UNL A   1      39.974  27.355  28.800  1.00  0.00    -0.376 OA
ENDROOT
BRANCH   1   2
ATOM      2  C   UNL A   1      41.292  27.102  28.343  1.00  0.00     0.202 C 
BRANCH   2   3
ATOM      3  C   UNL A   1      42.166  25.891  28.739  1.00  0.00     0.261 C 
BRANCH   3   4
ATOM      4  O   UNL A   1      41.607  24.583  28.622  1.00  0.00    -0.460 OA
BRANCH   4   5
ATOM      5  C   UNL A   1      41.743  23.990  27.413  1.00  0.00     0.338 C 
ATOM      6  O   UNL A   1      42.785  23.691  26.856  1.00  0.00    -0.246 OA
BRANCH   5   7
ATOM      7  C   UNL A   1      40.416  23.563  26.928  1.00  0.00     0.060 A 
ATOM      8  C   UNL A   1      38.000  22.695  25.852  1.00  0.00     0.066 A 
ATOM      9  C   UNL A   1      39.057  21.788  26.013  1.00  0.00     0.029 A 
ATOM     10  C   UNL A   1      38.121  24.013  26.315  1.00  0.00     0.029 A 
ATOM     11  C   UNL A   1      40.277  22.235  26.513  1.00  0.00     0.018 A 
ATOM     12  C   UNL A   1      39.326  24.440  26.882  1.00  0.00     0.018 A 
BRANCH   8  13
ATOM     13  N   UNL A   1      36.869  22.281  25.114  1.00  0.00    -0.220 N 
ATOM     14  C   UNL A   1      34.818  21.839  24.514  1.00  0.00     0.120 A 
ATOM     15  C   UNL A   1      35.671  21.801  25.598  1.00  0.00     0.144 A 
ATOM     16  N   UNL A   1      35.524  22.255  23.418  1.00  0.00    -0.131 NA
ATOM     17  N   UNL A   1      36.762  22.520  23.789  1.00  0.00    -0.062 NA
BRANCH  14  18
ATOM     18  C   UNL A   1      33.341  21.632  24.430  1.00  0.00     0.289 C 
BRANCH  18  19
ATOM     19  O   UNL A   1      32.728  22.081  23.212  1.00  0.00    -0.487 OA
BRANCH  19  20
ATOM     20  C   UNL A   1      32.342  23.391  23.130  1.00  0.00     0.119 A 
ATOM     21  C   UNL A   1      31.181  25.941  22.922  1.00  0.00    -0.024 A 
ATOM     22  C   UNL A   1      30.649  24.997  23.803  1.00  0.00     0.012 A 
ATOM     23  C   UNL A   1      32.348  25.632  22.219  1.00  0.00     0.012 A 
ATOM     24  C   UNL A   1      31.228  23.728  23.902  1.00  0.00     0.047 A 
ATOM     25  C   UNL A   1      32.936  24.372  22.340  1.00  0.00     0.047 A 
BRANCH  21  26
ATOM     26  C   UNL A   1      30.534  27.241  22.735  1.00  0.00     0.029 C 
ATOM     27  O   UNL A   1      31.712  30.843  26.056  1.00  0.00    -0.261 OA
ATOM     28  C   UNL A   1      31.289  30.138  25.151  1.00  0.00     0.290 C 
ATOM     29  N   UNL A   1      30.345  30.496  24.246  1.00  0.00    -0.282 N 
ATOM     30  S   UNL A   1      31.817  28.500  24.841  1.00  0.00    -0.022 SA
ATOM     31  C   UNL A   1      29.978  29.583  23.304  1.00  0.00     0.265 C 
ATOM     32  H   UNL A   1      29.936  31.392  24.270  1.00  0.00     0.174 HD
ATOM     33  C   UNL A   1      30.734  28.319  23.507  1.00  0.00     0.083 C 
ATOM     34  O   UNL A   1      29.141  29.775  22.437  1.00  0.00    -0.268 OA
ENDBRANCH  21  26
ENDBRANCH  19  20
ENDBRANCH  18  19
ENDBRANCH  14  18
ENDBRANCH   8  13
ENDBRANCH   5   7
ENDBRANCH   4   5
ENDBRANCH   3   4
ENDBRANCH   2   3
ENDBRANCH   1   2
BRANCH   1  35
ATOM     35  C   UNL A   1      39.371  28.608  28.573  1.00  0.00     0.188 C 
BRANCH  35  36
ATOM     36  C   UNL A   1      37.913  28.718  29.065  1.00  0.00     0.188 C 
BRANCH  36  37
ATOM     37  O   UNL A   1      37.151  29.894  28.849  1.00  0.00    -0.376 OA
BRANCH  37  38
ATOM     38  C   UNL A   1      35.890  29.872  28.201  1.00  0.00     0.202 C 
BRANCH  38  39
ATOM     39  C   UNL A   1      35.223  31.102  27.588  1.00  0.00     0.261 C 
BRANCH  39  40
ATOM     40  O   UNL A   1      35.640  32.362  28.078  1.00  0.00    -0.460 OA
BRANCH  40  41
ATOM     41  C   UNL A   1      34.816  32.862  29.020  1.00  0.00     0.338 C 
ATOM     42  O   UNL A   1      33.676  33.270  28.871  1.00  0.00    -0.246 OA
BRANCH  41  43
ATOM     43  C   UNL A   1      35.558  32.992  30.271  1.00  0.00     0.060 A 
ATOM     44  C   UNL A   1      36.657  33.850  30.271  1.00  0.00     0.016 A 
ATOM     45  C   UNL A   1      35.340  32.047  31.285  1.00  0.00     0.016 A 
ATOM     46  C   UNL A   1      37.649  33.632  31.200  1.00  0.00     0.010 A 
ATOM     47  C   UNL A   1      36.341  31.817  32.196  1.00  0.00     0.010 A 
ATOM     48  C   UNL A   1      37.515  32.560  32.092  1.00  0.00    -0.014 A 
BRANCH  48  49
ATOM     49  C   UNL A   1      38.600  32.308  33.014  1.00  0.00     0.031 A 
ATOM     50  C   UNL A   1      38.474  33.092  34.257  1.00  0.00     0.074 A 
ATOM     51  C   UNL A   1      39.554  31.385  32.792  1.00  0.00     0.049 A 
ATOM     52  N   UNL A   1      39.232  34.061  34.643  1.00  0.00    -0.248 NA
ATOM     53  C   UNL A   1      37.266  32.898  35.076  1.00  0.00     0.031 C 
ATOM     54  C   UNL A   1      39.607  30.391  31.717  1.00  0.00     0.029 A 
ATOM     55  N   UNL A   1      40.631  31.063  33.561  1.00  0.00    -0.354 N 
ATOM     56  C   UNL A   1      38.725  34.450  35.875  1.00  0.00     0.074 A 
ATOM     57  C   UNL A   1      37.417  33.859  35.987  1.00  0.00     0.031 C 
ATOM     58  C   UNL A   1      40.514  29.439  32.036  1.00  0.00     0.029 A 
ATOM     59  C   UNL A   1      41.188  29.824  33.267  1.00  0.00     0.049 A 
ATOM     60  H   UNL A   1      40.984  31.657  34.263  1.00  0.00     0.167 HD
ATOM     61  C   UNL A   1      39.554  34.939  36.835  1.00  0.00     0.031 A 
ATOM     62  C   UNL A   1      42.083  29.140  34.023  1.00  0.00     0.031 A 
ATOM     63  C   UNL A   1      40.803  35.397  36.278  1.00  0.00     0.049 A 
ATOM     64  C   UNL A   1      42.718  30.100  34.951  1.00  0.00     0.074 A 
ATOM     65  C   UNL A   1      41.165  36.322  35.319  1.00  0.00     0.029 A 
ATOM     66  N   UNL A   1      41.891  34.577  36.448  1.00  0.00    -0.354 N 
ATOM     67  N   UNL A   1      43.551  31.024  34.571  1.00  0.00    -0.248 NA
ATOM     68  C   UNL A   1      42.115  30.306  36.258  1.00  0.00     0.031 C 
ATOM     69  C   UNL A   1      42.287  35.748  34.651  1.00  0.00     0.029 A 
ATOM     70  C   UNL A   1      42.597  34.540  35.276  1.00  0.00     0.049 A 
ATOM     71  H   UNL A   1      42.125  34.096  37.275  1.00  0.00     0.167 HD
ATOM     72  C   UNL A   1      43.214  32.129  35.338  1.00  0.00     0.074 A 
ATOM     73  C   UNL A   1      42.426  31.591  36.444  1.00  0.00     0.031 C 
ATOM     74  C   UNL A   1      43.359  33.392  34.837  1.00  0.00     0.031 A 
BRANCH  61  75
ATOM     75  C   UNL A   1      39.429  34.515  38.281  1.00  0.00    -0.014 A 
ATOM     76  C   UNL A   1      39.293  33.147  38.568  1.00  0.00     0.009 A 
ATOM     77  C   UNL A   1      39.133  35.412  39.328  1.00  0.00     0.009 A 
ATOM     78  C   UNL A   1      38.805  32.711  39.806  1.00  0.00     0.001 A 
ATOM     79  C   UNL A   1      38.689  34.980  40.578  1.00  0.00     0.001 A 
ATOM     80  C   UNL A   1      38.496  33.628  40.806  1.00  0.00     0.000 A 
ENDBRANCH  61  75
BRANCH  62  81
ATOM     81  C   UNL A   1      42.250  27.679  34.195  1.00  0.00    -0.014 A 
ATOM     82  C   UNL A   1      43.450  27.051  33.819  1.00  0.00     0.009 A 
ATOM     83  C   UNL A   1      41.354  26.950  34.995  1.00  0.00     0.009 A 
ATOM     84  C   UNL A   1      43.765  25.764  34.273  1.00  0.00     0.001 A 
ATOM     85  C   UNL A   1      41.665  25.661  35.443  1.00  0.00     0.001 A 
ATOM     86  C   UNL A   1      42.878  25.076  35.098  1.00  0.00     0.000 A 
ENDBRANCH  62  81
BRANCH  74  87
ATOM     87  C   UNL A   1      44.199  33.561  33.593  1.00  0.00    -0.014 A 
ATOM     88  C   UNL A   1      45.582  33.819  33.608  1.00  0.00     0.009 A 
ATOM     89  C   UNL A   1      43.579  33.354  32.352  1.00  0.00     0.009 A 
ATOM     90  C   UNL A   1      46.305  33.922  32.415  1.00  0.00     0.001 A 
ATOM     91  C   UNL A   1      44.305  33.430  31.162  1.00  0.00     0.001 A 
ATOM     92  C   UNL A   1      45.666  33.726  31.193  1.00  0.00     0.000 A 
ENDBRANCH  74  87
ENDBRANCH  48  49
ENDBRANCH  41  43
ENDBRANCH  40  41
ENDBRANCH  39  40
ENDBRANCH  38  39
ENDBRANCH  37  38
ENDBRANCH  36  37
ENDBRANCH  35  36
ENDBRANCH   1  35
TORSDOF 22
ENDMDL
