MODEL 1
REMARK VINA RESULT:      -9.7      0.000      0.000
REMARK SMILES CN(C(=O)C[C@](C)(C(=O)OCCOCCOCCOC(=O)c1ccc(-c2c3nc(c(-c4ccccc4)c4ccc([nH]4)c(-c4ccccc4)c4nc(c(-c5ccccc5)c5ccc2[nH]5)C=C4)C=C3)cc1)c1ccccc1)[C@@H]1CCSC1
REMARK SMILES IDX 14 1 13 2 12 3 11 4 10 5 8 6 9 7 6 8 7 9 5 10 3 11 4 12 2 13
REMARK SMILES IDX 1 14 76 15 77 16 80 17 78 18 79 19 70 20 71 21 75 22 72 23
REMARK SMILES IDX 74 24 73 25 15 26 16 27 17 28 18 29 19 30 20 31 21 32 22 33
REMARK SMILES IDX 23 34 69 35 24 36 68 37 25 38 26 39 27 40 62 41 28 42 67 43
REMARK SMILES IDX 61 44 63 45 29 46 66 47 60 48 59 49 30 51 52 52 37 53 51 54
REMARK SMILES IDX 38 55 41 56 50 57 64 58 39 59 40 60 49 62 65 63 42 64 31 65
REMARK SMILES IDX 32 66 36 67 33 68 35 69 34 70 53 71 54 72 58 73 55 74 57 75
REMARK SMILES IDX 56 76 43 77 44 78 48 79 45 80 47 81 46 82
REMARK H PARENT 63 50 41 61
REMARK Flexibility Score: inf
ROOT
ATOM      1  C   UNL A   1      33.278  33.762  28.024  1.00  0.00     0.188 C 
ENDROOT
BRANCH   1   2
ATOM      2  O   UNL A   1      33.981  32.659  27.469  1.00  0.00    -0.376 OA
BRANCH   2   3
ATOM      3  C   UNL A   1      33.655  31.352  27.945  1.00  0.00     0.202 C 
BRANCH   3   4
ATOM      4  C   UNL A   1      33.927  30.149  27.025  1.00  0.00     0.261 C 
BRANCH   4   5
ATOM      5  O   UNL A   1      33.139  30.142  25.814  1.00  0.00    -0.463 OA
BRANCH   5   6
ATOM      6  C   UNL A   1      32.091  29.272  25.756  1.00  0.00     0.316 C 
ATOM      7  O   UNL A   1      31.401  29.000  26.735  1.00  0.00    -0.251 OA
BRANCH   6   8
ATOM      8  C   UNL A   1      31.809  28.709  24.315  1.00  0.00     0.099 C 
ATOM      9  C   UNL A   1      33.058  28.934  23.401  1.00  0.00     0.029 C 
BRANCH   8  10
ATOM     10  C   UNL A   1      31.507  27.178  24.510  1.00  0.00     0.123 C 
BRANCH  10  11
ATOM     11  C   UNL A   1      32.703  26.267  24.366  1.00  0.00     0.224 C 
ATOM     12  O   UNL A   1      33.655  26.457  25.122  1.00  0.00    -0.275 OA
BRANCH  11  13
ATOM     13  N   UNL A   1      32.719  25.337  23.330  1.00  0.00    -0.342 N 
ATOM     14  C   UNL A   1      33.261  25.615  22.000  1.00  0.00     0.147 C 
BRANCH  13  15
ATOM     15  C   UNL A   1      32.114  23.992  23.481  1.00  0.00     0.095 C 
ATOM     16  C   UNL A   1      31.942  23.605  24.950  1.00  0.00     0.037 C 
ATOM     17  C   UNL A   1      32.787  22.801  22.769  1.00  0.00     0.094 C 
ATOM     18  C   UNL A   1      33.232  22.948  25.401  1.00  0.00     0.072 C 
ATOM     19  S   UNL A   1      33.619  21.806  24.052  1.00  0.00    -0.160 SA
ENDBRANCH  13  15
ENDBRANCH  11  13
ENDBRANCH  10  11
ENDBRANCH   8  10
BRANCH   8  20
ATOM     20  C   UNL A   1      30.470  29.322  23.759  1.00  0.00    -0.030 A 
ATOM     21  C   UNL A   1      30.135  30.660  24.084  1.00  0.00     0.005 A 
ATOM     22  C   UNL A   1      29.482  28.582  23.085  1.00  0.00     0.005 A 
ATOM     23  C   UNL A   1      28.886  31.213  23.783  1.00  0.00     0.000 A 
ATOM     24  C   UNL A   1      28.219  29.133  22.806  1.00  0.00     0.000 A 
ATOM     25  C   UNL A   1      27.920  30.445  23.153  1.00  0.00     0.000 A 
ENDBRANCH   8  20
ENDBRANCH   6   8
ENDBRANCH   5   6
ENDBRANCH   4   5
ENDBRANCH   3   4
ENDBRANCH   2   3
ENDBRANCH   1   2
BRANCH   1  26
ATOM     26  C   UNL A   1      33.969  34.564  29.129  1.00  0.00     0.188 C 
BRANCH  26  27
ATOM     27  O   UNL A   1      33.181  34.776  30.275  1.00  0.00    -0.376 OA
BRANCH  27  28
ATOM     28  C   UNL A   1      33.649  35.627  31.311  1.00  0.00     0.202 C 
BRANCH  28  29
ATOM     29  C   UNL A   1      34.595  35.087  32.410  1.00  0.00     0.261 C 
BRANCH  29  30
ATOM     30  O   UNL A   1      35.594  34.121  32.034  1.00  0.00    -0.460 OA
BRANCH  30  31
ATOM     31  C   UNL A   1      35.260  32.807  32.133  1.00  0.00     0.338 C 
ATOM     32  O   UNL A   1      34.178  32.355  32.442  1.00  0.00    -0.246 OA
BRANCH  31  33
ATOM     33  C   UNL A   1      36.352  32.016  31.494  1.00  0.00     0.060 A 
ATOM     34  C   UNL A   1      37.244  31.324  32.331  1.00  0.00     0.016 A 
ATOM     35  C   UNL A   1      36.464  31.895  30.109  1.00  0.00     0.016 A 
ATOM     36  C   UNL A   1      38.268  30.546  31.785  1.00  0.00     0.010 A 
ATOM     37  C   UNL A   1      37.511  31.139  29.564  1.00  0.00     0.010 A 
ATOM     38  C   UNL A   1      38.439  30.487  30.399  1.00  0.00    -0.014 A 
BRANCH  38  39
ATOM     39  C   UNL A   1      39.713  29.973  29.833  1.00  0.00     0.031 A 
ATOM     40  C   UNL A   1      40.860  30.942  29.712  1.00  0.00     0.074 A 
ATOM     41  C   UNL A   1      39.887  28.691  29.464  1.00  0.00     0.049 A 
ATOM     42  N   UNL A   1      42.026  30.791  29.140  1.00  0.00    -0.248 NA
ATOM     43  C   UNL A   1      40.656  32.264  30.328  1.00  0.00     0.031 C 
ATOM     44  C   UNL A   1      38.911  27.615  29.624  1.00  0.00     0.029 A 
ATOM     45  N   UNL A   1      40.964  28.083  28.862  1.00  0.00    -0.354 N 
ATOM     46  C   UNL A   1      42.681  32.006  29.301  1.00  0.00     0.074 A 
ATOM     47  C   UNL A   1      41.780  32.886  30.011  1.00  0.00     0.031 C 
ATOM     48  C   UNL A   1      39.425  26.483  29.110  1.00  0.00     0.029 A 
ATOM     49  C   UNL A   1      40.743  26.764  28.542  1.00  0.00     0.049 A 
ATOM     50  H   UNL A   1      41.811  28.547  28.678  1.00  0.00     0.167 HD
ATOM     51  C   UNL A   1      43.921  32.363  28.893  1.00  0.00     0.031 A 
ATOM     52  C   UNL A   1      41.503  25.899  27.837  1.00  0.00     0.031 A 
ATOM     53  C   UNL A   1      44.815  31.498  28.174  1.00  0.00     0.049 A 
ATOM     54  C   UNL A   1      42.830  26.356  27.280  1.00  0.00     0.074 A 
ATOM     55  C   UNL A   1      46.086  31.773  27.702  1.00  0.00     0.029 A 
ATOM     56  N   UNL A   1      44.527  30.191  27.817  1.00  0.00    -0.354 N 
ATOM     57  N   UNL A   1      43.435  27.512  27.416  1.00  0.00    -0.248 NA
ATOM     58  C   UNL A   1      43.581  25.382  26.470  1.00  0.00     0.031 C 
ATOM     59  C   UNL A   1      46.543  30.651  27.004  1.00  0.00     0.029 A 
ATOM     60  C   UNL A   1      45.587  29.653  27.108  1.00  0.00     0.049 A 
ATOM     61  H   UNL A   1      43.693  29.714  28.035  1.00  0.00     0.167 HD
ATOM     62  C   UNL A   1      44.648  27.390  26.746  1.00  0.00     0.074 A 
ATOM     63  C   UNL A   1      44.699  26.047  26.212  1.00  0.00     0.031 C 
ATOM     64  C   UNL A   1      45.635  28.308  26.594  1.00  0.00     0.031 A 
BRANCH  51  65
ATOM     65  C   UNL A   1      44.353  33.777  29.163  1.00  0.00    -0.014 A 
ATOM     66  C   UNL A   1      44.161  34.800  28.219  1.00  0.00     0.009 A 
ATOM     67  C   UNL A   1      44.954  34.092  30.392  1.00  0.00     0.009 A 
ATOM     68  C   UNL A   1      44.599  36.098  28.487  1.00  0.00     0.001 A 
ATOM     69  C   UNL A   1      45.359  35.398  30.670  1.00  0.00     0.001 A 
ATOM     70  C   UNL A   1      45.191  36.397  29.714  1.00  0.00     0.000 A 
ENDBRANCH  51  65
BRANCH  52  71
ATOM     71  C   UNL A   1      41.017  24.518  27.564  1.00  0.00    -0.014 A 
ATOM     72  C   UNL A   1      39.964  24.291  26.664  1.00  0.00     0.009 A 
ATOM     73  C   UNL A   1      41.572  23.421  28.241  1.00  0.00     0.009 A 
ATOM     74  C   UNL A   1      39.460  23.001  26.470  1.00  0.00     0.001 A 
ATOM     75  C   UNL A   1      41.089  22.128  28.021  1.00  0.00     0.001 A 
ATOM     76  C   UNL A   1      40.026  21.921  27.145  1.00  0.00     0.000 A 
ENDBRANCH  52  71
BRANCH  64  77
ATOM     77  C   UNL A   1      46.888  27.880  25.879  1.00  0.00    -0.014 A 
ATOM     78  C   UNL A   1      46.925  27.708  24.487  1.00  0.00     0.009 A 
ATOM     79  C   UNL A   1      48.074  27.708  26.614  1.00  0.00     0.009 A 
ATOM     80  C   UNL A   1      48.115  27.343  23.852  1.00  0.00     0.001 A 
ATOM     81  C   UNL A   1      49.268  27.377  25.973  1.00  0.00     0.001 A 
ATOM     82  C   UNL A   1      49.286  27.185  24.593  1.00  0.00     0.000 A 
ENDBRANCH  64  77
ENDBRANCH  38  39
ENDBRANCH  31  33
ENDBRANCH  30  31
ENDBRANCH  29  30
ENDBRANCH  28  29
ENDBRANCH  27  28
ENDBRANCH  26  27
ENDBRANCH   1  26
TORSDOF 22
ENDMDL
MODEL 2
REMARK VINA RESULT:      -9.5      1.784      3.587
REMARK SMILES CN(C(=O)C[C@](C)(C(=O)OCCOCCOCCOC(=O)c1ccc(-c2c3nc(c(-c4ccccc4)c4ccc([nH]4)c(-c4ccccc4)c4nc(c(-c5ccccc5)c5ccc2[nH]5)C=C4)C=C3)cc1)c1ccccc1)[C@@H]1CCSC1
REMARK SMILES IDX 14 1 13 2 12 3 11 4 10 5 8 6 9 7 6 8 7 9 5 10 3 11 4 12 2 13
REMARK SMILES IDX 1 14 76 15 77 16 80 17 78 18 79 19 70 20 71 21 75 22 72 23
REMARK SMILES IDX 74 24 73 25 15 26 16 27 17 28 18 29 19 30 20 31 21 32 22 33
REMARK SMILES IDX 23 34 69 35 24 36 68 37 25 38 26 39 27 40 62 41 28 42 67 43
REMARK SMILES IDX 61 44 63 45 29 46 66 47 60 48 59 49 30 51 52 52 37 53 51 54
REMARK SMILES IDX 38 55 41 56 50 57 64 58 39 59 40 60 49 62 65 63 42 64 31 65
REMARK SMILES IDX 32 66 36 67 33 68 35 69 34 70 53 71 54 72 58 73 55 74 57 75
REMARK SMILES IDX 56 76 43 77 44 78 48 79 45 80 47 81 46 82
REMARK H PARENT 63 50 41 61
REMARK Flexibility Score: inf
ROOT
ATOM      1  C   UNL A   1      33.681  31.553  27.535  1.00  0.00     0.188 C 
ENDROOT
BRANCH   1   2
ATOM      2  O   UNL A   1      34.789  30.947  28.185  1.00  0.00    -0.376 OA
BRANCH   2   3
ATOM      3  C   UNL A   1      35.037  29.563  27.929  1.00  0.00     0.202 C 
BRANCH   3   4
ATOM      4  C   UNL A   1      34.478  28.947  26.634  1.00  0.00     0.261 C 
BRANCH   4   5
ATOM      5  O   UNL A   1      33.989  27.597  26.788  1.00  0.00    -0.463 OA
BRANCH   5   6
ATOM      6  C   UNL A   1      32.653  27.392  26.607  1.00  0.00     0.316 C 
ATOM      7  O   UNL A   1      31.800  27.948  27.293  1.00  0.00    -0.251 OA
BRANCH   6   8
ATOM      8  C   UNL A   1      32.310  26.441  25.403  1.00  0.00     0.099 C 
ATOM      9  C   UNL A   1      30.794  26.061  25.440  1.00  0.00     0.029 C 
BRANCH   8  10
ATOM     10  C   UNL A   1      32.667  27.254  24.105  1.00  0.00     0.123 C 
BRANCH  10  11
ATOM     11  C   UNL A   1      31.522  27.453  23.140  1.00  0.00     0.224 C 
ATOM     12  O   UNL A   1      31.405  26.642  22.224  1.00  0.00    -0.275 OA
BRANCH  11  13
ATOM     13  N   UNL A   1      30.726  28.589  23.267  1.00  0.00    -0.342 N 
ATOM     14  C   UNL A   1      30.939  29.617  24.286  1.00  0.00     0.147 C 
BRANCH  13  15
ATOM     15  C   UNL A   1      29.539  28.809  22.407  1.00  0.00     0.095 C 
ATOM     16  C   UNL A   1      29.635  30.122  21.629  1.00  0.00     0.037 C 
ATOM     17  C   UNL A   1      28.142  28.763  23.059  1.00  0.00     0.094 C 
ATOM     18  C   UNL A   1      29.057  31.214  22.508  1.00  0.00     0.072 C 
ATOM     19  S   UNL A   1      27.531  30.480  23.147  1.00  0.00    -0.160 SA
ENDBRANCH  13  15
ENDBRANCH  11  13
ENDBRANCH  10  11
ENDBRANCH   8  10
BRANCH   8  20
ATOM     20  C   UNL A   1      33.294  25.212  25.400  1.00  0.00    -0.030 A 
ATOM     21  C   UNL A   1      33.173  24.227  26.411  1.00  0.00     0.005 A 
ATOM     22  C   UNL A   1      34.410  25.096  24.552  1.00  0.00     0.005 A 
ATOM     23  C   UNL A   1      34.118  23.210  26.583  1.00  0.00     0.000 A 
ATOM     24  C   UNL A   1      35.372  24.088  24.742  1.00  0.00     0.000 A 
ATOM     25  C   UNL A   1      35.227  23.147  25.754  1.00  0.00     0.000 A 
ENDBRANCH   8  20
ENDBRANCH   6   8
ENDBRANCH   5   6
ENDBRANCH   4   5
ENDBRANCH   3   4
ENDBRANCH   2   3
ENDBRANCH   1   2
BRANCH   1  26
ATOM     26  C   UNL A   1      33.224  32.926  28.036  1.00  0.00     0.188 C 
BRANCH  26  27
ATOM     27  O   UNL A   1      34.270  33.839  28.269  1.00  0.00    -0.376 OA
BRANCH  27  28
ATOM     28  C   UNL A   1      34.057  34.964  29.109  1.00  0.00     0.202 C 
BRANCH  28  29
ATOM     29  C   UNL A   1      34.102  34.818  30.649  1.00  0.00     0.261 C 
BRANCH  29  30
ATOM     30  O   UNL A   1      35.291  34.270  31.247  1.00  0.00    -0.460 OA
BRANCH  30  31
ATOM     31  C   UNL A   1      35.293  32.939  31.525  1.00  0.00     0.338 C 
ATOM     32  O   UNL A   1      34.326  32.246  31.762  1.00  0.00    -0.246 OA
BRANCH  31  33
ATOM     33  C   UNL A   1      36.645  32.409  31.183  1.00  0.00     0.060 A 
ATOM     34  C   UNL A   1      37.206  32.774  29.947  1.00  0.00     0.016 A 
ATOM     35  C   UNL A   1      37.381  31.629  32.075  1.00  0.00     0.016 A 
ATOM     36  C   UNL A   1      38.480  32.328  29.588  1.00  0.00     0.010 A 
ATOM     37  C   UNL A   1      38.646  31.158  31.700  1.00  0.00     0.010 A 
ATOM     38  C   UNL A   1      39.189  31.478  30.441  1.00  0.00    -0.014 A 
BRANCH  38  39
ATOM     39  C   UNL A   1      40.359  30.721  29.923  1.00  0.00     0.031 A 
ATOM     40  C   UNL A   1      41.687  31.430  29.894  1.00  0.00     0.074 A 
ATOM     41  C   UNL A   1      40.282  29.440  29.519  1.00  0.00     0.049 A 
ATOM     42  N   UNL A   1      42.827  31.052  29.375  1.00  0.00    -0.248 NA
ATOM     43  C   UNL A   1      41.729  32.751  30.544  1.00  0.00     0.031 C 
ATOM     44  C   UNL A   1      39.096  28.590  29.592  1.00  0.00     0.029 A 
ATOM     45  N   UNL A   1      41.241  28.634  28.951  1.00  0.00    -0.354 N 
ATOM     46  C   UNL A   1      43.710  32.098  29.611  1.00  0.00     0.074 A 
ATOM     47  C   UNL A   1      42.973  33.131  30.305  1.00  0.00     0.031 C 
ATOM     48  C   UNL A   1      39.391  27.387  29.066  1.00  0.00     0.029 A 
ATOM     49  C   UNL A   1      40.769  27.398  28.575  1.00  0.00     0.049 A 
ATOM     50  H   UNL A   1      42.175  28.914  28.827  1.00  0.00     0.167 HD
ATOM     51  C   UNL A   1      45.018  32.196  29.279  1.00  0.00     0.031 A 
ATOM     52  C   UNL A   1      41.370  26.410  27.880  1.00  0.00     0.031 A 
ATOM     53  C   UNL A   1      45.751  31.179  28.576  1.00  0.00     0.049 A 
ATOM     54  C   UNL A   1      42.793  26.591  27.407  1.00  0.00     0.074 A 
ATOM     55  C   UNL A   1      47.076  31.193  28.179  1.00  0.00     0.029 A 
ATOM     56  N   UNL A   1      45.218  29.970  28.161  1.00  0.00    -0.354 N 
ATOM     57  N   UNL A   1      43.616  27.591  27.613  1.00  0.00    -0.248 NA
ATOM     58  C   UNL A   1      43.369  25.500  26.603  1.00  0.00     0.031 C 
ATOM     59  C   UNL A   1      47.328  30.016  27.466  1.00  0.00     0.029 A 
ATOM     60  C   UNL A   1      46.182  29.238  27.488  1.00  0.00     0.049 A 
ATOM     61  H   UNL A   1      44.292  29.675  28.319  1.00  0.00     0.167 HD
ATOM     62  C   UNL A   1      44.813  27.232  27.002  1.00  0.00     0.074 A 
ATOM     63  C   UNL A   1      44.614  25.921  26.424  1.00  0.00     0.031 C 
ATOM     64  C   UNL A   1      45.977  27.926  26.931  1.00  0.00     0.031 A 
BRANCH  51  65
ATOM     65  C   UNL A   1      45.719  33.482  29.619  1.00  0.00    -0.014 A 
ATOM     66  C   UNL A   1      46.407  33.647  30.833  1.00  0.00     0.009 A 
ATOM     67  C   UNL A   1      45.700  34.542  28.699  1.00  0.00     0.009 A 
ATOM     68  C   UNL A   1      47.025  34.863  31.133  1.00  0.00     0.001 A 
ATOM     69  C   UNL A   1      46.349  35.743  28.988  1.00  0.00     0.001 A 
ATOM     70  C   UNL A   1      47.001  35.906  30.208  1.00  0.00     0.000 A 
ENDBRANCH  51  65
BRANCH  52  71
ATOM     71  C   UNL A   1      40.624  25.168  27.536  1.00  0.00    -0.014 A 
ATOM     72  C   UNL A   1      41.048  23.918  28.014  1.00  0.00     0.009 A 
ATOM     73  C   UNL A   1      39.507  25.220  26.687  1.00  0.00     0.009 A 
ATOM     74  C   UNL A   1      40.390  22.747  27.625  1.00  0.00     0.001 A 
ATOM     75  C   UNL A   1      38.831  24.052  26.325  1.00  0.00     0.001 A 
ATOM     76  C   UNL A   1      39.280  22.816  26.785  1.00  0.00     0.000 A 
ENDBRANCH  52  71
BRANCH  64  77
ATOM     77  C   UNL A   1      47.152  27.261  26.265  1.00  0.00    -0.014 A 
ATOM     78  C   UNL A   1      47.429  27.439  24.902  1.00  0.00     0.009 A 
ATOM     79  C   UNL A   1      48.035  26.490  27.042  1.00  0.00     0.009 A 
ATOM     80  C   UNL A   1      48.549  26.834  24.324  1.00  0.00     0.001 A 
ATOM     81  C   UNL A   1      49.170  25.915  26.469  1.00  0.00     0.001 A 
ATOM     82  C   UNL A   1      49.421  26.079  25.108  1.00  0.00     0.000 A 
ENDBRANCH  64  77
ENDBRANCH  38  39
ENDBRANCH  31  33
ENDBRANCH  30  31
ENDBRANCH  29  30
ENDBRANCH  28  29
ENDBRANCH  27  28
ENDBRANCH  26  27
ENDBRANCH   1  26
TORSDOF 22
ENDMDL
MODEL 3
REMARK VINA RESULT:      -9.3      3.964      6.202
REMARK SMILES CN(C(=O)C[C@](C)(C(=O)OCCOCCOCCOC(=O)c1ccc(-c2c3nc(c(-c4ccccc4)c4ccc([nH]4)c(-c4ccccc4)c4nc(c(-c5ccccc5)c5ccc2[nH]5)C=C4)C=C3)cc1)c1ccccc1)[C@@H]1CCSC1
REMARK SMILES IDX 14 1 13 2 12 3 11 4 10 5 8 6 9 7 6 8 7 9 5 10 3 11 4 12 2 13
REMARK SMILES IDX 1 14 76 15 77 16 80 17 78 18 79 19 70 20 71 21 75 22 72 23
REMARK SMILES IDX 74 24 73 25 15 26 16 27 17 28 18 29 19 30 20 31 21 32 22 33
REMARK SMILES IDX 23 34 69 35 24 36 68 37 25 38 26 39 27 40 62 41 28 42 67 43
REMARK SMILES IDX 61 44 63 45 29 46 66 47 60 48 59 49 30 51 52 52 37 53 51 54
REMARK SMILES IDX 38 55 41 56 50 57 64 58 39 59 40 60 49 62 65 63 42 64 31 65
REMARK SMILES IDX 32 66 36 67 33 68 35 69 34 70 53 71 54 72 58 73 55 74 57 75
REMARK SMILES IDX 56 76 43 77 44 78 48 79 45 80 47 81 46 82
REMARK H PARENT 63 50 41 61
REMARK Flexibility Score: inf
ROOT
ATOM      1  C   UNL A   1      33.106  29.671  26.235  1.00  0.00     0.188 C 
ENDROOT
BRANCH   1   2
ATOM      2  O   UNL A   1      32.884  28.294  25.965  1.00  0.00    -0.376 OA
BRANCH   2   3
ATOM      3  C   UNL A   1      34.020  27.427  25.944  1.00  0.00     0.202 C 
BRANCH   3   4
ATOM      4  C   UNL A   1      33.782  25.908  26.031  1.00  0.00     0.261 C 
BRANCH   4   5
ATOM      5  O   UNL A   1      32.784  25.415  25.111  1.00  0.00    -0.463 OA
BRANCH   5   6
ATOM      6  C   UNL A   1      33.183  25.164  23.832  1.00  0.00     0.316 C 
ATOM      7  O   UNL A   1      34.355  24.956  23.533  1.00  0.00    -0.251 OA
BRANCH   6   8
ATOM      8  C   UNL A   1      32.001  25.095  22.797  1.00  0.00     0.099 C 
ATOM      9  C   UNL A   1      32.570  24.950  21.348  1.00  0.00     0.029 C 
BRANCH   8  10
ATOM     10  C   UNL A   1      31.148  23.841  23.209  1.00  0.00     0.123 C 
BRANCH  10  11
ATOM     11  C   UNL A   1      31.939  22.571  23.420  1.00  0.00     0.224 C 
ATOM     12  O   UNL A   1      32.293  21.950  22.419  1.00  0.00    -0.275 OA
BRANCH  11  13
ATOM     13  N   UNL A   1      32.139  22.112  24.720  1.00  0.00    -0.342 N 
ATOM     14  C   UNL A   1      31.271  22.462  25.844  1.00  0.00     0.147 C 
BRANCH  13  15
ATOM     15  C   UNL A   1      33.307  21.273  25.080  1.00  0.00     0.095 C 
ATOM     16  C   UNL A   1      33.493  21.174  26.594  1.00  0.00     0.037 C 
ATOM     17  C   UNL A   1      34.680  21.628  24.472  1.00  0.00     0.094 C 
ATOM     18  C   UNL A   1      34.349  22.349  27.025  1.00  0.00     0.072 C 
ATOM     19  S   UNL A   1      35.682  22.372  25.802  1.00  0.00    -0.160 SA
ENDBRANCH  13  15
ENDBRANCH  11  13
ENDBRANCH  10  11
ENDBRANCH   8  10
BRANCH   8  20
ATOM     20  C   UNL A   1      31.043  26.327  23.004  1.00  0.00    -0.030 A 
ATOM     21  C   UNL A   1      29.795  26.133  23.646  1.00  0.00     0.005 A 
ATOM     22  C   UNL A   1      31.260  27.600  22.446  1.00  0.00     0.005 A 
ATOM     23  C   UNL A   1      28.818  27.132  23.703  1.00  0.00     0.000 A 
ATOM     24  C   UNL A   1      30.267  28.594  22.482  1.00  0.00     0.000 A 
ATOM     25  C   UNL A   1      29.048  28.362  23.109  1.00  0.00     0.000 A 
ENDBRANCH   8  20
ENDBRANCH   6   8
ENDBRANCH   5   6
ENDBRANCH   4   5
ENDBRANCH   3   4
ENDBRANCH   2   3
ENDBRANCH   1   2
BRANCH   1  26
ATOM     26  C   UNL A   1      34.398  30.055  26.961  1.00  0.00     0.188 C 
BRANCH  26  27
ATOM     27  O   UNL A   1      34.457  31.399  27.374  1.00  0.00    -0.376 OA
BRANCH  27  28
ATOM     28  C   UNL A   1      33.286  32.047  27.851  1.00  0.00     0.202 C 
BRANCH  28  29
ATOM     29  C   UNL A   1      32.958  33.498  27.423  1.00  0.00     0.261 C 
BRANCH  29  30
ATOM     30  O   UNL A   1      32.361  34.376  28.394  1.00  0.00    -0.460 OA
BRANCH  30  31
ATOM     31  C   UNL A   1      33.127  35.394  28.870  1.00  0.00     0.338 C 
ATOM     32  O   UNL A   1      32.837  36.570  28.892  1.00  0.00    -0.246 OA
BRANCH  31  33
ATOM     33  C   UNL A   1      34.250  34.788  29.644  1.00  0.00     0.060 A 
ATOM     34  C   UNL A   1      35.530  34.790  29.065  1.00  0.00     0.016 A 
ATOM     35  C   UNL A   1      34.073  34.288  30.934  1.00  0.00     0.016 A 
ATOM     36  C   UNL A   1      36.622  34.260  29.758  1.00  0.00     0.010 A 
ATOM     37  C   UNL A   1      35.163  33.729  31.615  1.00  0.00     0.010 A 
ATOM     38  C   UNL A   1      36.437  33.682  31.017  1.00  0.00    -0.014 A 
BRANCH  38  39
ATOM     39  C   UNL A   1      37.494  32.809  31.590  1.00  0.00     0.031 A 
ATOM     40  C   UNL A   1      38.071  33.202  32.925  1.00  0.00     0.074 A 
ATOM     41  C   UNL A   1      37.922  31.684  30.989  1.00  0.00     0.049 A 
ATOM     42  N   UNL A   1      39.084  32.697  33.580  1.00  0.00    -0.248 NA
ATOM     43  C   UNL A   1      37.407  34.323  33.611  1.00  0.00     0.031 C 
ATOM     44  C   UNL A   1      37.383  31.117  29.755  1.00  0.00     0.029 A 
ATOM     45  N   UNL A   1      38.930  30.820  31.345  1.00  0.00    -0.354 N 
ATOM     46  C   UNL A   1      39.194  33.455  34.739  1.00  0.00     0.074 A 
ATOM     47  C   UNL A   1      38.158  34.462  34.691  1.00  0.00     0.031 C 
ATOM     48  C   UNL A   1      38.083  30.010  29.444  1.00  0.00     0.029 A 
ATOM     49  C   UNL A   1      39.148  29.819  30.428  1.00  0.00     0.049 A 
ATOM     50  H   UNL A   1      39.446  30.908  32.178  1.00  0.00     0.167 HD
ATOM     51  C   UNL A   1      40.081  33.331  35.754  1.00  0.00     0.031 A 
ATOM     52  C   UNL A   1      40.120  28.885  30.371  1.00  0.00     0.031 A 
ATOM     53  C   UNL A   1      41.122  32.341  35.800  1.00  0.00     0.049 A 
ATOM     54  C   UNL A   1      41.177  28.843  31.449  1.00  0.00     0.074 A 
ATOM     55  C   UNL A   1      42.081  32.145  36.778  1.00  0.00     0.029 A 
ATOM     56  N   UNL A   1      41.345  31.387  34.821  1.00  0.00    -0.354 N 
ATOM     57  N   UNL A   1      41.290  29.576  32.531  1.00  0.00    -0.248 NA
ATOM     58  C   UNL A   1      42.242  27.838  31.296  1.00  0.00     0.031 C 
ATOM     59  C   UNL A   1      42.924  31.111  36.359  1.00  0.00     0.029 A 
ATOM     60  C   UNL A   1      42.443  30.614  35.158  1.00  0.00     0.049 A 
ATOM     61  H   UNL A   1      40.804  31.275  34.005  1.00  0.00     0.167 HD
ATOM     62  C   UNL A   1      42.410  29.096  33.202  1.00  0.00     0.074 A 
ATOM     63  C   UNL A   1      42.937  28.004  32.413  1.00  0.00     0.031 C 
ATOM     64  C   UNL A   1      42.949  29.519  34.373  1.00  0.00     0.031 A 
BRANCH  51  65
ATOM     65  C   UNL A   1      39.996  34.336  36.868  1.00  0.00    -0.014 A 
ATOM     66  C   UNL A   1      39.239  34.091  38.026  1.00  0.00     0.009 A 
ATOM     67  C   UNL A   1      40.699  35.546  36.760  1.00  0.00     0.009 A 
ATOM     68  C   UNL A   1      39.156  35.056  39.032  1.00  0.00     0.001 A 
ATOM     69  C   UNL A   1      40.642  36.493  37.783  1.00  0.00     0.001 A 
ATOM     70  C   UNL A   1      39.863  36.252  38.912  1.00  0.00     0.000 A 
ENDBRANCH  51  65
BRANCH  52  71
ATOM     71  C   UNL A   1      40.184  27.932  29.229  1.00  0.00    -0.014 A 
ATOM     72  C   UNL A   1      40.865  28.269  28.048  1.00  0.00     0.009 A 
ATOM     73  C   UNL A   1      39.522  26.695  29.293  1.00  0.00     0.009 A 
ATOM     74  C   UNL A   1      40.856  27.404  26.950  1.00  0.00     0.001 A 
ATOM     75  C   UNL A   1      39.542  25.817  28.207  1.00  0.00     0.001 A 
ATOM     76  C   UNL A   1      40.199  26.177  27.032  1.00  0.00     0.000 A 
ENDBRANCH  52  71
BRANCH  64  77
ATOM     77  C   UNL A   1      44.132  28.762  34.915  1.00  0.00    -0.014 A 
ATOM     78  C   UNL A   1      45.447  29.216  34.737  1.00  0.00     0.009 A 
ATOM     79  C   UNL A   1      43.914  27.601  35.677  1.00  0.00     0.009 A 
ATOM     80  C   UNL A   1      46.520  28.505  35.283  1.00  0.00     0.001 A 
ATOM     81  C   UNL A   1      44.984  26.913  36.250  1.00  0.00     0.001 A 
ATOM     82  C   UNL A   1      46.288  27.360  36.045  1.00  0.00     0.000 A 
ENDBRANCH  64  77
ENDBRANCH  38  39
ENDBRANCH  31  33
ENDBRANCH  30  31
ENDBRANCH  29  30
ENDBRANCH  28  29
ENDBRANCH  27  28
ENDBRANCH  26  27
ENDBRANCH   1  26
TORSDOF 22
ENDMDL
