MODEL 1
REMARK VINA RESULT:     -10.3      0.000      0.000
REMARK SMILES Cn1ncc2c(NCCC3=CCCCC3)c(C(=O)OCCOCCOCCOC(=O)c3ccc(-c4c5nc(c(-c6ccccc6)c6ccc([nH]6)c(-c6ccccc6)c6nc(c(-c7ccccc7)c7ccc4[nH]7)C=C6)C=C5)cc3)cnc21
REMARK SMILES IDX 23 1 22 2 21 3 20 4 19 5 17 6 18 7 16 8 1 9 2 10 3 11 81 12
REMARK SMILES IDX 4 13 5 14 80 15 6 16 79 17 7 18 8 20 9 21 10 22 11 23 15 24
REMARK SMILES IDX 12 25 14 26 13 27 24 28 25 29 26 30 27 31 28 32 29 33 30 34
REMARK SMILES IDX 31 35 32 36 78 37 33 38 77 39 34 40 35 41 36 42 71 43 37 44
REMARK SMILES IDX 76 45 70 46 72 47 38 48 75 49 69 50 68 51 39 53 61 54 46 55
REMARK SMILES IDX 60 56 47 57 50 58 59 59 73 60 48 61 49 62 58 64 74 65 51 66
REMARK SMILES IDX 40 67 41 68 45 69 42 70 44 71 43 72 62 73 63 74 67 75 64 76
REMARK SMILES IDX 66 77 65 78 52 79 53 80 57 81 54 82 56 83 55 84
REMARK H PARENT 7 19 72 52 50 63
REMARK Flexibility Score: inf
ROOT
ATOM      1  C   UNL A   1      35.200  31.367  27.609  1.00  0.00     0.188 C 
ENDROOT
BRANCH   1   2
ATOM      2  O   UNL A   1      34.343  30.343  27.133  1.00  0.00    -0.376 OA
BRANCH   2   3
ATOM      3  C   UNL A   1      32.952  30.622  27.250  1.00  0.00     0.202 C 
BRANCH   3   4
ATOM      4  C   UNL A   1      32.006  29.523  26.736  1.00  0.00     0.261 C 
BRANCH   4   5
ATOM      5  O   UNL A   1      32.576  28.203  26.641  1.00  0.00    -0.460 OA
BRANCH   5   6
ATOM      6  C   UNL A   1      31.723  27.159  26.611  1.00  0.00     0.341 C 
ATOM      7  O   UNL A   1      30.654  27.102  27.215  1.00  0.00    -0.246 OA
BRANCH   6   8
ATOM      8  C   UNL A   1      32.178  26.141  25.636  1.00  0.00     0.102 A 
ATOM      9  C   UNL A   1      33.259  21.804  23.126  1.00  0.00     0.176 C 
ATOM     10  N   UNL A   1      33.129  23.233  23.009  1.00  0.00    -0.250 N 
ATOM     11  N   UNL A   1      33.283  23.827  21.810  1.00  0.00    -0.179 NA
ATOM     12  C   UNL A   1      32.820  24.103  24.020  1.00  0.00     0.159 A 
ATOM     13  C   UNL A   1      33.085  25.121  22.089  1.00  0.00     0.147 A 
ATOM     14  C   UNL A   1      32.776  25.377  23.450  1.00  0.00     0.063 A 
ATOM     15  N   UNL A   1      32.607  23.766  25.307  1.00  0.00    -0.236 NA
ATOM     16  C   UNL A   1      32.473  26.488  24.282  1.00  0.00     0.063 A 
ATOM     17  C   UNL A   1      32.284  24.825  26.078  1.00  0.00     0.131 A 
BRANCH  16  18
ATOM     18  N   UNL A   1      32.514  27.827  23.915  1.00  0.00    -0.383 N 
ATOM     19  H   UNL A   1      33.223  28.353  24.349  1.00  0.00     0.160 HD
BRANCH  18  20
ATOM     20  C   UNL A   1      31.676  28.577  22.993  1.00  0.00     0.117 C 
BRANCH  20  21
ATOM     21  C   UNL A   1      30.221  28.609  23.504  1.00  0.00     0.052 C 
BRANCH  21  22
ATOM     22  C   UNL A   1      29.403  29.767  22.957  1.00  0.00    -0.072 C 
ATOM     23  C   UNL A   1      28.890  29.767  21.714  1.00  0.00    -0.028 C 
ATOM     24  C   UNL A   1      29.223  30.951  23.876  1.00  0.00     0.031 C 
ATOM     25  C   UNL A   1      28.028  30.854  21.154  1.00  0.00     0.027 C 
ATOM     26  C   UNL A   1      28.156  31.949  23.414  1.00  0.00     0.005 C 
ATOM     27  C   UNL A   1      28.191  32.168  21.905  1.00  0.00     0.004 C 
ENDBRANCH  21  22
ENDBRANCH  20  21
ENDBRANCH  18  20
ENDBRANCH  16  18
ENDBRANCH   6   8
ENDBRANCH   5   6
ENDBRANCH   4   5
ENDBRANCH   3   4
ENDBRANCH   2   3
ENDBRANCH   1   2
BRANCH   1  28
ATOM     28  C   UNL A   1      34.490  32.631  28.141  1.00  0.00     0.188 C 
BRANCH  28  29
ATOM     29  O   UNL A   1      34.829  33.946  27.713  1.00  0.00    -0.376 OA
BRANCH  29  30
ATOM     30  C   UNL A   1      34.030  35.079  28.017  1.00  0.00     0.202 C 
BRANCH  30  31
ATOM     31  C   UNL A   1      33.363  35.176  29.386  1.00  0.00     0.261 C 
BRANCH  31  32
ATOM     32  O   UNL A   1      34.268  34.956  30.456  1.00  0.00    -0.460 OA
BRANCH  32  33
ATOM     33  C   UNL A   1      33.663  34.956  31.656  1.00  0.00     0.338 C 
ATOM     34  O   UNL A   1      32.529  35.350  31.921  1.00  0.00    -0.246 OA
BRANCH  33  35
ATOM     35  C   UNL A   1      34.567  34.424  32.675  1.00  0.00     0.060 A 
ATOM     36  C   UNL A   1      35.718  35.180  32.912  1.00  0.00     0.016 A 
ATOM     37  C   UNL A   1      34.457  33.079  33.047  1.00  0.00     0.016 A 
ATOM     38  C   UNL A   1      36.876  34.498  33.181  1.00  0.00     0.010 A 
ATOM     39  C   UNL A   1      35.620  32.393  33.307  1.00  0.00     0.010 A 
ATOM     40  C   UNL A   1      36.817  33.101  33.216  1.00  0.00    -0.014 A 
BRANCH  40  41
ATOM     41  C   UNL A   1      38.042  32.417  32.876  1.00  0.00     0.031 A 
ATOM     42  C   UNL A   1      39.055  32.318  33.931  1.00  0.00     0.074 A 
ATOM     43  C   UNL A   1      38.250  31.923  31.642  1.00  0.00     0.049 A 
ATOM     44  N   UNL A   1      40.214  32.882  33.965  1.00  0.00    -0.248 NA
ATOM     45  C   UNL A   1      38.698  31.544  35.123  1.00  0.00     0.031 C 
ATOM     46  C   UNL A   1      37.282  31.690  30.565  1.00  0.00     0.029 A 
ATOM     47  N   UNL A   1      39.411  31.441  31.131  1.00  0.00    -0.354 N 
ATOM     48  C   UNL A   1      40.799  32.452  35.144  1.00  0.00     0.074 A 
ATOM     49  C   UNL A   1      39.792  31.705  35.863  1.00  0.00     0.031 C 
ATOM     50  C   UNL A   1      37.858  30.913  29.619  1.00  0.00     0.029 A 
ATOM     51  C   UNL A   1      39.259  30.723  29.961  1.00  0.00     0.049 A 
ATOM     52  H   UNL A   1      40.286  31.591  31.557  1.00  0.00     0.167 HD
ATOM     53  C   UNL A   1      42.121  32.604  35.408  1.00  0.00     0.031 A 
ATOM     54  C   UNL A   1      40.214  29.962  29.378  1.00  0.00     0.031 A 
ATOM     55  C   UNL A   1      42.772  33.534  34.532  1.00  0.00     0.049 A 
ATOM     56  C   UNL A   1      41.529  30.432  29.879  1.00  0.00     0.074 A 
ATOM     57  C   UNL A   1      42.668  34.893  34.312  1.00  0.00     0.029 A 
ATOM     58  N   UNL A   1      43.459  33.030  33.454  1.00  0.00    -0.354 N 
ATOM     59  N   UNL A   1      42.046  31.591  29.584  1.00  0.00    -0.248 NA
ATOM     60  C   UNL A   1      42.121  29.764  31.029  1.00  0.00     0.031 C 
ATOM     61  C   UNL A   1      42.906  35.069  32.917  1.00  0.00     0.029 A 
ATOM     62  C   UNL A   1      43.137  33.806  32.368  1.00  0.00     0.049 A 
ATOM     63  H   UNL A   1      44.068  32.256  33.461  1.00  0.00     0.167 HD
ATOM     64  C   UNL A   1      42.740  31.977  30.722  1.00  0.00     0.074 A 
ATOM     65  C   UNL A   1      42.855  30.765  31.524  1.00  0.00     0.031 C 
ATOM     66  C   UNL A   1      42.915  33.295  31.031  1.00  0.00     0.031 A 
BRANCH  53  67
ATOM     67  C   UNL A   1      42.859  31.692  36.331  1.00  0.00    -0.014 A 
ATOM     68  C   UNL A   1      43.498  32.209  37.466  1.00  0.00     0.009 A 
ATOM     69  C   UNL A   1      43.106  30.343  36.002  1.00  0.00     0.009 A 
ATOM     70  C   UNL A   1      44.335  31.402  38.246  1.00  0.00     0.001 A 
ATOM     71  C   UNL A   1      43.905  29.527  36.801  1.00  0.00     0.001 A 
ATOM     72  C   UNL A   1      44.529  30.061  37.918  1.00  0.00     0.000 A 
ENDBRANCH  53  67
BRANCH  54  73
ATOM     73  C   UNL A   1      40.035  28.684  28.657  1.00  0.00    -0.014 A 
ATOM     74  C   UNL A   1      40.566  28.514  27.370  1.00  0.00     0.009 A 
ATOM     75  C   UNL A   1      39.566  27.539  29.328  1.00  0.00     0.009 A 
ATOM     76  C   UNL A   1      40.662  27.240  26.795  1.00  0.00     0.001 A 
ATOM     77  C   UNL A   1      39.652  26.269  28.750  1.00  0.00     0.001 A 
ATOM     78  C   UNL A   1      40.215  26.118  27.489  1.00  0.00     0.000 A 
ENDBRANCH  54  73
BRANCH  66  79
ATOM     79  C   UNL A   1      42.516  34.312  29.989  1.00  0.00    -0.014 A 
ATOM     80  C   UNL A   1      43.454  34.862  29.097  1.00  0.00     0.009 A 
ATOM     81  C   UNL A   1      41.157  34.590  29.783  1.00  0.00     0.009 A 
ATOM     82  C   UNL A   1      43.047  35.684  28.042  1.00  0.00     0.001 A 
ATOM     83  C   UNL A   1      40.749  35.399  28.718  1.00  0.00     0.001 A 
ATOM     84  C   UNL A   1      41.692  35.946  27.850  1.00  0.00     0.000 A 
ENDBRANCH  66  79
ENDBRANCH  40  41
ENDBRANCH  33  35
ENDBRANCH  32  33
ENDBRANCH  31  32
ENDBRANCH  30  31
ENDBRANCH  29  30
ENDBRANCH  28  29
ENDBRANCH   1  28
TORSDOF 21
ENDMDL
MODEL 2
REMARK VINA RESULT:     -10.2      4.989      9.650
REMARK SMILES Cn1ncc2c(NCCC3=CCCCC3)c(C(=O)OCCOCCOCCOC(=O)c3ccc(-c4c5nc(c(-c6ccccc6)c6ccc([nH]6)c(-c6ccccc6)c6nc(c(-c7ccccc7)c7ccc4[nH]7)C=C6)C=C5)cc3)cnc21
REMARK SMILES IDX 23 1 22 2 21 3 20 4 19 5 17 6 18 7 16 8 1 9 2 10 3 11 81 12
REMARK SMILES IDX 4 13 5 14 80 15 6 16 79 17 7 18 8 20 9 21 10 22 11 23 15 24
REMARK SMILES IDX 12 25 14 26 13 27 24 28 25 29 26 30 27 31 28 32 29 33 30 34
REMARK SMILES IDX 31 35 32 36 78 37 33 38 77 39 34 40 35 41 36 42 71 43 37 44
REMARK SMILES IDX 76 45 70 46 72 47 38 48 75 49 69 50 68 51 39 53 61 54 46 55
REMARK SMILES IDX 60 56 47 57 50 58 59 59 73 60 48 61 49 62 58 64 74 65 51 66
REMARK SMILES IDX 40 67 41 68 45 69 42 70 44 71 43 72 62 73 63 74 67 75 64 76
REMARK SMILES IDX 66 77 65 78 52 79 53 80 57 81 54 82 56 83 55 84
REMARK H PARENT 7 19 72 52 50 63
REMARK Flexibility Score: inf
ROOT
ATOM      1  C   UNL A   1      38.627  21.222  25.573  1.00  0.00     0.188 C 
ENDROOT
BRANCH   1   2
ATOM      2  O   UNL A   1      37.250  21.420  25.840  1.00  0.00    -0.376 OA
BRANCH   2   3
ATOM      3  C   UNL A   1      36.376  21.071  24.772  1.00  0.00     0.202 C 
BRANCH   3   4
ATOM      4  C   UNL A   1      34.993  20.540  25.189  1.00  0.00     0.261 C 
BRANCH   4   5
ATOM      5  O   UNL A   1      33.867  21.340  24.781  1.00  0.00    -0.460 OA
BRANCH   5   6
ATOM      6  C   UNL A   1      33.856  22.635  25.158  1.00  0.00     0.341 C 
ATOM      7  O   UNL A   1      34.218  23.055  26.255  1.00  0.00    -0.246 OA
BRANCH   6   8
ATOM      8  C   UNL A   1      33.480  23.506  24.021  1.00  0.00     0.102 A 
ATOM      9  C   UNL A   1      32.455  25.468  19.396  1.00  0.00     0.176 C 
ATOM     10  N   UNL A   1      32.276  25.637  20.816  1.00  0.00    -0.250 N 
ATOM     11  N   UNL A   1      31.525  26.652  21.284  1.00  0.00    -0.179 NA
ATOM     12  C   UNL A   1      32.780  24.826  21.797  1.00  0.00     0.159 A 
ATOM     13  C   UNL A   1      31.582  26.480  22.609  1.00  0.00     0.147 A 
ATOM     14  C   UNL A   1      32.338  25.350  23.013  1.00  0.00     0.063 A 
ATOM     15  N   UNL A   1      33.552  23.740  21.597  1.00  0.00    -0.236 NA
ATOM     16  C   UNL A   1      32.717  24.698  24.216  1.00  0.00     0.063 A 
ATOM     17  C   UNL A   1      33.874  23.109  22.745  1.00  0.00     0.131 A 
BRANCH  16  18
ATOM     18  N   UNL A   1      32.480  25.150  25.508  1.00  0.00    -0.383 N 
ATOM     19  H   UNL A   1      33.276  25.480  25.983  1.00  0.00     0.160 HD
BRANCH  18  20
ATOM     20  C   UNL A   1      31.244  25.211  26.272  1.00  0.00     0.117 C 
BRANCH  20  21
ATOM     21  C   UNL A   1      30.642  26.630  26.195  1.00  0.00     0.052 C 
BRANCH  21  22
ATOM     22  C   UNL A   1      31.675  27.741  26.291  1.00  0.00    -0.072 C 
ATOM     23  C   UNL A   1      32.560  27.820  27.301  1.00  0.00    -0.028 C 
ATOM     24  C   UNL A   1      31.637  28.785  25.201  1.00  0.00     0.031 C 
ATOM     25  C   UNL A   1      33.634  28.857  27.405  1.00  0.00     0.027 C 
ATOM     26  C   UNL A   1      32.866  29.698  25.163  1.00  0.00     0.005 C 
ATOM     27  C   UNL A   1      33.335  30.089  26.561  1.00  0.00     0.004 C 
ENDBRANCH  21  22
ENDBRANCH  20  21
ENDBRANCH  18  20
ENDBRANCH  16  18
ENDBRANCH   6   8
ENDBRANCH   5   6
ENDBRANCH   4   5
ENDBRANCH   3   4
ENDBRANCH   2   3
ENDBRANCH   1   2
BRANCH   1  28
ATOM     28  C   UNL A   1      39.592  22.147  26.347  1.00  0.00     0.188 C 
BRANCH  28  29
ATOM     29  O   UNL A   1      40.187  21.780  27.588  1.00  0.00    -0.376 OA
BRANCH  29  30
ATOM     30  C   UNL A   1      41.320  20.927  27.669  1.00  0.00     0.202 C 
BRANCH  30  31
ATOM     31  C   UNL A   1      41.723  20.104  26.449  1.00  0.00     0.261 C 
BRANCH  31  32
ATOM     32  O   UNL A   1      42.388  20.874  25.461  1.00  0.00    -0.460 OA
BRANCH  32  33
ATOM     33  C   UNL A   1      43.708  20.626  25.410  1.00  0.00     0.338 C 
ATOM     34  O   UNL A   1      44.267  19.535  25.508  1.00  0.00    -0.246 OA
BRANCH  33  35
ATOM     35  C   UNL A   1      44.449  21.875  25.238  1.00  0.00     0.060 A 
ATOM     36  C   UNL A   1      45.354  22.182  26.257  1.00  0.00     0.016 A 
ATOM     37  C   UNL A   1      43.964  22.837  24.343  1.00  0.00     0.016 A 
ATOM     38  C   UNL A   1      45.484  23.500  26.608  1.00  0.00     0.010 A 
ATOM     39  C   UNL A   1      44.087  24.158  24.701  1.00  0.00     0.010 A 
ATOM     40  C   UNL A   1      44.719  24.440  25.911  1.00  0.00    -0.014 A 
BRANCH  40  41
ATOM     41  C   UNL A   1      44.385  25.639  26.643  1.00  0.00     0.031 A 
ATOM     42  C   UNL A   1      45.360  26.732  26.594  1.00  0.00     0.074 A 
ATOM     43  C   UNL A   1      43.248  25.730  27.357  1.00  0.00     0.049 A 
ATOM     44  N   UNL A   1      46.076  27.192  27.564  1.00  0.00    -0.248 NA
ATOM     45  C   UNL A   1      45.610  27.340  25.285  1.00  0.00     0.031 C 
ATOM     46  C   UNL A   1      42.058  24.876  27.311  1.00  0.00     0.029 A 
ATOM     47  N   UNL A   1      42.905  26.702  28.239  1.00  0.00    -0.354 N 
ATOM     48  C   UNL A   1      46.805  28.236  27.019  1.00  0.00     0.074 A 
ATOM     49  C   UNL A   1      46.552  28.228  25.597  1.00  0.00     0.031 C 
ATOM     50  C   UNL A   1      41.049  25.496  27.966  1.00  0.00     0.029 A 
ATOM     51  C   UNL A   1      41.567  26.706  28.585  1.00  0.00     0.049 A 
ATOM     52  H   UNL A   1      43.553  27.348  28.603  1.00  0.00     0.167 HD
ATOM     53  C   UNL A   1      47.467  29.146  27.778  1.00  0.00     0.031 A 
ATOM     54  C   UNL A   1      40.935  27.691  29.263  1.00  0.00     0.031 A 
ATOM     55  C   UNL A   1      47.625  28.739  29.144  1.00  0.00     0.049 A 
ATOM     56  C   UNL A   1      41.967  28.462  29.999  1.00  0.00     0.074 A 
ATOM     57  C   UNL A   1      48.311  27.723  29.778  1.00  0.00     0.029 A 
ATOM     58  N   UNL A   1      46.729  29.221  30.068  1.00  0.00    -0.354 N 
ATOM     59  N   UNL A   1      42.649  27.990  31.003  1.00  0.00    -0.248 NA
ATOM     60  C   UNL A   1      42.526  29.656  29.379  1.00  0.00     0.031 C 
ATOM     61  C   UNL A   1      47.499  27.355  30.891  1.00  0.00     0.029 A 
ATOM     62  C   UNL A   1      46.364  28.167  30.867  1.00  0.00     0.049 A 
ATOM     63  H   UNL A   1      46.410  30.150  30.141  1.00  0.00     0.167 HD
ATOM     64  C   UNL A   1      43.904  28.571  30.895  1.00  0.00     0.074 A 
ATOM     65  C   UNL A   1      43.729  29.675  29.959  1.00  0.00     0.031 C 
ATOM     66  C   UNL A   1      45.020  27.937  31.359  1.00  0.00     0.031 A 
BRANCH  53  67
ATOM     67  C   UNL A   1      47.747  30.531  27.297  1.00  0.00    -0.014 A 
ATOM     68  C   UNL A   1      49.064  31.009  27.266  1.00  0.00     0.009 A 
ATOM     69  C   UNL A   1      46.712  31.457  27.052  1.00  0.00     0.009 A 
ATOM     70  C   UNL A   1      49.330  32.354  26.983  1.00  0.00     0.001 A 
ATOM     71  C   UNL A   1      46.977  32.786  26.729  1.00  0.00     0.001 A 
ATOM     72  C   UNL A   1      48.288  33.238  26.706  1.00  0.00     0.000 A 
ENDBRANCH  53  67
BRANCH  54  73
ATOM     73  C   UNL A   1      39.550  28.172  29.075  1.00  0.00    -0.014 A 
ATOM     74  C   UNL A   1      38.645  28.170  30.146  1.00  0.00     0.009 A 
ATOM     75  C   UNL A   1      39.185  28.875  27.911  1.00  0.00     0.009 A 
ATOM     76  C   UNL A   1      37.440  28.879  30.069  1.00  0.00     0.001 A 
ATOM     77  C   UNL A   1      37.977  29.574  27.830  1.00  0.00     0.001 A 
ATOM     78  C   UNL A   1      37.112  29.589  28.916  1.00  0.00     0.000 A 
ENDBRANCH  54  73
BRANCH  66  79
ATOM     79  C   UNL A   1      44.818  26.687  32.180  1.00  0.00    -0.014 A 
ATOM     80  C   UNL A   1      44.683  25.422  31.581  1.00  0.00     0.009 A 
ATOM     81  C   UNL A   1      44.939  26.753  33.577  1.00  0.00     0.009 A 
ATOM     82  C   UNL A   1      44.649  24.258  32.355  1.00  0.00     0.001 A 
ATOM     83  C   UNL A   1      44.921  25.588  34.349  1.00  0.00     0.001 A 
ATOM     84  C   UNL A   1      44.775  24.343  33.739  1.00  0.00     0.000 A 
ENDBRANCH  66  79
ENDBRANCH  40  41
ENDBRANCH  33  35
ENDBRANCH  32  33
ENDBRANCH  31  32
ENDBRANCH  30  31
ENDBRANCH  29  30
ENDBRANCH  28  29
ENDBRANCH   1  28
TORSDOF 21
ENDMDL
MODEL 3
REMARK VINA RESULT:     -10.2      4.002      8.629
REMARK SMILES Cn1ncc2c(NCCC3=CCCCC3)c(C(=O)OCCOCCOCCOC(=O)c3ccc(-c4c5nc(c(-c6ccccc6)c6ccc([nH]6)c(-c6ccccc6)c6nc(c(-c7ccccc7)c7ccc4[nH]7)C=C6)C=C5)cc3)cnc21
REMARK SMILES IDX 23 1 22 2 21 3 20 4 19 5 17 6 18 7 16 8 1 9 2 10 3 11 81 12
REMARK SMILES IDX 4 13 5 14 80 15 6 16 79 17 7 18 8 20 9 21 10 22 11 23 15 24
REMARK SMILES IDX 12 25 14 26 13 27 24 28 25 29 26 30 27 31 28 32 29 33 30 34
REMARK SMILES IDX 31 35 32 36 78 37 33 38 77 39 34 40 35 41 36 42 71 43 37 44
REMARK SMILES IDX 76 45 70 46 72 47 38 48 75 49 69 50 68 51 39 53 61 54 46 55
REMARK SMILES IDX 60 56 47 57 50 58 59 59 73 60 48 61 49 62 58 64 74 65 51 66
REMARK SMILES IDX 40 67 41 68 45 69 42 70 44 71 43 72 62 73 63 74 67 75 64 76
REMARK SMILES IDX 66 77 65 78 52 79 53 80 57 81 54 82 56 83 55 84
REMARK H PARENT 7 19 72 52 50 63
REMARK Flexibility Score: inf
ROOT
ATOM      1  C   UNL A   1      41.068  21.187  27.145  1.00  0.00     0.188 C 
ENDROOT
BRANCH   1   2
ATOM      2  O   UNL A   1      39.936  20.873  26.353  1.00  0.00    -0.376 OA
BRANCH   2   3
ATOM      3  C   UNL A   1      39.027  21.951  26.151  1.00  0.00     0.202 C 
BRANCH   3   4
ATOM      4  C   UNL A   1      37.763  21.613  25.342  1.00  0.00     0.261 C 
BRANCH   4   5
ATOM      5  O   UNL A   1      36.568  22.320  25.725  1.00  0.00    -0.460 OA
BRANCH   5   6
ATOM      6  C   UNL A   1      35.717  22.681  24.743  1.00  0.00     0.341 C 
ATOM      7  O   UNL A   1      35.750  22.259  23.589  1.00  0.00    -0.246 OA
BRANCH   6   8
ATOM      8  C   UNL A   1      34.645  23.552  25.276  1.00  0.00     0.102 A 
ATOM      9  C   UNL A   1      31.635  27.496  26.572  1.00  0.00     0.176 C 
ATOM     10  N   UNL A   1      31.711  26.063  26.437  1.00  0.00    -0.250 N 
ATOM     11  N   UNL A   1      30.621  25.307  26.670  1.00  0.00    -0.179 NA
ATOM     12  C   UNL A   1      32.809  25.344  26.049  1.00  0.00     0.159 A 
ATOM     13  C   UNL A   1      31.064  24.066  26.440  1.00  0.00     0.147 A 
ATOM     14  C   UNL A   1      32.422  24.003  26.033  1.00  0.00     0.063 A 
ATOM     15  N   UNL A   1      34.018  25.858  25.748  1.00  0.00    -0.236 NA
ATOM     16  C   UNL A   1      33.377  23.019  25.662  1.00  0.00     0.063 A 
ATOM     17  C   UNL A   1      34.904  24.917  25.362  1.00  0.00     0.131 A 
BRANCH  16  18
ATOM     18  N   UNL A   1      33.205  21.642  25.717  1.00  0.00    -0.383 N 
ATOM     19  H   UNL A   1      33.860  21.166  26.277  1.00  0.00     0.160 HD
BRANCH  18  20
ATOM     20  C   UNL A   1      32.214  20.791  25.078  1.00  0.00     0.117 C 
BRANCH  20  21
ATOM     21  C   UNL A   1      32.876  19.941  23.973  1.00  0.00     0.052 C 
BRANCH  21  22
ATOM     22  C   UNL A   1      33.110  18.493  24.370  1.00  0.00    -0.072 C 
ATOM     23  C   UNL A   1      32.547  17.942  25.460  1.00  0.00    -0.028 C 
ATOM     24  C   UNL A   1      34.046  17.702  23.489  1.00  0.00     0.031 C 
ATOM     25  C   UNL A   1      32.698  16.507  25.855  1.00  0.00     0.027 C 
ATOM     26  C   UNL A   1      34.016  16.191  23.738  1.00  0.00     0.005 C 
ATOM     27  C   UNL A   1      33.920  15.855  25.223  1.00  0.00     0.004 C 
ENDBRANCH  21  22
ENDBRANCH  20  21
ENDBRANCH  18  20
ENDBRANCH  16  18
ENDBRANCH   6   8
ENDBRANCH   5   6
ENDBRANCH   4   5
ENDBRANCH   3   4
ENDBRANCH   2   3
ENDBRANCH   1   2
BRANCH   1  28
ATOM     28  C   UNL A   1      41.692  22.576  26.888  1.00  0.00     0.188 C 
BRANCH  28  29
ATOM     29  O   UNL A   1      43.088  22.830  27.006  1.00  0.00    -0.376 OA
BRANCH  29  30
ATOM     30  C   UNL A   1      43.687  24.035  26.552  1.00  0.00     0.202 C 
BRANCH  30  31
ATOM     31  C   UNL A   1      43.382  24.535  25.143  1.00  0.00     0.261 C 
BRANCH  31  32
ATOM     32  O   UNL A   1      42.201  25.318  25.081  1.00  0.00    -0.460 OA
BRANCH  32  33
ATOM     33  C   UNL A   1      42.424  26.615  25.352  1.00  0.00     0.338 C 
ATOM     34  O   UNL A   1      43.466  27.246  25.181  1.00  0.00    -0.246 OA
BRANCH  33  35
ATOM     35  C   UNL A   1      41.226  27.223  25.930  1.00  0.00     0.060 A 
ATOM     36  C   UNL A   1      41.179  28.618  25.890  1.00  0.00     0.016 A 
ATOM     37  C   UNL A   1      40.430  26.465  26.798  1.00  0.00     0.016 A 
ATOM     38  C   UNL A   1      40.619  29.261  26.963  1.00  0.00     0.010 A 
ATOM     39  C   UNL A   1      39.876  27.109  27.879  1.00  0.00     0.010 A 
ATOM     40  C   UNL A   1      40.119  28.475  28.006  1.00  0.00    -0.014 A 
BRANCH  40  41
ATOM     41  C   UNL A   1      40.123  29.094  29.310  1.00  0.00     0.031 A 
ATOM     42  C   UNL A   1      39.019  30.011  29.607  1.00  0.00     0.074 A 
ATOM     43  C   UNL A   1      41.112  28.860  30.193  1.00  0.00     0.049 A 
ATOM     44  N   UNL A   1      39.082  31.287  29.786  1.00  0.00    -0.248 NA
ATOM     45  C   UNL A   1      37.672  29.437  29.645  1.00  0.00     0.031 C 
ATOM     46  C   UNL A   1      42.125  27.801  30.186  1.00  0.00     0.029 A 
ATOM     47  N   UNL A   1      41.348  29.514  31.358  1.00  0.00    -0.354 N 
ATOM     48  C   UNL A   1      37.786  31.683  30.070  1.00  0.00     0.074 A 
ATOM     49  C   UNL A   1      36.943  30.525  29.882  1.00  0.00     0.031 C 
ATOM     50  C   UNL A   1      42.721  27.757  31.400  1.00  0.00     0.029 A 
ATOM     51  C   UNL A   1      42.230  28.866  32.202  1.00  0.00     0.049 A 
ATOM     52  H   UNL A   1      40.928  30.376  31.583  1.00  0.00     0.167 HD
ATOM     53  C   UNL A   1      37.485  32.901  30.586  1.00  0.00     0.031 A 
ATOM     54  C   UNL A   1      42.460  29.190  33.495  1.00  0.00     0.031 A 
ATOM     55  C   UNL A   1      38.563  33.842  30.487  1.00  0.00     0.049 A 
ATOM     56  C   UNL A   1      42.039  30.601  33.685  1.00  0.00     0.074 A 
ATOM     57  C   UNL A   1      39.219  34.456  29.440  1.00  0.00     0.029 A 
ATOM     58  N   UNL A   1      39.363  34.022  31.590  1.00  0.00    -0.354 N 
ATOM     59  N   UNL A   1      42.653  31.619  33.154  1.00  0.00    -0.248 NA
ATOM     60  C   UNL A   1      40.693  30.873  34.168  1.00  0.00     0.031 C 
ATOM     61  C   UNL A   1      40.573  34.588  29.867  1.00  0.00     0.029 A 
ATOM     62  C   UNL A   1      40.663  34.042  31.149  1.00  0.00     0.049 A 
ATOM     63  H   UNL A   1      39.060  34.118  32.522  1.00  0.00     0.167 HD
ATOM     64  C   UNL A   1      41.652  32.539  32.874  1.00  0.00     0.074 A 
ATOM     65  C   UNL A   1      40.495  32.080  33.631  1.00  0.00     0.031 C 
ATOM     66  C   UNL A   1      41.775  33.427  31.845  1.00  0.00     0.031 A 
BRANCH  53  67
ATOM     67  C   UNL A   1      36.263  33.138  31.410  1.00  0.00    -0.014 A 
ATOM     68  C   UNL A   1      35.191  33.870  30.881  1.00  0.00     0.009 A 
ATOM     69  C   UNL A   1      36.218  32.818  32.782  1.00  0.00     0.009 A 
ATOM     70  C   UNL A   1      34.114  34.247  31.691  1.00  0.00     0.001 A 
ATOM     71  C   UNL A   1      35.127  33.156  33.581  1.00  0.00     0.001 A 
ATOM     72  C   UNL A   1      34.079  33.882  33.036  1.00  0.00     0.000 A 
ENDBRANCH  53  67
BRANCH  54  73
ATOM     73  C   UNL A   1      42.739  28.273  34.619  1.00  0.00    -0.014 A 
ATOM     74  C   UNL A   1      41.745  27.405  35.093  1.00  0.00     0.009 A 
ATOM     75  C   UNL A   1      44.058  28.063  35.065  1.00  0.00     0.009 A 
ATOM     76  C   UNL A   1      42.067  26.342  35.946  1.00  0.00     0.001 A 
ATOM     77  C   UNL A   1      44.378  27.009  35.925  1.00  0.00     0.001 A 
ATOM     78  C   UNL A   1      43.383  26.138  36.353  1.00  0.00     0.000 A 
ENDBRANCH  54  73
BRANCH  66  79
ATOM     79  C   UNL A   1      43.118  33.517  31.161  1.00  0.00    -0.014 A 
ATOM     80  C   UNL A   1      43.538  32.552  30.228  1.00  0.00     0.009 A 
ATOM     81  C   UNL A   1      43.897  34.672  31.321  1.00  0.00     0.009 A 
ATOM     82  C   UNL A   1      44.714  32.727  29.491  1.00  0.00     0.001 A 
ATOM     83  C   UNL A   1      45.064  34.854  30.572  1.00  0.00     0.001 A 
ATOM     84  C   UNL A   1      45.472  33.882  29.661  1.00  0.00     0.000 A 
ENDBRANCH  66  79
ENDBRANCH  40  41
ENDBRANCH  33  35
ENDBRANCH  32  33
ENDBRANCH  31  32
ENDBRANCH  30  31
ENDBRANCH  29  30
ENDBRANCH  28  29
ENDBRANCH   1  28
TORSDOF 21
ENDMDL
