MODEL 1
REMARK VINA RESULT:      -9.0      0.000      0.000
REMARK SMILES CCCc1n[nH]c(C(=O)N[C@H](C)CC(=O)OCCOCCOCCOC(=O)c2ccc(-c3c4nc(c(-c5ccccc5)c5ccc([nH]5)c(-c5ccccc5)c5nc(c(-c6ccccc6)c6ccc3[nH]6)C=C5)C=C4)cc2)n1
REMARK SMILES IDX 19 1 18 2 17 3 16 4 14 5 15 6 13 7 11 8 12 9 10 10 8 11 9 12
REMARK SMILES IDX 7 14 4 15 5 16 76 17 6 18 3 20 2 21 1 22 20 23 21 24 22 25
REMARK SMILES IDX 23 26 24 27 25 28 26 29 27 30 28 31 29 32 75 33 30 34 74 35
REMARK SMILES IDX 31 36 32 37 33 38 68 39 34 40 73 41 67 42 69 43 35 44 72 45
REMARK SMILES IDX 66 46 65 47 36 49 58 50 43 51 57 52 44 53 47 54 56 55 70 56
REMARK SMILES IDX 45 57 46 58 55 60 71 61 48 62 37 63 38 64 42 65 39 66 41 67
REMARK SMILES IDX 40 68 59 69 60 70 64 71 61 72 63 73 62 74 49 75 50 76 54 77
REMARK SMILES IDX 51 78 53 79 52 80
REMARK H PARENT 10 13 6 19 69 48 47 59
REMARK Flexibility Score: inf
ROOT
ATOM      1  O   UNL A   1      39.296  21.646  25.625  1.00  0.00    -0.376 OA
ENDROOT
BRANCH   1   2
ATOM      2  C   UNL A   1      38.334  22.464  26.285  1.00  0.00     0.202 C 
BRANCH   2   3
ATOM      3  C   UNL A   1      37.720  23.629  25.503  1.00  0.00     0.261 C 
BRANCH   3   4
ATOM      4  O   UNL A   1      36.874  23.178  24.417  1.00  0.00    -0.463 OA
BRANCH   4   5
ATOM      5  C   UNL A   1      35.562  23.474  24.559  1.00  0.00     0.307 C 
ATOM      6  O   UNL A   1      35.157  24.561  24.961  1.00  0.00    -0.252 OA
BRANCH   5   7
ATOM      7  C   UNL A   1      34.584  22.418  24.076  1.00  0.00     0.147 C 
BRANCH   7   8
ATOM      8  C   UNL A   1      34.037  21.273  24.950  1.00  0.00     0.090 C 
ATOM      9  C   UNL A   1      34.695  19.923  24.686  1.00  0.00     0.031 C 
BRANCH   8  10
ATOM     10  N   UNL A   1      34.265  21.639  26.358  1.00  0.00    -0.346 N 
ATOM     11  C   UNL A   1      33.678  22.563  27.193  1.00  0.00     0.288 C 
ATOM     12  O   UNL A   1      34.311  22.841  28.202  1.00  0.00    -0.266 OA
ATOM     13  H   UNL A   1      34.981  21.117  26.788  1.00  0.00     0.164 HD
BRANCH  11  14
ATOM     14  C   UNL A   1      32.396  23.190  26.932  1.00  0.00     0.214 A 
ATOM     15  C   UNL A   1      30.705  24.307  26.292  1.00  0.00     0.151 A 
ATOM     16  N   UNL A   1      30.159  23.170  26.729  1.00  0.00    -0.158 NA
ATOM     17  N   UNL A   1      32.081  24.382  26.459  1.00  0.00    -0.207 NA
ATOM     18  N   UNL A   1      31.240  22.474  27.099  1.00  0.00    -0.255 N 
ATOM     19  H   UNL A   1      31.209  21.556  27.451  1.00  0.00     0.192 HD
BRANCH  15  20
ATOM     20  C   UNL A   1      29.875  25.472  25.885  1.00  0.00     0.079 C 
BRANCH  20  21
ATOM     21  C   UNL A   1      30.562  26.731  25.366  1.00  0.00     0.005 C 
ATOM     22  C   UNL A   1      30.133  27.138  23.963  1.00  0.00     0.004 C 
ENDBRANCH  20  21
ENDBRANCH  15  20
ENDBRANCH  11  14
ENDBRANCH   8  10
ENDBRANCH   7   8
ENDBRANCH   5   7
ENDBRANCH   4   5
ENDBRANCH   3   4
ENDBRANCH   2   3
ENDBRANCH   1   2
BRANCH   1  23
ATOM     23  C   UNL A   1      39.986  20.685  26.402  1.00  0.00     0.188 C 
BRANCH  23  24
ATOM     24  C   UNL A   1      40.867  21.170  27.568  1.00  0.00     0.188 C 
BRANCH  24  25
ATOM     25  O   UNL A   1      42.276  21.154  27.463  1.00  0.00    -0.376 OA
BRANCH  25  26
ATOM     26  C   UNL A   1      42.825  20.656  26.244  1.00  0.00     0.202 C 
BRANCH  26  27
ATOM     27  C   UNL A   1      43.639  21.594  25.341  1.00  0.00     0.261 C 
BRANCH  27  28
ATOM     28  O   UNL A   1      42.868  22.693  24.811  1.00  0.00    -0.460 OA
BRANCH  28  29
ATOM     29  C   UNL A   1      43.478  23.895  24.924  1.00  0.00     0.338 C 
ATOM     30  O   UNL A   1      44.579  24.200  24.478  1.00  0.00    -0.246 OA
BRANCH  29  31
ATOM     31  C   UNL A   1      42.633  24.904  25.595  1.00  0.00     0.060 A 
ATOM     32  C   UNL A   1      42.982  26.255  25.564  1.00  0.00     0.016 A 
ATOM     33  C   UNL A   1      41.685  24.466  26.519  1.00  0.00     0.016 A 
ATOM     34  C   UNL A   1      42.483  27.138  26.514  1.00  0.00     0.010 A 
ATOM     35  C   UNL A   1      41.148  25.367  27.449  1.00  0.00     0.010 A 
ATOM     36  C   UNL A   1      41.603  26.694  27.503  1.00  0.00    -0.014 A 
BRANCH  36  37
ATOM     37  C   UNL A   1      41.297  27.583  28.654  1.00  0.00     0.031 A 
ATOM     38  C   UNL A   1      42.143  27.526  29.904  1.00  0.00     0.074 A 
ATOM     39  C   UNL A   1      40.338  28.523  28.552  1.00  0.00     0.049 A 
ATOM     40  N   UNL A   1      41.974  28.152  31.042  1.00  0.00    -0.248 NA
ATOM     41  C   UNL A   1      43.349  26.682  29.861  1.00  0.00     0.031 C 
ATOM     42  C   UNL A   1      39.540  28.801  27.357  1.00  0.00     0.029 A 
ATOM     43  N   UNL A   1      39.873  29.423  29.479  1.00  0.00    -0.354 N 
ATOM     44  C   UNL A   1      43.052  27.786  31.841  1.00  0.00     0.074 A 
ATOM     45  C   UNL A   1      43.856  26.863  31.073  1.00  0.00     0.031 C 
ATOM     46  C   UNL A   1      38.685  29.798  27.624  1.00  0.00     0.029 A 
ATOM     47  C   UNL A   1      38.797  30.148  29.034  1.00  0.00     0.049 A 
ATOM     48  H   UNL A   1      40.272  29.536  30.372  1.00  0.00     0.167 HD
ATOM     49  C   UNL A   1      43.345  28.183  33.103  1.00  0.00     0.031 A 
ATOM     50  C   UNL A   1      37.933  30.935  29.700  1.00  0.00     0.031 A 
ATOM     51  C   UNL A   1      42.519  29.058  33.890  1.00  0.00     0.049 A 
ATOM     52  C   UNL A   1      38.117  31.140  31.173  1.00  0.00     0.074 A 
ATOM     53  C   UNL A   1      42.697  29.471  35.198  1.00  0.00     0.029 A 
ATOM     54  N   UNL A   1      41.342  29.637  33.444  1.00  0.00    -0.354 N 
ATOM     55  N   UNL A   1      39.099  30.740  31.943  1.00  0.00    -0.248 NA
ATOM     56  C   UNL A   1      37.061  31.881  31.875  1.00  0.00     0.031 C 
ATOM     57  C   UNL A   1      41.581  30.226  35.573  1.00  0.00     0.029 A 
ATOM     58  C   UNL A   1      40.746  30.346  34.474  1.00  0.00     0.049 A 
ATOM     59  H   UNL A   1      40.982  29.555  32.532  1.00  0.00     0.167 HD
ATOM     60  C   UNL A   1      38.790  31.195  33.217  1.00  0.00     0.074 A 
ATOM     61  C   UNL A   1      37.534  31.911  33.113  1.00  0.00     0.031 C 
ATOM     62  C   UNL A   1      39.487  31.035  34.369  1.00  0.00     0.031 A 
BRANCH  49  63
ATOM     63  C   UNL A   1      44.580  27.616  33.743  1.00  0.00    -0.014 A 
ATOM     64  C   UNL A   1      44.540  26.430  34.492  1.00  0.00     0.009 A 
ATOM     65  C   UNL A   1      45.817  28.249  33.539  1.00  0.00     0.009 A 
ATOM     66  C   UNL A   1      45.714  25.897  35.031  1.00  0.00     0.001 A 
ATOM     67  C   UNL A   1      46.990  27.704  34.062  1.00  0.00     0.001 A 
ATOM     68  C   UNL A   1      46.937  26.530  34.811  1.00  0.00     0.000 A 
ENDBRANCH  49  63
BRANCH  50  69
ATOM     69  C   UNL A   1      36.740  31.465  28.989  1.00  0.00    -0.014 A 
ATOM     70  C   UNL A   1      35.605  30.673  28.777  1.00  0.00     0.009 A 
ATOM     71  C   UNL A   1      36.732  32.799  28.539  1.00  0.00     0.009 A 
ATOM     72  C   UNL A   1      34.487  31.206  28.130  1.00  0.00     0.001 A 
ATOM     73  C   UNL A   1      35.602  33.337  27.926  1.00  0.00     0.001 A 
ATOM     74  C   UNL A   1      34.481  32.538  27.717  1.00  0.00     0.000 A 
ENDBRANCH  50  69
BRANCH  62  75
ATOM     75  C   UNL A   1      38.916  31.668  35.605  1.00  0.00    -0.014 A 
ATOM     76  C   UNL A   1      38.179  30.915  36.532  1.00  0.00     0.009 A 
ATOM     77  C   UNL A   1      39.135  33.031  35.853  1.00  0.00     0.009 A 
ATOM     78  C   UNL A   1      37.639  31.527  37.665  1.00  0.00     0.001 A 
ATOM     79  C   UNL A   1      38.620  33.633  37.001  1.00  0.00     0.001 A 
ATOM     80  C   UNL A   1      37.863  32.884  37.901  1.00  0.00     0.000 A 
ENDBRANCH  62  75
ENDBRANCH  36  37
ENDBRANCH  29  31
ENDBRANCH  28  29
ENDBRANCH  27  28
ENDBRANCH  26  27
ENDBRANCH  25  26
ENDBRANCH  24  25
ENDBRANCH  23  24
ENDBRANCH   1  23
TORSDOF 22
ENDMDL
MODEL 2
REMARK VINA RESULT:      -8.8      1.657      6.491
REMARK SMILES CCCc1n[nH]c(C(=O)N[C@H](C)CC(=O)OCCOCCOCCOC(=O)c2ccc(-c3c4nc(c(-c5ccccc5)c5ccc([nH]5)c(-c5ccccc5)c5nc(c(-c6ccccc6)c6ccc3[nH]6)C=C5)C=C4)cc2)n1
REMARK SMILES IDX 19 1 18 2 17 3 16 4 14 5 15 6 13 7 11 8 12 9 10 10 8 11 9 12
REMARK SMILES IDX 7 14 4 15 5 16 76 17 6 18 3 20 2 21 1 22 20 23 21 24 22 25
REMARK SMILES IDX 23 26 24 27 25 28 26 29 27 30 28 31 29 32 75 33 30 34 74 35
REMARK SMILES IDX 31 36 32 37 33 38 68 39 34 40 73 41 67 42 69 43 35 44 72 45
REMARK SMILES IDX 66 46 65 47 36 49 58 50 43 51 57 52 44 53 47 54 56 55 70 56
REMARK SMILES IDX 45 57 46 58 55 60 71 61 48 62 37 63 38 64 42 65 39 66 41 67
REMARK SMILES IDX 40 68 59 69 60 70 64 71 61 72 63 73 62 74 49 75 50 76 54 77
REMARK SMILES IDX 51 78 53 79 52 80
REMARK H PARENT 10 13 6 19 69 48 47 59
REMARK Flexibility Score: inf
ROOT
ATOM      1  O   UNL A   1      40.002  22.276  25.886  1.00  0.00    -0.376 OA
ENDROOT
BRANCH   1   2
ATOM      2  C   UNL A   1      38.721  22.833  26.167  1.00  0.00     0.202 C 
BRANCH   2   3
ATOM      3  C   UNL A   1      37.521  22.326  25.361  1.00  0.00     0.261 C 
BRANCH   3   4
ATOM      4  O   UNL A   1      37.038  23.312  24.416  1.00  0.00    -0.463 OA
BRANCH   4   5
ATOM      5  C   UNL A   1      35.821  23.825  24.704  1.00  0.00     0.307 C 
ATOM      6  O   UNL A   1      35.124  24.410  23.879  1.00  0.00    -0.252 OA
BRANCH   5   7
ATOM      7  C   UNL A   1      35.288  23.538  26.096  1.00  0.00     0.147 C 
BRANCH   7   8
ATOM      8  C   UNL A   1      34.103  22.604  26.399  1.00  0.00     0.090 C 
ATOM      9  C   UNL A   1      33.593  22.693  27.834  1.00  0.00     0.031 C 
BRANCH   8  10
ATOM     10  N   UNL A   1      33.005  22.966  25.487  1.00  0.00    -0.346 N 
ATOM     11  C   UNL A   1      32.329  22.268  24.511  1.00  0.00     0.288 C 
ATOM     12  O   UNL A   1      31.694  22.950  23.718  1.00  0.00    -0.266 OA
ATOM     13  H   UNL A   1      32.692  23.893  25.597  1.00  0.00     0.164 HD
BRANCH  11  14
ATOM     14  C   UNL A   1      32.340  20.822  24.395  1.00  0.00     0.214 A 
ATOM     15  C   UNL A   1      32.606  18.761  23.951  1.00  0.00     0.151 A 
ATOM     16  N   UNL A   1      32.260  18.743  25.241  1.00  0.00    -0.158 NA
ATOM     17  N   UNL A   1      32.605  20.025  23.377  1.00  0.00    -0.207 NA
ATOM     18  N   UNL A   1      32.126  20.047  25.505  1.00  0.00    -0.255 N 
ATOM     19  H   UNL A   1      31.900  20.408  26.392  1.00  0.00     0.192 HD
BRANCH  15  20
ATOM     20  C   UNL A   1      32.745  17.512  23.157  1.00  0.00     0.079 C 
BRANCH  20  21
ATOM     21  C   UNL A   1      34.105  16.826  23.080  1.00  0.00     0.005 C 
ATOM     22  C   UNL A   1      34.587  16.252  24.406  1.00  0.00     0.004 C 
ENDBRANCH  20  21
ENDBRANCH  15  20
ENDBRANCH  11  14
ENDBRANCH   8  10
ENDBRANCH   7   8
ENDBRANCH   5   7
ENDBRANCH   4   5
ENDBRANCH   3   4
ENDBRANCH   2   3
ENDBRANCH   1   2
BRANCH   1  23
ATOM     23  C   UNL A   1      40.551  21.378  26.832  1.00  0.00     0.188 C 
BRANCH  23  24
ATOM     24  C   UNL A   1      41.707  21.862  27.729  1.00  0.00     0.188 C 
BRANCH  24  25
ATOM     25  O   UNL A   1      43.002  22.051  27.197  1.00  0.00    -0.376 OA
BRANCH  25  26
ATOM     26  C   UNL A   1      43.197  21.688  25.832  1.00  0.00     0.202 C 
BRANCH  26  27
ATOM     27  C   UNL A   1      43.978  22.628  24.902  1.00  0.00     0.261 C 
BRANCH  27  28
ATOM     28  O   UNL A   1      43.276  23.852  24.601  1.00  0.00    -0.460 OA
BRANCH  28  29
ATOM     29  C   UNL A   1      43.914  24.969  25.023  1.00  0.00     0.338 C 
ATOM     30  O   UNL A   1      45.086  25.263  24.815  1.00  0.00    -0.246 OA
BRANCH  29  31
ATOM     31  C   UNL A   1      43.017  25.906  25.729  1.00  0.00     0.060 A 
ATOM     32  C   UNL A   1      43.364  27.252  25.865  1.00  0.00     0.016 A 
ATOM     33  C   UNL A   1      42.001  25.381  26.527  1.00  0.00     0.016 A 
ATOM     34  C   UNL A   1      42.791  28.034  26.862  1.00  0.00     0.010 A 
ATOM     35  C   UNL A   1      41.393  26.183  27.502  1.00  0.00     0.010 A 
ATOM     36  C   UNL A   1      41.839  27.495  27.728  1.00  0.00    -0.014 A 
BRANCH  36  37
ATOM     37  C   UNL A   1      41.443  28.260  28.939  1.00  0.00     0.031 A 
ATOM     38  C   UNL A   1      40.226  29.154  28.908  1.00  0.00     0.074 A 
ATOM     39  C   UNL A   1      42.095  28.079  30.103  1.00  0.00     0.049 A 
ATOM     40  N   UNL A   1      39.779  29.970  29.830  1.00  0.00    -0.248 NA
ATOM     41  C   UNL A   1      39.385  29.104  27.700  1.00  0.00     0.031 C 
ATOM     42  C   UNL A   1      43.193  27.136  30.327  1.00  0.00     0.029 A 
ATOM     43  N   UNL A   1      41.923  28.685  31.322  1.00  0.00    -0.354 N 
ATOM     44  C   UNL A   1      38.608  30.518  29.319  1.00  0.00     0.074 A 
ATOM     45  C   UNL A   1      38.424  29.967  27.996  1.00  0.00     0.031 C 
ATOM     46  C   UNL A   1      43.596  27.230  31.602  1.00  0.00     0.029 A 
ATOM     47  C   UNL A   1      42.867  28.313  32.247  1.00  0.00     0.049 A 
ATOM     48  H   UNL A   1      41.197  29.322  31.514  1.00  0.00     0.167 HD
ATOM     49  C   UNL A   1      37.762  31.402  29.900  1.00  0.00     0.031 A 
ATOM     50  C   UNL A   1      43.178  28.842  33.444  1.00  0.00     0.031 A 
ATOM     51  C   UNL A   1      37.971  31.994  31.194  1.00  0.00     0.049 A 
ATOM     52  C   UNL A   1      42.395  30.016  33.951  1.00  0.00     0.074 A 
ATOM     53  C   UNL A   1      37.205  32.946  31.844  1.00  0.00     0.029 A 
ATOM     54  N   UNL A   1      39.041  31.705  32.026  1.00  0.00    -0.354 N 
ATOM     55  N   UNL A   1      41.329  30.578  33.437  1.00  0.00    -0.248 NA
ATOM     56  C   UNL A   1      42.875  30.646  35.188  1.00  0.00     0.031 C 
ATOM     57  C   UNL A   1      37.861  33.298  33.029  1.00  0.00     0.029 A 
ATOM     58  C   UNL A   1      38.994  32.511  33.152  1.00  0.00     0.049 A 
ATOM     59  H   UNL A   1      39.732  31.029  31.843  1.00  0.00     0.167 HD
ATOM     60  C   UNL A   1      40.999  31.617  34.296  1.00  0.00     0.074 A 
ATOM     61  C   UNL A   1      41.972  31.599  35.369  1.00  0.00     0.031 C 
ATOM     62  C   UNL A   1      39.978  32.504  34.202  1.00  0.00     0.031 A 
BRANCH  49  63
ATOM     63  C   UNL A   1      36.563  31.844  29.110  1.00  0.00    -0.014 A 
ATOM     64  C   UNL A   1      35.410  31.049  29.021  1.00  0.00     0.009 A 
ATOM     65  C   UNL A   1      36.567  33.107  28.497  1.00  0.00     0.009 A 
ATOM     66  C   UNL A   1      34.290  31.509  28.323  1.00  0.00     0.001 A 
ATOM     67  C   UNL A   1      35.440  33.572  27.818  1.00  0.00     0.001 A 
ATOM     68  C   UNL A   1      34.303  32.771  27.729  1.00  0.00     0.000 A 
ENDBRANCH  49  63
BRANCH  50  69
ATOM     69  C   UNL A   1      44.376  28.341  34.168  1.00  0.00    -0.014 A 
ATOM     70  C   UNL A   1      44.284  27.295  35.094  1.00  0.00     0.009 A 
ATOM     71  C   UNL A   1      45.637  28.909  33.907  1.00  0.00     0.009 A 
ATOM     72  C   UNL A   1      45.431  26.826  35.741  1.00  0.00     0.001 A 
ATOM     73  C   UNL A   1      46.783  28.416  34.527  1.00  0.00     0.001 A 
ATOM     74  C   UNL A   1      46.678  27.377  35.448  1.00  0.00     0.000 A 
ENDBRANCH  50  69
BRANCH  62  75
ATOM     75  C   UNL A   1      39.848  33.514  35.305  1.00  0.00    -0.014 A 
ATOM     76  C   UNL A   1      40.307  34.830  35.142  1.00  0.00     0.009 A 
ATOM     77  C   UNL A   1      39.244  33.147  36.517  1.00  0.00     0.009 A 
ATOM     78  C   UNL A   1      40.196  35.749  36.188  1.00  0.00     0.001 A 
ATOM     79  C   UNL A   1      39.107  34.075  37.549  1.00  0.00     0.001 A 
ATOM     80  C   UNL A   1      39.593  35.372  37.388  1.00  0.00     0.000 A 
ENDBRANCH  62  75
ENDBRANCH  36  37
ENDBRANCH  29  31
ENDBRANCH  28  29
ENDBRANCH  27  28
ENDBRANCH  26  27
ENDBRANCH  25  26
ENDBRANCH  24  25
ENDBRANCH  23  24
ENDBRANCH   1  23
TORSDOF 22
ENDMDL
MODEL 3
REMARK VINA RESULT:      -8.6      1.648      6.323
REMARK SMILES CCCc1n[nH]c(C(=O)N[C@H](C)CC(=O)OCCOCCOCCOC(=O)c2ccc(-c3c4nc(c(-c5ccccc5)c5ccc([nH]5)c(-c5ccccc5)c5nc(c(-c6ccccc6)c6ccc3[nH]6)C=C5)C=C4)cc2)n1
REMARK SMILES IDX 19 1 18 2 17 3 16 4 14 5 15 6 13 7 11 8 12 9 10 10 8 11 9 12
REMARK SMILES IDX 7 14 4 15 5 16 76 17 6 18 3 20 2 21 1 22 20 23 21 24 22 25
REMARK SMILES IDX 23 26 24 27 25 28 26 29 27 30 28 31 29 32 75 33 30 34 74 35
REMARK SMILES IDX 31 36 32 37 33 38 68 39 34 40 73 41 67 42 69 43 35 44 72 45
REMARK SMILES IDX 66 46 65 47 36 49 58 50 43 51 57 52 44 53 47 54 56 55 70 56
REMARK SMILES IDX 45 57 46 58 55 60 71 61 48 62 37 63 38 64 42 65 39 66 41 67
REMARK SMILES IDX 40 68 59 69 60 70 64 71 61 72 63 73 62 74 49 75 50 76 54 77
REMARK SMILES IDX 51 78 53 79 52 80
REMARK H PARENT 10 13 6 19 69 48 47 59
REMARK Flexibility Score: inf
ROOT
ATOM      1  O   UNL A   1      39.809  22.318  26.000  1.00  0.00    -0.376 OA
ENDROOT
BRANCH   1   2
ATOM      2  C   UNL A   1      38.400  22.285  26.208  1.00  0.00     0.202 C 
BRANCH   2   3
ATOM      3  C   UNL A   1      37.553  21.415  25.274  1.00  0.00     0.261 C 
BRANCH   3   4
ATOM      4  O   UNL A   1      37.044  22.159  24.141  1.00  0.00    -0.463 OA
BRANCH   4   5
ATOM      5  C   UNL A   1      35.749  22.534  24.243  1.00  0.00     0.307 C 
ATOM      6  O   UNL A   1      35.346  23.654  23.942  1.00  0.00    -0.252 OA
BRANCH   5   7
ATOM      7  C   UNL A   1      34.769  21.445  24.645  1.00  0.00     0.147 C 
BRANCH   7   8
ATOM      8  C   UNL A   1      33.239  21.560  24.515  1.00  0.00     0.090 C 
ATOM      9  C   UNL A   1      32.566  20.301  23.978  1.00  0.00     0.031 C 
BRANCH   8  10
ATOM     10  N   UNL A   1      32.698  21.846  25.854  1.00  0.00    -0.346 N 
ATOM     11  C   UNL A   1      32.384  23.017  26.508  1.00  0.00     0.288 C 
ATOM     12  O   UNL A   1      32.260  22.928  27.722  1.00  0.00    -0.266 OA
ATOM     13  H   UNL A   1      32.527  21.038  26.390  1.00  0.00     0.164 HD
BRANCH  11  14
ATOM     14  C   UNL A   1      32.200  24.292  25.840  1.00  0.00     0.214 A 
ATOM     15  C   UNL A   1      31.586  26.149  25.010  1.00  0.00     0.151 A 
ATOM     16  N   UNL A   1      32.909  26.299  25.122  1.00  0.00    -0.158 NA
ATOM     17  N   UNL A   1      31.119  24.898  25.385  1.00  0.00    -0.207 NA
ATOM     18  N   UNL A   1      33.268  25.134  25.670  1.00  0.00    -0.255 N 
ATOM     19  H   UNL A   1      34.192  24.907  25.923  1.00  0.00     0.192 HD
BRANCH  15  20
ATOM     20  C   UNL A   1      30.737  27.157  24.321  1.00  0.00     0.079 C 
BRANCH  20  21
ATOM     21  C   UNL A   1      29.334  26.765  23.869  1.00  0.00     0.005 C 
ATOM     22  C   UNL A   1      28.567  27.886  23.180  1.00  0.00     0.004 C 
ENDBRANCH  20  21
ENDBRANCH  15  20
ENDBRANCH  11  14
ENDBRANCH   8  10
ENDBRANCH   7   8
ENDBRANCH   5   7
ENDBRANCH   4   5
ENDBRANCH   3   4
ENDBRANCH   2   3
ENDBRANCH   1   2
BRANCH   1  23
ATOM     23  C   UNL A   1      40.536  21.127  26.233  1.00  0.00     0.188 C 
BRANCH  23  24
ATOM     24  C   UNL A   1      42.073  21.164  26.127  1.00  0.00     0.188 C 
BRANCH  24  25
ATOM     25  O   UNL A   1      42.707  21.896  25.100  1.00  0.00    -0.376 OA
BRANCH  25  26
ATOM     26  C   UNL A   1      43.678  22.861  25.502  1.00  0.00     0.202 C 
BRANCH  26  27
ATOM     27  C   UNL A   1      43.561  24.308  25.002  1.00  0.00     0.261 C 
BRANCH  27  28
ATOM     28  O   UNL A   1      42.285  24.915  25.293  1.00  0.00    -0.460 OA
BRANCH  28  29
ATOM     29  C   UNL A   1      42.346  26.252  25.491  1.00  0.00     0.338 C 
ATOM     30  O   UNL A   1      42.285  27.122  24.628  1.00  0.00    -0.246 OA
BRANCH  29  31
ATOM     31  C   UNL A   1      42.414  26.615  26.921  1.00  0.00     0.060 A 
ATOM     32  C   UNL A   1      41.500  26.081  27.832  1.00  0.00     0.016 A 
ATOM     33  C   UNL A   1      43.171  27.727  27.289  1.00  0.00     0.016 A 
ATOM     34  C   UNL A   1      41.259  26.712  29.047  1.00  0.00     0.010 A 
ATOM     35  C   UNL A   1      42.958  28.337  28.533  1.00  0.00     0.010 A 
ATOM     36  C   UNL A   1      41.944  27.878  29.389  1.00  0.00    -0.014 A 
BRANCH  36  37
ATOM     37  C   UNL A   1      41.484  28.675  30.557  1.00  0.00     0.031 A 
ATOM     38  C   UNL A   1      40.325  29.633  30.414  1.00  0.00     0.074 A 
ATOM     39  C   UNL A   1      42.018  28.467  31.775  1.00  0.00     0.049 A 
ATOM     40  N   UNL A   1      39.843  30.480  31.289  1.00  0.00    -0.248 NA
ATOM     41  C   UNL A   1      39.595  29.618  29.135  1.00  0.00     0.031 C 
ATOM     42  C   UNL A   1      43.038  27.469  32.101  1.00  0.00     0.029 A 
ATOM     43  N   UNL A   1      41.771  29.092  32.972  1.00  0.00    -0.354 N 
ATOM     44  C   UNL A   1      38.755  31.086  30.673  1.00  0.00     0.074 A 
ATOM     45  C   UNL A   1      38.660  30.535  29.340  1.00  0.00     0.031 C 
ATOM     46  C   UNL A   1      43.330  27.551  33.406  1.00  0.00     0.029 A 
ATOM     47  C   UNL A   1      42.606  28.677  33.980  1.00  0.00     0.049 A 
ATOM     48  H   UNL A   1      41.066  29.769  33.095  1.00  0.00     0.167 HD
ATOM     49  C   UNL A   1      37.909  32.020  31.172  1.00  0.00     0.031 A 
ATOM     50  C   UNL A   1      42.837  29.198  35.198  1.00  0.00     0.031 A 
ATOM     51  C   UNL A   1      38.034  32.610  32.478  1.00  0.00     0.049 A 
ATOM     52  C   UNL A   1      42.078  30.418  35.628  1.00  0.00     0.074 A 
ATOM     53  C   UNL A   1      37.265  33.607  33.053  1.00  0.00     0.029 A 
ATOM     54  N   UNL A   1      39.007  32.271  33.403  1.00  0.00    -0.354 N 
ATOM     55  N   UNL A   1      41.094  31.032  35.018  1.00  0.00    -0.248 NA
ATOM     56  C   UNL A   1      42.478  31.031  36.901  1.00  0.00     0.031 C 
ATOM     57  C   UNL A   1      37.831  33.934  34.290  1.00  0.00     0.029 A 
ATOM     58  C   UNL A   1      38.904  33.087  34.517  1.00  0.00     0.049 A 
ATOM     59  H   UNL A   1      39.673  31.556  33.286  1.00  0.00     0.167 HD
ATOM     60  C   UNL A   1      40.745  32.095  35.840  1.00  0.00     0.074 A 
ATOM     61  C   UNL A   1      41.616  32.033  36.997  1.00  0.00     0.031 C 
ATOM     62  C   UNL A   1      39.787  33.035  35.652  1.00  0.00     0.031 A 
BRANCH  49  63
ATOM     63  C   UNL A   1      36.812  32.519  30.275  1.00  0.00    -0.014 A 
ATOM     64  C   UNL A   1      37.052  33.494  29.295  1.00  0.00     0.009 A 
ATOM     65  C   UNL A   1      35.530  31.955  30.374  1.00  0.00     0.009 A 
ATOM     66  C   UNL A   1      36.025  33.900  28.439  1.00  0.00     0.001 A 
ATOM     67  C   UNL A   1      34.511  32.349  29.505  1.00  0.00     0.001 A 
ATOM     68  C   UNL A   1      34.759  33.324  28.540  1.00  0.00     0.000 A 
ENDBRANCH  49  63
BRANCH  50  69
ATOM     69  C   UNL A   1      43.935  28.640  36.029  1.00  0.00    -0.014 A 
ATOM     70  C   UNL A   1      45.233  29.163  35.969  1.00  0.00     0.009 A 
ATOM     71  C   UNL A   1      43.670  27.578  36.914  1.00  0.00     0.009 A 
ATOM     72  C   UNL A   1      46.241  28.636  36.782  1.00  0.00     0.001 A 
ATOM     73  C   UNL A   1      44.669  27.079  37.748  1.00  0.00     0.001 A 
ATOM     74  C   UNL A   1      45.956  27.605  37.677  1.00  0.00     0.000 A 
ENDBRANCH  50  69
BRANCH  62  75
ATOM     75  C   UNL A   1      39.615  34.060  36.735  1.00  0.00    -0.014 A 
ATOM     76  C   UNL A   1      40.179  35.339  36.621  1.00  0.00     0.009 A 
ATOM     77  C   UNL A   1      38.864  33.745  37.878  1.00  0.00     0.009 A 
ATOM     78  C   UNL A   1      40.025  36.272  37.650  1.00  0.00     0.001 A 
ATOM     79  C   UNL A   1      38.686  34.688  38.890  1.00  0.00     0.001 A 
ATOM     80  C   UNL A   1      39.276  35.947  38.780  1.00  0.00     0.000 A 
ENDBRANCH  62  75
ENDBRANCH  36  37
ENDBRANCH  29  31
ENDBRANCH  28  29
ENDBRANCH  27  28
ENDBRANCH  26  27
ENDBRANCH  25  26
ENDBRANCH  24  25
ENDBRANCH  23  24
ENDBRANCH   1  23
TORSDOF 22
ENDMDL
