MODEL 1
REMARK VINA RESULT:     -11.7      0.000      0.000
REMARK SMILES Cc1cc(C(=O)OCCOCCOCCOC(=O)c2ccc(-c3c4nc(c(-c5ccccc5)c5ccc([nH]5)c(-c5ccccc5)c5nc(c(-c6ccccc6)c6ccc3[nH]6)C=C5)C=C4)cc2)ccc1NC(=O)N1C[C@@H](C)[C@H](C)C1
REMARK SMILES IDX 12 1 11 2 10 3 9 4 8 5 7 6 5 7 6 8 4 9 1 10 2 11 3 12 69 13
REMARK SMILES IDX 68 14 67 15 70 16 71 17 72 19 73 20 74 21 79 22 75 23 77 24
REMARK SMILES IDX 76 25 78 26 13 27 14 28 15 29 16 30 17 31 18 32 19 33 20 34
REMARK SMILES IDX 66 35 21 36 65 37 22 38 23 39 24 40 59 41 25 42 64 43 58 44
REMARK SMILES IDX 60 45 26 46 63 47 57 48 56 49 27 51 49 52 34 53 48 54 35 55
REMARK SMILES IDX 38 56 47 57 61 58 36 59 37 60 46 62 62 63 39 64 28 65 29 66
REMARK SMILES IDX 33 67 30 68 32 69 31 70 50 71 51 72 55 73 52 74 54 75 53 76
REMARK SMILES IDX 40 77 41 78 45 79 42 80 44 81 43 82
REMARK H PARENT 70 18 60 50 38 61
REMARK Flexibility Score: inf
ROOT
ATOM      1  C   UNL A   1      33.906  31.085  27.683  1.00  0.00     0.188 C 
ENDROOT
BRANCH   1   2
ATOM      2  C   UNL A   1      32.563  31.047  26.980  1.00  0.00     0.188 C 
BRANCH   2   3
ATOM      3  O   UNL A   1      31.728  29.887  26.966  1.00  0.00    -0.376 OA
BRANCH   3   4
ATOM      4  C   UNL A   1      31.954  28.570  27.469  1.00  0.00     0.202 C 
BRANCH   4   5
ATOM      5  C   UNL A   1      31.172  27.128  26.964  1.00  0.00     0.261 C 
BRANCH   5   6
ATOM      6  O   UNL A   1      31.812  25.620  26.862  1.00  0.00    -0.460 OA
BRANCH   6   7
ATOM      7  C   UNL A   1      31.585  24.263  26.709  1.00  0.00     0.338 C 
ATOM      8  O   UNL A   1      31.173  23.463  27.536  1.00  0.00    -0.246 OA
BRANCH   7   9
ATOM      9  C   UNL A   1      32.014  23.612  25.414  1.00  0.00     0.060 A 
ATOM     10  C   UNL A   1      35.111  22.967  23.143  1.00  0.00     0.046 C 
ATOM     11  C   UNL A   1      33.711  23.303  23.600  1.00  0.00    -0.027 A 
ATOM     12  C   UNL A   1      33.372  23.425  24.975  1.00  0.00     0.021 A 
ATOM     13  C   UNL A   1      32.678  23.569  22.702  1.00  0.00     0.045 A 
ATOM     14  C   UNL A   1      31.340  23.530  23.138  1.00  0.00     0.027 A 
ATOM     15  C   UNL A   1      31.002  23.544  24.482  1.00  0.00     0.018 A 
BRANCH  13  16
ATOM     16  N   UNL A   1      32.944  24.082  21.414  1.00  0.00    -0.308 N 
ATOM     17  C   UNL A   1      32.558  25.336  20.988  1.00  0.00     0.321 C 
ATOM     18  H   UNL A   1      33.434  23.510  20.782  1.00  0.00     0.171 HD
ATOM     19  O   UNL A   1      32.306  25.546  19.804  1.00  0.00    -0.248 OA
ATOM     20  N   UNL A   1      32.469  26.314  21.955  1.00  0.00    -0.324 N 
ATOM     21  C   UNL A   1      31.379  27.262  22.003  1.00  0.00     0.125 C 
ATOM     22  C   UNL A   1      33.543  26.679  22.875  1.00  0.00     0.125 C 
ATOM     23  C   UNL A   1      31.845  28.378  22.937  1.00  0.00     0.010 C 
ATOM     24  C   UNL A   1      32.915  27.703  23.820  1.00  0.00     0.010 C 
ATOM     25  C   UNL A   1      30.706  28.975  23.752  1.00  0.00     0.010 C 
ATOM     26  C   UNL A   1      33.919  28.699  24.390  1.00  0.00     0.010 C 
ENDBRANCH  13  16
ENDBRANCH   7   9
ENDBRANCH   6   7
ENDBRANCH   5   6
ENDBRANCH   4   5
ENDBRANCH   3   4
ENDBRANCH   2   3
ENDBRANCH   1   2
BRANCH   1  27
ATOM     27  O   UNL A   1      34.633  32.224  27.268  1.00  0.00    -0.376 OA
BRANCH  27  28
ATOM     28  C   UNL A   1      35.097  33.039  28.336  1.00  0.00     0.202 C 
BRANCH  28  29
ATOM     29  C   UNL A   1      34.845  32.438  29.737  1.00  0.00     0.261 C 
BRANCH  29  30
ATOM     30  O   UNL A   1      36.099  32.099  30.378  1.00  0.00    -0.460 OA
BRANCH  30  31
ATOM     31  C   UNL A   1      36.501  30.773  30.368  1.00  0.00     0.338 C 
ATOM     32  O   UNL A   1      36.199  29.953  31.178  1.00  0.00    -0.246 OA
BRANCH  31  33
ATOM     33  C   UNL A   1      37.605  30.609  29.336  1.00  0.00     0.060 A 
ATOM     34  C   UNL A   1      37.524  29.814  28.184  1.00  0.00     0.016 A 
ATOM     35  C   UNL A   1      38.859  30.847  29.771  1.00  0.00     0.016 A 
ATOM     36  C   UNL A   1      38.700  29.134  27.626  1.00  0.00     0.010 A 
ATOM     37  C   UNL A   1      39.780  29.864  29.401  1.00  0.00     0.010 A 
ATOM     38  C   UNL A   1      39.926  29.059  28.287  1.00  0.00    -0.014 A 
BRANCH  38  39
ATOM     39  C   UNL A   1      41.113  28.003  28.102  1.00  0.00     0.031 A 
ATOM     40  C   UNL A   1      41.191  26.440  27.782  1.00  0.00     0.074 A 
ATOM     41  C   UNL A   1      42.364  28.499  28.239  1.00  0.00     0.049 A 
ATOM     42  N   UNL A   1      41.755  25.526  28.556  1.00  0.00    -0.248 NA
ATOM     43  C   UNL A   1      40.794  25.776  26.527  1.00  0.00     0.031 C 
ATOM     44  C   UNL A   1      43.647  27.815  28.079  1.00  0.00     0.029 A 
ATOM     45  N   UNL A   1      42.712  29.758  28.727  1.00  0.00    -0.354 N 
ATOM     46  C   UNL A   1      41.719  24.280  27.890  1.00  0.00     0.074 A 
ATOM     47  C   UNL A   1      40.973  24.473  26.707  1.00  0.00     0.031 C 
ATOM     48  C   UNL A   1      44.571  28.504  28.770  1.00  0.00     0.029 A 
ATOM     49  C   UNL A   1      43.889  29.591  29.457  1.00  0.00     0.049 A 
ATOM     50  H   UNL A   1      42.222  30.600  28.584  1.00  0.00     0.167 HD
ATOM     51  C   UNL A   1      42.457  23.159  28.137  1.00  0.00     0.031 A 
ATOM     52  C   UNL A   1      43.881  29.835  30.797  1.00  0.00     0.031 A 
ATOM     53  C   UNL A   1      43.611  23.512  28.905  1.00  0.00     0.049 A 
ATOM     54  C   UNL A   1      44.219  28.605  31.605  1.00  0.00     0.074 A 
ATOM     55  C   UNL A   1      44.864  23.939  28.500  1.00  0.00     0.029 A 
ATOM     56  N   UNL A   1      43.442  23.890  30.215  1.00  0.00    -0.354 N 
ATOM     57  N   UNL A   1      44.203  27.385  31.138  1.00  0.00    -0.248 NA
ATOM     58  C   UNL A   1      44.588  28.657  33.016  1.00  0.00     0.031 C 
ATOM     59  C   UNL A   1      45.395  24.722  29.554  1.00  0.00     0.029 A 
ATOM     60  C   UNL A   1      44.506  24.670  30.612  1.00  0.00     0.049 A 
ATOM     61  H   UNL A   1      42.678  23.643  30.782  1.00  0.00     0.167 HD
ATOM     62  C   UNL A   1      44.518  26.512  32.143  1.00  0.00     0.074 A 
ATOM     63  C   UNL A   1      44.769  27.355  33.294  1.00  0.00     0.031 C 
ATOM     64  C   UNL A   1      44.536  25.162  31.972  1.00  0.00     0.031 A 
BRANCH  51  65
ATOM     65  C   UNL A   1      42.295  21.883  27.317  1.00  0.00    -0.014 A 
ATOM     66  C   UNL A   1      41.267  20.958  27.570  1.00  0.00     0.009 A 
ATOM     67  C   UNL A   1      43.192  21.543  26.278  1.00  0.00     0.009 A 
ATOM     68  C   UNL A   1      41.220  19.709  26.922  1.00  0.00     0.001 A 
ATOM     69  C   UNL A   1      43.174  20.281  25.657  1.00  0.00     0.001 A 
ATOM     70  C   UNL A   1      42.198  19.353  25.998  1.00  0.00     0.000 A 
ENDBRANCH  51  65
BRANCH  52  71
ATOM     71  C   UNL A   1      42.991  30.965  31.227  1.00  0.00    -0.014 A 
ATOM     72  C   UNL A   1      41.868  30.650  32.032  1.00  0.00     0.009 A 
ATOM     73  C   UNL A   1      43.349  32.317  31.119  1.00  0.00     0.009 A 
ATOM     74  C   UNL A   1      41.202  31.622  32.784  1.00  0.00     0.001 A 
ATOM     75  C   UNL A   1      42.663  33.299  31.862  1.00  0.00     0.001 A 
ATOM     76  C   UNL A   1      41.608  32.948  32.708  1.00  0.00     0.000 A 
ENDBRANCH  52  71
BRANCH  64  77
ATOM     77  C   UNL A   1      44.593  24.135  33.070  1.00  0.00    -0.014 A 
ATOM     78  C   UNL A   1      45.775  23.508  33.473  1.00  0.00     0.009 A 
ATOM     79  C   UNL A   1      43.445  23.923  33.870  1.00  0.00     0.009 A 
ATOM     80  C   UNL A   1      45.802  22.676  34.597  1.00  0.00     0.001 A 
ATOM     81  C   UNL A   1      43.482  23.141  35.023  1.00  0.00     0.001 A 
ATOM     82  C   UNL A   1      44.661  22.505  35.379  1.00  0.00     0.000 A 
ENDBRANCH  64  77
ENDBRANCH  38  39
ENDBRANCH  31  33
ENDBRANCH  30  31
ENDBRANCH  29  30
ENDBRANCH  28  29
ENDBRANCH  27  28
ENDBRANCH   1  27
TORSDOF 18
ENDMDL
MODEL 2
REMARK VINA RESULT:     -11.7      3.099      5.669
REMARK SMILES Cc1cc(C(=O)OCCOCCOCCOC(=O)c2ccc(-c3c4nc(c(-c5ccccc5)c5ccc([nH]5)c(-c5ccccc5)c5nc(c(-c6ccccc6)c6ccc3[nH]6)C=C5)C=C4)cc2)ccc1NC(=O)N1C[C@@H](C)[C@H](C)C1
REMARK SMILES IDX 12 1 11 2 10 3 9 4 8 5 7 6 5 7 6 8 4 9 1 10 2 11 3 12 69 13
REMARK SMILES IDX 68 14 67 15 70 16 71 17 72 19 73 20 74 21 79 22 75 23 77 24
REMARK SMILES IDX 76 25 78 26 13 27 14 28 15 29 16 30 17 31 18 32 19 33 20 34
REMARK SMILES IDX 66 35 21 36 65 37 22 38 23 39 24 40 59 41 25 42 64 43 58 44
REMARK SMILES IDX 60 45 26 46 63 47 57 48 56 49 27 51 49 52 34 53 48 54 35 55
REMARK SMILES IDX 38 56 47 57 61 58 36 59 37 60 46 62 62 63 39 64 28 65 29 66
REMARK SMILES IDX 33 67 30 68 32 69 31 70 50 71 51 72 55 73 52 74 54 75 53 76
REMARK SMILES IDX 40 77 41 78 45 79 42 80 44 81 43 82
REMARK H PARENT 70 18 60 50 38 61
REMARK Flexibility Score: inf
ROOT
ATOM      1  C   UNL A   1      33.636  33.203  27.916  1.00  0.00     0.188 C 
ENDROOT
BRANCH   1   2
ATOM      2  C   UNL A   1      34.136  31.775  28.022  1.00  0.00     0.188 C 
BRANCH   2   3
ATOM      3  O   UNL A   1      33.339  30.645  27.661  1.00  0.00    -0.376 OA
BRANCH   3   4
ATOM      4  C   UNL A   1      33.506  29.680  26.622  1.00  0.00     0.202 C 
BRANCH   4   5
ATOM      5  C   UNL A   1      32.814  29.728  25.053  1.00  0.00     0.261 C 
BRANCH   5   6
ATOM      6  O   UNL A   1      33.480  29.213  23.643  1.00  0.00    -0.460 OA
BRANCH   6   7
ATOM      7  C   UNL A   1      33.692  28.162  22.767  1.00  0.00     0.338 C 
ATOM      8  O   UNL A   1      33.992  28.209  21.583  1.00  0.00    -0.246 OA
BRANCH   7   9
ATOM      9  C   UNL A   1      33.392  26.762  23.249  1.00  0.00     0.060 A 
ATOM     10  C   UNL A   1      30.494  24.212  23.765  1.00  0.00     0.046 C 
ATOM     11  C   UNL A   1      31.744  25.030  23.992  1.00  0.00    -0.027 A 
ATOM     12  C   UNL A   1      32.136  26.074  23.110  1.00  0.00     0.021 A 
ATOM     13  C   UNL A   1      32.562  24.849  25.106  1.00  0.00     0.045 A 
ATOM     14  C   UNL A   1      33.872  25.364  25.109  1.00  0.00     0.027 A 
ATOM     15  C   UNL A   1      34.293  26.309  24.187  1.00  0.00     0.018 A 
BRANCH  13  16
ATOM     16  N   UNL A   1      32.043  24.344  26.318  1.00  0.00    -0.308 N 
ATOM     17  C   UNL A   1      31.704  23.022  26.521  1.00  0.00     0.321 C 
ATOM     18  H   UNL A   1      31.914  24.973  27.063  1.00  0.00     0.171 HD
ATOM     19  O   UNL A   1      30.806  22.717  27.301  1.00  0.00    -0.248 OA
ATOM     20  N   UNL A   1      32.419  22.087  25.803  1.00  0.00    -0.324 N 
ATOM     21  C   UNL A   1      31.792  20.948  25.171  1.00  0.00     0.125 C 
ATOM     22  C   UNL A   1      33.876  21.976  25.793  1.00  0.00     0.125 C 
ATOM     23  C   UNL A   1      32.930  19.984  24.838  1.00  0.00     0.010 C 
ATOM     24  C   UNL A   1      34.176  20.890  24.760  1.00  0.00     0.010 C 
ATOM     25  C   UNL A   1      32.687  19.212  23.549  1.00  0.00     0.010 C 
ATOM     26  C   UNL A   1      35.471  20.134  25.036  1.00  0.00     0.010 C 
ENDBRANCH  13  16
ENDBRANCH   7   9
ENDBRANCH   6   7
ENDBRANCH   5   6
ENDBRANCH   4   5
ENDBRANCH   3   4
ENDBRANCH   2   3
ENDBRANCH   1   2
BRANCH   1  27
ATOM     27  O   UNL A   1      34.077  33.950  29.031  1.00  0.00    -0.376 OA
BRANCH  27  28
ATOM     28  C   UNL A   1      33.787  35.339  28.953  1.00  0.00     0.202 C 
BRANCH  28  29
ATOM     29  C   UNL A   1      33.094  35.906  30.213  1.00  0.00     0.261 C 
BRANCH  29  30
ATOM     30  O   UNL A   1      33.067  34.914  31.267  1.00  0.00    -0.460 OA
BRANCH  30  31
ATOM     31  C   UNL A   1      33.448  35.302  32.541  1.00  0.00     0.338 C 
ATOM     32  O   UNL A   1      33.185  36.346  33.053  1.00  0.00    -0.246 OA
BRANCH  31  33
ATOM     33  C   UNL A   1      34.482  34.316  33.060  1.00  0.00     0.060 A 
ATOM     34  C   UNL A   1      35.701  34.662  33.660  1.00  0.00     0.016 A 
ATOM     35  C   UNL A   1      34.454  33.087  32.506  1.00  0.00     0.016 A 
ATOM     36  C   UNL A   1      36.902  33.831  33.512  1.00  0.00     0.010 A 
ATOM     37  C   UNL A   1      35.710  32.616  32.114  1.00  0.00     0.010 A 
ATOM     38  C   UNL A   1      36.987  32.759  32.623  1.00  0.00    -0.014 A 
BRANCH  38  39
ATOM     39  C   UNL A   1      38.283  32.080  31.976  1.00  0.00     0.031 A 
ATOM     40  C   UNL A   1      38.537  30.863  30.973  1.00  0.00     0.074 A 
ATOM     41  C   UNL A   1      39.468  32.629  32.329  1.00  0.00     0.049 A 
ATOM     42  N   UNL A   1      39.256  29.786  31.241  1.00  0.00    -0.248 NA
ATOM     43  C   UNL A   1      38.149  30.796  29.552  1.00  0.00     0.031 C 
ATOM     44  C   UNL A   1      40.814  32.280  31.876  1.00  0.00     0.029 A 
ATOM     45  N   UNL A   1      39.685  33.561  33.343  1.00  0.00    -0.354 N 
ATOM     46  C   UNL A   1      39.335  28.989  30.077  1.00  0.00     0.074 A 
ATOM     47  C   UNL A   1      38.500  29.593  29.113  1.00  0.00     0.031 C 
ATOM     48  C   UNL A   1      41.686  32.699  32.809  1.00  0.00     0.029 A 
ATOM     49  C   UNL A   1      40.917  33.246  33.918  1.00  0.00     0.049 A 
ATOM     50  H   UNL A   1      39.086  34.298  33.602  1.00  0.00     0.167 HD
ATOM     51  C   UNL A   1      40.222  27.994  29.783  1.00  0.00     0.031 A 
ATOM     52  C   UNL A   1      40.961  32.849  35.220  1.00  0.00     0.031 A 
ATOM     53  C   UNL A   1      41.368  28.115  30.630  1.00  0.00     0.049 A 
ATOM     54  C   UNL A   1      41.500  31.446  35.372  1.00  0.00     0.074 A 
ATOM     55  C   UNL A   1      42.531  28.850  30.471  1.00  0.00     0.029 A 
ATOM     56  N   UNL A   1      41.235  27.827  31.967  1.00  0.00    -0.354 N 
ATOM     57  N   UNL A   1      41.608  30.585  34.396  1.00  0.00    -0.248 NA
ATOM     58  C   UNL A   1      41.945  30.900  36.650  1.00  0.00     0.031 C 
ATOM     59  C   UNL A   1      43.023  29.132  31.769  1.00  0.00     0.029 A 
ATOM     60  C   UNL A   1      42.215  28.480  32.682  1.00  0.00     0.049 A 
ATOM     61  H   UNL A   1      40.543  27.244  32.355  1.00  0.00     0.167 HD
ATOM     62  C   UNL A   1      42.091  29.403  34.888  1.00  0.00     0.074 A 
ATOM     63  C   UNL A   1      42.304  29.654  36.298  1.00  0.00     0.031 C 
ATOM     64  C   UNL A   1      42.267  28.297  34.115  1.00  0.00     0.031 A 
BRANCH  51  65
ATOM     65  C   UNL A   1      40.171  27.223  28.468  1.00  0.00    -0.014 A 
ATOM     66  C   UNL A   1      39.449  26.025  28.331  1.00  0.00     0.009 A 
ATOM     67  C   UNL A   1      40.877  27.654  27.321  1.00  0.00     0.009 A 
ATOM     68  C   UNL A   1      39.538  25.235  27.170  1.00  0.00     0.001 A 
ATOM     69  C   UNL A   1      41.001  26.850  26.173  1.00  0.00     0.001 A 
ATOM     70  C   UNL A   1      40.348  25.626  26.108  1.00  0.00     0.000 A 
ENDBRANCH  51  65
BRANCH  52  71
ATOM     71  C   UNL A   1      39.964  33.523  36.118  1.00  0.00    -0.014 A 
ATOM     72  C   UNL A   1      38.842  32.768  36.539  1.00  0.00     0.009 A 
ATOM     73  C   UNL A   1      40.214  34.733  36.781  1.00  0.00     0.009 A 
ATOM     74  C   UNL A   1      38.069  33.145  37.642  1.00  0.00     0.001 A 
ATOM     75  C   UNL A   1      39.421  35.123  37.879  1.00  0.00     0.001 A 
ATOM     76  C   UNL A   1      38.367  34.319  38.321  1.00  0.00     0.000 A 
ENDBRANCH  52  71
BRANCH  64  77
ATOM     77  C   UNL A   1      42.519  26.901  34.618  1.00  0.00    -0.014 A 
ATOM     78  C   UNL A   1      41.585  26.174  35.361  1.00  0.00     0.009 A 
ATOM     79  C   UNL A   1      43.666  26.207  34.166  1.00  0.00     0.009 A 
ATOM     80  C   UNL A   1      41.806  24.828  35.675  1.00  0.00     0.001 A 
ATOM     81  C   UNL A   1      43.860  24.852  34.427  1.00  0.00     0.001 A 
ATOM     82  C   UNL A   1      42.934  24.165  35.196  1.00  0.00     0.000 A 
ENDBRANCH  64  77
ENDBRANCH  38  39
ENDBRANCH  31  33
ENDBRANCH  30  31
ENDBRANCH  29  30
ENDBRANCH  28  29
ENDBRANCH  27  28
ENDBRANCH   1  27
TORSDOF 18
ENDMDL
MODEL 3
REMARK VINA RESULT:     -10.4      2.639      4.323
REMARK SMILES Cc1cc(C(=O)OCCOCCOCCOC(=O)c2ccc(-c3c4nc(c(-c5ccccc5)c5ccc([nH]5)c(-c5ccccc5)c5nc(c(-c6ccccc6)c6ccc3[nH]6)C=C5)C=C4)cc2)ccc1NC(=O)N1C[C@@H](C)[C@H](C)C1
REMARK SMILES IDX 12 1 11 2 10 3 9 4 8 5 7 6 5 7 6 8 4 9 1 10 2 11 3 12 69 13
REMARK SMILES IDX 68 14 67 15 70 16 71 17 72 19 73 20 74 21 79 22 75 23 77 24
REMARK SMILES IDX 76 25 78 26 13 27 14 28 15 29 16 30 17 31 18 32 19 33 20 34
REMARK SMILES IDX 66 35 21 36 65 37 22 38 23 39 24 40 59 41 25 42 64 43 58 44
REMARK SMILES IDX 60 45 26 46 63 47 57 48 56 49 27 51 49 52 34 53 48 54 35 55
REMARK SMILES IDX 38 56 47 57 61 58 36 59 37 60 46 62 62 63 39 64 28 65 29 66
REMARK SMILES IDX 33 67 30 68 32 69 31 70 50 71 51 72 55 73 52 74 54 75 53 76
REMARK SMILES IDX 40 77 41 78 45 79 42 80 44 81 43 82
REMARK H PARENT 70 18 60 50 38 61
REMARK Flexibility Score: inf
ROOT
ATOM      1  C   UNL A   1      35.082  34.234  31.559  1.00  0.00     0.188 C 
ENDROOT
BRANCH   1   2
ATOM      2  C   UNL A   1      35.010  32.722  31.649  1.00  0.00     0.188 C 
BRANCH   2   3
ATOM      3  O   UNL A   1      34.766  31.888  30.514  1.00  0.00    -0.376 OA
BRANCH   3   4
ATOM      4  C   UNL A   1      35.083  32.075  29.134  1.00  0.00     0.202 C 
BRANCH   4   5
ATOM      5  C   UNL A   1      34.113  31.638  27.788  1.00  0.00     0.261 C 
BRANCH   5   6
ATOM      6  O   UNL A   1      33.843  30.134  27.190  1.00  0.00    -0.460 OA
BRANCH   6   7
ATOM      7  C   UNL A   1      32.917  29.170  26.825  1.00  0.00     0.338 C 
ATOM      8  O   UNL A   1      32.526  28.210  27.472  1.00  0.00    -0.246 OA
BRANCH   7   9
ATOM      9  C   UNL A   1      32.398  29.184  25.407  1.00  0.00     0.060 A 
ATOM     10  C   UNL A   1      29.463  27.946  23.166  1.00  0.00     0.046 C 
ATOM     11  C   UNL A   1      30.852  28.286  23.654  1.00  0.00    -0.027 A 
ATOM     12  C   UNL A   1      31.099  28.732  24.981  1.00  0.00     0.021 A 
ATOM     13  C   UNL A   1      31.983  28.131  22.854  1.00  0.00     0.045 A 
ATOM     14  C   UNL A   1      33.185  28.774  23.204  1.00  0.00     0.027 A 
ATOM     15  C   UNL A   1      33.396  29.305  24.466  1.00  0.00     0.018 A 
BRANCH  13  16
ATOM     16  N   UNL A   1      32.015  27.179  21.812  1.00  0.00    -0.308 N 
ATOM     17  C   UNL A   1      32.712  25.990  21.875  1.00  0.00     0.321 C 
ATOM     18  H   UNL A   1      31.510  27.375  20.991  1.00  0.00     0.171 HD
ATOM     19  O   UNL A   1      33.167  25.474  20.857  1.00  0.00    -0.248 OA
ATOM     20  N   UNL A   1      32.866  25.433  23.127  1.00  0.00    -0.324 N 
ATOM     21  C   UNL A   1      34.113  24.850  23.569  1.00  0.00     0.125 C 
ATOM     22  C   UNL A   1      31.773  25.134  24.050  1.00  0.00     0.125 C 
ATOM     23  C   UNL A   1      33.764  24.021  24.804  1.00  0.00     0.010 C 
ATOM     24  C   UNL A   1      32.463  24.661  25.329  1.00  0.00     0.010 C 
ATOM     25  C   UNL A   1      34.876  24.020  25.844  1.00  0.00     0.010 C 
ATOM     26  C   UNL A   1      31.619  23.690  26.148  1.00  0.00     0.010 C 
ENDBRANCH  13  16
ENDBRANCH   7   9
ENDBRANCH   6   7
ENDBRANCH   5   6
ENDBRANCH   4   5
ENDBRANCH   3   4
ENDBRANCH   2   3
ENDBRANCH   1   2
BRANCH   1  27
ATOM     27  O   UNL A   1      36.358  34.679  31.973  1.00  0.00    -0.376 OA
BRANCH  27  28
ATOM     28  C   UNL A   1      37.441  34.003  31.350  1.00  0.00     0.202 C 
BRANCH  28  29
ATOM     29  C   UNL A   1      38.469  33.419  32.345  1.00  0.00     0.261 C 
BRANCH  29  30
ATOM     30  O   UNL A   1      39.088  32.230  31.799  1.00  0.00    -0.460 OA
BRANCH  30  31
ATOM     31  C   UNL A   1      39.365  31.181  32.660  1.00  0.00     0.338 C 
ATOM     32  O   UNL A   1      39.921  31.278  33.711  1.00  0.00    -0.246 OA
BRANCH  31  33
ATOM     33  C   UNL A   1      39.110  29.873  31.930  1.00  0.00     0.060 A 
ATOM     34  C   UNL A   1      39.694  28.640  32.251  1.00  0.00     0.016 A 
ATOM     35  C   UNL A   1      38.686  29.982  30.655  1.00  0.00     0.016 A 
ATOM     36  C   UNL A   1      40.000  27.636  31.224  1.00  0.00     0.010 A 
ATOM     37  C   UNL A   1      39.371  29.155  29.760  1.00  0.00     0.010 A 
ATOM     38  C   UNL A   1      39.922  27.892  29.856  1.00  0.00    -0.014 A 
BRANCH  38  39
ATOM     39  C   UNL A   1      40.652  27.147  28.643  1.00  0.00     0.031 A 
ATOM     40  C   UNL A   1      40.980  25.624  28.289  1.00  0.00     0.074 A 
ATOM     41  C   UNL A   1      41.119  27.950  27.659  1.00  0.00     0.049 A 
ATOM     42  N   UNL A   1      42.190  25.125  28.094  1.00  0.00    -0.248 NA
ATOM     43  C   UNL A   1      40.006  24.562  27.974  1.00  0.00     0.031 C 
ATOM     44  C   UNL A   1      41.776  27.581  26.406  1.00  0.00     0.029 A 
ATOM     45  N   UNL A   1      41.221  29.339  27.697  1.00  0.00    -0.354 N 
ATOM     46  C   UNL A   1      42.068  23.774  27.699  1.00  0.00     0.074 A 
ATOM     47  C   UNL A   1      40.699  23.444  27.796  1.00  0.00     0.031 C 
ATOM     48  C   UNL A   1      42.496  28.637  25.991  1.00  0.00     0.029 A 
ATOM     49  C   UNL A   1      42.388  29.672  27.008  1.00  0.00     0.049 A 
ATOM     50  H   UNL A   1      40.593  29.964  28.125  1.00  0.00     0.167 HD
ATOM     51  C   UNL A   1      42.989  22.979  27.081  1.00  0.00     0.031 A 
ATOM     52  C   UNL A   1      43.411  30.269  27.681  1.00  0.00     0.031 A 
ATOM     53  C   UNL A   1      43.991  23.800  26.474  1.00  0.00     0.049 A 
ATOM     54  C   UNL A   1      44.667  29.431  27.672  1.00  0.00     0.074 A 
ATOM     55  C   UNL A   1      44.034  24.389  25.221  1.00  0.00     0.029 A 
ATOM     56  N   UNL A   1      44.873  24.474  27.284  1.00  0.00    -0.354 N 
ATOM     57  N   UNL A   1      44.710  28.164  27.359  1.00  0.00    -0.248 NA
ATOM     58  C   UNL A   1      45.978  29.960  28.035  1.00  0.00     0.031 C 
ATOM     59  C   UNL A   1      44.855  25.538  25.333  1.00  0.00     0.029 A 
ATOM     60  C   UNL A   1      45.375  25.568  26.614  1.00  0.00     0.049 A 
ATOM     61  H   UNL A   1      45.108  24.216  28.204  1.00  0.00     0.167 HD
ATOM     62  C   UNL A   1      45.992  27.707  27.495  1.00  0.00     0.074 A 
ATOM     63  C   UNL A   1      46.753  28.870  27.902  1.00  0.00     0.031 C 
ATOM     64  C   UNL A   1      46.341  26.408  27.284  1.00  0.00     0.031 A 
BRANCH  51  65
ATOM     65  C   UNL A   1      42.697  21.527  26.720  1.00  0.00    -0.014 A 
ATOM     66  C   UNL A   1      43.491  20.809  25.808  1.00  0.00     0.009 A 
ATOM     67  C   UNL A   1      41.589  20.830  27.257  1.00  0.00     0.009 A 
ATOM     68  C   UNL A   1      43.124  19.528  25.354  1.00  0.00     0.001 A 
ATOM     69  C   UNL A   1      41.196  19.567  26.778  1.00  0.00     0.001 A 
ATOM     70  C   UNL A   1      41.954  18.925  25.807  1.00  0.00     0.000 A 
ENDBRANCH  51  65
BRANCH  52  71
ATOM     71  C   UNL A   1      42.984  31.222  28.759  1.00  0.00    -0.014 A 
ATOM     72  C   UNL A   1      42.689  30.683  30.036  1.00  0.00     0.009 A 
ATOM     73  C   UNL A   1      43.128  32.614  28.664  1.00  0.00     0.009 A 
ATOM     74  C   UNL A   1      42.650  31.481  31.184  1.00  0.00     0.001 A 
ATOM     75  C   UNL A   1      43.068  33.420  29.819  1.00  0.00     0.001 A 
ATOM     76  C   UNL A   1      42.852  32.851  31.077  1.00  0.00     0.000 A 
ENDBRANCH  52  71
BRANCH  64  77
ATOM     77  C   UNL A   1      47.647  25.772  27.678  1.00  0.00    -0.014 A 
ATOM     78  C   UNL A   1      48.682  25.523  26.772  1.00  0.00     0.009 A 
ATOM     79  C   UNL A   1      47.932  25.587  29.051  1.00  0.00     0.009 A 
ATOM     80  C   UNL A   1      49.931  25.071  27.213  1.00  0.00     0.001 A 
ATOM     81  C   UNL A   1      49.192  25.192  29.497  1.00  0.00     0.001 A 
ATOM     82  C   UNL A   1      50.189  24.920  28.574  1.00  0.00     0.000 A 
ENDBRANCH  64  77
ENDBRANCH  38  39
ENDBRANCH  31  33
ENDBRANCH  30  31
ENDBRANCH  29  30
ENDBRANCH  28  29
ENDBRANCH  27  28
ENDBRANCH   1  27
TORSDOF 18
ENDMDL
