MODEL 1
REMARK VINA RESULT:     -10.8      0.000      0.000
REMARK SMILES O=C(OCCOCCOCCOC(=O)[C@H]1[C@@H](C(=O)NN2CCOCC2)[C@H]2C=C[C@@H]1CC2)c1ccc(-c2c3nc(c(-c4ccccc4)c4ccc([nH]4)c(-c4ccccc4)c4nc(c(-c5ccccc5)c5ccc2[nH]5)C=C4)C=C3)cc1
REMARK SMILES IDX 7 1 6 2 5 3 4 4 3 5 2 6 1 7 32 8 33 9 79 10 34 11 78 12
REMARK SMILES IDX 35 13 36 14 37 15 72 16 38 17 77 18 71 19 73 20 39 21 76 22
REMARK SMILES IDX 70 23 69 24 40 26 62 27 47 28 61 29 48 30 51 31 60 32 74 33
REMARK SMILES IDX 49 34 50 35 59 37 75 38 52 39 41 40 42 41 46 42 43 43 45 44
REMARK SMILES IDX 44 45 63 46 64 47 68 48 65 49 67 50 66 51 53 52 54 53 58 54
REMARK SMILES IDX 55 55 57 56 56 57 8 58 9 59 10 60 11 61 12 62 13 63 14 64
REMARK SMILES IDX 15 65 16 66 29 67 26 68 28 69 30 70 27 71 31 72 17 73 18 74
REMARK SMILES IDX 19 75 20 77 21 78 25 79 22 80 24 81 23 82
REMARK H PARENT 73 25 51 36 19 76
REMARK Flexibility Score: inf
ROOT
ATOM      1  C   UNL A   1      35.173  34.120  28.736  1.00  0.00     0.188 C 
ENDROOT
BRANCH   1   2
ATOM      2  O   UNL A   1      34.525  35.367  28.428  1.00  0.00    -0.376 OA
BRANCH   2   3
ATOM      3  C   UNL A   1      33.192  35.448  28.944  1.00  0.00     0.202 C 
BRANCH   3   4
ATOM      4  C   UNL A   1      32.891  36.767  29.663  1.00  0.00     0.261 C 
BRANCH   4   5
ATOM      5  O   UNL A   1      32.196  36.578  30.901  1.00  0.00    -0.460 OA
BRANCH   5   6
ATOM      6  C   UNL A   1      32.692  36.206  32.102  1.00  0.00     0.338 C 
ATOM      7  O   UNL A   1      32.249  36.781  33.098  1.00  0.00    -0.246 OA
BRANCH   6   8
ATOM      8  C   UNL A   1      33.807  35.214  32.329  1.00  0.00     0.060 A 
ATOM      9  C   UNL A   1      33.686  33.846  32.581  1.00  0.00     0.016 A 
ATOM     10  C   UNL A   1      35.116  35.713  32.137  1.00  0.00     0.016 A 
ATOM     11  C   UNL A   1      34.814  33.007  32.630  1.00  0.00     0.010 A 
ATOM     12  C   UNL A   1      36.242  34.879  32.146  1.00  0.00     0.010 A 
ATOM     13  C   UNL A   1      36.098  33.516  32.417  1.00  0.00    -0.014 A 
BRANCH  13  14
ATOM     14  C   UNL A   1      37.282  32.720  32.823  1.00  0.00     0.031 A 
ATOM     15  C   UNL A   1      37.792  32.958  34.207  1.00  0.00     0.074 A 
ATOM     16  C   UNL A   1      37.938  31.868  32.016  1.00  0.00     0.049 A 
ATOM     17  N   UNL A   1      38.837  32.453  34.803  1.00  0.00    -0.248 NA
ATOM     18  C   UNL A   1      37.061  33.964  34.996  1.00  0.00     0.031 C 
ATOM     19  C   UNL A   1      37.625  31.641  30.617  1.00  0.00     0.029 A 
ATOM     20  N   UNL A   1      39.006  31.033  32.260  1.00  0.00    -0.354 N 
ATOM     21  C   UNL A   1      38.938  33.145  35.999  1.00  0.00     0.074 A 
ATOM     22  C   UNL A   1      37.850  34.094  36.045  1.00  0.00     0.031 C 
ATOM     23  C   UNL A   1      38.436  30.678  30.148  1.00  0.00     0.029 A 
ATOM     24  C   UNL A   1      39.318  30.211  31.201  1.00  0.00     0.049 A 
ATOM     25  H   UNL A   1      39.500  31.025  33.111  1.00  0.00     0.167 HD
ATOM     26  C   UNL A   1      39.885  33.033  36.956  1.00  0.00     0.031 A 
ATOM     27  C   UNL A   1      40.200  29.195  31.089  1.00  0.00     0.031 A 
ATOM     28  C   UNL A   1      40.993  32.127  36.877  1.00  0.00     0.049 A 
ATOM     29  C   UNL A   1      41.165  28.979  32.220  1.00  0.00     0.074 A 
ATOM     30  C   UNL A   1      42.024  31.949  37.778  1.00  0.00     0.029 A 
ATOM     31  N   UNL A   1      41.222  31.256  35.820  1.00  0.00    -0.354 N 
ATOM     32  N   UNL A   1      41.244  29.624  33.358  1.00  0.00    -0.248 NA
ATOM     33  C   UNL A   1      42.203  27.955  32.033  1.00  0.00     0.031 C 
ATOM     34  C   UNL A   1      42.902  31.000  37.245  1.00  0.00     0.029 A 
ATOM     35  C   UNL A   1      42.380  30.537  36.047  1.00  0.00     0.049 A 
ATOM     36  H   UNL A   1      40.643  31.163  35.029  1.00  0.00     0.167 HD
ATOM     37  C   UNL A   1      42.356  29.114  34.008  1.00  0.00     0.074 A 
ATOM     38  C   UNL A   1      42.893  28.066  33.161  1.00  0.00     0.031 C 
ATOM     39  C   UNL A   1      42.900  29.502  35.186  1.00  0.00     0.031 A 
BRANCH  26  40
ATOM     40  C   UNL A   1      39.782  34.018  38.083  1.00  0.00    -0.014 A 
ATOM     41  C   UNL A   1      39.337  33.632  39.359  1.00  0.00     0.009 A 
ATOM     42  C   UNL A   1      39.992  35.378  37.816  1.00  0.00     0.009 A 
ATOM     43  C   UNL A   1      39.021  34.598  40.315  1.00  0.00     0.001 A 
ATOM     44  C   UNL A   1      39.717  36.338  38.789  1.00  0.00     0.001 A 
ATOM     45  C   UNL A   1      39.209  35.950  40.028  1.00  0.00     0.000 A 
ENDBRANCH  26  40
BRANCH  27  46
ATOM     46  C   UNL A   1      40.221  28.310  29.882  1.00  0.00    -0.014 A 
ATOM     47  C   UNL A   1      39.451  27.132  29.850  1.00  0.00     0.009 A 
ATOM     48  C   UNL A   1      40.986  28.627  28.749  1.00  0.00     0.009 A 
ATOM     49  C   UNL A   1      39.448  26.302  28.722  1.00  0.00     0.001 A 
ATOM     50  C   UNL A   1      40.950  27.821  27.606  1.00  0.00     0.001 A 
ATOM     51  C   UNL A   1      40.186  26.656  27.595  1.00  0.00     0.000 A 
ENDBRANCH  27  46
BRANCH  39  52
ATOM     52  C   UNL A   1      44.130  28.781  35.650  1.00  0.00    -0.014 A 
ATOM     53  C   UNL A   1      45.413  29.267  35.363  1.00  0.00     0.009 A 
ATOM     54  C   UNL A   1      43.990  27.651  36.469  1.00  0.00     0.009 A 
ATOM     55  C   UNL A   1      46.538  28.624  35.880  1.00  0.00     0.001 A 
ATOM     56  C   UNL A   1      45.115  27.027  37.007  1.00  0.00     0.001 A 
ATOM     57  C   UNL A   1      46.387  27.512  36.709  1.00  0.00     0.000 A 
ENDBRANCH  39  52
ENDBRANCH  13  14
ENDBRANCH   6   8
ENDBRANCH   5   6
ENDBRANCH   4   5
ENDBRANCH   3   4
ENDBRANCH   2   3
ENDBRANCH   1   2
BRANCH   1  58
ATOM     58  C   UNL A   1      34.183  32.944  28.674  1.00  0.00     0.188 C 
BRANCH  58  59
ATOM     59  O   UNL A   1      34.425  32.049  27.588  1.00  0.00    -0.376 OA
BRANCH  59  60
ATOM     60  C   UNL A   1      34.342  30.659  27.905  1.00  0.00     0.202 C 
BRANCH  60  61
ATOM     61  C   UNL A   1      34.090  29.730  26.711  1.00  0.00     0.261 C 
BRANCH  61  62
ATOM     62  O   UNL A   1      32.827  29.036  26.781  1.00  0.00    -0.463 OA
BRANCH  62  63
ATOM     63  C   UNL A   1      31.893  29.376  25.865  1.00  0.00     0.310 C 
ATOM     64  O   UNL A   1      31.704  30.525  25.464  1.00  0.00    -0.252 OA
BRANCH  63  65
ATOM     65  C   UNL A   1      31.023  28.233  25.365  1.00  0.00     0.119 C 
ATOM     66  C   UNL A   1      30.889  27.928  23.850  1.00  0.00     0.101 C 
ATOM     67  C   UNL A   1      31.352  26.923  26.136  1.00  0.00     0.026 C 
ATOM     68  C   UNL A   1      31.419  26.484  23.583  1.00  0.00     0.025 C 
ATOM     69  C   UNL A   1      32.676  26.405  25.631  1.00  0.00    -0.027 C 
ATOM     70  C   UNL A   1      30.267  25.883  25.757  1.00  0.00     0.009 C 
ATOM     71  C   UNL A   1      32.720  26.214  24.305  1.00  0.00    -0.027 C 
ATOM     72  C   UNL A   1      30.370  25.550  24.252  1.00  0.00     0.009 C 
BRANCH  66  73
ATOM     73  C   UNL A   1      31.372  28.961  22.866  1.00  0.00     0.238 C 
ATOM     74  O   UNL A   1      32.540  28.954  22.465  1.00  0.00    -0.273 OA
ATOM     75  N   UNL A   1      30.526  29.927  22.368  1.00  0.00    -0.288 N 
ATOM     76  H   UNL A   1      30.992  30.534  21.749  1.00  0.00     0.185 HD
BRANCH  75  77
ATOM     77  N   UNL A   1      29.162  30.274  22.514  1.00  0.00    -0.217 NA
ATOM     78  C   UNL A   1      28.171  30.360  21.453  1.00  0.00     0.136 C 
ATOM     79  C   UNL A   1      28.903  31.342  23.488  1.00  0.00     0.136 C 
ATOM     80  C   UNL A   1      28.007  31.766  20.842  1.00  0.00     0.177 C 
ATOM     81  C   UNL A   1      28.881  32.715  22.819  1.00  0.00     0.177 C 
ATOM     82  O   UNL A   1      27.826  32.772  21.849  1.00  0.00    -0.379 OA
ENDBRANCH  75  77
ENDBRANCH  66  73
ENDBRANCH  63  65
ENDBRANCH  62  63
ENDBRANCH  61  62
ENDBRANCH  60  61
ENDBRANCH  59  60
ENDBRANCH  58  59
ENDBRANCH   1  58
TORSDOF 19
ENDMDL
MODEL 2
REMARK VINA RESULT:     -10.5      0.602      5.790
REMARK SMILES O=C(OCCOCCOCCOC(=O)[C@H]1[C@@H](C(=O)NN2CCOCC2)[C@H]2C=C[C@@H]1CC2)c1ccc(-c2c3nc(c(-c4ccccc4)c4ccc([nH]4)c(-c4ccccc4)c4nc(c(-c5ccccc5)c5ccc2[nH]5)C=C4)C=C3)cc1
REMARK SMILES IDX 7 1 6 2 5 3 4 4 3 5 2 6 1 7 32 8 33 9 79 10 34 11 78 12
REMARK SMILES IDX 35 13 36 14 37 15 72 16 38 17 77 18 71 19 73 20 39 21 76 22
REMARK SMILES IDX 70 23 69 24 40 26 62 27 47 28 61 29 48 30 51 31 60 32 74 33
REMARK SMILES IDX 49 34 50 35 59 37 75 38 52 39 41 40 42 41 46 42 43 43 45 44
REMARK SMILES IDX 44 45 63 46 64 47 68 48 65 49 67 50 66 51 53 52 54 53 58 54
REMARK SMILES IDX 55 55 57 56 56 57 8 58 9 59 10 60 11 61 12 62 13 63 14 64
REMARK SMILES IDX 15 65 16 66 29 67 26 68 28 69 30 70 27 71 31 72 17 73 18 74
REMARK SMILES IDX 19 75 20 77 21 78 25 79 22 80 24 81 23 82
REMARK H PARENT 73 25 51 36 19 76
REMARK Flexibility Score: inf
ROOT
ATOM      1  C   UNL A   1      35.129  33.631  28.654  1.00  0.00     0.188 C 
ENDROOT
BRANCH   1   2
ATOM      2  O   UNL A   1      34.466  34.872  28.349  1.00  0.00    -0.376 OA
BRANCH   2   3
ATOM      3  C   UNL A   1      33.156  34.962  28.920  1.00  0.00     0.202 C 
BRANCH   3   4
ATOM      4  C   UNL A   1      32.892  36.287  29.643  1.00  0.00     0.261 C 
BRANCH   4   5
ATOM      5  O   UNL A   1      32.182  36.115  30.875  1.00  0.00    -0.460 OA
BRANCH   5   6
ATOM      6  C   UNL A   1      32.678  35.959  32.123  1.00  0.00     0.338 C 
ATOM      7  O   UNL A   1      32.181  36.646  33.017  1.00  0.00    -0.246 OA
BRANCH   6   8
ATOM      8  C   UNL A   1      33.849  35.087  32.506  1.00  0.00     0.060 A 
ATOM      9  C   UNL A   1      33.806  33.805  33.057  1.00  0.00     0.016 A 
ATOM     10  C   UNL A   1      35.123  35.583  32.146  1.00  0.00     0.016 A 
ATOM     11  C   UNL A   1      34.975  33.043  33.233  1.00  0.00     0.010 A 
ATOM     12  C   UNL A   1      36.288  34.817  32.283  1.00  0.00     0.010 A 
ATOM     13  C   UNL A   1      36.223  33.543  32.852  1.00  0.00    -0.014 A 
BRANCH  13  14
ATOM     14  C   UNL A   1      37.460  32.904  33.364  1.00  0.00     0.031 A 
ATOM     15  C   UNL A   1      38.154  31.970  32.426  1.00  0.00     0.074 A 
ATOM     16  C   UNL A   1      37.940  33.067  34.609  1.00  0.00     0.049 A 
ATOM     17  N   UNL A   1      39.211  31.233  32.626  1.00  0.00    -0.248 NA
ATOM     18  C   UNL A   1      37.517  31.791  31.111  1.00  0.00     0.031 C 
ATOM     19  C   UNL A   1      37.296  33.842  35.654  1.00  0.00     0.029 A 
ATOM     20  N   UNL A   1      39.085  32.588  35.206  1.00  0.00    -0.354 N 
ATOM     21  C   UNL A   1      39.313  30.439  31.495  1.00  0.00     0.074 A 
ATOM     22  C   UNL A   1      38.220  30.790  30.618  1.00  0.00     0.031 C 
ATOM     23  C   UNL A   1      38.089  33.842  36.738  1.00  0.00     0.029 A 
ATOM     24  C   UNL A   1      39.296  33.081  36.473  1.00  0.00     0.049 A 
ATOM     25  H   UNL A   1      39.696  31.951  34.768  1.00  0.00     0.167 HD
ATOM     26  C   UNL A   1      40.213  29.466  31.230  1.00  0.00     0.031 A 
ATOM     27  C   UNL A   1      40.339  32.950  37.321  1.00  0.00     0.031 A 
ATOM     28  C   UNL A   1      41.262  29.086  32.129  1.00  0.00     0.049 A 
ATOM     29  C   UNL A   1      41.416  31.967  36.957  1.00  0.00     0.074 A 
ATOM     30  C   UNL A   1      42.213  28.098  31.973  1.00  0.00     0.029 A 
ATOM     31  N   UNL A   1      41.485  29.672  33.368  1.00  0.00    -0.354 N 
ATOM     32  N   UNL A   1      41.517  31.233  35.876  1.00  0.00    -0.248 NA
ATOM     33  C   UNL A   1      42.480  31.737  37.945  1.00  0.00     0.031 C 
ATOM     34  C   UNL A   1      42.986  28.055  33.137  1.00  0.00     0.029 A 
ATOM     35  C   UNL A   1      42.561  29.065  33.988  1.00  0.00     0.049 A 
ATOM     36  H   UNL A   1      40.956  30.411  33.747  1.00  0.00     0.167 HD
ATOM     37  C   UNL A   1      42.630  30.429  36.066  1.00  0.00     0.074 A 
ATOM     38  C   UNL A   1      43.204  30.802  37.344  1.00  0.00     0.031 C 
ATOM     39  C   UNL A   1      43.111  29.448  35.265  1.00  0.00     0.031 A 
BRANCH  26  40
ATOM     40  C   UNL A   1      39.979  28.700  29.961  1.00  0.00    -0.014 A 
ATOM     41  C   UNL A   1      39.303  27.468  29.959  1.00  0.00     0.009 A 
ATOM     42  C   UNL A   1      40.576  29.152  28.776  1.00  0.00     0.009 A 
ATOM     43  C   UNL A   1      39.308  26.665  28.819  1.00  0.00     0.001 A 
ATOM     44  C   UNL A   1      40.543  28.366  27.625  1.00  0.00     0.001 A 
ATOM     45  C   UNL A   1      39.931  27.113  27.654  1.00  0.00     0.000 A 
ENDBRANCH  26  40
BRANCH  27  46
ATOM     46  C   UNL A   1      40.426  33.752  38.581  1.00  0.00    -0.014 A 
ATOM     47  C   UNL A   1      40.714  35.129  38.531  1.00  0.00     0.009 A 
ATOM     48  C   UNL A   1      40.210  33.171  39.841  1.00  0.00     0.009 A 
ATOM     49  C   UNL A   1      40.783  35.895  39.700  1.00  0.00     0.001 A 
ATOM     50  C   UNL A   1      40.236  33.946  41.006  1.00  0.00     0.001 A 
ATOM     51  C   UNL A   1      40.528  35.306  40.936  1.00  0.00     0.000 A 
ENDBRANCH  27  46
BRANCH  39  52
ATOM     52  C   UNL A   1      44.334  28.716  35.730  1.00  0.00    -0.014 A 
ATOM     53  C   UNL A   1      44.237  27.526  36.467  1.00  0.00     0.009 A 
ATOM     54  C   UNL A   1      45.598  29.180  35.337  1.00  0.00     0.009 A 
ATOM     55  C   UNL A   1      45.390  26.820  36.811  1.00  0.00     0.001 A 
ATOM     56  C   UNL A   1      46.746  28.457  35.659  1.00  0.00     0.001 A 
ATOM     57  C   UNL A   1      46.641  27.280  36.399  1.00  0.00     0.000 A 
ENDBRANCH  39  52
ENDBRANCH  13  14
ENDBRANCH   6   8
ENDBRANCH   5   6
ENDBRANCH   4   5
ENDBRANCH   3   4
ENDBRANCH   2   3
ENDBRANCH   1   2
BRANCH   1  58
ATOM     58  C   UNL A   1      34.191  32.429  28.443  1.00  0.00     0.188 C 
BRANCH  58  59
ATOM     59  O   UNL A   1      34.596  31.569  27.378  1.00  0.00    -0.376 OA
BRANCH  59  60
ATOM     60  C   UNL A   1      34.501  30.169  27.647  1.00  0.00     0.202 C 
BRANCH  60  61
ATOM     61  C   UNL A   1      34.142  29.294  26.440  1.00  0.00     0.261 C 
BRANCH  61  62
ATOM     62  O   UNL A   1      32.846  28.670  26.549  1.00  0.00    -0.463 OA
BRANCH  62  63
ATOM     63  C   UNL A   1      31.893  29.092  25.689  1.00  0.00     0.310 C 
ATOM     64  O   UNL A   1      31.656  30.276  25.446  1.00  0.00    -0.252 OA
BRANCH  63  65
ATOM     65  C   UNL A   1      31.062  27.994  25.044  1.00  0.00     0.119 C 
ATOM     66  C   UNL A   1      31.026  27.812  23.503  1.00  0.00     0.101 C 
ATOM     67  C   UNL A   1      31.349  26.625  25.726  1.00  0.00     0.026 C 
ATOM     68  C   UNL A   1      31.579  26.396  23.155  1.00  0.00     0.025 C 
ATOM     69  C   UNL A   1      32.705  26.151  25.265  1.00  0.00    -0.027 C 
ATOM     70  C   UNL A   1      30.296  25.619  25.195  1.00  0.00     0.009 C 
ATOM     71  C   UNL A   1      32.834  26.068  23.933  1.00  0.00    -0.027 C 
ATOM     72  C   UNL A   1      30.495  25.410  23.678  1.00  0.00     0.009 C 
BRANCH  66  73
ATOM     73  C   UNL A   1      31.564  28.923  22.640  1.00  0.00     0.238 C 
ATOM     74  O   UNL A   1      32.778  29.039  22.445  1.00  0.00    -0.273 OA
ATOM     75  N   UNL A   1      30.724  29.824  22.024  1.00  0.00    -0.288 N 
ATOM     76  H   UNL A   1      31.225  30.495  21.507  1.00  0.00     0.185 HD
BRANCH  75  77
ATOM     77  N   UNL A   1      29.327  30.036  21.941  1.00  0.00    -0.217 NA
ATOM     78  C   UNL A   1      28.633  30.876  20.978  1.00  0.00     0.136 C 
ATOM     79  C   UNL A   1      28.648  30.147  23.237  1.00  0.00     0.136 C 
ATOM     80  C   UNL A   1      28.380  32.321  21.453  1.00  0.00     0.177 C 
ATOM     81  C   UNL A   1      28.549  31.600  23.695  1.00  0.00     0.177 C 
ATOM     82  O   UNL A   1      27.777  32.361  22.755  1.00  0.00    -0.379 OA
ENDBRANCH  75  77
ENDBRANCH  66  73
ENDBRANCH  63  65
ENDBRANCH  62  63
ENDBRANCH  61  62
ENDBRANCH  60  61
ENDBRANCH  59  60
ENDBRANCH  58  59
ENDBRANCH   1  58
TORSDOF 19
ENDMDL
MODEL 3
REMARK VINA RESULT:     -10.5      5.177     10.135
REMARK SMILES O=C(OCCOCCOCCOC(=O)[C@H]1[C@@H](C(=O)NN2CCOCC2)[C@H]2C=C[C@@H]1CC2)c1ccc(-c2c3nc(c(-c4ccccc4)c4ccc([nH]4)c(-c4ccccc4)c4nc(c(-c5ccccc5)c5ccc2[nH]5)C=C4)C=C3)cc1
REMARK SMILES IDX 7 1 6 2 5 3 4 4 3 5 2 6 1 7 32 8 33 9 79 10 34 11 78 12
REMARK SMILES IDX 35 13 36 14 37 15 72 16 38 17 77 18 71 19 73 20 39 21 76 22
REMARK SMILES IDX 70 23 69 24 40 26 62 27 47 28 61 29 48 30 51 31 60 32 74 33
REMARK SMILES IDX 49 34 50 35 59 37 75 38 52 39 41 40 42 41 46 42 43 43 45 44
REMARK SMILES IDX 44 45 63 46 64 47 68 48 65 49 67 50 66 51 53 52 54 53 58 54
REMARK SMILES IDX 55 55 57 56 56 57 8 58 9 59 10 60 11 61 12 62 13 63 14 64
REMARK SMILES IDX 15 65 16 66 29 67 26 68 28 69 30 70 27 71 31 72 17 73 18 74
REMARK SMILES IDX 19 75 20 77 21 78 25 79 22 80 24 81 23 82
REMARK H PARENT 73 25 51 36 19 76
REMARK Flexibility Score: inf
ROOT
ATOM      1  C   UNL A   1      41.866  21.051  26.867  1.00  0.00     0.188 C 
ENDROOT
BRANCH   1   2
ATOM      2  O   UNL A   1      42.323  21.482  25.572  1.00  0.00    -0.376 OA
BRANCH   2   3
ATOM      3  C   UNL A   1      43.729  21.294  25.383  1.00  0.00     0.202 C 
BRANCH   3   4
ATOM      4  C   UNL A   1      44.369  22.337  24.461  1.00  0.00     0.261 C 
BRANCH   4   5
ATOM      5  O   UNL A   1      43.735  23.619  24.548  1.00  0.00    -0.460 OA
BRANCH   5   6
ATOM      6  C   UNL A   1      44.245  24.787  25.000  1.00  0.00     0.338 C 
ATOM      7  O   UNL A   1      45.382  25.086  24.629  1.00  0.00    -0.246 OA
BRANCH   6   8
ATOM      8  C   UNL A   1      43.586  25.714  25.992  1.00  0.00     0.060 A 
ATOM      9  C   UNL A   1      43.761  27.095  26.106  1.00  0.00     0.016 A 
ATOM     10  C   UNL A   1      42.591  25.128  26.808  1.00  0.00     0.016 A 
ATOM     11  C   UNL A   1      42.973  27.862  26.983  1.00  0.00     0.010 A 
ATOM     12  C   UNL A   1      41.777  25.890  27.656  1.00  0.00     0.010 A 
ATOM     13  C   UNL A   1      41.981  27.267  27.766  1.00  0.00    -0.014 A 
BRANCH  13  14
ATOM     14  C   UNL A   1      41.420  28.001  28.926  1.00  0.00     0.031 A 
ATOM     15  C   UNL A   1      42.186  27.894  30.205  1.00  0.00     0.074 A 
ATOM     16  C   UNL A   1      40.262  28.684  28.906  1.00  0.00     0.049 A 
ATOM     17  N   UNL A   1      41.901  28.377  31.383  1.00  0.00    -0.248 NA
ATOM     18  C   UNL A   1      43.400  27.063  30.158  1.00  0.00     0.031 C 
ATOM     19  C   UNL A   1      39.362  28.760  27.770  1.00  0.00     0.029 A 
ATOM     20  N   UNL A   1      39.646  29.446  29.874  1.00  0.00    -0.354 N 
ATOM     21  C   UNL A   1      42.851  27.834  32.233  1.00  0.00     0.074 A 
ATOM     22  C   UNL A   1      43.719  26.998  31.436  1.00  0.00     0.031 C 
ATOM     23  C   UNL A   1      38.346  29.582  28.083  1.00  0.00     0.029 A 
ATOM     24  C   UNL A   1      38.518  30.098  29.429  1.00  0.00     0.049 A 
ATOM     25  H   UNL A   1      39.979  29.518  30.797  1.00  0.00     0.167 HD
ATOM     26  C   UNL A   1      42.964  27.982  33.571  1.00  0.00     0.031 A 
ATOM     27  C   UNL A   1      37.721  31.011  30.023  1.00  0.00     0.031 A 
ATOM     28  C   UNL A   1      42.065  28.770  34.363  1.00  0.00     0.049 A 
ATOM     29  C   UNL A   1      37.937  31.282  31.485  1.00  0.00     0.074 A 
ATOM     30  C   UNL A   1      42.072  28.969  35.729  1.00  0.00     0.029 A 
ATOM     31  N   UNL A   1      40.985  29.479  33.854  1.00  0.00    -0.354 N 
ATOM     32  N   UNL A   1      38.851  30.780  32.280  1.00  0.00    -0.248 NA
ATOM     33  C   UNL A   1      36.983  32.179  32.153  1.00  0.00     0.031 C 
ATOM     34  C   UNL A   1      40.967  29.763  36.054  1.00  0.00     0.029 A 
ATOM     35  C   UNL A   1      40.316  30.116  34.881  1.00  0.00     0.049 A 
ATOM     36  H   UNL A   1      40.735  29.521  32.903  1.00  0.00     0.167 HD
ATOM     37  C   UNL A   1      38.564  31.269  33.545  1.00  0.00     0.074 A 
ATOM     38  C   UNL A   1      37.422  32.151  33.405  1.00  0.00     0.031 C 
ATOM     39  C   UNL A   1      39.175  30.985  34.719  1.00  0.00     0.031 A 
BRANCH  26  40
ATOM     40  C   UNL A   1      44.036  27.160  34.223  1.00  0.00    -0.014 A 
ATOM     41  C   UNL A   1      45.350  27.639  34.361  1.00  0.00     0.009 A 
ATOM     42  C   UNL A   1      43.755  25.830  34.567  1.00  0.00     0.009 A 
ATOM     43  C   UNL A   1      46.376  26.776  34.747  1.00  0.00     0.001 A 
ATOM     44  C   UNL A   1      44.775  24.981  34.993  1.00  0.00     0.001 A 
ATOM     45  C   UNL A   1      46.088  25.447  35.059  1.00  0.00     0.000 A 
ENDBRANCH  26  40
BRANCH  27  46
ATOM     46  C   UNL A   1      36.655  31.733  29.258  1.00  0.00    -0.014 A 
ATOM     47  C   UNL A   1      36.893  33.024  28.753  1.00  0.00     0.009 A 
ATOM     48  C   UNL A   1      35.403  31.148  29.008  1.00  0.00     0.009 A 
ATOM     49  C   UNL A   1      35.912  33.705  28.022  1.00  0.00     0.001 A 
ATOM     50  C   UNL A   1      34.439  31.811  28.242  1.00  0.00     0.001 A 
ATOM     51  C   UNL A   1      34.691  33.091  27.754  1.00  0.00     0.000 A 
ENDBRANCH  27  46
BRANCH  39  52
ATOM     52  C   UNL A   1      38.641  31.648  35.954  1.00  0.00    -0.014 A 
ATOM     53  C   UNL A   1      37.791  30.968  36.838  1.00  0.00     0.009 A 
ATOM     54  C   UNL A   1      39.077  32.941  36.277  1.00  0.00     0.009 A 
ATOM     55  C   UNL A   1      37.379  31.579  38.023  1.00  0.00     0.001 A 
ATOM     56  C   UNL A   1      38.685  33.539  37.474  1.00  0.00     0.001 A 
ATOM     57  C   UNL A   1      37.834  32.859  38.344  1.00  0.00     0.000 A 
ENDBRANCH  39  52
ENDBRANCH  13  14
ENDBRANCH   6   8
ENDBRANCH   5   6
ENDBRANCH   4   5
ENDBRANCH   3   4
ENDBRANCH   2   3
ENDBRANCH   1   2
BRANCH   1  58
ATOM     58  C   UNL A   1      40.367  21.342  27.057  1.00  0.00     0.188 C 
BRANCH  58  59
ATOM     59  O   UNL A   1      40.060  22.735  27.129  1.00  0.00    -0.376 OA
BRANCH  59  60
ATOM     60  C   UNL A   1      39.032  23.185  26.246  1.00  0.00     0.202 C 
BRANCH  60  61
ATOM     61  C   UNL A   1      38.085  22.092  25.734  1.00  0.00     0.261 C 
BRANCH  61  62
ATOM     62  O   UNL A   1      37.346  22.479  24.556  1.00  0.00    -0.463 OA
BRANCH  62  63
ATOM     63  C   UNL A   1      36.152  23.079  24.757  1.00  0.00     0.310 C 
ATOM     64  O   UNL A   1      35.935  23.910  25.640  1.00  0.00    -0.252 OA
BRANCH  63  65
ATOM     65  C   UNL A   1      35.031  22.629  23.833  1.00  0.00     0.119 C 
ATOM     66  C   UNL A   1      34.001  21.558  24.280  1.00  0.00     0.101 C 
ATOM     67  C   UNL A   1      34.284  23.862  23.247  1.00  0.00     0.026 C 
ATOM     68  C   UNL A   1      32.578  22.198  24.265  1.00  0.00     0.025 C 
ATOM     69  C   UNL A   1      33.423  24.448  24.338  1.00  0.00    -0.027 C 
ATOM     70  C   UNL A   1      33.338  23.338  22.136  1.00  0.00     0.009 C 
ATOM     71  C   UNL A   1      32.567  23.576  24.889  1.00  0.00    -0.027 C 
ATOM     72  C   UNL A   1      32.262  22.421  22.758  1.00  0.00     0.009 C 
BRANCH  66  73
ATOM     73  C   UNL A   1      34.306  20.742  25.508  1.00  0.00     0.238 C 
ATOM     74  O   UNL A   1      34.694  21.286  26.548  1.00  0.00    -0.273 OA
ATOM     75  N   UNL A   1      34.141  19.375  25.520  1.00  0.00    -0.288 N 
ATOM     76  H   UNL A   1      34.393  18.985  26.388  1.00  0.00     0.185 HD
BRANCH  75  77
ATOM     77  N   UNL A   1      33.702  18.385  24.609  1.00  0.00    -0.217 NA
ATOM     78  C   UNL A   1      32.453  17.643  24.671  1.00  0.00     0.136 C 
ATOM     79  C   UNL A   1      34.758  17.488  24.125  1.00  0.00     0.136 C 
ATOM     80  C   UNL A   1      32.545  16.294  25.411  1.00  0.00     0.177 C 
ATOM     81  C   UNL A   1      34.867  16.233  24.989  1.00  0.00     0.177 C 
ATOM     82  O   UNL A   1      33.638  15.494  24.938  1.00  0.00    -0.379 OA
ENDBRANCH  75  77
ENDBRANCH  66  73
ENDBRANCH  63  65
ENDBRANCH  62  63
ENDBRANCH  61  62
ENDBRANCH  60  61
ENDBRANCH  59  60
ENDBRANCH  58  59
ENDBRANCH   1  58
TORSDOF 19
ENDMDL
