MODEL 1
REMARK VINA RESULT:      -9.2      0.000      0.000
REMARK SMILES Cc1csc(=O)n1CC(=O)N[C@@H](C(=O)OCCOCCOCCOC(=O)c1ccc(-c2c3nc(c(-c4ccccc4)c4ccc([nH]4)c(-c4ccccc4)c4nc(c(-c5ccccc5)c5ccc2[nH]5)C=C4)C=C3)cc1)[C@@H](C)O
REMARK SMILES IDX 19 1 18 2 17 3 16 4 15 5 13 6 14 7 12 8 11 9 9 10 10 11 8 13
REMARK SMILES IDX 7 14 1 15 2 16 3 17 4 18 5 19 6 20 75 21 76 22 77 23 20 25
REMARK SMILES IDX 21 26 22 27 23 28 24 29 25 30 26 31 27 32 28 33 74 34 29 35
REMARK SMILES IDX 73 36 30 37 31 38 32 39 67 40 33 41 72 42 66 43 68 44 34 45
REMARK SMILES IDX 71 46 65 47 64 48 35 50 57 51 42 52 56 53 43 54 46 55 55 56
REMARK SMILES IDX 69 57 44 58 45 59 54 61 70 62 47 63 36 64 37 65 41 66 38 67
REMARK SMILES IDX 40 68 39 69 58 70 59 71 63 72 60 73 62 74 61 75 48 76 49 77
REMARK SMILES IDX 53 78 50 79 52 80 51 81
REMARK H PARENT 11 12 77 24 68 49 46 60
REMARK Flexibility Score: inf
ROOT
ATOM      1  C   UNL A   1      33.379  31.184  27.596  1.00  0.00     0.188 C 
ENDROOT
BRANCH   1   2
ATOM      2  O   UNL A   1      33.983  30.462  26.553  1.00  0.00    -0.376 OA
BRANCH   2   3
ATOM      3  C   UNL A   1      33.609  29.109  26.350  1.00  0.00     0.202 C 
BRANCH   3   4
ATOM      4  C   UNL A   1      33.566  28.437  24.957  1.00  0.00     0.261 C 
BRANCH   4   5
ATOM      5  O   UNL A   1      33.776  27.010  24.920  1.00  0.00    -0.462 OA
BRANCH   5   6
ATOM      6  C   UNL A   1      33.296  26.346  23.840  1.00  0.00     0.331 C 
ATOM      7  O   UNL A   1      33.516  26.673  22.673  1.00  0.00    -0.250 OA
BRANCH   6   8
ATOM      8  C   UNL A   1      32.504  25.056  24.154  1.00  0.00     0.221 C 
BRANCH   8   9
ATOM      9  N   UNL A   1      32.707  23.887  23.294  1.00  0.00    -0.339 N 
ATOM     10  C   UNL A   1      32.901  22.587  23.660  1.00  0.00     0.240 C 
ATOM     11  O   UNL A   1      32.567  21.712  22.857  1.00  0.00    -0.273 OA
ATOM     12  H   UNL A   1      32.702  24.062  22.325  1.00  0.00     0.164 HD
BRANCH  10  13
ATOM     13  C   UNL A   1      33.349  22.227  25.083  1.00  0.00     0.226 C 
BRANCH  13  14
ATOM     14  N   UNL A   1      34.751  21.847  25.119  1.00  0.00    -0.294 N 
ATOM     15  C   UNL A   1      35.774  24.151  25.554  1.00  0.00     0.065 C 
ATOM     16  C   UNL A   1      35.849  22.676  25.320  1.00  0.00     0.029 A 
ATOM     17  C   UNL A   1      37.017  22.019  25.246  1.00  0.00     0.091 A 
ATOM     18  S   UNL A   1      36.810  20.318  24.995  1.00  0.00    -0.082 S 
ATOM     19  C   UNL A   1      35.053  20.491  24.981  1.00  0.00     0.307 A 
ATOM     20  O   UNL A   1      34.282  19.556  24.853  1.00  0.00    -0.257 OA
ENDBRANCH  13  14
ENDBRANCH  10  13
ENDBRANCH   8   9
BRANCH   8  21
ATOM     21  C   UNL A   1      30.991  25.383  24.347  1.00  0.00     0.145 C 
ATOM     22  C   UNL A   1      30.555  25.161  25.794  1.00  0.00     0.041 C 
BRANCH  21  23
ATOM     23  O   UNL A   1      30.643  26.742  24.052  1.00  0.00    -0.391 OA
ATOM     24  H   UNL A   1      29.679  26.817  23.970  1.00  0.00     0.211 HD
ENDBRANCH  21  23
ENDBRANCH   8  21
ENDBRANCH   6   8
ENDBRANCH   5   6
ENDBRANCH   4   5
ENDBRANCH   3   4
ENDBRANCH   2   3
ENDBRANCH   1   2
BRANCH   1  25
ATOM     25  C   UNL A   1      34.231  32.148  28.429  1.00  0.00     0.188 C 
BRANCH  25  26
ATOM     26  O   UNL A   1      34.597  33.445  28.014  1.00  0.00    -0.376 OA
BRANCH  26  27
ATOM     27  C   UNL A   1      34.517  34.624  28.805  1.00  0.00     0.202 C 
BRANCH  27  28
ATOM     28  C   UNL A   1      33.289  35.047  29.609  1.00  0.00     0.261 C 
BRANCH  28  29
ATOM     29  O   UNL A   1      33.570  35.820  30.746  1.00  0.00    -0.460 OA
BRANCH  29  30
ATOM     30  C   UNL A   1      33.061  35.296  31.884  1.00  0.00     0.338 C 
ATOM     31  O   UNL A   1      31.918  35.330  32.280  1.00  0.00    -0.246 OA
BRANCH  30  32
ATOM     32  C   UNL A   1      34.167  34.625  32.571  1.00  0.00     0.060 A 
ATOM     33  C   UNL A   1      35.230  35.426  32.987  1.00  0.00     0.016 A 
ATOM     34  C   UNL A   1      34.240  33.230  32.500  1.00  0.00     0.016 A 
ATOM     35  C   UNL A   1      36.474  34.851  33.011  1.00  0.00     0.010 A 
ATOM     36  C   UNL A   1      35.481  32.667  32.483  1.00  0.00     0.010 A 
ATOM     37  C   UNL A   1      36.576  33.515  32.618  1.00  0.00    -0.014 A 
BRANCH  37  38
ATOM     38  C   UNL A   1      37.883  32.975  32.356  1.00  0.00     0.031 A 
ATOM     39  C   UNL A   1      38.721  32.952  33.567  1.00  0.00     0.074 A 
ATOM     40  C   UNL A   1      38.187  32.460  31.150  1.00  0.00     0.049 A 
ATOM     41  N   UNL A   1      39.755  33.684  33.802  1.00  0.00    -0.248 NA
ATOM     42  C   UNL A   1      38.231  32.198  34.735  1.00  0.00     0.031 C 
ATOM     43  C   UNL A   1      37.297  32.216  30.009  1.00  0.00     0.029 A 
ATOM     44  N   UNL A   1      39.357  31.919  30.730  1.00  0.00    -0.354 N 
ATOM     45  C   UNL A   1      40.178  33.312  35.070  1.00  0.00     0.074 A 
ATOM     46  C   UNL A   1      39.086  32.597  35.674  1.00  0.00     0.031 C 
ATOM     47  C   UNL A   1      37.894  31.341  29.164  1.00  0.00     0.029 A 
ATOM     48  C   UNL A   1      39.237  31.063  29.646  1.00  0.00     0.049 A 
ATOM     49  H   UNL A   1      40.220  32.119  31.160  1.00  0.00     0.167 HD
ATOM     50  C   UNL A   1      41.497  33.338  35.395  1.00  0.00     0.031 A 
ATOM     51  C   UNL A   1      40.148  30.134  29.256  1.00  0.00     0.031 A 
ATOM     52  C   UNL A   1      42.256  34.122  34.455  1.00  0.00     0.049 A 
ATOM     53  C   UNL A   1      41.436  30.474  29.917  1.00  0.00     0.074 A 
ATOM     54  C   UNL A   1      42.203  35.438  34.037  1.00  0.00     0.029 A 
ATOM     55  N   UNL A   1      42.948  33.436  33.483  1.00  0.00    -0.354 N 
ATOM     56  N   UNL A   1      42.136  31.530  29.613  1.00  0.00    -0.248 NA
ATOM     57  C   UNL A   1      41.677  29.931  31.249  1.00  0.00     0.031 C 
ATOM     58  C   UNL A   1      42.444  35.386  32.635  1.00  0.00     0.029 A 
ATOM     59  C   UNL A   1      42.726  34.065  32.286  1.00  0.00     0.049 A 
ATOM     60  H   UNL A   1      43.504  32.635  33.624  1.00  0.00     0.167 HD
ATOM     61  C   UNL A   1      42.541  32.048  30.835  1.00  0.00     0.074 A 
ATOM     62  C   UNL A   1      42.300  30.977  31.803  1.00  0.00     0.031 C 
ATOM     63  C   UNL A   1      42.736  33.390  31.005  1.00  0.00     0.031 A 
BRANCH  50  64
ATOM     64  C   UNL A   1      42.133  32.294  36.272  1.00  0.00    -0.014 A 
ATOM     65  C   UNL A   1      42.999  32.717  37.291  1.00  0.00     0.009 A 
ATOM     66  C   UNL A   1      42.137  30.917  35.967  1.00  0.00     0.009 A 
ATOM     67  C   UNL A   1      43.871  31.822  37.919  1.00  0.00     0.001 A 
ATOM     68  C   UNL A   1      42.972  30.013  36.623  1.00  0.00     0.001 A 
ATOM     69  C   UNL A   1      43.861  30.472  37.580  1.00  0.00     0.000 A 
ENDBRANCH  50  64
BRANCH  51  70
ATOM     70  C   UNL A   1      39.907  28.806  28.639  1.00  0.00    -0.014 A 
ATOM     71  C   UNL A   1      40.361  28.518  27.340  1.00  0.00     0.009 A 
ATOM     72  C   UNL A   1      39.459  27.724  29.420  1.00  0.00     0.009 A 
ATOM     73  C   UNL A   1      40.398  27.200  26.861  1.00  0.00     0.001 A 
ATOM     74  C   UNL A   1      39.491  26.409  28.941  1.00  0.00     0.001 A 
ATOM     75  C   UNL A   1      39.975  26.145  27.666  1.00  0.00     0.000 A 
ENDBRANCH  51  70
BRANCH  63  76
ATOM     76  C   UNL A   1      42.730  34.279  29.785  1.00  0.00    -0.014 A 
ATOM     77  C   UNL A   1      43.819  34.404  28.902  1.00  0.00     0.009 A 
ATOM     78  C   UNL A   1      41.515  34.880  29.425  1.00  0.00     0.009 A 
ATOM     79  C   UNL A   1      43.697  35.133  27.713  1.00  0.00     0.001 A 
ATOM     80  C   UNL A   1      41.385  35.586  28.228  1.00  0.00     0.001 A 
ATOM     81  C   UNL A   1      42.478  35.718  27.376  1.00  0.00     0.000 A 
ENDBRANCH  63  76
ENDBRANCH  37  38
ENDBRANCH  30  32
ENDBRANCH  29  30
ENDBRANCH  28  29
ENDBRANCH  27  28
ENDBRANCH  26  27
ENDBRANCH  25  26
ENDBRANCH   1  25
TORSDOF 22
ENDMDL
MODEL 2
REMARK VINA RESULT:      -9.0      3.551      5.430
REMARK SMILES Cc1csc(=O)n1CC(=O)N[C@@H](C(=O)OCCOCCOCCOC(=O)c1ccc(-c2c3nc(c(-c4ccccc4)c4ccc([nH]4)c(-c4ccccc4)c4nc(c(-c5ccccc5)c5ccc2[nH]5)C=C4)C=C3)cc1)[C@@H](C)O
REMARK SMILES IDX 19 1 18 2 17 3 16 4 15 5 13 6 14 7 12 8 11 9 9 10 10 11 8 13
REMARK SMILES IDX 7 14 1 15 2 16 3 17 4 18 5 19 6 20 75 21 76 22 77 23 20 25
REMARK SMILES IDX 21 26 22 27 23 28 24 29 25 30 26 31 27 32 28 33 74 34 29 35
REMARK SMILES IDX 73 36 30 37 31 38 32 39 67 40 33 41 72 42 66 43 68 44 34 45
REMARK SMILES IDX 71 46 65 47 64 48 35 50 57 51 42 52 56 53 43 54 46 55 55 56
REMARK SMILES IDX 69 57 44 58 45 59 54 61 70 62 47 63 36 64 37 65 41 66 38 67
REMARK SMILES IDX 40 68 39 69 58 70 59 71 63 72 60 73 62 74 61 75 48 76 49 77
REMARK SMILES IDX 53 78 50 79 52 80 51 81
REMARK H PARENT 11 12 77 24 68 49 46 60
REMARK Flexibility Score: inf
ROOT
ATOM      1  C   UNL A   1      34.352  31.822  27.822  1.00  0.00     0.188 C 
ENDROOT
BRANCH   1   2
ATOM      2  O   UNL A   1      33.400  30.801  27.658  1.00  0.00    -0.376 OA
BRANCH   2   3
ATOM      3  C   UNL A   1      33.397  30.055  26.452  1.00  0.00     0.202 C 
BRANCH   3   4
ATOM      4  C   UNL A   1      32.166  29.271  25.939  1.00  0.00     0.261 C 
BRANCH   4   5
ATOM      5  O   UNL A   1      31.791  29.484  24.562  1.00  0.00    -0.462 OA
BRANCH   5   6
ATOM      6  C   UNL A   1      32.531  28.848  23.619  1.00  0.00     0.331 C 
ATOM      7  O   UNL A   1      33.592  29.280  23.167  1.00  0.00    -0.250 OA
BRANCH   6   8
ATOM      8  C   UNL A   1      32.004  27.460  23.188  1.00  0.00     0.221 C 
BRANCH   8   9
ATOM      9  N   UNL A   1      32.924  26.547  22.505  1.00  0.00    -0.339 N 
ATOM     10  C   UNL A   1      33.577  25.462  23.013  1.00  0.00     0.240 C 
ATOM     11  O   UNL A   1      33.891  24.566  22.227  1.00  0.00    -0.273 OA
ATOM     12  H   UNL A   1      33.093  26.741  21.555  1.00  0.00     0.164 HD
BRANCH  10  13
ATOM     13  C   UNL A   1      33.753  25.285  24.527  1.00  0.00     0.226 C 
BRANCH  13  14
ATOM     14  N   UNL A   1      33.245  24.000  24.975  1.00  0.00    -0.294 N 
ATOM     15  C   UNL A   1      30.777  24.622  25.238  1.00  0.00     0.065 C 
ATOM     16  C   UNL A   1      31.933  23.675  25.303  1.00  0.00     0.029 A 
ATOM     17  C   UNL A   1      31.802  22.410  25.731  1.00  0.00     0.091 A 
ATOM     18  S   UNL A   1      33.294  21.531  25.678  1.00  0.00    -0.082 S 
ATOM     19  C   UNL A   1      34.151  22.941  25.052  1.00  0.00     0.307 A 
ATOM     20  O   UNL A   1      35.337  22.942  24.767  1.00  0.00    -0.257 OA
ENDBRANCH  13  14
ENDBRANCH  10  13
ENDBRANCH   8   9
BRANCH   8  21
ATOM     21  C   UNL A   1      30.652  27.608  22.425  1.00  0.00     0.145 C 
ATOM     22  C   UNL A   1      29.462  27.499  23.376  1.00  0.00     0.041 C 
BRANCH  21  23
ATOM     23  O   UNL A   1      30.489  28.866  21.759  1.00  0.00    -0.391 OA
ATOM     24  H   UNL A   1      29.544  29.033  21.612  1.00  0.00     0.211 HD
ENDBRANCH  21  23
ENDBRANCH   8  21
ENDBRANCH   6   8
ENDBRANCH   5   6
ENDBRANCH   4   5
ENDBRANCH   3   4
ENDBRANCH   2   3
ENDBRANCH   1   2
BRANCH   1  25
ATOM     25  C   UNL A   1      33.876  33.247  28.125  1.00  0.00     0.188 C 
BRANCH  25  26
ATOM     26  O   UNL A   1      33.579  33.727  29.417  1.00  0.00    -0.376 OA
BRANCH  26  27
ATOM     27  C   UNL A   1      34.475  33.752  30.520  1.00  0.00     0.202 C 
BRANCH  27  28
ATOM     28  C   UNL A   1      34.643  32.616  31.528  1.00  0.00     0.261 C 
BRANCH  28  29
ATOM     29  O   UNL A   1      35.555  31.621  31.145  1.00  0.00    -0.460 OA
BRANCH  29  30
ATOM     30  C   UNL A   1      36.842  31.959  31.386  1.00  0.00     0.338 C 
ATOM     31  O   UNL A   1      37.272  32.738  32.207  1.00  0.00    -0.246 OA
BRANCH  30  32
ATOM     32  C   UNL A   1      37.665  31.169  30.467  1.00  0.00     0.060 A 
ATOM     33  C   UNL A   1      37.264  29.854  30.233  1.00  0.00     0.016 A 
ATOM     34  C   UNL A   1      38.933  31.656  30.131  1.00  0.00     0.016 A 
ATOM     35  C   UNL A   1      38.249  28.938  29.968  1.00  0.00     0.010 A 
ATOM     36  C   UNL A   1      39.917  30.741  29.908  1.00  0.00     0.010 A 
ATOM     37  C   UNL A   1      39.569  29.394  29.954  1.00  0.00    -0.014 A 
BRANCH  37  38
ATOM     38  C   UNL A   1      40.630  28.424  29.968  1.00  0.00     0.031 A 
ATOM     39  C   UNL A   1      41.205  28.258  31.314  1.00  0.00     0.074 A 
ATOM     40  C   UNL A   1      40.923  27.706  28.869  1.00  0.00     0.049 A 
ATOM     41  N   UNL A   1      42.377  28.625  31.701  1.00  0.00    -0.248 NA
ATOM     42  C   UNL A   1      40.304  27.847  32.406  1.00  0.00     0.031 C 
ATOM     43  C   UNL A   1      40.197  27.646  27.594  1.00  0.00     0.029 A 
ATOM     44  N   UNL A   1      41.882  26.762  28.703  1.00  0.00    -0.354 N 
ATOM     45  C   UNL A   1      42.438  28.278  33.044  1.00  0.00     0.074 A 
ATOM     46  C   UNL A   1      41.084  28.039  33.468  1.00  0.00     0.031 C 
ATOM     47  C   UNL A   1      40.577  26.533  26.922  1.00  0.00     0.029 A 
ATOM     48  C   UNL A   1      41.646  25.879  27.660  1.00  0.00     0.049 A 
ATOM     49  H   UNL A   1      42.682  26.709  29.276  1.00  0.00     0.167 HD
ATOM     50  C   UNL A   1      43.614  27.898  33.609  1.00  0.00     0.031 A 
ATOM     51  C   UNL A   1      42.226  24.662  27.495  1.00  0.00     0.031 A 
ATOM     52  C   UNL A   1      44.737  28.274  32.789  1.00  0.00     0.049 A 
ATOM     53  C   UNL A   1      43.430  24.625  28.368  1.00  0.00     0.074 A 
ATOM     54  C   UNL A   1      45.212  29.477  32.303  1.00  0.00     0.029 A 
ATOM     55  N   UNL A   1      45.292  27.293  32.000  1.00  0.00    -0.354 N 
ATOM     56  N   UNL A   1      44.492  25.347  28.147  1.00  0.00    -0.248 NA
ATOM     57  C   UNL A   1      43.252  24.186  29.746  1.00  0.00     0.031 C 
ATOM     58  C   UNL A   1      45.640  29.192  30.975  1.00  0.00     0.029 A 
ATOM     59  C   UNL A   1      45.496  27.822  30.752  1.00  0.00     0.049 A 
ATOM     60  H   UNL A   1      45.504  26.373  32.282  1.00  0.00     0.167 HD
ATOM     61  C   UNL A   1      44.853  25.833  29.396  1.00  0.00     0.074 A 
ATOM     62  C   UNL A   1      44.104  25.019  30.355  1.00  0.00     0.031 C 
ATOM     63  C   UNL A   1      45.473  27.043  29.532  1.00  0.00     0.031 A 
BRANCH  50  64
ATOM     64  C   UNL A   1      43.699  26.807  34.641  1.00  0.00    -0.014 A 
ATOM     65  C   UNL A   1      44.413  27.061  35.821  1.00  0.00     0.009 A 
ATOM     66  C   UNL A   1      43.351  25.465  34.386  1.00  0.00     0.009 A 
ATOM     67  C   UNL A   1      44.815  26.019  36.663  1.00  0.00     0.001 A 
ATOM     68  C   UNL A   1      43.712  24.427  35.245  1.00  0.00     0.001 A 
ATOM     69  C   UNL A   1      44.470  24.703  36.371  1.00  0.00     0.000 A 
ENDBRANCH  50  64
BRANCH  51  70
ATOM     70  C   UNL A   1      41.639  23.431  26.912  1.00  0.00    -0.014 A 
ATOM     71  C   UNL A   1      42.457  22.362  26.504  1.00  0.00     0.009 A 
ATOM     72  C   UNL A   1      40.255  23.189  26.994  1.00  0.00     0.009 A 
ATOM     73  C   UNL A   1      41.913  21.099  26.226  1.00  0.00     0.001 A 
ATOM     74  C   UNL A   1      39.711  21.930  26.712  1.00  0.00     0.001 A 
ATOM     75  C   UNL A   1      40.542  20.880  26.343  1.00  0.00     0.000 A 
ENDBRANCH  51  70
BRANCH  63  76
ATOM     76  C   UNL A   1      45.970  27.741  28.288  1.00  0.00    -0.014 A 
ATOM     77  C   UNL A   1      45.178  28.600  27.504  1.00  0.00     0.009 A 
ATOM     78  C   UNL A   1      47.340  27.657  27.998  1.00  0.00     0.009 A 
ATOM     79  C   UNL A   1      45.739  29.327  26.447  1.00  0.00     0.001 A 
ATOM     80  C   UNL A   1      47.905  28.399  26.961  1.00  0.00     0.001 A 
ATOM     81  C   UNL A   1      47.104  29.229  26.181  1.00  0.00     0.000 A 
ENDBRANCH  63  76
ENDBRANCH  37  38
ENDBRANCH  30  32
ENDBRANCH  29  30
ENDBRANCH  28  29
ENDBRANCH  27  28
ENDBRANCH  26  27
ENDBRANCH  25  26
ENDBRANCH   1  25
TORSDOF 22
ENDMDL
MODEL 3
REMARK VINA RESULT:      -8.7      3.781      5.519
REMARK SMILES Cc1csc(=O)n1CC(=O)N[C@@H](C(=O)OCCOCCOCCOC(=O)c1ccc(-c2c3nc(c(-c4ccccc4)c4ccc([nH]4)c(-c4ccccc4)c4nc(c(-c5ccccc5)c5ccc2[nH]5)C=C4)C=C3)cc1)[C@@H](C)O
REMARK SMILES IDX 19 1 18 2 17 3 16 4 15 5 13 6 14 7 12 8 11 9 9 10 10 11 8 13
REMARK SMILES IDX 7 14 1 15 2 16 3 17 4 18 5 19 6 20 75 21 76 22 77 23 20 25
REMARK SMILES IDX 21 26 22 27 23 28 24 29 25 30 26 31 27 32 28 33 74 34 29 35
REMARK SMILES IDX 73 36 30 37 31 38 32 39 67 40 33 41 72 42 66 43 68 44 34 45
REMARK SMILES IDX 71 46 65 47 64 48 35 50 57 51 42 52 56 53 43 54 46 55 55 56
REMARK SMILES IDX 69 57 44 58 45 59 54 61 70 62 47 63 36 64 37 65 41 66 38 67
REMARK SMILES IDX 40 68 39 69 58 70 59 71 63 72 60 73 62 74 61 75 48 76 49 77
REMARK SMILES IDX 53 78 50 79 52 80 51 81
REMARK H PARENT 11 12 77 24 68 49 46 60
REMARK Flexibility Score: inf
ROOT
ATOM      1  C   UNL A   1      30.971  29.110  24.674  1.00  0.00     0.188 C 
ENDROOT
BRANCH   1   2
ATOM      2  O   UNL A   1      30.655  27.836  24.174  1.00  0.00    -0.376 OA
BRANCH   2   3
ATOM      3  C   UNL A   1      31.088  26.691  24.891  1.00  0.00     0.202 C 
BRANCH   3   4
ATOM      4  C   UNL A   1      30.417  25.303  24.765  1.00  0.00     0.261 C 
BRANCH   4   5
ATOM      5  O   UNL A   1      30.432  24.694  23.456  1.00  0.00    -0.462 OA
BRANCH   5   6
ATOM      6  C   UNL A   1      31.586  24.786  22.749  1.00  0.00     0.331 C 
ATOM      7  O   UNL A   1      31.769  25.581  21.827  1.00  0.00    -0.250 OA
BRANCH   6   8
ATOM      8  C   UNL A   1      32.735  23.872  23.234  1.00  0.00     0.221 C 
BRANCH   8   9
ATOM      9  N   UNL A   1      33.911  24.497  23.846  1.00  0.00    -0.339 N 
ATOM     10  C   UNL A   1      34.546  24.158  25.005  1.00  0.00     0.240 C 
ATOM     11  O   UNL A   1      35.741  24.443  25.105  1.00  0.00    -0.273 OA
ATOM     12  H   UNL A   1      34.293  25.261  23.357  1.00  0.00     0.164 HD
BRANCH  10  13
ATOM     13  C   UNL A   1      33.845  23.298  26.066  1.00  0.00     0.226 C 
BRANCH  13  14
ATOM     14  N   UNL A   1      33.730  21.915  25.638  1.00  0.00    -0.294 N 
ATOM     15  C   UNL A   1      36.218  21.335  25.500  1.00  0.00     0.065 C 
ATOM     16  C   UNL A   1      34.761  21.020  25.374  1.00  0.00     0.029 A 
ATOM     17  C   UNL A   1      34.318  19.828  24.947  1.00  0.00     0.091 A 
ATOM     18  S   UNL A   1      32.590  19.729  24.922  1.00  0.00    -0.082 S 
ATOM     19  C   UNL A   1      32.444  21.386  25.511  1.00  0.00     0.307 A 
ATOM     20  O   UNL A   1      31.378  21.933  25.737  1.00  0.00    -0.257 OA
ENDBRANCH  13  14
ENDBRANCH  10  13
ENDBRANCH   8   9
BRANCH   8  21
ATOM     21  C   UNL A   1      33.127  22.857  22.117  1.00  0.00     0.145 C 
ATOM     22  C   UNL A   1      32.118  21.713  22.027  1.00  0.00     0.041 C 
BRANCH  21  23
ATOM     23  O   UNL A   1      33.175  23.422  20.801  1.00  0.00    -0.391 OA
ATOM     24  H   UNL A   1      34.029  23.862  20.670  1.00  0.00     0.211 HD
ENDBRANCH  21  23
ENDBRANCH   8  21
ENDBRANCH   6   8
ENDBRANCH   5   6
ENDBRANCH   4   5
ENDBRANCH   3   4
ENDBRANCH   2   3
ENDBRANCH   1   2
BRANCH   1  25
ATOM     25  C   UNL A   1      32.435  29.455  24.972  1.00  0.00     0.188 C 
BRANCH  25  26
ATOM     26  O   UNL A   1      32.848  30.389  25.945  1.00  0.00    -0.376 OA
BRANCH  26  27
ATOM     27  C   UNL A   1      33.770  30.137  26.997  1.00  0.00     0.202 C 
BRANCH  27  28
ATOM     28  C   UNL A   1      34.617  31.208  27.683  1.00  0.00     0.261 C 
BRANCH  28  29
ATOM     29  O   UNL A   1      35.932  30.815  27.978  1.00  0.00    -0.460 OA
BRANCH  29  30
ATOM     30  C   UNL A   1      36.643  31.776  28.609  1.00  0.00     0.338 C 
ATOM     31  O   UNL A   1      36.568  32.977  28.477  1.00  0.00    -0.246 OA
BRANCH  30  32
ATOM     32  C   UNL A   1      37.540  31.091  29.544  1.00  0.00     0.060 A 
ATOM     33  C   UNL A   1      38.812  31.637  29.713  1.00  0.00     0.016 A 
ATOM     34  C   UNL A   1      37.199  29.800  29.962  1.00  0.00     0.016 A 
ATOM     35  C   UNL A   1      39.833  30.769  29.999  1.00  0.00     0.010 A 
ATOM     36  C   UNL A   1      38.218  28.930  30.206  1.00  0.00     0.010 A 
ATOM     37  C   UNL A   1      39.519  29.412  30.098  1.00  0.00    -0.014 A 
BRANCH  37  38
ATOM     38  C   UNL A   1      40.594  28.457  30.107  1.00  0.00     0.031 A 
ATOM     39  C   UNL A   1      41.155  28.275  31.457  1.00  0.00     0.074 A 
ATOM     40  C   UNL A   1      40.912  27.765  28.998  1.00  0.00     0.049 A 
ATOM     41  N   UNL A   1      42.317  28.651  31.866  1.00  0.00    -0.248 NA
ATOM     42  C   UNL A   1      40.247  27.828  32.529  1.00  0.00     0.031 C 
ATOM     43  C   UNL A   1      40.202  27.719  27.714  1.00  0.00     0.029 A 
ATOM     44  N   UNL A   1      41.887  26.840  28.826  1.00  0.00    -0.354 N 
ATOM     45  C   UNL A   1      42.366  28.279  33.202  1.00  0.00     0.074 A 
ATOM     46  C   UNL A   1      41.011  28.012  33.604  1.00  0.00     0.031 C 
ATOM     47  C   UNL A   1      40.608  26.626  27.024  1.00  0.00     0.029 A 
ATOM     48  C   UNL A   1      41.677  25.974  27.764  1.00  0.00     0.049 A 
ATOM     49  H   UNL A   1      42.680  26.788  29.408  1.00  0.00     0.167 HD
ATOM     50  C   UNL A   1      43.540  27.907  33.774  1.00  0.00     0.031 A 
ATOM     51  C   UNL A   1      42.278  24.769  27.582  1.00  0.00     0.031 A 
ATOM     52  C   UNL A   1      44.668  28.315  32.976  1.00  0.00     0.049 A 
ATOM     53  C   UNL A   1      43.471  24.733  28.469  1.00  0.00     0.074 A 
ATOM     54  C   UNL A   1      45.131  29.534  32.519  1.00  0.00     0.029 A 
ATOM     55  N   UNL A   1      45.247  27.357  32.175  1.00  0.00    -0.354 N 
ATOM     56  N   UNL A   1      44.525  25.474  28.276  1.00  0.00    -0.248 NA
ATOM     57  C   UNL A   1      43.283  24.264  29.837  1.00  0.00     0.031 C 
ATOM     58  C   UNL A   1      45.579  29.281  31.191  1.00  0.00     0.029 A 
ATOM     59  C   UNL A   1      45.458  27.913  30.941  1.00  0.00     0.049 A 
ATOM     60  H   UNL A   1      45.470  26.436  32.443  1.00  0.00     0.167 HD
ATOM     61  C   UNL A   1      44.863  25.942  29.539  1.00  0.00     0.074 A 
ATOM     62  C   UNL A   1      44.114  25.098  30.472  1.00  0.00     0.031 C 
ATOM     63  C   UNL A   1      45.463  27.158  29.705  1.00  0.00     0.031 A 
BRANCH  50  64
ATOM     64  C   UNL A   1      43.630  26.796  34.786  1.00  0.00    -0.014 A 
ATOM     65  C   UNL A   1      44.342  27.032  35.971  1.00  0.00     0.009 A 
ATOM     66  C   UNL A   1      43.287  25.458  34.506  1.00  0.00     0.009 A 
ATOM     67  C   UNL A   1      44.748  25.976  36.794  1.00  0.00     0.001 A 
ATOM     68  C   UNL A   1      43.651  24.406  35.347  1.00  0.00     0.001 A 
ATOM     69  C   UNL A   1      44.408  24.664  36.478  1.00  0.00     0.000 A 
ENDBRANCH  50  64
BRANCH  51  70
ATOM     70  C   UNL A   1      41.716  23.540  26.968  1.00  0.00    -0.014 A 
ATOM     71  C   UNL A   1      42.554  22.585  26.366  1.00  0.00     0.009 A 
ATOM     72  C   UNL A   1      40.379  23.170  27.201  1.00  0.00     0.009 A 
ATOM     73  C   UNL A   1      42.078  21.304  26.046  1.00  0.00     0.001 A 
ATOM     74  C   UNL A   1      39.902  21.894  26.877  1.00  0.00     0.001 A 
ATOM     75  C   UNL A   1      40.757  20.955  26.313  1.00  0.00     0.000 A 
ENDBRANCH  51  70
BRANCH  63  76
ATOM     76  C   UNL A   1      45.964  27.888  28.482  1.00  0.00    -0.014 A 
ATOM     77  C   UNL A   1      47.281  27.786  27.995  1.00  0.00     0.009 A 
ATOM     78  C   UNL A   1      45.021  28.568  27.698  1.00  0.00     0.009 A 
ATOM     79  C   UNL A   1      47.641  28.374  26.777  1.00  0.00     0.001 A 
ATOM     80  C   UNL A   1      45.374  29.133  26.472  1.00  0.00     0.001 A 
ATOM     81  C   UNL A   1      46.685  29.041  26.014  1.00  0.00     0.000 A 
ENDBRANCH  63  76
ENDBRANCH  37  38
ENDBRANCH  30  32
ENDBRANCH  29  30
ENDBRANCH  28  29
ENDBRANCH  27  28
ENDBRANCH  26  27
ENDBRANCH  25  26
ENDBRANCH   1  25
TORSDOF 22
ENDMDL
