MODEL 1
REMARK VINA RESULT:      -9.4      0.000      0.000
REMARK SMILES C[C@@H](Sc1ccccc1[N+](=O)[O-])[C@@H](C)C(=O)OCCOCCOCCOC(=O)c1ccc(-c2c3nc(c(-c4ccccc4)c4ccc([nH]4)c(-c4ccccc4)c4nc(c(-c5ccccc5)c5ccc2[nH]5)C=C4)C=C3)cc1
REMARK SMILES IDX 21 1 20 2 19 3 18 4 17 5 15 6 16 7 13 8 14 9 2 10 1 11 3 12
REMARK SMILES IDX 4 13 5 14 9 15 6 16 8 17 7 18 10 19 11 20 12 21 22 22 23 23
REMARK SMILES IDX 24 24 25 25 26 26 27 27 28 28 29 29 30 30 76 31 31 32 75 33
REMARK SMILES IDX 32 34 33 35 34 36 69 37 35 38 74 39 68 40 70 41 36 42 73 43
REMARK SMILES IDX 67 44 66 45 37 47 59 48 44 49 58 50 45 51 48 52 57 53 71 54
REMARK SMILES IDX 46 55 47 56 56 58 72 59 49 60 38 61 39 62 43 63 40 64 42 65
REMARK SMILES IDX 41 66 60 67 61 68 65 69 62 70 64 71 63 72 50 73 51 74 55 75
REMARK SMILES IDX 52 76 54 77 53 78
REMARK H PARENT 70 46 48 57
REMARK Flexibility Score: inf
ROOT
ATOM      1  C   UNL A   1      38.862  19.404  25.372  1.00  0.00     0.188 C 
ENDROOT
BRANCH   1   2
ATOM      2  O   UNL A   1      37.752  19.968  24.681  1.00  0.00    -0.376 OA
BRANCH   2   3
ATOM      3  C   UNL A   1      36.808  20.745  25.396  1.00  0.00     0.202 C 
BRANCH   3   4
ATOM      4  C   UNL A   1      36.382  22.064  24.736  1.00  0.00     0.261 C 
BRANCH   4   5
ATOM      5  O   UNL A   1      34.956  22.335  24.672  1.00  0.00    -0.463 OA
BRANCH   5   6
ATOM      6  C   UNL A   1      34.577  23.175  23.676  1.00  0.00     0.309 C 
ATOM      7  O   UNL A   1      35.133  23.221  22.580  1.00  0.00    -0.252 OA
BRANCH   6   8
ATOM      8  C   UNL A   1      33.526  24.225  24.045  1.00  0.00     0.109 C 
ATOM      9  C   UNL A   1      33.214  23.830  25.508  1.00  0.00     0.021 C 
BRANCH   8  10
ATOM     10  C   UNL A   1      32.226  24.508  23.178  1.00  0.00     0.063 C 
ATOM     11  C   UNL A   1      31.018  24.609  24.115  1.00  0.00     0.020 C 
BRANCH  10  12
ATOM     12  S   UNL A   1      32.296  26.173  22.178  1.00  0.00    -0.115 SA
BRANCH  12  13
ATOM     13  C   UNL A   1      32.203  27.584  23.337  1.00  0.00     0.085 A 
ATOM     14  C   UNL A   1      33.370  28.129  23.887  1.00  0.00     0.022 A 
ATOM     15  C   UNL A   1      31.037  28.316  23.648  1.00  0.00     0.282 A 
ATOM     16  C   UNL A   1      33.349  29.165  24.843  1.00  0.00     0.002 A 
ATOM     17  C   UNL A   1      30.989  29.347  24.615  1.00  0.00     0.087 A 
ATOM     18  C   UNL A   1      32.153  29.745  25.245  1.00  0.00     0.007 A 
BRANCH  15  19
ATOM     19  N   UNL A   1      29.865  28.275  22.809  1.00  0.00     0.063 N 
ATOM     20  O   UNL A   1      28.860  27.741  23.296  1.00  0.00    -0.258 OA
ATOM     21  O   UNL A   1      29.928  28.913  21.749  1.00  0.00    -0.258 OA
ENDBRANCH  15  19
ENDBRANCH  12  13
ENDBRANCH  10  12
ENDBRANCH   8  10
ENDBRANCH   6   8
ENDBRANCH   5   6
ENDBRANCH   4   5
ENDBRANCH   3   4
ENDBRANCH   2   3
ENDBRANCH   1   2
BRANCH   1  22
ATOM     22  C   UNL A   1      39.877  20.320  26.071  1.00  0.00     0.188 C 
BRANCH  22  23
ATOM     23  O   UNL A   1      41.115  19.677  26.338  1.00  0.00    -0.376 OA
BRANCH  23  24
ATOM     24  C   UNL A   1      42.041  20.502  27.025  1.00  0.00     0.202 C 
BRANCH  24  25
ATOM     25  C   UNL A   1      42.980  21.202  26.042  1.00  0.00     0.261 C 
BRANCH  25  26
ATOM     26  O   UNL A   1      42.332  22.277  25.326  1.00  0.00    -0.460 OA
BRANCH  26  27
ATOM     27  C   UNL A   1      43.106  23.360  25.101  1.00  0.00     0.338 C 
ATOM     28  O   UNL A   1      44.082  23.407  24.383  1.00  0.00    -0.246 OA
BRANCH  27  29
ATOM     29  C   UNL A   1      42.648  24.515  25.895  1.00  0.00     0.060 A 
ATOM     30  C   UNL A   1      43.313  25.747  25.862  1.00  0.00     0.016 A 
ATOM     31  C   UNL A   1      41.653  24.277  26.840  1.00  0.00     0.016 A 
ATOM     32  C   UNL A   1      43.016  26.728  26.813  1.00  0.00     0.010 A 
ATOM     33  C   UNL A   1      41.350  25.259  27.780  1.00  0.00     0.010 A 
ATOM     34  C   UNL A   1      42.047  26.479  27.793  1.00  0.00    -0.014 A 
BRANCH  34  35
ATOM     35  C   UNL A   1      41.756  27.455  28.869  1.00  0.00     0.031 A 
ATOM     36  C   UNL A   1      42.549  27.420  30.146  1.00  0.00     0.074 A 
ATOM     37  C   UNL A   1      40.728  28.310  28.729  1.00  0.00     0.049 A 
ATOM     38  N   UNL A   1      42.305  28.007  31.289  1.00  0.00    -0.248 NA
ATOM     39  C   UNL A   1      43.775  26.606  30.134  1.00  0.00     0.031 C 
ATOM     40  C   UNL A   1      39.922  28.469  27.517  1.00  0.00     0.029 A 
ATOM     41  N   UNL A   1      40.164  29.181  29.626  1.00  0.00    -0.354 N 
ATOM     42  C   UNL A   1      43.325  27.606  32.145  1.00  0.00     0.074 A 
ATOM     43  C   UNL A   1      44.189  26.724  31.389  1.00  0.00     0.031 C 
ATOM     44  C   UNL A   1      38.955  29.370  27.752  1.00  0.00     0.029 A 
ATOM     45  C   UNL A   1      39.033  29.795  29.145  1.00  0.00     0.049 A 
ATOM     46  H   UNL A   1      40.532  29.347  30.524  1.00  0.00     0.167 HD
ATOM     47  C   UNL A   1      43.511  27.938  33.445  1.00  0.00     0.031 A 
ATOM     48  C   UNL A   1      38.129  30.568  29.774  1.00  0.00     0.031 A 
ATOM     49  C   UNL A   1      42.634  28.811  34.185  1.00  0.00     0.049 A 
ATOM     50  C   UNL A   1      38.313  30.859  31.237  1.00  0.00     0.074 A 
ATOM     51  C   UNL A   1      42.730  29.220  35.503  1.00  0.00     0.029 A 
ATOM     52  N   UNL A   1      41.494  29.405  33.664  1.00  0.00    -0.354 N 
ATOM     53  N   UNL A   1      39.270  30.468  32.043  1.00  0.00    -0.248 NA
ATOM     54  C   UNL A   1      37.289  31.696  31.876  1.00  0.00     0.031 C 
ATOM     55  C   UNL A   1      41.619  30.019  35.794  1.00  0.00     0.029 A 
ATOM     56  C   UNL A   1      40.864  30.158  34.639  1.00  0.00     0.049 A 
ATOM     57  H   UNL A   1      41.179  29.306  32.736  1.00  0.00     0.167 HD
ATOM     58  C   UNL A   1      38.979  31.030  33.278  1.00  0.00     0.074 A 
ATOM     59  C   UNL A   1      37.764  31.802  33.110  1.00  0.00     0.031 C 
ATOM     60  C   UNL A   1      39.656  30.918  34.447  1.00  0.00     0.031 A 
BRANCH  47  61
ATOM     61  C   UNL A   1      44.676  27.316  34.167  1.00  0.00    -0.014 A 
ATOM     62  C   UNL A   1      44.564  26.075  34.817  1.00  0.00     0.009 A 
ATOM     63  C   UNL A   1      45.920  27.968  34.168  1.00  0.00     0.009 A 
ATOM     64  C   UNL A   1      45.663  25.521  35.479  1.00  0.00     0.001 A 
ATOM     65  C   UNL A   1      47.023  27.398  34.806  1.00  0.00     0.001 A 
ATOM     66  C   UNL A   1      46.892  26.180  35.470  1.00  0.00     0.000 A 
ENDBRANCH  47  61
BRANCH  48  67
ATOM     67  C   UNL A   1      36.950  31.083  29.030  1.00  0.00    -0.014 A 
ATOM     68  C   UNL A   1      35.876  30.236  28.721  1.00  0.00     0.009 A 
ATOM     69  C   UNL A   1      36.886  32.430  28.635  1.00  0.00     0.009 A 
ATOM     70  C   UNL A   1      34.772  30.721  28.016  1.00  0.00     0.001 A 
ATOM     71  C   UNL A   1      35.767  32.920  27.959  1.00  0.00     0.001 A 
ATOM     72  C   UNL A   1      34.715  32.064  27.642  1.00  0.00     0.000 A 
ENDBRANCH  48  67
BRANCH  60  73
ATOM     73  C   UNL A   1      39.117  31.687  35.620  1.00  0.00    -0.014 A 
ATOM     74  C   UNL A   1      39.494  33.018  35.858  1.00  0.00     0.009 A 
ATOM     75  C   UNL A   1      38.191  31.076  36.481  1.00  0.00     0.009 A 
ATOM     76  C   UNL A   1      38.980  33.709  36.957  1.00  0.00     0.001 A 
ATOM     77  C   UNL A   1      37.656  31.780  37.559  1.00  0.00     0.001 A 
ATOM     78  C   UNL A   1      38.058  33.092  37.803  1.00  0.00     0.000 A 
ENDBRANCH  60  73
ENDBRANCH  34  35
ENDBRANCH  27  29
ENDBRANCH  26  27
ENDBRANCH  25  26
ENDBRANCH  24  25
ENDBRANCH  23  24
ENDBRANCH  22  23
ENDBRANCH   1  22
TORSDOF 21
ENDMDL
MODEL 2
REMARK VINA RESULT:      -9.4      2.056      2.584
REMARK SMILES C[C@@H](Sc1ccccc1[N+](=O)[O-])[C@@H](C)C(=O)OCCOCCOCCOC(=O)c1ccc(-c2c3nc(c(-c4ccccc4)c4ccc([nH]4)c(-c4ccccc4)c4nc(c(-c5ccccc5)c5ccc2[nH]5)C=C4)C=C3)cc1
REMARK SMILES IDX 21 1 20 2 19 3 18 4 17 5 15 6 16 7 13 8 14 9 2 10 1 11 3 12
REMARK SMILES IDX 4 13 5 14 9 15 6 16 8 17 7 18 10 19 11 20 12 21 22 22 23 23
REMARK SMILES IDX 24 24 25 25 26 26 27 27 28 28 29 29 30 30 76 31 31 32 75 33
REMARK SMILES IDX 32 34 33 35 34 36 69 37 35 38 74 39 68 40 70 41 36 42 73 43
REMARK SMILES IDX 67 44 66 45 37 47 59 48 44 49 58 50 45 51 48 52 57 53 71 54
REMARK SMILES IDX 46 55 47 56 56 58 72 59 49 60 38 61 39 62 43 63 40 64 42 65
REMARK SMILES IDX 41 66 60 67 61 68 65 69 62 70 64 71 63 72 50 73 51 74 55 75
REMARK SMILES IDX 52 76 54 77 53 78
REMARK H PARENT 70 46 48 57
REMARK Flexibility Score: inf
ROOT
ATOM      1  C   UNL A   1      40.716  21.158  27.207  1.00  0.00     0.188 C 
ENDROOT
BRANCH   1   2
ATOM      2  O   UNL A   1      39.400  21.105  26.667  1.00  0.00    -0.376 OA
BRANCH   2   3
ATOM      3  C   UNL A   1      38.814  22.283  26.141  1.00  0.00     0.202 C 
BRANCH   3   4
ATOM      4  C   UNL A   1      37.816  22.084  24.991  1.00  0.00     0.261 C 
BRANCH   4   5
ATOM      5  O   UNL A   1      37.150  20.795  24.918  1.00  0.00    -0.463 OA
BRANCH   5   6
ATOM      6  C   UNL A   1      35.805  20.835  25.095  1.00  0.00     0.309 C 
ATOM      7  O   UNL A   1      35.053  19.910  24.790  1.00  0.00    -0.252 OA
BRANCH   6   8
ATOM      8  C   UNL A   1      35.222  22.184  25.524  1.00  0.00     0.109 C 
ATOM      9  C   UNL A   1      34.594  21.814  26.889  1.00  0.00     0.021 C 
BRANCH   8  10
ATOM     10  C   UNL A   1      34.268  23.061  24.606  1.00  0.00     0.063 C 
ATOM     11  C   UNL A   1      34.791  23.017  23.166  1.00  0.00     0.020 C 
BRANCH  10  12
ATOM     12  S   UNL A   1      32.432  22.429  24.552  1.00  0.00    -0.115 SA
BRANCH  12  13
ATOM     13  C   UNL A   1      31.293  23.852  24.700  1.00  0.00     0.085 A 
ATOM     14  C   UNL A   1      30.773  24.467  23.554  1.00  0.00     0.022 A 
ATOM     15  C   UNL A   1      30.736  24.336  25.904  1.00  0.00     0.282 A 
ATOM     16  C   UNL A   1      29.955  25.613  23.611  1.00  0.00     0.002 A 
ATOM     17  C   UNL A   1      29.927  25.493  25.986  1.00  0.00     0.087 A 
ATOM     18  C   UNL A   1      29.568  26.157  24.828  1.00  0.00     0.007 A 
BRANCH  15  19
ATOM     19  N   UNL A   1      30.706  23.540  27.104  1.00  0.00     0.063 N 
ATOM     20  O   UNL A   1      31.766  23.465  27.741  1.00  0.00    -0.258 OA
ATOM     21  O   UNL A   1      29.591  23.138  27.467  1.00  0.00    -0.258 OA
ENDBRANCH  15  19
ENDBRANCH  12  13
ENDBRANCH  10  12
ENDBRANCH   8  10
ENDBRANCH   6   8
ENDBRANCH   5   6
ENDBRANCH   4   5
ENDBRANCH   3   4
ENDBRANCH   2   3
ENDBRANCH   1   2
BRANCH   1  22
ATOM     22  C   UNL A   1      41.846  20.347  26.558  1.00  0.00     0.188 C 
BRANCH  22  23
ATOM     23  O   UNL A   1      43.059  21.076  26.441  1.00  0.00    -0.376 OA
BRANCH  23  24
ATOM     24  C   UNL A   1      43.904  20.603  25.404  1.00  0.00     0.202 C 
BRANCH  24  25
ATOM     25  C   UNL A   1      44.415  21.763  24.548  1.00  0.00     0.261 C 
BRANCH  25  26
ATOM     26  O   UNL A   1      43.650  22.974  24.740  1.00  0.00    -0.460 OA
BRANCH  26  27
ATOM     27  C   UNL A   1      44.384  24.104  24.832  1.00  0.00     0.338 C 
ATOM     28  O   UNL A   1      45.490  24.280  24.367  1.00  0.00    -0.246 OA
BRANCH  27  29
ATOM     29  C   UNL A   1      43.688  25.124  25.638  1.00  0.00     0.060 A 
ATOM     30  C   UNL A   1      43.932  26.493  25.469  1.00  0.00     0.016 A 
ATOM     31  C   UNL A   1      42.934  24.671  26.717  1.00  0.00     0.016 A 
ATOM     32  C   UNL A   1      43.461  27.409  26.414  1.00  0.00     0.010 A 
ATOM     33  C   UNL A   1      42.455  25.586  27.652  1.00  0.00     0.010 A 
ATOM     34  C   UNL A   1      42.738  26.956  27.525  1.00  0.00    -0.014 A 
BRANCH  34  35
ATOM     35  C   UNL A   1      42.288  27.879  28.593  1.00  0.00     0.031 A 
ATOM     36  C   UNL A   1      43.094  28.011  29.855  1.00  0.00     0.074 A 
ATOM     37  C   UNL A   1      41.117  28.526  28.461  1.00  0.00     0.049 A 
ATOM     38  N   UNL A   1      42.763  28.562  30.995  1.00  0.00    -0.248 NA
ATOM     39  C   UNL A   1      44.450  27.438  29.831  1.00  0.00     0.031 C 
ATOM     40  C   UNL A   1      40.277  28.515  27.263  1.00  0.00     0.029 A 
ATOM     41  N   UNL A   1      40.416  29.292  29.357  1.00  0.00    -0.354 N 
ATOM     42  C   UNL A   1      43.853  28.370  31.837  1.00  0.00     0.074 A 
ATOM     43  C   UNL A   1      44.854  27.651  31.077  1.00  0.00     0.031 C 
ATOM     44  C   UNL A   1      39.164  29.224  27.503  1.00  0.00     0.029 A 
ATOM     45  C   UNL A   1      39.184  29.679  28.889  1.00  0.00     0.049 A 
ATOM     46  H   UNL A   1      40.761  29.539  30.245  1.00  0.00     0.167 HD
ATOM     47  C   UNL A   1      43.995  28.752  33.130  1.00  0.00     0.031 A 
ATOM     48  C   UNL A   1      38.162  30.282  29.525  1.00  0.00     0.031 A 
ATOM     49  C   UNL A   1      42.983  29.459  33.874  1.00  0.00     0.049 A 
ATOM     50  C   UNL A   1      38.312  30.626  30.980  1.00  0.00     0.074 A 
ATOM     51  C   UNL A   1      43.023  29.901  35.184  1.00  0.00     0.029 A 
ATOM     52  N   UNL A   1      41.745  29.824  33.366  1.00  0.00    -0.354 N 
ATOM     53  N   UNL A   1      39.338  30.431  31.773  1.00  0.00    -0.248 NA
ATOM     54  C   UNL A   1      37.161  31.269  31.627  1.00  0.00     0.031 C 
ATOM     55  C   UNL A   1      41.788  30.485  35.485  1.00  0.00     0.029 A 
ATOM     56  C   UNL A   1      41.002  30.464  34.343  1.00  0.00     0.049 A 
ATOM     57  H   UNL A   1      41.440  29.654  32.446  1.00  0.00     0.167 HD
ATOM     58  C   UNL A   1      38.967  30.950  33.006  1.00  0.00     0.074 A 
ATOM     59  C   UNL A   1      37.627  31.481  32.850  1.00  0.00     0.031 C 
ATOM     60  C   UNL A   1      39.671  30.984  34.164  1.00  0.00     0.031 A 
BRANCH  47  61
ATOM     61  C   UNL A   1      45.266  28.368  33.838  1.00  0.00    -0.014 A 
ATOM     62  C   UNL A   1      45.391  27.145  34.518  1.00  0.00     0.009 A 
ATOM     63  C   UNL A   1      46.373  29.231  33.794  1.00  0.00     0.009 A 
ATOM     64  C   UNL A   1      46.584  26.814  35.167  1.00  0.00     0.001 A 
ATOM     65  C   UNL A   1      47.573  28.885  34.420  1.00  0.00     0.001 A 
ATOM     66  C   UNL A   1      47.675  27.681  35.114  1.00  0.00     0.000 A 
ENDBRANCH  47  61
BRANCH  48  67
ATOM     67  C   UNL A   1      36.896  30.558  28.796  1.00  0.00    -0.014 A 
ATOM     68  C   UNL A   1      36.555  31.868  28.430  1.00  0.00     0.009 A 
ATOM     69  C   UNL A   1      36.028  29.510  28.451  1.00  0.00     0.009 A 
ATOM     70  C   UNL A   1      35.362  32.125  27.750  1.00  0.00     0.001 A 
ATOM     71  C   UNL A   1      34.851  29.766  27.744  1.00  0.00     0.001 A 
ATOM     72  C   UNL A   1      34.514  31.073  27.401  1.00  0.00     0.000 A 
ENDBRANCH  48  67
BRANCH  60  73
ATOM     73  C   UNL A   1      39.018  31.659  35.337  1.00  0.00    -0.014 A 
ATOM     74  C   UNL A   1      38.323  30.925  36.309  1.00  0.00     0.009 A 
ATOM     75  C   UNL A   1      39.130  33.051  35.483  1.00  0.00     0.009 A 
ATOM     76  C   UNL A   1      37.723  31.577  37.389  1.00  0.00     0.001 A 
ATOM     77  C   UNL A   1      38.556  33.695  36.579  1.00  0.00     0.001 A 
ATOM     78  C   UNL A   1      37.844  32.960  37.525  1.00  0.00     0.000 A 
ENDBRANCH  60  73
ENDBRANCH  34  35
ENDBRANCH  27  29
ENDBRANCH  26  27
ENDBRANCH  25  26
ENDBRANCH  24  25
ENDBRANCH  23  24
ENDBRANCH  22  23
ENDBRANCH   1  22
TORSDOF 21
ENDMDL
MODEL 3
REMARK VINA RESULT:      -9.1      1.324      2.050
REMARK SMILES C[C@@H](Sc1ccccc1[N+](=O)[O-])[C@@H](C)C(=O)OCCOCCOCCOC(=O)c1ccc(-c2c3nc(c(-c4ccccc4)c4ccc([nH]4)c(-c4ccccc4)c4nc(c(-c5ccccc5)c5ccc2[nH]5)C=C4)C=C3)cc1
REMARK SMILES IDX 21 1 20 2 19 3 18 4 17 5 15 6 16 7 13 8 14 9 2 10 1 11 3 12
REMARK SMILES IDX 4 13 5 14 9 15 6 16 8 17 7 18 10 19 11 20 12 21 22 22 23 23
REMARK SMILES IDX 24 24 25 25 26 26 27 27 28 28 29 29 30 30 76 31 31 32 75 33
REMARK SMILES IDX 32 34 33 35 34 36 69 37 35 38 74 39 68 40 70 41 36 42 73 43
REMARK SMILES IDX 67 44 66 45 37 47 59 48 44 49 58 50 45 51 48 52 57 53 71 54
REMARK SMILES IDX 46 55 47 56 56 58 72 59 49 60 38 61 39 62 43 63 40 64 42 65
REMARK SMILES IDX 41 66 60 67 61 68 65 69 62 70 64 71 63 72 50 73 51 74 55 75
REMARK SMILES IDX 52 76 54 77 53 78
REMARK H PARENT 70 46 48 57
REMARK Flexibility Score: inf
ROOT
ATOM      1  C   UNL A   1      41.478  19.292  26.008  1.00  0.00     0.188 C 
ENDROOT
BRANCH   1   2
ATOM      2  O   UNL A   1      40.780  20.531  26.064  1.00  0.00    -0.376 OA
BRANCH   2   3
ATOM      3  C   UNL A   1      39.364  20.533  26.075  1.00  0.00     0.202 C 
BRANCH   3   4
ATOM      4  C   UNL A   1      38.688  21.857  25.690  1.00  0.00     0.261 C 
BRANCH   4   5
ATOM      5  O   UNL A   1      37.236  21.876  25.690  1.00  0.00    -0.463 OA
BRANCH   5   6
ATOM      6  C   UNL A   1      36.678  23.040  25.272  1.00  0.00     0.309 C 
ATOM      7  O   UNL A   1      37.116  24.149  25.576  1.00  0.00    -0.252 OA
BRANCH   6   8
ATOM      8  C   UNL A   1      35.336  22.921  24.545  1.00  0.00     0.109 C 
ATOM      9  C   UNL A   1      35.772  23.154  23.079  1.00  0.00     0.021 C 
BRANCH   8  10
ATOM     10  C   UNL A   1      34.040  23.741  24.955  1.00  0.00     0.063 C 
ATOM     11  C   UNL A   1      33.947  23.787  26.485  1.00  0.00     0.020 C 
BRANCH  10  12
ATOM     12  S   UNL A   1      34.048  25.585  24.342  1.00  0.00    -0.115 SA
BRANCH  12  13
ATOM     13  C   UNL A   1      32.327  26.159  24.118  1.00  0.00     0.085 A 
ATOM     14  C   UNL A   1      31.252  25.290  24.345  1.00  0.00     0.022 A 
ATOM     15  C   UNL A   1      31.932  27.492  23.867  1.00  0.00     0.282 A 
ATOM     16  C   UNL A   1      29.912  25.660  24.113  1.00  0.00     0.002 A 
ATOM     17  C   UNL A   1      30.596  27.882  23.615  1.00  0.00     0.087 A 
ATOM     18  C   UNL A   1      29.584  26.945  23.702  1.00  0.00     0.007 A 
BRANCH  15  19
ATOM     19  N   UNL A   1      32.806  28.608  24.127  1.00  0.00     0.063 N 
ATOM     20  O   UNL A   1      33.488  29.005  23.172  1.00  0.00    -0.258 OA
ATOM     21  O   UNL A   1      32.677  29.159  25.229  1.00  0.00    -0.258 OA
ENDBRANCH  15  19
ENDBRANCH  12  13
ENDBRANCH  10  12
ENDBRANCH   8  10
ENDBRANCH   6   8
ENDBRANCH   5   6
ENDBRANCH   4   5
ENDBRANCH   3   4
ENDBRANCH   2   3
ENDBRANCH   1   2
BRANCH   1  22
ATOM     22  C   UNL A   1      43.012  19.271  26.077  1.00  0.00     0.188 C 
BRANCH  22  23
ATOM     23  O   UNL A   1      43.629  19.761  24.895  1.00  0.00    -0.376 OA
BRANCH  23  24
ATOM     24  C   UNL A   1      45.014  20.026  25.051  1.00  0.00     0.202 C 
BRANCH  24  25
ATOM     25  C   UNL A   1      45.269  21.528  25.178  1.00  0.00     0.261 C 
BRANCH  25  26
ATOM     26  O   UNL A   1      44.206  22.214  25.877  1.00  0.00    -0.460 OA
BRANCH  26  27
ATOM     27  C   UNL A   1      43.455  23.034  25.110  1.00  0.00     0.338 C 
ATOM     28  O   UNL A   1      43.267  22.927  23.917  1.00  0.00    -0.246 OA
BRANCH  27  29
ATOM     29  C   UNL A   1      42.907  24.149  25.904  1.00  0.00     0.060 A 
ATOM     30  C   UNL A   1      43.310  25.474  25.696  1.00  0.00     0.016 A 
ATOM     31  C   UNL A   1      42.130  23.815  27.010  1.00  0.00     0.016 A 
ATOM     32  C   UNL A   1      42.976  26.462  26.627  1.00  0.00     0.010 A 
ATOM     33  C   UNL A   1      41.788  24.802  27.931  1.00  0.00     0.010 A 
ATOM     34  C   UNL A   1      42.231  26.125  27.764  1.00  0.00    -0.014 A 
BRANCH  34  35
ATOM     35  C   UNL A   1      41.921  27.119  28.818  1.00  0.00     0.031 A 
ATOM     36  C   UNL A   1      42.728  27.140  30.086  1.00  0.00     0.074 A 
ATOM     37  C   UNL A   1      40.866  27.938  28.667  1.00  0.00     0.049 A 
ATOM     38  N   UNL A   1      42.478  27.749  31.217  1.00  0.00    -0.248 NA
ATOM     39  C   UNL A   1      43.978  26.364  30.081  1.00  0.00     0.031 C 
ATOM     40  C   UNL A   1      40.044  28.042  27.462  1.00  0.00     0.029 A 
ATOM     41  N   UNL A   1      40.285  28.815  29.549  1.00  0.00    -0.354 N 
ATOM     42  C   UNL A   1      43.519  27.401  32.071  1.00  0.00     0.074 A 
ATOM     43  C   UNL A   1      44.402  26.527  31.328  1.00  0.00     0.031 C 
ATOM     44  C   UNL A   1      39.052  28.919  27.684  1.00  0.00     0.029 A 
ATOM     45  C   UNL A   1      39.132  29.382  29.065  1.00  0.00     0.049 A 
ATOM     46  H   UNL A   1      40.657  29.016  30.438  1.00  0.00     0.167 HD
ATOM     47  C   UNL A   1      43.708  27.772  33.361  1.00  0.00     0.031 A 
ATOM     48  C   UNL A   1      38.211  30.144  29.684  1.00  0.00     0.031 A 
ATOM     49  C   UNL A   1      42.813  28.637  34.087  1.00  0.00     0.049 A 
ATOM     50  C   UNL A   1      38.401  30.478  31.137  1.00  0.00     0.074 A 
ATOM     51  C   UNL A   1      42.910  29.083  35.393  1.00  0.00     0.029 A 
ATOM     52  N   UNL A   1      41.650  29.183  33.564  1.00  0.00    -0.354 N 
ATOM     53  N   UNL A   1      39.378  30.136  31.942  1.00  0.00    -0.248 NA
ATOM     54  C   UNL A   1      37.359  31.300  31.766  1.00  0.00     0.031 C 
ATOM     55  C   UNL A   1      41.779  29.855  35.676  1.00  0.00     0.029 A 
ATOM     56  C   UNL A   1      41.008  29.942  34.527  1.00  0.00     0.049 A 
ATOM     57  H   UNL A   1      41.329  29.051  32.643  1.00  0.00     0.167 HD
ATOM     58  C   UNL A   1      39.083  30.721  33.166  1.00  0.00     0.074 A 
ATOM     59  C   UNL A   1      37.843  31.452  32.991  1.00  0.00     0.031 C 
ATOM     60  C   UNL A   1      39.775  30.660  34.330  1.00  0.00     0.031 A 
BRANCH  47  61
ATOM     61  C   UNL A   1      44.899  27.205  34.085  1.00  0.00    -0.014 A 
ATOM     62  C   UNL A   1      46.105  27.917  34.193  1.00  0.00     0.009 A 
ATOM     63  C   UNL A   1      44.801  25.947  34.704  1.00  0.00     0.009 A 
ATOM     64  C   UNL A   1      47.195  27.366  34.873  1.00  0.00     0.001 A 
ATOM     65  C   UNL A   1      45.882  25.412  35.406  1.00  0.00     0.001 A 
ATOM     66  C   UNL A   1      47.081  26.117  35.482  1.00  0.00     0.000 A 
ENDBRANCH  47  61
BRANCH  48  67
ATOM     67  C   UNL A   1      37.009  30.604  28.940  1.00  0.00    -0.014 A 
ATOM     68  C   UNL A   1      36.816  31.966  28.668  1.00  0.00     0.009 A 
ATOM     69  C   UNL A   1      36.052  29.680  28.488  1.00  0.00     0.009 A 
ATOM     70  C   UNL A   1      35.682  32.395  27.974  1.00  0.00     0.001 A 
ATOM     71  C   UNL A   1      34.936  30.109  27.767  1.00  0.00     0.001 A 
ATOM     72  C   UNL A   1      34.747  31.466  27.518  1.00  0.00     0.000 A 
ENDBRANCH  48  67
BRANCH  60  73
ATOM     73  C   UNL A   1      39.225  31.443  35.489  1.00  0.00    -0.014 A 
ATOM     74  C   UNL A   1      39.582  32.783  35.701  1.00  0.00     0.009 A 
ATOM     75  C   UNL A   1      38.309  30.834  36.361  1.00  0.00     0.009 A 
ATOM     76  C   UNL A   1      39.058  33.487  36.787  1.00  0.00     0.001 A 
ATOM     77  C   UNL A   1      37.764  31.550  37.427  1.00  0.00     0.001 A 
ATOM     78  C   UNL A   1      38.147  32.872  37.645  1.00  0.00     0.000 A 
ENDBRANCH  60  73
ENDBRANCH  34  35
ENDBRANCH  27  29
ENDBRANCH  26  27
ENDBRANCH  25  26
ENDBRANCH  24  25
ENDBRANCH  23  24
ENDBRANCH  22  23
ENDBRANCH   1  22
TORSDOF 21
ENDMDL
