MODEL 1
REMARK VINA RESULT:     -10.2      0.000      0.000
REMARK SMILES NC(=O)[C@@H]1CCCCN1c1cncc(C(=O)OCCOCCOCCOC(=O)c2ccc(-c3c4nc(c(-c5ccccc5)c5ccc([nH]5)c(-c5ccccc5)c5nc(c(-c6ccccc6)c6ccc3[nH]6)C=C5)C=C4)cc2)n1
REMARK SMILES IDX 21 1 20 2 19 3 18 4 17 5 15 6 16 7 14 8 10 9 11 10 77 11
REMARK SMILES IDX 12 12 13 13 9 14 4 15 5 16 6 17 8 18 7 19 2 20 1 21 3 24
REMARK SMILES IDX 22 25 23 26 24 27 25 28 26 29 27 30 28 31 29 32 30 33 76 34
REMARK SMILES IDX 31 35 75 36 32 37 33 38 34 39 69 40 35 41 74 42 68 43 70 44
REMARK SMILES IDX 36 45 73 46 67 47 66 48 37 50 59 51 44 52 58 53 45 54 48 55
REMARK SMILES IDX 57 56 71 57 46 58 47 59 56 61 72 62 49 63 38 64 39 65 43 66
REMARK SMILES IDX 40 67 42 68 41 69 60 70 61 71 65 72 62 73 64 74 63 75 50 76
REMARK SMILES IDX 51 77 55 78 52 79 54 80 53 81
REMARK H PARENT 1 22 1 23 70 49 48 60
REMARK Flexibility Score: inf
ROOT
ATOM      1  C   UNL A   1      40.838  20.490  27.298  1.00  0.00     0.188 C 
ENDROOT
BRANCH   1   2
ATOM      2  O   UNL A   1      40.008  21.640  27.243  1.00  0.00    -0.376 OA
BRANCH   2   3
ATOM      3  C   UNL A   1      39.372  21.997  26.022  1.00  0.00     0.202 C 
BRANCH   3   4
ATOM      4  C   UNL A   1      37.971  21.450  25.720  1.00  0.00     0.261 C 
BRANCH   4   5
ATOM      5  O   UNL A   1      37.081  22.418  25.142  1.00  0.00    -0.458 OA
BRANCH   5   6
ATOM      6  C   UNL A   1      35.804  21.996  24.942  1.00  0.00     0.358 C 
ATOM      7  O   UNL A   1      35.335  20.917  25.270  1.00  0.00    -0.244 OA
BRANCH   6   8
ATOM      8  C   UNL A   1      34.966  23.120  24.473  1.00  0.00     0.169 A 
ATOM      9  C   UNL A   1      33.653  24.972  24.879  1.00  0.00     0.148 A 
ATOM     10  C   UNL A   1      33.359  24.986  23.505  1.00  0.00     0.157 A 
ATOM     11  N   UNL A   1      34.431  23.984  25.377  1.00  0.00    -0.220 NA
ATOM     12  N   UNL A   1      33.847  24.097  22.599  1.00  0.00    -0.258 NA
ATOM     13  C   UNL A   1      34.693  23.183  23.117  1.00  0.00     0.147 A 
BRANCH   9  14
ATOM     14  N   UNL A   1      33.208  25.957  25.728  1.00  0.00    -0.343 N 
ATOM     15  C   UNL A   1      31.920  25.857  26.446  1.00  0.00     0.172 C 
ATOM     16  C   UNL A   1      31.035  27.034  26.020  1.00  0.00     0.035 C 
ATOM     17  C   UNL A   1      31.752  28.356  26.306  1.00  0.00     0.004 C 
ATOM     18  C   UNL A   1      33.980  27.170  25.979  1.00  0.00     0.119 C 
ATOM     19  C   UNL A   1      33.128  28.396  25.636  1.00  0.00     0.022 C 
BRANCH  15  20
ATOM     20  C   UNL A   1      31.226  24.475  26.422  1.00  0.00     0.240 C 
ATOM     21  N   UNL A   1      30.342  24.219  25.414  1.00  0.00    -0.368 N 
ATOM     22  H   UNL A   1      29.885  23.348  25.370  1.00  0.00     0.159 HD
ATOM     23  H   UNL A   1      30.162  24.904  24.730  1.00  0.00     0.159 HD
ATOM     24  O   UNL A   1      31.451  23.606  27.265  1.00  0.00    -0.273 OA
ENDBRANCH  15  20
ENDBRANCH   9  14
ENDBRANCH   6   8
ENDBRANCH   5   6
ENDBRANCH   4   5
ENDBRANCH   3   4
ENDBRANCH   2   3
ENDBRANCH   1   2
BRANCH   1  25
ATOM     25  C   UNL A   1      40.990  19.567  26.070  1.00  0.00     0.188 C 
BRANCH  25  26
ATOM     26  O   UNL A   1      42.208  19.640  25.375  1.00  0.00    -0.376 OA
BRANCH  26  27
ATOM     27  C   UNL A   1      43.280  20.449  25.819  1.00  0.00     0.202 C 
BRANCH  27  28
ATOM     28  C   UNL A   1      44.029  21.513  24.998  1.00  0.00     0.261 C 
BRANCH  28  29
ATOM     29  O   UNL A   1      43.365  22.742  24.708  1.00  0.00    -0.460 OA
BRANCH  29  30
ATOM     30  C   UNL A   1      44.122  23.858  24.821  1.00  0.00     0.338 C 
ATOM     31  O   UNL A   1      45.125  24.144  24.195  1.00  0.00    -0.246 OA
BRANCH  30  32
ATOM     32  C   UNL A   1      43.450  24.779  25.755  1.00  0.00     0.060 A 
ATOM     33  C   UNL A   1      43.979  26.062  25.929  1.00  0.00     0.016 A 
ATOM     34  C   UNL A   1      42.328  24.362  26.475  1.00  0.00     0.016 A 
ATOM     35  C   UNL A   1      43.398  26.931  26.853  1.00  0.00     0.010 A 
ATOM     36  C   UNL A   1      41.759  25.228  27.413  1.00  0.00     0.010 A 
ATOM     37  C   UNL A   1      42.309  26.505  27.625  1.00  0.00    -0.014 A 
BRANCH  37  38
ATOM     38  C   UNL A   1      41.841  27.328  28.765  1.00  0.00     0.031 A 
ATOM     39  C   UNL A   1      42.580  27.243  30.071  1.00  0.00     0.074 A 
ATOM     40  C   UNL A   1      40.778  28.141  28.643  1.00  0.00     0.049 A 
ATOM     41  N   UNL A   1      42.325  27.833  31.210  1.00  0.00    -0.248 NA
ATOM     42  C   UNL A   1      43.768  26.371  30.095  1.00  0.00     0.031 C 
ATOM     43  C   UNL A   1      40.000  28.345  27.424  1.00  0.00     0.029 A 
ATOM     44  N   UNL A   1      40.165  28.943  29.575  1.00  0.00    -0.354 N 
ATOM     45  C   UNL A   1      43.313  27.402  32.086  1.00  0.00     0.074 A 
ATOM     46  C   UNL A   1      44.156  26.480  31.356  1.00  0.00     0.031 C 
ATOM     47  C   UNL A   1      39.003  29.210  27.684  1.00  0.00     0.029 A 
ATOM     48  C   UNL A   1      39.056  29.594  29.093  1.00  0.00     0.049 A 
ATOM     49  H   UNL A   1      40.490  29.042  30.498  1.00  0.00     0.167 HD
ATOM     50  C   UNL A   1      43.504  27.745  33.382  1.00  0.00     0.031 A 
ATOM     51  C   UNL A   1      38.173  30.390  29.726  1.00  0.00     0.031 A 
ATOM     52  C   UNL A   1      42.656  28.646  34.117  1.00  0.00     0.049 A 
ATOM     53  C   UNL A   1      38.360  30.691  31.189  1.00  0.00     0.074 A 
ATOM     54  C   UNL A   1      42.778  29.065  35.430  1.00  0.00     0.029 A 
ATOM     55  N   UNL A   1      41.523  29.255  33.603  1.00  0.00    -0.354 N 
ATOM     56  N   UNL A   1      39.314  30.303  32.000  1.00  0.00    -0.248 NA
ATOM     57  C   UNL A   1      37.345  31.547  31.824  1.00  0.00     0.031 C 
ATOM     58  C   UNL A   1      41.685  29.886  35.727  1.00  0.00     0.029 A 
ATOM     59  C   UNL A   1      40.918  30.025  34.582  1.00  0.00     0.049 A 
ATOM     60  H   UNL A   1      41.196  29.156  32.680  1.00  0.00     0.167 HD
ATOM     61  C   UNL A   1      39.034  30.890  33.228  1.00  0.00     0.074 A 
ATOM     62  C   UNL A   1      37.826  31.670  33.054  1.00  0.00     0.031 C 
ATOM     63  C   UNL A   1      39.717  30.796  34.395  1.00  0.00     0.031 A 
BRANCH  50  64
ATOM     64  C   UNL A   1      44.660  27.109  34.098  1.00  0.00    -0.014 A 
ATOM     65  C   UNL A   1      44.543  25.843  34.693  1.00  0.00     0.009 A 
ATOM     66  C   UNL A   1      45.895  27.776  34.154  1.00  0.00     0.009 A 
ATOM     67  C   UNL A   1      45.630  25.272  35.358  1.00  0.00     0.001 A 
ATOM     68  C   UNL A   1      46.986  27.191  34.796  1.00  0.00     0.001 A 
ATOM     69  C   UNL A   1      46.852  25.944  35.404  1.00  0.00     0.000 A 
ENDBRANCH  50  64
BRANCH  51  70
ATOM     70  C   UNL A   1      37.010  30.949  28.987  1.00  0.00    -0.014 A 
ATOM     71  C   UNL A   1      36.984  32.300  28.610  1.00  0.00     0.009 A 
ATOM     72  C   UNL A   1      35.908  30.136  28.680  1.00  0.00     0.009 A 
ATOM     73  C   UNL A   1      35.864  32.832  27.965  1.00  0.00     0.001 A 
ATOM     74  C   UNL A   1      34.802  30.665  28.009  1.00  0.00     0.001 A 
ATOM     75  C   UNL A   1      34.777  32.014  27.662  1.00  0.00     0.000 A 
ENDBRANCH  51  70
BRANCH  63  76
ATOM     76  C   UNL A   1      39.199  31.585  35.566  1.00  0.00    -0.014 A 
ATOM     77  C   UNL A   1      38.228  31.058  36.431  1.00  0.00     0.009 A 
ATOM     78  C   UNL A   1      39.729  32.858  35.832  1.00  0.00     0.009 A 
ATOM     79  C   UNL A   1      37.776  31.804  37.522  1.00  0.00     0.001 A 
ATOM     80  C   UNL A   1      39.296  33.588  36.939  1.00  0.00     0.001 A 
ATOM     81  C   UNL A   1      38.313  33.065  37.778  1.00  0.00     0.000 A 
ENDBRANCH  63  76
ENDBRANCH  37  38
ENDBRANCH  30  32
ENDBRANCH  29  30
ENDBRANCH  28  29
ENDBRANCH  27  28
ENDBRANCH  26  27
ENDBRANCH  25  26
ENDBRANCH   1  25
TORSDOF 19
ENDMDL
MODEL 2
REMARK VINA RESULT:      -9.9      1.047      1.597
REMARK SMILES NC(=O)[C@@H]1CCCCN1c1cncc(C(=O)OCCOCCOCCOC(=O)c2ccc(-c3c4nc(c(-c5ccccc5)c5ccc([nH]5)c(-c5ccccc5)c5nc(c(-c6ccccc6)c6ccc3[nH]6)C=C5)C=C4)cc2)n1
REMARK SMILES IDX 21 1 20 2 19 3 18 4 17 5 15 6 16 7 14 8 10 9 11 10 77 11
REMARK SMILES IDX 12 12 13 13 9 14 4 15 5 16 6 17 8 18 7 19 2 20 1 21 3 24
REMARK SMILES IDX 22 25 23 26 24 27 25 28 26 29 27 30 28 31 29 32 30 33 76 34
REMARK SMILES IDX 31 35 75 36 32 37 33 38 34 39 69 40 35 41 74 42 68 43 70 44
REMARK SMILES IDX 36 45 73 46 67 47 66 48 37 50 59 51 44 52 58 53 45 54 48 55
REMARK SMILES IDX 57 56 71 57 46 58 47 59 56 61 72 62 49 63 38 64 39 65 43 66
REMARK SMILES IDX 40 67 42 68 41 69 60 70 61 71 65 72 62 73 64 74 63 75 50 76
REMARK SMILES IDX 51 77 55 78 52 79 54 80 53 81
REMARK H PARENT 1 22 1 23 70 49 48 60
REMARK Flexibility Score: inf
ROOT
ATOM      1  C   UNL A   1      40.537  20.904  26.754  1.00  0.00     0.188 C 
ENDROOT
BRANCH   1   2
ATOM      2  O   UNL A   1      39.839  21.933  26.069  1.00  0.00    -0.376 OA
BRANCH   2   3
ATOM      3  C   UNL A   1      38.560  21.667  25.506  1.00  0.00     0.202 C 
BRANCH   3   4
ATOM      4  C   UNL A   1      37.359  22.515  25.944  1.00  0.00     0.261 C 
BRANCH   4   5
ATOM      5  O   UNL A   1      37.156  23.693  25.148  1.00  0.00    -0.458 OA
BRANCH   5   6
ATOM      6  C   UNL A   1      36.347  23.539  24.067  1.00  0.00     0.358 C 
ATOM      7  O   UNL A   1      36.667  23.091  22.976  1.00  0.00    -0.244 OA
BRANCH   6   8
ATOM      8  C   UNL A   1      34.938  23.772  24.449  1.00  0.00     0.169 A 
ATOM      9  C   UNL A   1      33.194  25.183  24.987  1.00  0.00     0.148 A 
ATOM     10  C   UNL A   1      32.443  24.035  25.289  1.00  0.00     0.157 A 
ATOM     11  N   UNL A   1      34.486  25.046  24.611  1.00  0.00    -0.220 NA
ATOM     12  N   UNL A   1      32.899  22.759  25.180  1.00  0.00    -0.258 NA
ATOM     13  C   UNL A   1      34.161  22.657  24.713  1.00  0.00     0.147 A 
BRANCH   9  14
ATOM     14  N   UNL A   1      32.645  26.442  25.022  1.00  0.00    -0.343 N 
ATOM     15  C   UNL A   1      32.272  27.176  23.794  1.00  0.00     0.172 C 
ATOM     16  C   UNL A   1      33.081  28.475  23.742  1.00  0.00     0.035 C 
ATOM     17  C   UNL A   1      32.824  29.302  25.005  1.00  0.00     0.004 C 
ATOM     18  C   UNL A   1      32.391  27.141  26.278  1.00  0.00     0.119 C 
ATOM     19  C   UNL A   1      33.120  28.488  26.267  1.00  0.00     0.022 C 
BRANCH  15  20
ATOM     20  C   UNL A   1      32.263  26.357  22.482  1.00  0.00     0.240 C 
ATOM     21  N   UNL A   1      33.291  26.543  21.603  1.00  0.00    -0.368 N 
ATOM     22  H   UNL A   1      33.315  26.036  20.759  1.00  0.00     0.159 HD
ATOM     23  H   UNL A   1      34.009  27.183  21.813  1.00  0.00     0.159 HD
ATOM     24  O   UNL A   1      31.377  25.545  22.213  1.00  0.00    -0.273 OA
ENDBRANCH  15  20
ENDBRANCH   9  14
ENDBRANCH   6   8
ENDBRANCH   5   6
ENDBRANCH   4   5
ENDBRANCH   3   4
ENDBRANCH   2   3
ENDBRANCH   1   2
BRANCH   1  25
ATOM     25  C   UNL A   1      40.885  19.578  26.043  1.00  0.00     0.188 C 
BRANCH  25  26
ATOM     26  O   UNL A   1      42.139  19.513  25.414  1.00  0.00    -0.376 OA
BRANCH  26  27
ATOM     27  C   UNL A   1      43.223  20.330  25.809  1.00  0.00     0.202 C 
BRANCH  27  28
ATOM     28  C   UNL A   1      43.866  21.463  24.989  1.00  0.00     0.261 C 
BRANCH  28  29
ATOM     29  O   UNL A   1      43.153  22.690  24.846  1.00  0.00    -0.460 OA
BRANCH  29  30
ATOM     30  C   UNL A   1      43.904  23.815  24.913  1.00  0.00     0.338 C 
ATOM     31  O   UNL A   1      44.887  24.094  24.253  1.00  0.00    -0.246 OA
BRANCH  30  32
ATOM     32  C   UNL A   1      43.250  24.751  25.845  1.00  0.00     0.060 A 
ATOM     33  C   UNL A   1      43.753  26.052  25.952  1.00  0.00     0.016 A 
ATOM     34  C   UNL A   1      42.172  24.332  26.629  1.00  0.00     0.016 A 
ATOM     35  C   UNL A   1      43.192  26.938  26.871  1.00  0.00     0.010 A 
ATOM     36  C   UNL A   1      41.623  25.216  27.561  1.00  0.00     0.010 A 
ATOM     37  C   UNL A   1      42.149  26.513  27.706  1.00  0.00    -0.014 A 
BRANCH  37  38
ATOM     38  C   UNL A   1      41.711  27.363  28.837  1.00  0.00     0.031 A 
ATOM     39  C   UNL A   1      42.447  27.265  30.144  1.00  0.00     0.074 A 
ATOM     40  C   UNL A   1      40.676  28.212  28.707  1.00  0.00     0.049 A 
ATOM     41  N   UNL A   1      42.212  27.876  31.277  1.00  0.00    -0.248 NA
ATOM     42  C   UNL A   1      43.603  26.353  30.177  1.00  0.00     0.031 C 
ATOM     43  C   UNL A   1      39.905  28.431  27.486  1.00  0.00     0.029 A 
ATOM     44  N   UNL A   1      40.092  29.044  29.630  1.00  0.00    -0.354 N 
ATOM     45  C   UNL A   1      43.185  27.419  32.157  1.00  0.00     0.074 A 
ATOM     46  C   UNL A   1      43.995  26.461  31.437  1.00  0.00     0.031 C 
ATOM     47  C   UNL A   1      38.941  29.333  27.737  1.00  0.00     0.029 A 
ATOM     48  C   UNL A   1      39.007  29.729  29.142  1.00  0.00     0.049 A 
ATOM     49  H   UNL A   1      40.421  29.141  30.553  1.00  0.00     0.167 HD
ATOM     50  C   UNL A   1      43.388  27.769  33.450  1.00  0.00     0.031 A 
ATOM     51  C   UNL A   1      38.153  30.562  29.766  1.00  0.00     0.031 A 
ATOM     52  C   UNL A   1      42.573  28.706  34.175  1.00  0.00     0.049 A 
ATOM     53  C   UNL A   1      38.350  30.871  31.227  1.00  0.00     0.074 A 
ATOM     54  C   UNL A   1      42.711  29.134  35.484  1.00  0.00     0.029 A 
ATOM     55  N   UNL A   1      41.462  29.350  33.655  1.00  0.00    -0.354 N 
ATOM     56  N   UNL A   1      39.291  30.458  32.042  1.00  0.00    -0.248 NA
ATOM     57  C   UNL A   1      37.367  31.768  31.853  1.00  0.00     0.031 C 
ATOM     58  C   UNL A   1      41.647  29.996  35.773  1.00  0.00     0.029 A 
ATOM     59  C   UNL A   1      40.885  30.150  34.627  1.00  0.00     0.049 A 
ATOM     60  H   UNL A   1      41.132  29.253  32.733  1.00  0.00     0.167 HD
ATOM     61  C   UNL A   1      39.032  31.067  33.263  1.00  0.00     0.074 A 
ATOM     62  C   UNL A   1      37.852  31.887  33.081  1.00  0.00     0.031 C 
ATOM     63  C   UNL A   1      39.712  30.961  34.431  1.00  0.00     0.031 A 
BRANCH  50  64
ATOM     64  C   UNL A   1      44.522  27.100  34.172  1.00  0.00    -0.014 A 
ATOM     65  C   UNL A   1      45.764  27.735  34.328  1.00  0.00     0.009 A 
ATOM     66  C   UNL A   1      44.335  25.825  34.730  1.00  0.00     0.009 A 
ATOM     67  C   UNL A   1      46.807  27.092  35.000  1.00  0.00     0.001 A 
ATOM     68  C   UNL A   1      45.370  25.197  35.423  1.00  0.00     0.001 A 
ATOM     69  C   UNL A   1      46.607  25.827  35.550  1.00  0.00     0.000 A 
ENDBRANCH  50  64
BRANCH  51  70
ATOM     70  C   UNL A   1      37.010  31.154  29.022  1.00  0.00    -0.014 A 
ATOM     71  C   UNL A   1      37.014  32.510  28.665  1.00  0.00     0.009 A 
ATOM     72  C   UNL A   1      35.896  30.367  28.690  1.00  0.00     0.009 A 
ATOM     73  C   UNL A   1      35.912  33.074  28.015  1.00  0.00     0.001 A 
ATOM     74  C   UNL A   1      34.809  30.927  28.014  1.00  0.00     0.001 A 
ATOM     75  C   UNL A   1      34.814  32.281  27.686  1.00  0.00     0.000 A 
ENDBRANCH  51  70
BRANCH  63  76
ATOM     76  C   UNL A   1      39.223  31.779  35.594  1.00  0.00    -0.014 A 
ATOM     77  C   UNL A   1      39.672  33.092  35.807  1.00  0.00     0.009 A 
ATOM     78  C   UNL A   1      38.261  31.240  36.464  1.00  0.00     0.009 A 
ATOM     79  C   UNL A   1      39.190  33.836  36.886  1.00  0.00     0.001 A 
ATOM     80  C   UNL A   1      37.760  31.997  37.524  1.00  0.00     0.001 A 
ATOM     81  C   UNL A   1      38.232  33.291  37.740  1.00  0.00     0.000 A 
ENDBRANCH  63  76
ENDBRANCH  37  38
ENDBRANCH  30  32
ENDBRANCH  29  30
ENDBRANCH  28  29
ENDBRANCH  27  28
ENDBRANCH  26  27
ENDBRANCH  25  26
ENDBRANCH   1  25
TORSDOF 19
ENDMDL
MODEL 3
REMARK VINA RESULT:      -9.8      4.725      8.270
REMARK SMILES NC(=O)[C@@H]1CCCCN1c1cncc(C(=O)OCCOCCOCCOC(=O)c2ccc(-c3c4nc(c(-c5ccccc5)c5ccc([nH]5)c(-c5ccccc5)c5nc(c(-c6ccccc6)c6ccc3[nH]6)C=C5)C=C4)cc2)n1
REMARK SMILES IDX 21 1 20 2 19 3 18 4 17 5 15 6 16 7 14 8 10 9 11 10 77 11
REMARK SMILES IDX 12 12 13 13 9 14 4 15 5 16 6 17 8 18 7 19 2 20 1 21 3 24
REMARK SMILES IDX 22 25 23 26 24 27 25 28 26 29 27 30 28 31 29 32 30 33 76 34
REMARK SMILES IDX 31 35 75 36 32 37 33 38 34 39 69 40 35 41 74 42 68 43 70 44
REMARK SMILES IDX 36 45 73 46 67 47 66 48 37 50 59 51 44 52 58 53 45 54 48 55
REMARK SMILES IDX 57 56 71 57 46 58 47 59 56 61 72 62 49 63 38 64 39 65 43 66
REMARK SMILES IDX 40 67 42 68 41 69 60 70 61 71 65 72 62 73 64 74 63 75 50 76
REMARK SMILES IDX 51 77 55 78 52 79 54 80 53 81
REMARK H PARENT 1 22 1 23 70 49 48 60
REMARK Flexibility Score: inf
ROOT
ATOM      1  C   UNL A   1      45.796  22.963  24.954  1.00  0.00     0.188 C 
ENDROOT
BRANCH   1   2
ATOM      2  O   UNL A   1      46.107  24.325  25.209  1.00  0.00    -0.376 OA
BRANCH   2   3
ATOM      3  C   UNL A   1      47.465  24.738  25.294  1.00  0.00     0.202 C 
BRANCH   3   4
ATOM      4  C   UNL A   1      47.786  26.229  25.447  1.00  0.00     0.261 C 
BRANCH   4   5
ATOM      5  O   UNL A   1      46.629  27.054  25.660  1.00  0.00    -0.458 OA
BRANCH   5   6
ATOM      6  C   UNL A   1      46.651  28.267  25.047  1.00  0.00     0.358 C 
ATOM      7  O   UNL A   1      47.091  28.512  23.933  1.00  0.00    -0.244 OA
BRANCH   6   8
ATOM      8  C   UNL A   1      45.850  29.241  25.818  1.00  0.00     0.169 A 
ATOM      9  C   UNL A   1      45.301  31.406  26.393  1.00  0.00     0.148 A 
ATOM     10  C   UNL A   1      44.459  30.864  27.378  1.00  0.00     0.157 A 
ATOM     11  N   UNL A   1      46.052  30.574  25.635  1.00  0.00    -0.220 NA
ATOM     12  N   UNL A   1      44.287  29.534  27.604  1.00  0.00    -0.258 NA
ATOM     13  C   UNL A   1      44.979  28.733  26.768  1.00  0.00     0.147 A 
BRANCH   9  14
ATOM     14  N   UNL A   1      45.358  32.757  26.148  1.00  0.00    -0.343 N 
ATOM     15  C   UNL A   1      46.335  33.641  26.817  1.00  0.00     0.172 C 
ATOM     16  C   UNL A   1      45.565  34.699  27.613  1.00  0.00     0.035 C 
ATOM     17  C   UNL A   1      44.631  35.477  26.683  1.00  0.00     0.004 C 
ATOM     18  C   UNL A   1      44.454  33.412  25.206  1.00  0.00     0.119 C 
ATOM     19  C   UNL A   1      43.695  34.532  25.923  1.00  0.00     0.022 C 
BRANCH  15  20
ATOM     20  C   UNL A   1      47.476  32.941  27.591  1.00  0.00     0.240 C 
ATOM     21  N   UNL A   1      48.497  32.392  26.871  1.00  0.00    -0.368 N 
ATOM     22  H   UNL A   1      49.238  31.940  27.335  1.00  0.00     0.159 HD
ATOM     23  H   UNL A   1      48.493  32.449  25.888  1.00  0.00     0.159 HD
ATOM     24  O   UNL A   1      47.498  32.873  28.821  1.00  0.00    -0.273 OA
ENDBRANCH  15  20
ENDBRANCH   9  14
ENDBRANCH   6   8
ENDBRANCH   5   6
ENDBRANCH   4   5
ENDBRANCH   3   4
ENDBRANCH   2   3
ENDBRANCH   1   2
BRANCH   1  25
ATOM     25  C   UNL A   1      44.909  22.569  23.753  1.00  0.00     0.188 C 
BRANCH  25  26
ATOM     26  O   UNL A   1      44.741  21.194  23.520  1.00  0.00    -0.376 OA
BRANCH  26  27
ATOM     27  C   UNL A   1      44.960  20.228  24.528  1.00  0.00     0.202 C 
BRANCH  27  28
ATOM     28  C   UNL A   1      44.030  19.059  24.899  1.00  0.00     0.261 C 
BRANCH  28  29
ATOM     29  O   UNL A   1      43.302  19.129  26.123  1.00  0.00    -0.460 OA
BRANCH  29  30
ATOM     30  C   UNL A   1      42.039  19.609  26.028  1.00  0.00     0.338 C 
ATOM     31  O   UNL A   1      41.045  19.018  25.653  1.00  0.00    -0.246 OA
BRANCH  30  32
ATOM     32  C   UNL A   1      42.018  20.967  26.601  1.00  0.00     0.060 A 
ATOM     33  C   UNL A   1      42.112  22.061  25.734  1.00  0.00     0.016 A 
ATOM     34  C   UNL A   1      41.941  21.152  27.983  1.00  0.00     0.016 A 
ATOM     35  C   UNL A   1      42.157  23.354  26.254  1.00  0.00     0.010 A 
ATOM     36  C   UNL A   1      42.003  22.448  28.502  1.00  0.00     0.010 A 
ATOM     37  C   UNL A   1      42.140  23.552  27.641  1.00  0.00    -0.014 A 
BRANCH  37  38
ATOM     38  C   UNL A   1      42.424  24.893  28.203  1.00  0.00     0.031 A 
ATOM     39  C   UNL A   1      43.823  25.208  28.651  1.00  0.00     0.074 A 
ATOM     40  C   UNL A   1      41.456  25.819  28.313  1.00  0.00     0.049 A 
ATOM     41  N   UNL A   1      44.291  26.294  29.211  1.00  0.00    -0.248 NA
ATOM     42  C   UNL A   1      44.832  24.155  28.439  1.00  0.00     0.031 C 
ATOM     43  C   UNL A   1      40.070  25.654  27.881  1.00  0.00     0.029 A 
ATOM     44  N   UNL A   1      41.498  27.087  28.837  1.00  0.00    -0.354 N 
ATOM     45  C   UNL A   1      45.643  26.054  29.424  1.00  0.00     0.074 A 
ATOM     46  C   UNL A   1      45.915  24.712  28.958  1.00  0.00     0.031 C 
ATOM     47  C   UNL A   1      39.389  26.778  28.166  1.00  0.00     0.029 A 
ATOM     48  C   UNL A   1      40.282  27.725  28.829  1.00  0.00     0.049 A 
ATOM     49  H   UNL A   1      42.322  27.500  29.184  1.00  0.00     0.167 HD
ATOM     50  C   UNL A   1      46.576  26.879  29.957  1.00  0.00     0.031 A 
ATOM     51  C   UNL A   1      39.929  28.928  29.321  1.00  0.00     0.031 A 
ATOM     52  C   UNL A   1      46.305  28.206  30.439  1.00  0.00     0.049 A 
ATOM     53  C   UNL A   1      40.968  29.793  29.985  1.00  0.00     0.074 A 
ATOM     54  C   UNL A   1      47.189  29.122  30.982  1.00  0.00     0.029 A 
ATOM     55  N   UNL A   1      45.053  28.801  30.446  1.00  0.00    -0.354 N 
ATOM     56  N   UNL A   1      42.249  29.569  30.153  1.00  0.00    -0.248 NA
ATOM     57  C   UNL A   1      40.509  31.083  30.524  1.00  0.00     0.031 C 
ATOM     58  C   UNL A   1      46.461  30.252  31.370  1.00  0.00     0.029 A 
ATOM     59  C   UNL A   1      45.136  30.062  31.013  1.00  0.00     0.049 A 
ATOM     60  H   UNL A   1      44.229  28.389  30.101  1.00  0.00     0.167 HD
ATOM     61  C   UNL A   1      42.753  30.699  30.786  1.00  0.00     0.074 A 
ATOM     62  C   UNL A   1      41.643  31.612  30.962  1.00  0.00     0.031 C 
ATOM     63  C   UNL A   1      44.023  30.960  31.181  1.00  0.00     0.031 A 
BRANCH  50  64
ATOM     64  C   UNL A   1      47.975  26.346  30.078  1.00  0.00    -0.014 A 
ATOM     65  C   UNL A   1      48.888  26.446  29.017  1.00  0.00     0.009 A 
ATOM     66  C   UNL A   1      48.393  25.760  31.283  1.00  0.00     0.009 A 
ATOM     67  C   UNL A   1      50.183  25.940  29.149  1.00  0.00     0.001 A 
ATOM     68  C   UNL A   1      49.696  25.279  31.421  1.00  0.00     0.001 A 
ATOM     69  C   UNL A   1      50.587  25.362  30.352  1.00  0.00     0.000 A 
ENDBRANCH  50  64
BRANCH  51  70
ATOM     70  C   UNL A   1      38.518  29.386  29.230  1.00  0.00    -0.014 A 
ATOM     71  C   UNL A   1      38.050  30.036  28.078  1.00  0.00     0.009 A 
ATOM     72  C   UNL A   1      37.640  29.198  30.308  1.00  0.00     0.009 A 
ATOM     73  C   UNL A   1      36.738  30.514  28.020  1.00  0.00     0.001 A 
ATOM     74  C   UNL A   1      36.320  29.652  30.235  1.00  0.00     0.001 A 
ATOM     75  C   UNL A   1      35.873  30.317  29.096  1.00  0.00     0.000 A 
ENDBRANCH  51  70
BRANCH  63  76
ATOM     76  C   UNL A   1      44.292  32.299  31.810  1.00  0.00    -0.014 A 
ATOM     77  C   UNL A   1      44.225  32.482  33.200  1.00  0.00     0.009 A 
ATOM     78  C   UNL A   1      44.663  33.383  30.998  1.00  0.00     0.009 A 
ATOM     79  C   UNL A   1      44.495  33.733  33.760  1.00  0.00     0.001 A 
ATOM     80  C   UNL A   1      44.960  34.624  31.563  1.00  0.00     0.001 A 
ATOM     81  C   UNL A   1      44.867  34.800  32.943  1.00  0.00     0.000 A 
ENDBRANCH  63  76
ENDBRANCH  37  38
ENDBRANCH  30  32
ENDBRANCH  29  30
ENDBRANCH  28  29
ENDBRANCH  27  28
ENDBRANCH  26  27
ENDBRANCH  25  26
ENDBRANCH   1  25
TORSDOF 19
ENDMDL
