MODEL 1
REMARK VINA RESULT:     -10.0      0.000      0.000
REMARK SMILES CCOC(=O)c1c(NC(=O)[C@H]2CCCC[C@@H]2C(=O)OCCOCCOCCOC(=O)c2ccc(-c3c4nc(c(-c5ccccc5)c5ccc([nH]5)c(-c5ccccc5)c5nc(c(-c6ccccc6)c6ccc3[nH]6)C=C5)C=C4)cc2)sc2c1CC[C@H](C)C2
REMARK SMILES IDX 22 1 21 2 20 3 19 4 17 5 18 6 16 7 11 8 12 9 13 10 15 11
REMARK SMILES IDX 14 12 9 13 8 14 10 16 7 17 6 18 81 19 79 20 80 21 82 22
REMARK SMILES IDX 86 23 83 24 84 25 85 26 4 27 5 28 3 29 2 30 1 31 23 32 24 33
REMARK SMILES IDX 25 34 26 35 27 36 28 37 29 38 30 39 31 40 32 41 78 42 33 43
REMARK SMILES IDX 77 44 34 45 35 46 36 47 71 48 37 49 76 50 70 51 72 52 38 53
REMARK SMILES IDX 75 54 69 55 68 56 39 58 61 59 46 60 60 61 47 62 50 63 59 64
REMARK SMILES IDX 73 65 48 66 49 67 58 69 74 70 51 71 40 72 41 73 45 74 42 75
REMARK SMILES IDX 44 76 43 77 62 78 63 79 67 80 64 81 66 82 65 83 52 84 53 85
REMARK SMILES IDX 57 86 54 87 56 88 55 89
REMARK H PARENT 8 15 72 57 50 68
REMARK Flexibility Score: inf
ROOT
ATOM      1  O   UNL A   1      34.190  21.081  25.443  1.00  0.00    -0.376 OA
ENDROOT
BRANCH   1   2
ATOM      2  C   UNL A   1      33.646  21.082  26.758  1.00  0.00     0.202 C 
BRANCH   2   3
ATOM      3  C   UNL A   1      33.507  22.467  27.409  1.00  0.00     0.261 C 
BRANCH   3   4
ATOM      4  O   UNL A   1      32.156  22.815  27.807  1.00  0.00    -0.463 OA
BRANCH   4   5
ATOM      5  C   UNL A   1      31.393  23.509  26.908  1.00  0.00     0.309 C 
ATOM      6  O   UNL A   1      30.198  23.739  27.070  1.00  0.00    -0.252 OA
BRANCH   5   7
ATOM      7  C   UNL A   1      32.170  24.025  25.672  1.00  0.00     0.111 C 
ATOM      8  C   UNL A   1      32.217  25.575  25.530  1.00  0.00     0.093 C 
ATOM      9  C   UNL A   1      30.908  26.006  24.909  1.00  0.00     0.014 C 
ATOM     10  C   UNL A   1      30.764  25.515  23.491  1.00  0.00     0.001 C 
ATOM     11  C   UNL A   1      31.692  23.306  24.377  1.00  0.00     0.016 C 
ATOM     12  C   UNL A   1      30.632  24.008  23.514  1.00  0.00     0.001 C 
BRANCH   8  13
ATOM     13  C   UNL A   1      33.471  26.103  24.820  1.00  0.00     0.228 C 
ATOM     14  N   UNL A   1      33.590  27.347  24.261  1.00  0.00    -0.317 N 
ATOM     15  H   UNL A   1      34.490  27.535  23.912  1.00  0.00     0.170 HD
ATOM     16  O   UNL A   1      34.463  25.369  24.712  1.00  0.00    -0.274 OA
BRANCH  14  17
ATOM     17  C   UNL A   1      32.702  28.390  24.087  1.00  0.00     0.110 A 
ATOM     18  C   UNL A   1      31.980  29.301  24.851  1.00  0.00     0.098 A 
ATOM     19  C   UNL A   1      30.857  29.786  24.051  1.00  0.00    -0.017 A 
ATOM     20  S   UNL A   1      32.402  28.603  22.404  1.00  0.00    -0.122 S 
ATOM     21  C   UNL A   1      31.007  29.512  22.706  1.00  0.00     0.011 A 
ATOM     22  C   UNL A   1      29.642  30.518  24.562  1.00  0.00     0.038 C 
ATOM     23  C   UNL A   1      30.046  29.932  21.624  1.00  0.00     0.050 C 
ATOM     24  C   UNL A   1      28.528  30.626  23.502  1.00  0.00     0.008 C 
ATOM     25  C   UNL A   1      29.123  31.057  22.151  1.00  0.00    -0.009 C 
ATOM     26  C   UNL A   1      28.029  31.416  21.151  1.00  0.00     0.008 C 
BRANCH  18  27
ATOM     27  C   UNL A   1      32.162  29.663  26.274  1.00  0.00     0.341 C 
ATOM     28  O   UNL A   1      31.472  29.176  27.162  1.00  0.00    -0.246 OA
BRANCH  27  29
ATOM     29  O   UNL A   1      33.143  30.575  26.489  1.00  0.00    -0.462 OA
BRANCH  29  30
ATOM     30  C   UNL A   1      34.071  30.499  27.600  1.00  0.00     0.230 C 
ATOM     31  C   UNL A   1      35.239  29.531  27.527  1.00  0.00     0.049 C 
ENDBRANCH  29  30
ENDBRANCH  27  29
ENDBRANCH  18  27
ENDBRANCH  14  17
ENDBRANCH   8  13
ENDBRANCH   5   7
ENDBRANCH   4   5
ENDBRANCH   3   4
ENDBRANCH   2   3
ENDBRANCH   1   2
BRANCH   1  32
ATOM     32  C   UNL A   1      35.535  20.656  25.380  1.00  0.00     0.188 C 
BRANCH  32  33
ATOM     33  C   UNL A   1      36.426  21.538  24.517  1.00  0.00     0.188 C 
BRANCH  33  34
ATOM     34  O   UNL A   1      36.360  22.963  24.580  1.00  0.00    -0.376 OA
BRANCH  34  35
ATOM     35  C   UNL A   1      36.976  23.543  25.749  1.00  0.00     0.202 C 
BRANCH  35  36
ATOM     36  C   UNL A   1      38.390  23.096  26.172  1.00  0.00     0.261 C 
BRANCH  36  37
ATOM     37  O   UNL A   1      39.228  24.200  26.478  1.00  0.00    -0.460 OA
BRANCH  37  38
ATOM     38  C   UNL A   1      40.397  23.860  27.064  1.00  0.00     0.338 C 
ATOM     39  O   UNL A   1      40.594  22.932  27.835  1.00  0.00    -0.246 OA
BRANCH  38  40
ATOM     40  C   UNL A   1      41.476  24.776  26.627  1.00  0.00     0.060 A 
ATOM     41  C   UNL A   1      42.506  24.870  27.555  1.00  0.00     0.016 A 
ATOM     42  C   UNL A   1      41.065  25.857  25.854  1.00  0.00     0.016 A 
ATOM     43  C   UNL A   1      42.603  26.077  28.183  1.00  0.00     0.010 A 
ATOM     44  C   UNL A   1      41.126  27.053  26.487  1.00  0.00     0.010 A 
ATOM     45  C   UNL A   1      41.764  27.091  27.726  1.00  0.00    -0.014 A 
BRANCH  45  46
ATOM     46  C   UNL A   1      41.610  28.281  28.509  1.00  0.00     0.031 A 
ATOM     47  C   UNL A   1      42.757  29.169  28.265  1.00  0.00     0.074 A 
ATOM     48  C   UNL A   1      40.483  28.543  29.193  1.00  0.00     0.049 A 
ATOM     49  N   UNL A   1      43.856  29.194  28.948  1.00  0.00    -0.248 NA
ATOM     50  C   UNL A   1      42.863  29.779  26.923  1.00  0.00     0.031 C 
ATOM     51  C   UNL A   1      39.211  27.815  29.235  1.00  0.00     0.029 A 
ATOM     52  N   UNL A   1      40.220  29.630  29.950  1.00  0.00    -0.354 N 
ATOM     53  C   UNL A   1      44.670  30.050  28.225  1.00  0.00     0.074 A 
ATOM     54  C   UNL A   1      44.176  30.004  26.879  1.00  0.00     0.031 C 
ATOM     55  C   UNL A   1      38.256  28.622  29.765  1.00  0.00     0.029 A 
ATOM     56  C   UNL A   1      38.878  29.862  30.200  1.00  0.00     0.049 A 
ATOM     57  H   UNL A   1      40.931  30.216  30.299  1.00  0.00     0.167 HD
ATOM     58  C   UNL A   1      45.316  31.075  28.845  1.00  0.00     0.031 A 
ATOM     59  C   UNL A   1      38.355  31.037  30.640  1.00  0.00     0.031 A 
ATOM     60  C   UNL A   1      45.312  30.886  30.280  1.00  0.00     0.049 A 
ATOM     61  C   UNL A   1      39.488  31.848  31.172  1.00  0.00     0.074 A 
ATOM     62  C   UNL A   1      45.775  29.906  31.135  1.00  0.00     0.029 A 
ATOM     63  N   UNL A   1      44.364  31.597  30.982  1.00  0.00    -0.354 N 
ATOM     64  N   UNL A   1      40.155  31.511  32.241  1.00  0.00    -0.248 NA
ATOM     65  C   UNL A   1      40.211  32.702  30.237  1.00  0.00     0.031 C 
ATOM     66  C   UNL A   1      44.786  29.808  32.158  1.00  0.00     0.029 A 
ATOM     67  C   UNL A   1      43.812  30.783  31.934  1.00  0.00     0.049 A 
ATOM     68  H   UNL A   1      44.123  32.539  30.824  1.00  0.00     0.167 HD
ATOM     69  C   UNL A   1      41.489  31.722  31.914  1.00  0.00     0.074 A 
ATOM     70  C   UNL A   1      41.456  32.536  30.696  1.00  0.00     0.031 C 
ATOM     71  C   UNL A   1      42.476  30.950  32.464  1.00  0.00     0.031 A 
BRANCH  58  72
ATOM     72  C   UNL A   1      45.446  32.455  28.227  1.00  0.00    -0.014 A 
ATOM     73  C   UNL A   1      44.273  33.072  27.769  1.00  0.00     0.009 A 
ATOM     74  C   UNL A   1      46.659  33.054  27.827  1.00  0.00     0.009 A 
ATOM     75  C   UNL A   1      44.316  34.139  26.864  1.00  0.00     0.001 A 
ATOM     76  C   UNL A   1      46.710  34.136  26.948  1.00  0.00     0.001 A 
ATOM     77  C   UNL A   1      45.536  34.656  26.438  1.00  0.00     0.000 A 
ENDBRANCH  58  72
BRANCH  59  78
ATOM     78  C   UNL A   1      37.045  31.641  30.302  1.00  0.00    -0.014 A 
ATOM     79  C   UNL A   1      35.947  31.549  31.174  1.00  0.00     0.009 A 
ATOM     80  C   UNL A   1      36.942  32.542  29.225  1.00  0.00     0.009 A 
ATOM     81  C   UNL A   1      34.803  32.341  30.984  1.00  0.00     0.001 A 
ATOM     82  C   UNL A   1      35.803  33.334  29.036  1.00  0.00     0.001 A 
ATOM     83  C   UNL A   1      34.736  33.241  29.923  1.00  0.00     0.000 A 
ENDBRANCH  59  78
BRANCH  71  84
ATOM     84  C   UNL A   1      42.091  30.021  33.590  1.00  0.00    -0.014 A 
ATOM     85  C   UNL A   1      41.677  28.689  33.395  1.00  0.00     0.009 A 
ATOM     86  C   UNL A   1      42.323  30.458  34.902  1.00  0.00     0.009 A 
ATOM     87  C   UNL A   1      41.483  27.833  34.487  1.00  0.00     0.001 A 
ATOM     88  C   UNL A   1      42.149  29.598  35.987  1.00  0.00     0.001 A 
ATOM     89  C   UNL A   1      41.726  28.288  35.781  1.00  0.00     0.000 A 
ENDBRANCH  71  84
ENDBRANCH  45  46
ENDBRANCH  38  40
ENDBRANCH  37  38
ENDBRANCH  36  37
ENDBRANCH  35  36
ENDBRANCH  34  35
ENDBRANCH  33  34
ENDBRANCH  32  33
ENDBRANCH   1  32
TORSDOF 22
ENDMDL
MODEL 2
REMARK VINA RESULT:      -9.2      8.936     15.301
REMARK SMILES CCOC(=O)c1c(NC(=O)[C@H]2CCCC[C@@H]2C(=O)OCCOCCOCCOC(=O)c2ccc(-c3c4nc(c(-c5ccccc5)c5ccc([nH]5)c(-c5ccccc5)c5nc(c(-c6ccccc6)c6ccc3[nH]6)C=C5)C=C4)cc2)sc2c1CC[C@H](C)C2
REMARK SMILES IDX 22 1 21 2 20 3 19 4 17 5 18 6 16 7 11 8 12 9 13 10 15 11
REMARK SMILES IDX 14 12 9 13 8 14 10 16 7 17 6 18 81 19 79 20 80 21 82 22
REMARK SMILES IDX 86 23 83 24 84 25 85 26 4 27 5 28 3 29 2 30 1 31 23 32 24 33
REMARK SMILES IDX 25 34 26 35 27 36 28 37 29 38 30 39 31 40 32 41 78 42 33 43
REMARK SMILES IDX 77 44 34 45 35 46 36 47 71 48 37 49 76 50 70 51 72 52 38 53
REMARK SMILES IDX 75 54 69 55 68 56 39 58 61 59 46 60 60 61 47 62 50 63 59 64
REMARK SMILES IDX 73 65 48 66 49 67 58 69 74 70 51 71 40 72 41 73 45 74 42 75
REMARK SMILES IDX 44 76 43 77 62 78 63 79 67 80 64 81 66 82 65 83 52 84 53 85
REMARK SMILES IDX 57 86 54 87 56 88 55 89
REMARK H PARENT 8 15 72 57 50 68
REMARK Flexibility Score: inf
ROOT
ATOM      1  O   UNL A   1      42.497  41.791  22.835  1.00  0.00    -0.376 OA
ENDROOT
BRANCH   1   2
ATOM      2  C   UNL A   1      42.654  42.344  21.532  1.00  0.00     0.202 C 
BRANCH   2   3
ATOM      3  C   UNL A   1      41.549  43.319  21.097  1.00  0.00     0.261 C 
BRANCH   3   4
ATOM      4  O   UNL A   1      41.171  43.218  19.700  1.00  0.00    -0.463 OA
BRANCH   4   5
ATOM      5  C   UNL A   1      41.239  44.357  18.944  1.00  0.00     0.309 C 
ATOM      6  O   UNL A   1      40.366  45.218  18.938  1.00  0.00    -0.252 OA
BRANCH   5   7
ATOM      7  C   UNL A   1      42.537  44.496  18.112  1.00  0.00     0.111 C 
ATOM      8  C   UNL A   1      43.616  45.429  18.736  1.00  0.00     0.093 C 
ATOM      9  C   UNL A   1      43.227  46.850  18.398  1.00  0.00     0.014 C 
ATOM     10  C   UNL A   1      43.318  47.127  16.919  1.00  0.00     0.001 C 
ATOM     11  C   UNL A   1      42.212  44.842  16.630  1.00  0.00     0.016 C 
ATOM     12  C   UNL A   1      42.252  46.320  16.211  1.00  0.00     0.001 C 
BRANCH   8  13
ATOM     13  C   UNL A   1      45.059  45.054  18.372  1.00  0.00     0.228 C 
ATOM     14  N   UNL A   1      45.926  44.384  19.193  1.00  0.00    -0.317 N 
ATOM     15  H   UNL A   1      46.785  44.169  18.764  1.00  0.00     0.170 HD
ATOM     16  O   UNL A   1      45.511  45.379  17.265  1.00  0.00    -0.274 OA
BRANCH  14  17
ATOM     17  C   UNL A   1      45.840  43.951  20.500  1.00  0.00     0.110 A 
ATOM     18  C   UNL A   1      45.663  44.474  21.777  1.00  0.00     0.098 A 
ATOM     19  C   UNL A   1      46.178  43.509  22.747  1.00  0.00    -0.017 A 
ATOM     20  S   UNL A   1      46.023  42.238  20.542  1.00  0.00    -0.122 S 
ATOM     21  C   UNL A   1      46.358  42.253  22.201  1.00  0.00     0.011 A 
ATOM     22  C   UNL A   1      46.495  43.776  24.196  1.00  0.00     0.038 C 
ATOM     23  C   UNL A   1      46.823  41.037  22.959  1.00  0.00     0.050 C 
ATOM     24  C   UNL A   1      47.285  42.626  24.850  1.00  0.00     0.008 C 
ATOM     25  C   UNL A   1      46.656  41.273  24.480  1.00  0.00    -0.009 C 
ATOM     26  C   UNL A   1      47.253  40.137  25.304  1.00  0.00     0.008 C 
BRANCH  18  27
ATOM     27  C   UNL A   1      45.181  45.817  22.167  1.00  0.00     0.341 C 
ATOM     28  O   UNL A   1      44.576  46.012  23.215  1.00  0.00    -0.246 OA
BRANCH  27  29
ATOM     29  O   UNL A   1      45.461  46.788  21.261  1.00  0.00    -0.462 OA
BRANCH  29  30
ATOM     30  C   UNL A   1      46.724  47.497  21.219  1.00  0.00     0.230 C 
ATOM     31  C   UNL A   1      47.549  47.468  19.945  1.00  0.00     0.049 C 
ENDBRANCH  29  30
ENDBRANCH  27  29
ENDBRANCH  18  27
ENDBRANCH  14  17
ENDBRANCH   8  13
ENDBRANCH   5   7
ENDBRANCH   4   5
ENDBRANCH   3   4
ENDBRANCH   2   3
ENDBRANCH   1   2
BRANCH   1  32
ATOM     32  C   UNL A   1      42.852  42.674  23.878  1.00  0.00     0.188 C 
BRANCH  32  33
ATOM     33  C   UNL A   1      43.332  41.979  25.145  1.00  0.00     0.188 C 
BRANCH  33  34
ATOM     34  O   UNL A   1      42.978  40.628  25.440  1.00  0.00    -0.376 OA
BRANCH  34  35
ATOM     35  C   UNL A   1      42.980  40.299  26.845  1.00  0.00     0.202 C 
BRANCH  35  36
ATOM     36  C   UNL A   1      44.021  39.305  27.398  1.00  0.00     0.261 C 
BRANCH  36  37
ATOM     37  O   UNL A   1      43.813  37.988  26.911  1.00  0.00    -0.460 OA
BRANCH  37  38
ATOM     38  C   UNL A   1      43.225  37.157  27.800  1.00  0.00     0.338 C 
ATOM     39  O   UNL A   1      42.104  37.258  28.275  1.00  0.00    -0.246 OA
BRANCH  38  40
ATOM     40  C   UNL A   1      44.136  36.037  28.135  1.00  0.00     0.060 A 
ATOM     41  C   UNL A   1      43.996  34.959  27.271  1.00  0.00     0.016 A 
ATOM     42  C   UNL A   1      44.415  35.881  29.489  1.00  0.00     0.016 A 
ATOM     43  C   UNL A   1      43.446  33.843  27.831  1.00  0.00     0.010 A 
ATOM     44  C   UNL A   1      43.841  34.793  30.056  1.00  0.00     0.010 A 
ATOM     45  C   UNL A   1      43.226  33.875  29.207  1.00  0.00    -0.014 A 
BRANCH  45  46
ATOM     46  C   UNL A   1      42.404  32.868  29.811  1.00  0.00     0.031 A 
ATOM     47  C   UNL A   1      43.053  31.558  29.646  1.00  0.00     0.074 A 
ATOM     48  C   UNL A   1      41.320  33.177  30.543  1.00  0.00     0.049 A 
ATOM     49  N   UNL A   1      42.861  30.735  28.667  1.00  0.00    -0.248 NA
ATOM     50  C   UNL A   1      44.304  31.326  30.398  1.00  0.00     0.031 C 
ATOM     51  C   UNL A   1      40.803  34.483  30.962  1.00  0.00     0.029 A 
ATOM     52  N   UNL A   1      40.484  32.320  31.166  1.00  0.00    -0.354 N 
ATOM     53  C   UNL A   1      43.817  29.753  28.873  1.00  0.00     0.074 A 
ATOM     54  C   UNL A   1      44.857  30.386  29.633  1.00  0.00     0.031 C 
ATOM     55  C   UNL A   1      39.909  34.303  31.968  1.00  0.00     0.029 A 
ATOM     56  C   UNL A   1      39.714  32.877  32.173  1.00  0.00     0.049 A 
ATOM     57  H   UNL A   1      40.425  31.367  30.922  1.00  0.00     0.167 HD
ATOM     58  C   UNL A   1      43.468  28.438  28.864  1.00  0.00     0.031 A 
ATOM     59  C   UNL A   1      39.061  32.178  33.138  1.00  0.00     0.031 A 
ATOM     60  C   UNL A   1      42.158  28.262  28.276  1.00  0.00     0.049 A 
ATOM     61  C   UNL A   1      38.994  30.760  32.680  1.00  0.00     0.074 A 
ATOM     62  C   UNL A   1      41.592  28.554  27.051  1.00  0.00     0.029 A 
ATOM     63  N   UNL A   1      41.113  28.114  29.161  1.00  0.00    -0.354 N 
ATOM     64  N   UNL A   1      38.290  30.385  31.648  1.00  0.00    -0.248 NA
ATOM     65  C   UNL A   1      40.109  29.883  33.020  1.00  0.00     0.031 C 
ATOM     66  C   UNL A   1      40.264  28.984  27.348  1.00  0.00     0.029 A 
ATOM     67  C   UNL A   1      40.049  28.856  28.722  1.00  0.00     0.049 A 
ATOM     68  H   UNL A   1      41.128  27.563  29.977  1.00  0.00     0.167 HD
ATOM     69  C   UNL A   1      39.112  29.506  30.953  1.00  0.00     0.074 A 
ATOM     70  C   UNL A   1      40.187  29.171  31.890  1.00  0.00     0.031 C 
ATOM     71  C   UNL A   1      39.027  29.396  29.592  1.00  0.00     0.031 A 
BRANCH  58  72
ATOM     72  C   UNL A   1      44.038  27.433  29.847  1.00  0.00    -0.014 A 
ATOM     73  C   UNL A   1      44.610  26.265  29.322  1.00  0.00     0.009 A 
ATOM     74  C   UNL A   1      43.806  27.437  31.239  1.00  0.00     0.009 A 
ATOM     75  C   UNL A   1      44.813  25.131  30.116  1.00  0.00     0.001 A 
ATOM     76  C   UNL A   1      44.033  26.320  32.043  1.00  0.00     0.001 A 
ATOM     77  C   UNL A   1      44.504  25.154  31.472  1.00  0.00     0.000 A 
ENDBRANCH  58  72
BRANCH  59  78
ATOM     78  C   UNL A   1      38.830  32.561  34.551  1.00  0.00    -0.014 A 
ATOM     79  C   UNL A   1      39.892  32.922  35.397  1.00  0.00     0.009 A 
ATOM     80  C   UNL A   1      37.523  32.825  35.004  1.00  0.00     0.009 A 
ATOM     81  C   UNL A   1      39.654  33.539  36.636  1.00  0.00     0.001 A 
ATOM     82  C   UNL A   1      37.284  33.443  36.238  1.00  0.00     0.001 A 
ATOM     83  C   UNL A   1      38.351  33.809  37.050  1.00  0.00     0.000 A 
ENDBRANCH  59  78
BRANCH  71  84
ATOM     84  C   UNL A   1      37.874  30.089  28.905  1.00  0.00    -0.014 A 
ATOM     85  C   UNL A   1      36.722  29.419  28.450  1.00  0.00     0.009 A 
ATOM     86  C   UNL A   1      37.882  31.490  28.874  1.00  0.00     0.009 A 
ATOM     87  C   UNL A   1      35.623  30.136  27.961  1.00  0.00     0.001 A 
ATOM     88  C   UNL A   1      36.779  32.204  28.405  1.00  0.00     0.001 A 
ATOM     89  C   UNL A   1      35.651  31.529  27.945  1.00  0.00     0.000 A 
ENDBRANCH  71  84
ENDBRANCH  45  46
ENDBRANCH  38  40
ENDBRANCH  37  38
ENDBRANCH  36  37
ENDBRANCH  35  36
ENDBRANCH  34  35
ENDBRANCH  33  34
ENDBRANCH  32  33
ENDBRANCH   1  32
TORSDOF 22
ENDMDL
MODEL 3
REMARK VINA RESULT:      -9.1      2.625      3.722
REMARK SMILES CCOC(=O)c1c(NC(=O)[C@H]2CCCC[C@@H]2C(=O)OCCOCCOCCOC(=O)c2ccc(-c3c4nc(c(-c5ccccc5)c5ccc([nH]5)c(-c5ccccc5)c5nc(c(-c6ccccc6)c6ccc3[nH]6)C=C5)C=C4)cc2)sc2c1CC[C@H](C)C2
REMARK SMILES IDX 22 1 21 2 20 3 19 4 17 5 18 6 16 7 11 8 12 9 13 10 15 11
REMARK SMILES IDX 14 12 9 13 8 14 10 16 7 17 6 18 81 19 79 20 80 21 82 22
REMARK SMILES IDX 86 23 83 24 84 25 85 26 4 27 5 28 3 29 2 30 1 31 23 32 24 33
REMARK SMILES IDX 25 34 26 35 27 36 28 37 29 38 30 39 31 40 32 41 78 42 33 43
REMARK SMILES IDX 77 44 34 45 35 46 36 47 71 48 37 49 76 50 70 51 72 52 38 53
REMARK SMILES IDX 75 54 69 55 68 56 39 58 61 59 46 60 60 61 47 62 50 63 59 64
REMARK SMILES IDX 73 65 48 66 49 67 58 69 74 70 51 71 40 72 41 73 45 74 42 75
REMARK SMILES IDX 44 76 43 77 62 78 63 79 67 80 64 81 66 82 65 83 52 84 53 85
REMARK SMILES IDX 57 86 54 87 56 88 55 89
REMARK H PARENT 8 15 72 57 50 68
REMARK Flexibility Score: inf
ROOT
ATOM      1  O   UNL A   1      35.466  22.078  25.900  1.00  0.00    -0.376 OA
ENDROOT
BRANCH   1   2
ATOM      2  C   UNL A   1      35.183  21.834  27.273  1.00  0.00     0.202 C 
BRANCH   2   3
ATOM      3  C   UNL A   1      33.720  22.049  27.690  1.00  0.00     0.261 C 
BRANCH   3   4
ATOM      4  O   UNL A   1      32.757  21.896  26.617  1.00  0.00    -0.463 OA
BRANCH   4   5
ATOM      5  C   UNL A   1      32.106  23.021  26.187  1.00  0.00     0.309 C 
ATOM      6  O   UNL A   1      31.231  23.585  26.836  1.00  0.00    -0.252 OA
BRANCH   5   7
ATOM      7  C   UNL A   1      32.591  23.557  24.818  1.00  0.00     0.111 C 
ATOM      8  C   UNL A   1      32.728  25.105  24.734  1.00  0.00     0.093 C 
ATOM      9  C   UNL A   1      31.346  25.664  24.483  1.00  0.00     0.014 C 
ATOM     10  C   UNL A   1      30.814  25.272  23.128  1.00  0.00     0.001 C 
ATOM     11  C   UNL A   1      31.748  22.954  23.656  1.00  0.00     0.016 C 
ATOM     12  C   UNL A   1      30.569  23.779  23.120  1.00  0.00     0.001 C 
BRANCH   8  13
ATOM     13  C   UNL A   1      33.805  25.589  23.753  1.00  0.00     0.228 C 
ATOM     14  N   UNL A   1      33.878  26.851  23.228  1.00  0.00    -0.317 N 
ATOM     15  H   UNL A   1      34.676  26.999  22.673  1.00  0.00     0.170 HD
ATOM     16  O   UNL A   1      34.681  24.798  23.375  1.00  0.00    -0.274 OA
BRANCH  14  17
ATOM     17  C   UNL A   1      33.057  27.957  23.320  1.00  0.00     0.110 A 
ATOM     18  C   UNL A   1      32.644  28.891  24.265  1.00  0.00     0.098 A 
ATOM     19  C   UNL A   1      31.383  29.477  23.813  1.00  0.00    -0.017 A 
ATOM     20  S   UNL A   1      32.321  28.244  21.788  1.00  0.00    -0.122 S 
ATOM     21  C   UNL A   1      31.136  29.237  22.476  1.00  0.00     0.011 A 
ATOM     22  C   UNL A   1      30.415  30.273  24.649  1.00  0.00     0.038 C 
ATOM     23  C   UNL A   1      29.949  29.757  21.708  1.00  0.00     0.050 C 
ATOM     24  C   UNL A   1      29.063  30.492  23.942  1.00  0.00     0.008 C 
ATOM     25  C   UNL A   1      29.293  30.925  22.484  1.00  0.00    -0.009 C 
ATOM     26  C   UNL A   1      27.996  31.390  21.831  1.00  0.00     0.008 C 
BRANCH  18  27
ATOM     27  C   UNL A   1      33.237  29.193  25.586  1.00  0.00     0.341 C 
ATOM     28  O   UNL A   1      33.865  28.356  26.223  1.00  0.00    -0.246 OA
BRANCH  27  29
ATOM     29  O   UNL A   1      33.012  30.461  26.013  1.00  0.00    -0.462 OA
BRANCH  29  30
ATOM     30  C   UNL A   1      33.243  30.895  27.376  1.00  0.00     0.230 C 
ATOM     31  C   UNL A   1      34.657  31.226  27.821  1.00  0.00     0.049 C 
ENDBRANCH  29  30
ENDBRANCH  27  29
ENDBRANCH  18  27
ENDBRANCH  14  17
ENDBRANCH   8  13
ENDBRANCH   5   7
ENDBRANCH   4   5
ENDBRANCH   3   4
ENDBRANCH   2   3
ENDBRANCH   1   2
BRANCH   1  32
ATOM     32  C   UNL A   1      36.730  22.665  25.671  1.00  0.00     0.188 C 
BRANCH  32  33
ATOM     33  C   UNL A   1      37.876  21.666  25.601  1.00  0.00     0.188 C 
BRANCH  33  34
ATOM     34  O   UNL A   1      39.171  21.971  26.121  1.00  0.00    -0.376 OA
BRANCH  34  35
ATOM     35  C   UNL A   1      40.031  20.827  26.301  1.00  0.00     0.202 C 
BRANCH  35  36
ATOM     36  C   UNL A   1      41.543  21.033  26.526  1.00  0.00     0.261 C 
BRANCH  36  37
ATOM     37  O   UNL A   1      42.228  21.311  25.314  1.00  0.00    -0.460 OA
BRANCH  37  38
ATOM     38  C   UNL A   1      43.451  20.741  25.228  1.00  0.00     0.338 C 
ATOM     39  O   UNL A   1      43.730  19.565  25.404  1.00  0.00    -0.246 OA
BRANCH  38  40
ATOM     40  C   UNL A   1      44.465  21.755  24.855  1.00  0.00     0.060 A 
ATOM     41  C   UNL A   1      45.516  21.816  25.762  1.00  0.00     0.016 A 
ATOM     42  C   UNL A   1      43.971  22.881  24.204  1.00  0.00     0.016 A 
ATOM     43  C   UNL A   1      45.567  22.960  26.503  1.00  0.00     0.010 A 
ATOM     44  C   UNL A   1      43.988  24.011  24.950  1.00  0.00     0.010 A 
ATOM     45  C   UNL A   1      44.661  23.965  26.170  1.00  0.00    -0.014 A 
BRANCH  45  46
ATOM     46  C   UNL A   1      44.467  25.063  27.070  1.00  0.00     0.031 A 
ATOM     47  C   UNL A   1      45.571  26.021  26.903  1.00  0.00     0.074 A 
ATOM     48  C   UNL A   1      43.341  25.205  27.789  1.00  0.00     0.049 A 
ATOM     49  N   UNL A   1      46.677  26.027  27.573  1.00  0.00    -0.248 NA
ATOM     50  C   UNL A   1      45.629  26.767  25.628  1.00  0.00     0.031 C 
ATOM     51  C   UNL A   1      42.102  24.420  27.772  1.00  0.00     0.029 A 
ATOM     52  N   UNL A   1      43.043  26.198  28.654  1.00  0.00    -0.354 N 
ATOM     53  C   UNL A   1      47.443  26.987  26.931  1.00  0.00     0.074 A 
ATOM     54  C   UNL A   1      46.930  27.054  25.592  1.00  0.00     0.031 C 
ATOM     55  C   UNL A   1      41.122  25.126  28.391  1.00  0.00     0.029 A 
ATOM     56  C   UNL A   1      41.696  26.343  28.941  1.00  0.00     0.049 A 
ATOM     57  H   UNL A   1      43.732  26.777  29.052  1.00  0.00     0.167 HD
ATOM     58  C   UNL A   1      48.053  27.974  27.644  1.00  0.00     0.031 A 
ATOM     59  C   UNL A   1      41.129  27.443  29.503  1.00  0.00     0.031 A 
ATOM     60  C   UNL A   1      48.079  27.642  29.052  1.00  0.00     0.049 A 
ATOM     61  C   UNL A   1      42.233  28.247  30.101  1.00  0.00     0.074 A 
ATOM     62  C   UNL A   1      48.598  26.604  29.799  1.00  0.00     0.029 A 
ATOM     63  N   UNL A   1      47.112  28.237  29.832  1.00  0.00    -0.354 N 
ATOM     64  N   UNL A   1      42.931  27.836  31.123  1.00  0.00    -0.248 NA
ATOM     65  C   UNL A   1      42.903  29.222  29.247  1.00  0.00     0.031 C 
ATOM     66  C   UNL A   1      47.630  26.359  30.818  1.00  0.00     0.029 A 
ATOM     67  C   UNL A   1      46.611  27.307  30.703  1.00  0.00     0.049 A 
ATOM     68  H   UNL A   1      46.828  29.177  29.772  1.00  0.00     0.167 HD
ATOM     69  C   UNL A   1      44.250  28.139  30.804  1.00  0.00     0.074 A 
ATOM     70  C   UNL A   1      44.162  29.067  29.674  1.00  0.00     0.031 C 
ATOM     71  C   UNL A   1      45.277  27.361  31.262  1.00  0.00     0.031 A 
BRANCH  58  72
ATOM     72  C   UNL A   1      48.113  29.412  27.165  1.00  0.00    -0.014 A 
ATOM     73  C   UNL A   1      49.353  30.064  27.226  1.00  0.00     0.009 A 
ATOM     74  C   UNL A   1      46.992  30.234  26.922  1.00  0.00     0.009 A 
ATOM     75  C   UNL A   1      49.447  31.459  27.177  1.00  0.00     0.001 A 
ATOM     76  C   UNL A   1      47.081  31.624  26.843  1.00  0.00     0.001 A 
ATOM     77  C   UNL A   1      48.308  32.239  27.006  1.00  0.00     0.000 A 
ENDBRANCH  58  72
BRANCH  59  78
ATOM     78  C   UNL A   1      39.788  28.019  29.241  1.00  0.00    -0.014 A 
ATOM     79  C   UNL A   1      38.845  28.180  30.270  1.00  0.00     0.009 A 
ATOM     80  C   UNL A   1      39.523  28.657  28.014  1.00  0.00     0.009 A 
ATOM     81  C   UNL A   1      37.695  28.964  30.083  1.00  0.00     0.001 A 
ATOM     82  C   UNL A   1      38.378  29.441  27.827  1.00  0.00     0.001 A 
ATOM     83  C   UNL A   1      37.468  29.602  28.865  1.00  0.00     0.000 A 
ENDBRANCH  59  78
BRANCH  71  84
ATOM     84  C   UNL A   1      44.951  26.307  32.294  1.00  0.00    -0.014 A 
ATOM     85  C   UNL A   1      44.742  26.590  33.658  1.00  0.00     0.009 A 
ATOM     86  C   UNL A   1      44.677  25.011  31.836  1.00  0.00     0.009 A 
ATOM     87  C   UNL A   1      44.292  25.595  34.534  1.00  0.00     0.001 A 
ATOM     88  C   UNL A   1      44.209  24.026  32.706  1.00  0.00     0.001 A 
ATOM     89  C   UNL A   1      44.021  24.314  34.055  1.00  0.00     0.000 A 
ENDBRANCH  71  84
ENDBRANCH  45  46
ENDBRANCH  38  40
ENDBRANCH  37  38
ENDBRANCH  36  37
ENDBRANCH  35  36
ENDBRANCH  34  35
ENDBRANCH  33  34
ENDBRANCH  32  33
ENDBRANCH   1  32
TORSDOF 22
ENDMDL
