MODEL 1
REMARK VINA RESULT:     -10.0      0.000      0.000
REMARK SMILES CCN(Cc1ccccn1)C(=O)[C@H]1CC[C@@H](C(=O)OCCOCCOCCOC(=O)c2ccc(-c3c4nc(c(-c5ccccc5)c5ccc([nH]5)c(-c5ccccc5)c5nc(c(-c6ccccc6)c6ccc3[nH]6)C=C5)C=C4)cc2)CC1
REMARK SMILES IDX 23 1 22 2 21 3 20 4 19 5 17 6 18 7 16 8 13 9 80 10 14 11
REMARK SMILES IDX 79 12 15 13 11 14 12 15 3 16 2 17 1 18 4 19 5 20 6 21 10 22
REMARK SMILES IDX 7 23 9 24 8 25 24 26 25 27 26 28 27 29 28 30 29 31 30 32
REMARK SMILES IDX 31 33 32 34 78 35 33 36 77 37 34 38 35 39 36 40 71 41 37 42
REMARK SMILES IDX 76 43 70 44 72 45 38 46 75 47 69 48 68 49 39 51 61 52 46 53
REMARK SMILES IDX 60 54 47 55 50 56 59 57 73 58 48 59 49 60 58 62 74 63 51 64
REMARK SMILES IDX 40 65 41 66 45 67 42 68 44 69 43 70 62 71 63 72 67 73 64 74
REMARK SMILES IDX 66 75 65 76 52 77 53 78 57 79 54 80 56 81 55 82
REMARK H PARENT 72 50 50 61
REMARK Flexibility Score: inf
ROOT
ATOM      1  C   UNL A   1      34.490  35.460  28.953  1.00  0.00     0.188 C 
ENDROOT
BRANCH   1   2
ATOM      2  O   UNL A   1      34.471  34.348  28.069  1.00  0.00    -0.376 OA
BRANCH   2   3
ATOM      3  C   UNL A   1      33.722  33.209  28.499  1.00  0.00     0.202 C 
BRANCH   3   4
ATOM      4  C   UNL A   1      34.288  31.827  28.137  1.00  0.00     0.261 C 
BRANCH   4   5
ATOM      5  O   UNL A   1      33.826  31.277  26.878  1.00  0.00    -0.463 OA
BRANCH   5   6
ATOM      6  C   UNL A   1      32.771  30.426  26.937  1.00  0.00     0.309 C 
ATOM      7  O   UNL A   1      31.640  30.701  26.541  1.00  0.00    -0.252 OA
BRANCH   6   8
ATOM      8  C   UNL A   1      33.087  29.044  27.525  1.00  0.00     0.099 C 
ATOM      9  C   UNL A   1      31.963  27.197  25.402  1.00  0.00     0.079 C 
ATOM     10  C   UNL A   1      33.248  27.999  25.279  1.00  0.00     0.014 C 
ATOM     11  C   UNL A   1      31.158  27.595  26.671  1.00  0.00     0.014 C 
ATOM     12  C   UNL A   1      34.007  28.315  26.557  1.00  0.00     0.016 C 
ATOM     13  C   UNL A   1      31.957  28.082  27.871  1.00  0.00     0.016 C 
BRANCH   9  14
ATOM     14  C   UNL A   1      30.960  27.265  24.209  1.00  0.00     0.226 C 
ATOM     15  O   UNL A   1      29.808  26.850  24.428  1.00  0.00    -0.275 OA
BRANCH  14  16
ATOM     16  N   UNL A   1      31.288  27.641  22.912  1.00  0.00    -0.337 N 
BRANCH  16  17
ATOM     17  C   UNL A   1      31.471  26.546  21.952  1.00  0.00     0.116 C 
ATOM     18  C   UNL A   1      32.947  26.304  21.652  1.00  0.00     0.027 C 
ENDBRANCH  16  17
BRANCH  16  19
ATOM     19  C   UNL A   1      31.405  28.998  22.344  1.00  0.00     0.175 C 
BRANCH  19  20
ATOM     20  C   UNL A   1      30.112  29.812  22.356  1.00  0.00     0.060 A 
ATOM     21  C   UNL A   1      29.642  30.327  23.570  1.00  0.00     0.026 A 
ATOM     22  N   UNL A   1      29.367  29.864  21.221  1.00  0.00    -0.259 NA
ATOM     23  C   UNL A   1      28.322  30.766  23.652  1.00  0.00     0.004 A 
ATOM     24  C   UNL A   1      28.102  30.330  21.327  1.00  0.00     0.111 A 
ATOM     25  C   UNL A   1      27.528  30.749  22.514  1.00  0.00     0.020 A 
ENDBRANCH  19  20
ENDBRANCH  16  19
ENDBRANCH  14  16
ENDBRANCH   9  14
ENDBRANCH   6   8
ENDBRANCH   5   6
ENDBRANCH   4   5
ENDBRANCH   3   4
ENDBRANCH   2   3
ENDBRANCH   1   2
BRANCH   1  26
ATOM     26  C   UNL A   1      33.150  35.841  29.588  1.00  0.00     0.188 C 
BRANCH  26  27
ATOM     27  O   UNL A   1      33.215  36.295  30.928  1.00  0.00    -0.376 OA
BRANCH  27  28
ATOM     28  C   UNL A   1      33.451  35.329  31.952  1.00  0.00     0.202 C 
BRANCH  28  29
ATOM     29  C   UNL A   1      34.857  35.332  32.587  1.00  0.00     0.261 C 
BRANCH  29  30
ATOM     30  O   UNL A   1      35.783  34.348  32.075  1.00  0.00    -0.460 OA
BRANCH  30  31
ATOM     31  C   UNL A   1      35.956  33.204  32.777  1.00  0.00     0.338 C 
ATOM     32  O   UNL A   1      35.272  32.810  33.705  1.00  0.00    -0.246 OA
BRANCH  31  33
ATOM     33  C   UNL A   1      36.950  32.360  32.054  1.00  0.00     0.060 A 
ATOM     34  C   UNL A   1      37.811  31.550  32.813  1.00  0.00     0.016 A 
ATOM     35  C   UNL A   1      36.977  32.278  30.659  1.00  0.00     0.016 A 
ATOM     36  C   UNL A   1      38.729  30.701  32.185  1.00  0.00     0.010 A 
ATOM     37  C   UNL A   1      37.906  31.441  30.029  1.00  0.00     0.010 A 
ATOM     38  C   UNL A   1      38.814  30.679  30.787  1.00  0.00    -0.014 A 
BRANCH  38  39
ATOM     39  C   UNL A   1      40.008  30.106  30.113  1.00  0.00     0.031 A 
ATOM     40  C   UNL A   1      41.207  31.006  29.954  1.00  0.00     0.074 A 
ATOM     41  C   UNL A   1      40.051  28.850  29.634  1.00  0.00     0.049 A 
ATOM     42  N   UNL A   1      42.316  30.811  29.289  1.00  0.00    -0.248 NA
ATOM     43  C   UNL A   1      41.132  32.309  30.635  1.00  0.00     0.031 C 
ATOM     44  C   UNL A   1      39.002  27.844  29.771  1.00  0.00     0.029 A 
ATOM     45  N   UNL A   1      41.035  28.214  28.912  1.00  0.00    -0.354 N 
ATOM     46  C   UNL A   1      43.058  31.974  29.454  1.00  0.00     0.074 A 
ATOM     47  C   UNL A   1      42.266  32.876  30.260  1.00  0.00     0.031 C 
ATOM     48  C   UNL A   1      39.390  26.721  29.137  1.00  0.00     0.029 A 
ATOM     49  C   UNL A   1      40.694  26.943  28.513  1.00  0.00     0.049 A 
ATOM     50  H   UNL A   1      41.902  28.630  28.700  1.00  0.00     0.167 HD
ATOM     51  C   UNL A   1      44.290  32.273  28.979  1.00  0.00     0.031 A 
ATOM     52  C   UNL A   1      41.347  26.077  27.711  1.00  0.00     0.031 A 
ATOM     53  C   UNL A   1      45.077  31.391  28.165  1.00  0.00     0.049 A 
ATOM     54  C   UNL A   1      42.676  26.467  27.108  1.00  0.00     0.074 A 
ATOM     55  C   UNL A   1      46.337  31.606  27.632  1.00  0.00     0.029 A 
ATOM     56  N   UNL A   1      44.679  30.128  27.758  1.00  0.00    -0.354 N 
ATOM     57  N   UNL A   1      43.371  27.567  27.272  1.00  0.00    -0.248 NA
ATOM     58  C   UNL A   1      43.311  25.490  26.210  1.00  0.00     0.031 C 
ATOM     59  C   UNL A   1      46.676  30.494  26.857  1.00  0.00     0.029 A 
ATOM     60  C   UNL A   1      45.658  29.561  26.964  1.00  0.00     0.049 A 
ATOM     61  H   UNL A   1      43.825  29.699  27.998  1.00  0.00     0.167 HD
ATOM     62  C   UNL A   1      44.537  27.396  26.533  1.00  0.00     0.074 A 
ATOM     63  C   UNL A   1      44.461  26.086  25.924  1.00  0.00     0.031 C 
ATOM     64  C   UNL A   1      45.581  28.246  26.379  1.00  0.00     0.031 A 
BRANCH  51  65
ATOM     65  C   UNL A   1      44.837  33.634  29.299  1.00  0.00    -0.014 A 
ATOM     66  C   UNL A   1      44.587  34.738  28.469  1.00  0.00     0.009 A 
ATOM     67  C   UNL A   1      45.603  33.816  30.461  1.00  0.00     0.009 A 
ATOM     68  C   UNL A   1      45.124  35.989  28.776  1.00  0.00     0.001 A 
ATOM     69  C   UNL A   1      46.113  35.075  30.782  1.00  0.00     0.001 A 
ATOM     70  C   UNL A   1      45.882  36.156  29.935  1.00  0.00     0.000 A 
ENDBRANCH  51  65
BRANCH  52  71
ATOM     71  C   UNL A   1      40.750  24.750  27.388  1.00  0.00    -0.014 A 
ATOM     72  C   UNL A   1      39.572  24.661  26.629  1.00  0.00     0.009 A 
ATOM     73  C   UNL A   1      41.325  23.569  27.881  1.00  0.00     0.009 A 
ATOM     74  C   UNL A   1      38.968  23.422  26.396  1.00  0.00     0.001 A 
ATOM     75  C   UNL A   1      40.736  22.329  27.621  1.00  0.00     0.001 A 
ATOM     76  C   UNL A   1      39.553  22.257  26.889  1.00  0.00     0.000 A 
ENDBRANCH  52  71
BRANCH  64  77
ATOM     77  C   UNL A   1      46.765  27.772  25.580  1.00  0.00    -0.014 A 
ATOM     78  C   UNL A   1      47.844  27.109  26.180  1.00  0.00     0.009 A 
ATOM     79  C   UNL A   1      46.759  27.933  24.184  1.00  0.00     0.009 A 
ATOM     80  C   UNL A   1      48.908  26.643  25.403  1.00  0.00     0.001 A 
ATOM     81  C   UNL A   1      47.808  27.440  23.406  1.00  0.00     0.001 A 
ATOM     82  C   UNL A   1      48.885  26.802  24.017  1.00  0.00     0.000 A 
ENDBRANCH  64  77
ENDBRANCH  38  39
ENDBRANCH  31  33
ENDBRANCH  30  31
ENDBRANCH  29  30
ENDBRANCH  28  29
ENDBRANCH  27  28
ENDBRANCH  26  27
ENDBRANCH   1  26
TORSDOF 22
ENDMDL
MODEL 2
REMARK VINA RESULT:      -9.8      2.948      4.564
REMARK SMILES CCN(Cc1ccccn1)C(=O)[C@H]1CC[C@@H](C(=O)OCCOCCOCCOC(=O)c2ccc(-c3c4nc(c(-c5ccccc5)c5ccc([nH]5)c(-c5ccccc5)c5nc(c(-c6ccccc6)c6ccc3[nH]6)C=C5)C=C4)cc2)CC1
REMARK SMILES IDX 23 1 22 2 21 3 20 4 19 5 17 6 18 7 16 8 13 9 80 10 14 11
REMARK SMILES IDX 79 12 15 13 11 14 12 15 3 16 2 17 1 18 4 19 5 20 6 21 10 22
REMARK SMILES IDX 7 23 9 24 8 25 24 26 25 27 26 28 27 29 28 30 29 31 30 32
REMARK SMILES IDX 31 33 32 34 78 35 33 36 77 37 34 38 35 39 36 40 71 41 37 42
REMARK SMILES IDX 76 43 70 44 72 45 38 46 75 47 69 48 68 49 39 51 61 52 46 53
REMARK SMILES IDX 60 54 47 55 50 56 59 57 73 58 48 59 49 60 58 62 74 63 51 64
REMARK SMILES IDX 40 65 41 66 45 67 42 68 44 69 43 70 62 71 63 72 67 73 64 74
REMARK SMILES IDX 66 75 65 76 52 77 53 78 57 79 54 80 56 81 55 82
REMARK H PARENT 72 50 50 61
REMARK Flexibility Score: inf
ROOT
ATOM      1  C   UNL A   1      34.120  31.575  27.872  1.00  0.00     0.188 C 
ENDROOT
BRANCH   1   2
ATOM      2  O   UNL A   1      33.480  30.815  26.857  1.00  0.00    -0.376 OA
BRANCH   2   3
ATOM      3  C   UNL A   1      33.259  29.432  27.145  1.00  0.00     0.202 C 
BRANCH   3   4
ATOM      4  C   UNL A   1      31.889  28.852  26.761  1.00  0.00     0.261 C 
BRANCH   4   5
ATOM      5  O   UNL A   1      31.826  27.406  26.689  1.00  0.00    -0.463 OA
BRANCH   5   6
ATOM      6  C   UNL A   1      31.736  26.861  25.449  1.00  0.00     0.309 C 
ATOM      7  O   UNL A   1      32.657  26.844  24.635  1.00  0.00    -0.252 OA
BRANCH   6   8
ATOM      8  C   UNL A   1      30.378  26.226  25.120  1.00  0.00     0.099 C 
ATOM      9  C   UNL A   1      31.173  23.376  24.463  1.00  0.00     0.079 C 
ATOM     10  C   UNL A   1      31.123  23.976  25.859  1.00  0.00     0.014 C 
ATOM     11  C   UNL A   1      30.975  24.460  23.366  1.00  0.00     0.014 C 
ATOM     12  C   UNL A   1      30.129  25.098  26.109  1.00  0.00     0.016 C 
ATOM     13  C   UNL A   1      30.114  25.661  23.728  1.00  0.00     0.016 C 
BRANCH   9  14
ATOM     14  C   UNL A   1      32.458  22.585  24.069  1.00  0.00     0.226 C 
ATOM     15  O   UNL A   1      32.831  22.685  22.887  1.00  0.00    -0.275 OA
BRANCH  14  16
ATOM     16  N   UNL A   1      33.137  21.702  24.900  1.00  0.00    -0.337 N 
BRANCH  16  17
ATOM     17  C   UNL A   1      34.556  21.997  25.129  1.00  0.00     0.116 C 
ATOM     18  C   UNL A   1      35.431  20.768  24.897  1.00  0.00     0.027 C 
ENDBRANCH  16  17
BRANCH  16  19
ATOM     19  C   UNL A   1      32.609  20.544  25.647  1.00  0.00     0.175 C 
BRANCH  19  20
ATOM     20  C   UNL A   1      32.581  19.233  24.864  1.00  0.00     0.060 A 
ATOM     21  C   UNL A   1      32.878  18.037  25.527  1.00  0.00     0.026 A 
ATOM     22  N   UNL A   1      32.443  19.287  23.513  1.00  0.00    -0.259 NA
ATOM     23  C   UNL A   1      33.186  16.905  24.775  1.00  0.00     0.004 A 
ATOM     24  C   UNL A   1      32.714  18.161  22.814  1.00  0.00     0.111 A 
ATOM     25  C   UNL A   1      33.124  16.972  23.390  1.00  0.00     0.020 A 
ENDBRANCH  19  20
ENDBRANCH  16  19
ENDBRANCH  14  16
ENDBRANCH   9  14
ENDBRANCH   6   8
ENDBRANCH   5   6
ENDBRANCH   4   5
ENDBRANCH   3   4
ENDBRANCH   2   3
ENDBRANCH   1   2
BRANCH   1  26
ATOM     26  C   UNL A   1      33.643  33.021  28.034  1.00  0.00     0.188 C 
BRANCH  26  27
ATOM     27  O   UNL A   1      34.469  33.851  28.832  1.00  0.00    -0.376 OA
BRANCH  27  28
ATOM     28  C   UNL A   1      33.865  34.551  29.919  1.00  0.00     0.202 C 
BRANCH  28  29
ATOM     29  C   UNL A   1      34.387  34.210  31.329  1.00  0.00     0.261 C 
BRANCH  29  30
ATOM     30  O   UNL A   1      34.567  32.805  31.614  1.00  0.00    -0.460 OA
BRANCH  30  31
ATOM     31  C   UNL A   1      35.490  32.452  32.539  1.00  0.00     0.338 C 
ATOM     32  O   UNL A   1      35.386  32.559  33.749  1.00  0.00    -0.246 OA
BRANCH  31  33
ATOM     33  C   UNL A   1      36.546  31.647  31.859  1.00  0.00     0.060 A 
ATOM     34  C   UNL A   1      37.468  30.951  32.659  1.00  0.00     0.016 A 
ATOM     35  C   UNL A   1      36.579  31.490  30.471  1.00  0.00     0.016 A 
ATOM     36  C   UNL A   1      38.449  30.142  32.075  1.00  0.00     0.010 A 
ATOM     37  C   UNL A   1      37.570  30.693  29.885  1.00  0.00     0.010 A 
ATOM     38  C   UNL A   1      38.535  30.048  30.680  1.00  0.00    -0.014 A 
BRANCH  38  39
ATOM     39  C   UNL A   1      39.770  29.532  30.034  1.00  0.00     0.031 A 
ATOM     40  C   UNL A   1      40.903  30.507  29.837  1.00  0.00     0.074 A 
ATOM     41  C   UNL A   1      39.904  28.262  29.611  1.00  0.00     0.049 A 
ATOM     42  N   UNL A   1      42.025  30.362  29.183  1.00  0.00    -0.248 NA
ATOM     43  C   UNL A   1      40.732  31.830  30.460  1.00  0.00     0.031 C 
ATOM     44  C   UNL A   1      38.928  27.191  29.790  1.00  0.00     0.029 A 
ATOM     45  N   UNL A   1      40.934  27.667  28.919  1.00  0.00    -0.354 N 
ATOM     46  C   UNL A   1      42.682  31.581  29.298  1.00  0.00     0.074 A 
ATOM     47  C   UNL A   1      41.825  32.459  30.062  1.00  0.00     0.031 C 
ATOM     48  C   UNL A   1      39.398  26.072  29.208  1.00  0.00     0.029 A 
ATOM     49  C   UNL A   1      40.686  26.359  28.576  1.00  0.00     0.049 A 
ATOM     50  H   UNL A   1      41.769  28.134  28.690  1.00  0.00     0.167 HD
ATOM     51  C   UNL A   1      43.892  31.946  28.812  1.00  0.00     0.031 A 
ATOM     52  C   UNL A   1      41.402  25.506  27.814  1.00  0.00     0.031 A 
ATOM     53  C   UNL A   1      44.744  31.087  28.038  1.00  0.00     0.049 A 
ATOM     54  C   UNL A   1      42.702  25.964  27.197  1.00  0.00     0.074 A 
ATOM     55  C   UNL A   1      45.987  31.368  27.499  1.00  0.00     0.029 A 
ATOM     56  N   UNL A   1      44.438  29.783  27.687  1.00  0.00    -0.354 N 
ATOM     57  N   UNL A   1      43.317  27.116  27.313  1.00  0.00    -0.248 NA
ATOM     58  C   UNL A   1      43.410  24.996  26.343  1.00  0.00     0.031 C 
ATOM     59  C   UNL A   1      46.408  30.250  26.774  1.00  0.00     0.029 A 
ATOM     60  C   UNL A   1      45.459  29.252  26.920  1.00  0.00     0.049 A 
ATOM     61  H   UNL A   1      43.616  29.305  27.945  1.00  0.00     0.167 HD
ATOM     62  C   UNL A   1      44.496  26.996  26.584  1.00  0.00     0.074 A 
ATOM     63  C   UNL A   1      44.516  25.658  26.033  1.00  0.00     0.031 C 
ATOM     64  C   UNL A   1      45.478  27.911  26.394  1.00  0.00     0.031 A 
BRANCH  51  65
ATOM     65  C   UNL A   1      44.340  33.355  29.073  1.00  0.00    -0.014 A 
ATOM     66  C   UNL A   1      44.991  33.708  30.265  1.00  0.00     0.009 A 
ATOM     67  C   UNL A   1      44.120  34.343  28.100  1.00  0.00     0.009 A 
ATOM     68  C   UNL A   1      45.380  35.029  30.493  1.00  0.00     0.001 A 
ATOM     69  C   UNL A   1      44.538  35.656  28.317  1.00  0.00     0.001 A 
ATOM     70  C   UNL A   1      45.157  36.000  29.516  1.00  0.00     0.000 A 
ENDBRANCH  51  65
BRANCH  52  71
ATOM     71  C   UNL A   1      40.902  24.128  27.549  1.00  0.00    -0.014 A 
ATOM     72  C   UNL A   1      41.509  23.017  28.155  1.00  0.00     0.009 A 
ATOM     73  C   UNL A   1      39.848  23.912  26.647  1.00  0.00     0.009 A 
ATOM     74  C   UNL A   1      41.092  21.720  27.842  1.00  0.00     0.001 A 
ATOM     75  C   UNL A   1      39.413  22.617  26.359  1.00  0.00     0.001 A 
ATOM     76  C   UNL A   1      40.042  21.521  26.948  1.00  0.00     0.000 A 
ENDBRANCH  52  71
BRANCH  64  77
ATOM     77  C   UNL A   1      46.696  27.487  25.618  1.00  0.00    -0.014 A 
ATOM     78  C   UNL A   1      46.856  27.808  24.263  1.00  0.00     0.009 A 
ATOM     79  C   UNL A   1      47.734  26.813  26.284  1.00  0.00     0.009 A 
ATOM     80  C   UNL A   1      48.019  27.437  23.582  1.00  0.00     0.001 A 
ATOM     81  C   UNL A   1      48.907  26.471  25.610  1.00  0.00     0.001 A 
ATOM     82  C   UNL A   1      49.046  26.776  24.258  1.00  0.00     0.000 A 
ENDBRANCH  64  77
ENDBRANCH  38  39
ENDBRANCH  31  33
ENDBRANCH  30  31
ENDBRANCH  29  30
ENDBRANCH  28  29
ENDBRANCH  27  28
ENDBRANCH  26  27
ENDBRANCH   1  26
TORSDOF 22
ENDMDL
MODEL 3
REMARK VINA RESULT:      -9.7      2.009      4.011
REMARK SMILES CCN(Cc1ccccn1)C(=O)[C@H]1CC[C@@H](C(=O)OCCOCCOCCOC(=O)c2ccc(-c3c4nc(c(-c5ccccc5)c5ccc([nH]5)c(-c5ccccc5)c5nc(c(-c6ccccc6)c6ccc3[nH]6)C=C5)C=C4)cc2)CC1
REMARK SMILES IDX 23 1 22 2 21 3 20 4 19 5 17 6 18 7 16 8 13 9 80 10 14 11
REMARK SMILES IDX 79 12 15 13 11 14 12 15 3 16 2 17 1 18 4 19 5 20 6 21 10 22
REMARK SMILES IDX 7 23 9 24 8 25 24 26 25 27 26 28 27 29 28 30 29 31 30 32
REMARK SMILES IDX 31 33 32 34 78 35 33 36 77 37 34 38 35 39 36 40 71 41 37 42
REMARK SMILES IDX 76 43 70 44 72 45 38 46 75 47 69 48 68 49 39 51 61 52 46 53
REMARK SMILES IDX 60 54 47 55 50 56 59 57 73 58 48 59 49 60 58 62 74 63 51 64
REMARK SMILES IDX 40 65 41 66 45 67 42 68 44 69 43 70 62 71 63 72 67 73 64 74
REMARK SMILES IDX 66 75 65 76 52 77 53 78 57 79 54 80 56 81 55 82
REMARK H PARENT 72 50 50 61
REMARK Flexibility Score: inf
ROOT
ATOM      1  C   UNL A   1      34.467  30.584  27.586  1.00  0.00     0.188 C 
ENDROOT
BRANCH   1   2
ATOM      2  O   UNL A   1      33.787  29.583  26.842  1.00  0.00    -0.376 OA
BRANCH   2   3
ATOM      3  C   UNL A   1      32.369  29.729  26.732  1.00  0.00     0.202 C 
BRANCH   3   4
ATOM      4  C   UNL A   1      31.819  30.156  25.361  1.00  0.00     0.261 C 
BRANCH   4   5
ATOM      5  O   UNL A   1      31.071  29.140  24.649  1.00  0.00    -0.463 OA
BRANCH   5   6
ATOM      6  C   UNL A   1      31.545  28.778  23.429  1.00  0.00     0.309 C 
ATOM      7  O   UNL A   1      32.526  29.288  22.892  1.00  0.00    -0.252 OA
BRANCH   6   8
ATOM      8  C   UNL A   1      30.771  27.643  22.746  1.00  0.00     0.099 C 
ATOM      9  C   UNL A   1      31.287  25.325  24.629  1.00  0.00     0.079 C 
ATOM     10  C   UNL A   1      30.344  26.486  24.901  1.00  0.00     0.014 C 
ATOM     11  C   UNL A   1      32.138  25.565  23.350  1.00  0.00     0.014 C 
ATOM     12  C   UNL A   1      29.692  27.160  23.705  1.00  0.00     0.016 C 
ATOM     13  C   UNL A   1      31.507  26.405  22.248  1.00  0.00     0.016 C 
BRANCH   9  14
ATOM     14  C   UNL A   1      32.293  24.941  25.757  1.00  0.00     0.226 C 
ATOM     15  O   UNL A   1      33.047  25.843  26.160  1.00  0.00    -0.275 OA
BRANCH  14  16
ATOM     16  N   UNL A   1      32.482  23.656  26.254  1.00  0.00    -0.337 N 
BRANCH  16  17
ATOM     17  C   UNL A   1      31.437  22.679  25.922  1.00  0.00     0.116 C 
ATOM     18  C   UNL A   1      30.262  22.762  26.892  1.00  0.00     0.027 C 
ENDBRANCH  16  17
BRANCH  16  19
ATOM     19  C   UNL A   1      33.628  23.116  27.009  1.00  0.00     0.175 C 
BRANCH  19  20
ATOM     20  C   UNL A   1      34.849  22.767  26.160  1.00  0.00     0.060 A 
ATOM     21  C   UNL A   1      35.727  23.787  25.777  1.00  0.00     0.026 A 
ATOM     22  N   UNL A   1      34.951  21.509  25.657  1.00  0.00    -0.259 NA
ATOM     23  C   UNL A   1      36.631  23.549  24.744  1.00  0.00     0.004 A 
ATOM     24  C   UNL A   1      35.864  21.301  24.681  1.00  0.00     0.111 A 
ATOM     25  C   UNL A   1      36.689  22.287  24.169  1.00  0.00     0.020 A 
ENDBRANCH  19  20
ENDBRANCH  16  19
ENDBRANCH  14  16
ENDBRANCH   9  14
ENDBRANCH   6   8
ENDBRANCH   5   6
ENDBRANCH   4   5
ENDBRANCH   3   4
ENDBRANCH   2   3
ENDBRANCH   1   2
BRANCH   1  26
ATOM     26  C   UNL A   1      33.708  31.896  27.803  1.00  0.00     0.188 C 
BRANCH  26  27
ATOM     27  O   UNL A   1      34.491  32.988  28.250  1.00  0.00    -0.376 OA
BRANCH  27  28
ATOM     28  C   UNL A   1      33.864  33.967  29.079  1.00  0.00     0.202 C 
BRANCH  28  29
ATOM     29  C   UNL A   1      34.288  33.984  30.561  1.00  0.00     0.261 C 
BRANCH  29  30
ATOM     30  O   UNL A   1      34.532  32.694  31.164  1.00  0.00    -0.460 OA
BRANCH  30  31
ATOM     31  C   UNL A   1      35.536  32.587  32.065  1.00  0.00     0.338 C 
ATOM     32  O   UNL A   1      35.494  32.902  33.242  1.00  0.00    -0.246 OA
BRANCH  31  33
ATOM     33  C   UNL A   1      36.619  31.758  31.461  1.00  0.00     0.060 A 
ATOM     34  C   UNL A   1      37.372  30.929  32.308  1.00  0.00     0.016 A 
ATOM     35  C   UNL A   1      36.832  31.711  30.080  1.00  0.00     0.016 A 
ATOM     36  C   UNL A   1      38.367  30.094  31.787  1.00  0.00     0.010 A 
ATOM     37  C   UNL A   1      37.838  30.888  29.559  1.00  0.00     0.010 A 
ATOM     38  C   UNL A   1      38.638  30.106  30.414  1.00  0.00    -0.014 A 
BRANCH  38  39
ATOM     39  C   UNL A   1      39.912  29.547  29.891  1.00  0.00     0.031 A 
ATOM     40  C   UNL A   1      41.082  30.491  29.777  1.00  0.00     0.074 A 
ATOM     41  C   UNL A   1      40.052  28.265  29.508  1.00  0.00     0.049 A 
ATOM     42  N   UNL A   1      42.255  30.306  29.229  1.00  0.00    -0.248 NA
ATOM     43  C   UNL A   1      40.889  31.832  30.354  1.00  0.00     0.031 C 
ATOM     44  C   UNL A   1      39.037  27.221  29.621  1.00  0.00     0.029 A 
ATOM     45  N   UNL A   1      41.124  27.631  28.924  1.00  0.00    -0.354 N 
ATOM     46  C   UNL A   1      42.929  31.512  29.377  1.00  0.00     0.074 A 
ATOM     47  C   UNL A   1      42.029  32.427  30.043  1.00  0.00     0.031 C 
ATOM     48  C   UNL A   1      39.529  26.079  29.106  1.00  0.00     0.029 A 
ATOM     49  C   UNL A   1      40.875  26.322  28.587  1.00  0.00     0.049 A 
ATOM     50  H   UNL A   1      41.988  28.073  28.761  1.00  0.00     0.167 HD
ATOM     51  C   UNL A   1      44.186  31.837  28.994  1.00  0.00     0.031 A 
ATOM     52  C   UNL A   1      41.634  25.436  27.910  1.00  0.00     0.031 A 
ATOM     53  C   UNL A   1      45.082  30.942  28.317  1.00  0.00     0.049 A 
ATOM     54  C   UNL A   1      42.996  25.849  27.402  1.00  0.00     0.074 A 
ATOM     55  C   UNL A   1      46.375  31.181  27.886  1.00  0.00     0.029 A 
ATOM     56  N   UNL A   1      44.775  29.637  27.968  1.00  0.00    -0.354 N 
ATOM     57  N   UNL A   1      43.626  26.989  27.549  1.00  0.00    -0.248 NA
ATOM     58  C   UNL A   1      43.752  24.846  26.635  1.00  0.00     0.031 C 
ATOM     59  C   UNL A   1      46.830  30.038  27.225  1.00  0.00     0.029 A 
ATOM     60  C   UNL A   1      45.847  29.065  27.306  1.00  0.00     0.049 A 
ATOM     61  H   UNL A   1      43.922  29.184  28.160  1.00  0.00     0.167 HD
ATOM     62  C   UNL A   1      44.862  26.825  26.932  1.00  0.00     0.074 A 
ATOM     63  C   UNL A   1      44.897  25.475  26.413  1.00  0.00     0.031 C 
ATOM     64  C   UNL A   1      45.880  27.713  26.812  1.00  0.00     0.031 A 
BRANCH  51  65
ATOM     65  C   UNL A   1      44.644  33.242  29.264  1.00  0.00    -0.014 A 
ATOM     66  C   UNL A   1      44.424  34.274  28.339  1.00  0.00     0.009 A 
ATOM     67  C   UNL A   1      45.292  33.537  30.474  1.00  0.00     0.009 A 
ATOM     68  C   UNL A   1      44.878  35.567  28.604  1.00  0.00     0.001 A 
ATOM     69  C   UNL A   1      45.716  34.837  30.749  1.00  0.00     0.001 A 
ATOM     70  C   UNL A   1      45.519  35.848  29.811  1.00  0.00     0.000 A 
ENDBRANCH  51  65
BRANCH  52  71
ATOM     71  C   UNL A   1      41.126  24.064  27.629  1.00  0.00    -0.014 A 
ATOM     72  C   UNL A   1      41.611  22.959  28.348  1.00  0.00     0.009 A 
ATOM     73  C   UNL A   1      40.191  23.844  26.606  1.00  0.00     0.009 A 
ATOM     74  C   UNL A   1      41.193  21.664  28.029  1.00  0.00     0.001 A 
ATOM     75  C   UNL A   1      39.752  22.552  26.308  1.00  0.00     0.001 A 
ATOM     76  C   UNL A   1      40.262  21.462  27.012  1.00  0.00     0.000 A 
ENDBRANCH  52  71
BRANCH  64  77
ATOM     77  C   UNL A   1      47.151  27.244  26.157  1.00  0.00    -0.014 A 
ATOM     78  C   UNL A   1      48.167  26.611  26.886  1.00  0.00     0.009 A 
ATOM     79  C   UNL A   1      47.297  27.379  24.765  1.00  0.00     0.009 A 
ATOM     80  C   UNL A   1      49.316  26.148  26.240  1.00  0.00     0.001 A 
ATOM     81  C   UNL A   1      48.431  26.888  24.118  1.00  0.00     0.001 A 
ATOM     82  C   UNL A   1      49.444  26.280  24.856  1.00  0.00     0.000 A 
ENDBRANCH  64  77
ENDBRANCH  38  39
ENDBRANCH  31  33
ENDBRANCH  30  31
ENDBRANCH  29  30
ENDBRANCH  28  29
ENDBRANCH  27  28
ENDBRANCH  26  27
ENDBRANCH   1  26
TORSDOF 22
ENDMDL
