MODEL 1
REMARK VINA RESULT:      -9.9      0.000      0.000
REMARK SMILES C[C@@H](C(=O)OCCOCCOCCOC(=O)c1ccc(-c2c3nc(c(-c4ccccc4)c4ccc([nH]4)c(-c4ccccc4)c4nc(c(-c5ccccc5)c5ccc2[nH]5)C=C4)C=C3)cc1)c1ccc(C[C@@H]2CCC[C@@H]2O)cc1F
REMARK SMILES IDX 9 1 8 2 7 3 6 4 5 5 3 6 4 7 2 8 1 9 65 10 66 11 77 12 67 13
REMARK SMILES IDX 76 14 78 15 68 16 69 17 70 18 71 19 74 20 72 21 73 22 75 23
REMARK SMILES IDX 10 25 11 26 12 27 13 28 14 29 15 30 16 31 17 32 18 33 64 34
REMARK SMILES IDX 19 35 63 36 20 37 21 38 22 39 57 40 23 41 62 42 56 43 58 44
REMARK SMILES IDX 24 45 61 46 55 47 54 48 25 50 47 51 32 52 46 53 33 54 36 55
REMARK SMILES IDX 45 56 59 57 34 58 35 59 44 61 60 62 37 63 26 64 27 65 31 66
REMARK SMILES IDX 28 67 30 68 29 69 48 70 49 71 53 72 50 73 52 74 51 75 38 76
REMARK SMILES IDX 39 77 43 78 40 79 42 80 41 81
REMARK H PARENT 75 24 58 49 36 60
REMARK Flexibility Score: inf
ROOT
ATOM      1  C   UNL A   1      33.055  29.688  25.048  1.00  0.00     0.188 C 
ENDROOT
BRANCH   1   2
ATOM      2  O   UNL A   1      33.361  28.303  24.931  1.00  0.00    -0.376 OA
BRANCH   2   3
ATOM      3  C   UNL A   1      32.860  27.414  25.931  1.00  0.00     0.202 C 
BRANCH   3   4
ATOM      4  C   UNL A   1      33.474  26.006  26.063  1.00  0.00     0.261 C 
BRANCH   4   5
ATOM      5  O   UNL A   1      32.507  24.934  26.061  1.00  0.00    -0.463 OA
BRANCH   5   6
ATOM      6  C   UNL A   1      32.655  23.970  25.115  1.00  0.00     0.313 C 
ATOM      7  O   UNL A   1      33.616  23.207  25.070  1.00  0.00    -0.252 OA
BRANCH   6   8
ATOM      8  C   UNL A   1      31.452  23.844  24.163  1.00  0.00     0.129 C 
ATOM      9  C   UNL A   1      31.605  22.691  23.157  1.00  0.00     0.025 C 
BRANCH   8  10
ATOM     10  C   UNL A   1      30.938  25.182  23.611  1.00  0.00     0.002 A 
ATOM     11  C   UNL A   1      31.551  25.789  22.499  1.00  0.00     0.008 A 
ATOM     12  C   UNL A   1      29.954  25.938  24.265  1.00  0.00     0.127 A 
ATOM     13  C   UNL A   1      31.233  27.093  22.100  1.00  0.00     0.004 A 
ATOM     14  C   UNL A   1      29.659  27.256  23.893  1.00  0.00     0.043 A 
ATOM     15  F   UNL A   1      29.294  25.437  25.317  1.00  0.00    -0.207 F 
ATOM     16  C   UNL A   1      30.342  27.871  22.841  1.00  0.00    -0.045 A 
BRANCH  16  17
ATOM     17  C   UNL A   1      30.183  29.347  22.569  1.00  0.00     0.041 C 
BRANCH  17  18
ATOM     18  C   UNL A   1      28.782  29.983  22.761  1.00  0.00     0.022 C 
ATOM     19  C   UNL A   1      27.939  30.117  21.486  1.00  0.00     0.007 C 
ATOM     20  C   UNL A   1      28.736  31.403  23.331  1.00  0.00     0.117 C 
ATOM     21  C   UNL A   1      28.100  31.564  21.005  1.00  0.00     0.003 C 
ATOM     22  C   UNL A   1      28.836  32.312  22.113  1.00  0.00     0.032 C 
BRANCH  20  23
ATOM     23  O   UNL A   1      29.749  31.666  24.279  1.00  0.00    -0.393 OA
ATOM     24  H   UNL A   1      30.349  30.906  24.329  1.00  0.00     0.210 HD
ENDBRANCH  20  23
ENDBRANCH  17  18
ENDBRANCH  16  17
ENDBRANCH   8  10
ENDBRANCH   6   8
ENDBRANCH   5   6
ENDBRANCH   4   5
ENDBRANCH   3   4
ENDBRANCH   2   3
ENDBRANCH   1   2
BRANCH   1  25
ATOM     25  C   UNL A   1      32.678  30.247  26.430  1.00  0.00     0.188 C 
BRANCH  25  26
ATOM     26  O   UNL A   1      31.506  31.027  26.445  1.00  0.00    -0.376 OA
BRANCH  26  27
ATOM     27  C   UNL A   1      31.548  32.328  27.003  1.00  0.00     0.202 C 
BRANCH  27  28
ATOM     28  C   UNL A   1      32.844  32.929  27.580  1.00  0.00     0.261 C 
BRANCH  28  29
ATOM     29  O   UNL A   1      32.820  34.306  27.988  1.00  0.00    -0.460 OA
BRANCH  29  30
ATOM     30  C   UNL A   1      33.212  34.587  29.251  1.00  0.00     0.338 C 
ATOM     31  O   UNL A   1      32.552  35.130  30.125  1.00  0.00    -0.246 OA
BRANCH  30  32
ATOM     32  C   UNL A   1      34.508  33.907  29.475  1.00  0.00     0.060 A 
ATOM     33  C   UNL A   1      34.610  32.946  30.492  1.00  0.00     0.016 A 
ATOM     34  C   UNL A   1      35.609  34.196  28.667  1.00  0.00     0.016 A 
ATOM     35  C   UNL A   1      35.819  32.284  30.715  1.00  0.00     0.010 A 
ATOM     36  C   UNL A   1      36.827  33.555  28.912  1.00  0.00     0.010 A 
ATOM     37  C   UNL A   1      36.946  32.617  29.952  1.00  0.00    -0.014 A 
BRANCH  37  38
ATOM     38  C   UNL A   1      38.287  32.135  30.361  1.00  0.00     0.031 A 
ATOM     39  C   UNL A   1      38.790  30.844  29.776  1.00  0.00     0.074 A 
ATOM     40  C   UNL A   1      39.048  32.819  31.235  1.00  0.00     0.049 A 
ATOM     41  N   UNL A   1      39.895  30.190  30.030  1.00  0.00    -0.248 NA
ATOM     42  C   UNL A   1      37.921  30.198  28.779  1.00  0.00     0.031 C 
ATOM     43  C   UNL A   1      38.694  34.095  31.848  1.00  0.00     0.029 A 
ATOM     44  N   UNL A   1      40.285  32.524  31.755  1.00  0.00    -0.354 N 
ATOM     45  C   UNL A   1      39.839  29.043  29.249  1.00  0.00     0.074 A 
ATOM     46  C   UNL A   1      38.589  29.084  28.522  1.00  0.00     0.031 C 
ATOM     47  C   UNL A   1      39.698  34.480  32.657  1.00  0.00     0.029 A 
ATOM     48  C   UNL A   1      40.746  33.462  32.645  1.00  0.00     0.049 A 
ATOM     49  H   UNL A   1      40.793  31.716  31.512  1.00  0.00     0.167 HD
ATOM     50  C   UNL A   1      40.742  28.040  29.151  1.00  0.00     0.031 A 
ATOM     51  C   UNL A   1      41.879  33.488  33.376  1.00  0.00     0.031 A 
ATOM     52  C   UNL A   1      41.979  27.989  29.883  1.00  0.00     0.049 A 
ATOM     53  C   UNL A   1      42.842  32.329  33.291  1.00  0.00     0.074 A 
ATOM     54  C   UNL A   1      42.965  27.018  29.840  1.00  0.00     0.029 A 
ATOM     55  N   UNL A   1      42.394  28.943  30.798  1.00  0.00    -0.354 N 
ATOM     56  N   UNL A   1      42.792  31.262  32.531  1.00  0.00    -0.248 NA
ATOM     57  C   UNL A   1      44.016  32.378  34.176  1.00  0.00     0.031 C 
ATOM     58  C   UNL A   1      43.946  27.352  30.779  1.00  0.00     0.029 A 
ATOM     59  C   UNL A   1      43.608  28.568  31.349  1.00  0.00     0.049 A 
ATOM     60  H   UNL A   1      41.900  29.764  31.022  1.00  0.00     0.167 HD
ATOM     61  C   UNL A   1      43.934  30.527  32.829  1.00  0.00     0.074 A 
ATOM     62  C   UNL A   1      44.672  31.282  33.819  1.00  0.00     0.031 C 
ATOM     63  C   UNL A   1      44.335  29.331  32.331  1.00  0.00     0.031 A 
BRANCH  50  64
ATOM     64  C   UNL A   1      40.396  26.883  28.255  1.00  0.00    -0.014 A 
ATOM     65  C   UNL A   1      39.578  25.830  28.695  1.00  0.00     0.009 A 
ATOM     66  C   UNL A   1      40.875  26.863  26.936  1.00  0.00     0.009 A 
ATOM     67  C   UNL A   1      39.278  24.765  27.842  1.00  0.00     0.001 A 
ATOM     68  C   UNL A   1      40.546  25.815  26.076  1.00  0.00     0.001 A 
ATOM     69  C   UNL A   1      39.757  24.762  26.533  1.00  0.00     0.000 A 
ENDBRANCH  50  64
BRANCH  51  70
ATOM     70  C   UNL A   1      42.169  34.635  34.279  1.00  0.00    -0.014 A 
ATOM     71  C   UNL A   1      41.734  34.621  35.614  1.00  0.00     0.009 A 
ATOM     72  C   UNL A   1      42.846  35.769  33.803  1.00  0.00     0.009 A 
ATOM     73  C   UNL A   1      41.944  35.729  36.441  1.00  0.00     0.001 A 
ATOM     74  C   UNL A   1      43.086  36.859  34.642  1.00  0.00     0.001 A 
ATOM     75  C   UNL A   1      42.625  36.843  35.956  1.00  0.00     0.000 A 
ENDBRANCH  51  70
BRANCH  63  76
ATOM     76  C   UNL A   1      45.652  28.781  32.813  1.00  0.00    -0.014 A 
ATOM     77  C   UNL A   1      46.861  29.105  32.179  1.00  0.00     0.009 A 
ATOM     78  C   UNL A   1      45.684  27.965  33.955  1.00  0.00     0.009 A 
ATOM     79  C   UNL A   1      48.070  28.593  32.656  1.00  0.00     0.001 A 
ATOM     80  C   UNL A   1      46.896  27.481  34.450  1.00  0.00     0.001 A 
ATOM     81  C   UNL A   1      48.087  27.786  33.795  1.00  0.00     0.000 A 
ENDBRANCH  63  76
ENDBRANCH  37  38
ENDBRANCH  30  32
ENDBRANCH  29  30
ENDBRANCH  28  29
ENDBRANCH  27  28
ENDBRANCH  26  27
ENDBRANCH  25  26
ENDBRANCH   1  25
TORSDOF 21
ENDMDL
MODEL 2
REMARK VINA RESULT:      -9.8      3.666      8.034
REMARK SMILES C[C@@H](C(=O)OCCOCCOCCOC(=O)c1ccc(-c2c3nc(c(-c4ccccc4)c4ccc([nH]4)c(-c4ccccc4)c4nc(c(-c5ccccc5)c5ccc2[nH]5)C=C4)C=C3)cc1)c1ccc(C[C@@H]2CCC[C@@H]2O)cc1F
REMARK SMILES IDX 9 1 8 2 7 3 6 4 5 5 3 6 4 7 2 8 1 9 65 10 66 11 77 12 67 13
REMARK SMILES IDX 76 14 78 15 68 16 69 17 70 18 71 19 74 20 72 21 73 22 75 23
REMARK SMILES IDX 10 25 11 26 12 27 13 28 14 29 15 30 16 31 17 32 18 33 64 34
REMARK SMILES IDX 19 35 63 36 20 37 21 38 22 39 57 40 23 41 62 42 56 43 58 44
REMARK SMILES IDX 24 45 61 46 55 47 54 48 25 50 47 51 32 52 46 53 33 54 36 55
REMARK SMILES IDX 45 56 59 57 34 58 35 59 44 61 60 62 37 63 26 64 27 65 31 66
REMARK SMILES IDX 28 67 30 68 29 69 48 70 49 71 53 72 50 73 52 74 51 75 38 76
REMARK SMILES IDX 39 77 43 78 40 79 42 80 41 81
REMARK H PARENT 75 24 58 49 36 60
REMARK Flexibility Score: inf
ROOT
ATOM      1  C   UNL A   1      33.037  35.753  30.326  1.00  0.00     0.188 C 
ENDROOT
BRANCH   1   2
ATOM      2  O   UNL A   1      33.705  36.005  29.095  1.00  0.00    -0.376 OA
BRANCH   2   3
ATOM      3  C   UNL A   1      34.307  34.902  28.415  1.00  0.00     0.202 C 
BRANCH   3   4
ATOM      4  C   UNL A   1      33.420  33.728  27.953  1.00  0.00     0.261 C 
BRANCH   4   5
ATOM      5  O   UNL A   1      33.793  32.449  28.510  1.00  0.00    -0.463 OA
BRANCH   5   6
ATOM      6  C   UNL A   1      34.733  31.734  27.839  1.00  0.00     0.313 C 
ATOM      7  O   UNL A   1      35.727  32.237  27.321  1.00  0.00    -0.252 OA
BRANCH   6   8
ATOM      8  C   UNL A   1      34.502  30.213  27.877  1.00  0.00     0.129 C 
ATOM      9  C   UNL A   1      35.757  29.427  28.293  1.00  0.00     0.025 C 
BRANCH   8  10
ATOM     10  C   UNL A   1      33.703  29.662  26.686  1.00  0.00     0.002 A 
ATOM     11  C   UNL A   1      34.316  28.841  25.721  1.00  0.00     0.008 A 
ATOM     12  C   UNL A   1      32.389  30.068  26.408  1.00  0.00     0.127 A 
ATOM     13  C   UNL A   1      33.670  28.491  24.529  1.00  0.00     0.004 A 
ATOM     14  C   UNL A   1      31.753  29.753  25.202  1.00  0.00     0.043 A 
ATOM     15  F   UNL A   1      31.711  30.829  27.277  1.00  0.00    -0.207 F 
ATOM     16  C   UNL A   1      32.412  29.009  24.220  1.00  0.00    -0.045 A 
BRANCH  16  17
ATOM     17  C   UNL A   1      31.818  28.843  22.842  1.00  0.00     0.041 C 
BRANCH  17  18
ATOM     18  C   UNL A   1      31.170  27.482  22.480  1.00  0.00     0.022 C 
ATOM     19  C   UNL A   1      30.475  26.754  23.638  1.00  0.00     0.007 C 
ATOM     20  C   UNL A   1      32.097  26.397  21.924  1.00  0.00     0.117 C 
ATOM     21  C   UNL A   1      31.466  25.703  24.151  1.00  0.00     0.003 C 
ATOM     22  C   UNL A   1      32.621  25.670  23.155  1.00  0.00     0.032 C 
BRANCH  20  23
ATOM     23  O   UNL A   1      33.139  26.902  21.116  1.00  0.00    -0.393 OA
ATOM     24  H   UNL A   1      33.397  26.230  20.466  1.00  0.00     0.210 HD
ENDBRANCH  20  23
ENDBRANCH  17  18
ENDBRANCH  16  17
ENDBRANCH   8  10
ENDBRANCH   6   8
ENDBRANCH   5   6
ENDBRANCH   4   5
ENDBRANCH   3   4
ENDBRANCH   2   3
ENDBRANCH   1   2
BRANCH   1  25
ATOM     25  C   UNL A   1      32.838  36.919  31.309  1.00  0.00     0.188 C 
BRANCH  25  26
ATOM     26  O   UNL A   1      33.667  36.872  32.446  1.00  0.00    -0.376 OA
BRANCH  26  27
ATOM     27  C   UNL A   1      34.103  35.616  32.934  1.00  0.00     0.202 C 
BRANCH  27  28
ATOM     28  C   UNL A   1      35.597  35.252  33.033  1.00  0.00     0.261 C 
BRANCH  28  29
ATOM     29  O   UNL A   1      36.067  34.136  32.261  1.00  0.00    -0.460 OA
BRANCH  29  30
ATOM     30  C   UNL A   1      36.221  32.957  32.904  1.00  0.00     0.338 C 
ATOM     31  O   UNL A   1      35.530  32.515  33.811  1.00  0.00    -0.246 OA
BRANCH  30  32
ATOM     32  C   UNL A   1      37.233  32.174  32.159  1.00  0.00     0.060 A 
ATOM     33  C   UNL A   1      38.304  31.599  32.861  1.00  0.00     0.016 A 
ATOM     34  C   UNL A   1      37.110  31.982  30.783  1.00  0.00     0.016 A 
ATOM     35  C   UNL A   1      39.264  30.846  32.182  1.00  0.00     0.010 A 
ATOM     36  C   UNL A   1      38.089  31.255  30.100  1.00  0.00     0.010 A 
ATOM     37  C   UNL A   1      39.184  30.706  30.791  1.00  0.00    -0.014 A 
BRANCH  37  38
ATOM     38  C   UNL A   1      40.335  30.159  30.033  1.00  0.00     0.031 A 
ATOM     39  C   UNL A   1      41.534  31.042  29.820  1.00  0.00     0.074 A 
ATOM     40  C   UNL A   1      40.325  28.909  29.535  1.00  0.00     0.049 A 
ATOM     41  N   UNL A   1      42.627  30.813  29.138  1.00  0.00    -0.248 NA
ATOM     42  C   UNL A   1      41.486  32.370  30.456  1.00  0.00     0.031 C 
ATOM     43  C   UNL A   1      39.243  27.942  29.697  1.00  0.00     0.029 A 
ATOM     44  N   UNL A   1      41.267  28.243  28.789  1.00  0.00    -0.354 N 
ATOM     45  C   UNL A   1      43.380  31.975  29.236  1.00  0.00     0.074 A 
ATOM     46  C   UNL A   1      42.617  32.912  30.032  1.00  0.00     0.031 C 
ATOM     47  C   UNL A   1      39.587  26.800  29.075  1.00  0.00     0.029 A 
ATOM     48  C   UNL A   1      40.894  26.968  28.443  1.00  0.00     0.049 A 
ATOM     49  H   UNL A   1      42.128  28.643  28.528  1.00  0.00     0.167 HD
ATOM     50  C   UNL A   1      44.595  32.245  28.703  1.00  0.00     0.031 A 
ATOM     51  C   UNL A   1      41.531  26.047  27.691  1.00  0.00     0.031 A 
ATOM     52  C   UNL A   1      45.349  31.322  27.899  1.00  0.00     0.049 A 
ATOM     53  C   UNL A   1      42.858  26.394  27.062  1.00  0.00     0.074 A 
ATOM     54  C   UNL A   1      46.597  31.501  27.325  1.00  0.00     0.029 A 
ATOM     55  N   UNL A   1      44.923  30.052  27.544  1.00  0.00    -0.354 N 
ATOM     56  N   UNL A   1      43.574  27.486  27.181  1.00  0.00    -0.248 NA
ATOM     57  C   UNL A   1      43.460  25.378  26.184  1.00  0.00     0.031 C 
ATOM     58  C   UNL A   1      46.895  30.364  26.568  1.00  0.00     0.029 A 
ATOM     59  C   UNL A   1      45.869  29.448  26.735  1.00  0.00     0.049 A 
ATOM     60  H   UNL A   1      44.074  29.642  27.827  1.00  0.00     0.167 HD
ATOM     61  C   UNL A   1      44.715  27.280  26.415  1.00  0.00     0.074 A 
ATOM     62  C   UNL A   1      44.611  25.949  25.857  1.00  0.00     0.031 C 
ATOM     63  C   UNL A   1      45.757  28.120  26.188  1.00  0.00     0.031 A 
BRANCH  50  64
ATOM     64  C   UNL A   1      45.160  33.621  28.930  1.00  0.00    -0.014 A 
ATOM     65  C   UNL A   1      46.015  33.897  30.008  1.00  0.00     0.009 A 
ATOM     66  C   UNL A   1      44.850  34.650  28.029  1.00  0.00     0.009 A 
ATOM     67  C   UNL A   1      46.519  35.186  30.197  1.00  0.00     0.001 A 
ATOM     68  C   UNL A   1      45.381  35.929  28.201  1.00  0.00     0.001 A 
ATOM     69  C   UNL A   1      46.207  36.198  29.290  1.00  0.00     0.000 A 
ENDBRANCH  50  64
BRANCH  51  70
ATOM     70  C   UNL A   1      40.922  24.709  27.460  1.00  0.00    -0.014 A 
ATOM     71  C   UNL A   1      41.533  23.549  27.963  1.00  0.00     0.009 A 
ATOM     72  C   UNL A   1      39.748  24.577  26.703  1.00  0.00     0.009 A 
ATOM     73  C   UNL A   1      40.999  22.287  27.686  1.00  0.00     0.001 A 
ATOM     74  C   UNL A   1      39.196  23.317  26.458  1.00  0.00     0.001 A 
ATOM     75  C   UNL A   1      39.828  22.173  26.939  1.00  0.00     0.000 A 
ENDBRANCH  51  70
BRANCH  63  76
ATOM     76  C   UNL A   1      46.890  27.611  25.337  1.00  0.00    -0.014 A 
ATOM     77  C   UNL A   1      47.906  26.803  25.870  1.00  0.00     0.009 A 
ATOM     78  C   UNL A   1      46.910  27.907  23.965  1.00  0.00     0.009 A 
ATOM     79  C   UNL A   1      48.937  26.333  25.054  1.00  0.00     0.001 A 
ATOM     80  C   UNL A   1      47.924  27.409  23.145  1.00  0.00     0.001 A 
ATOM     81  C   UNL A   1      48.942  26.632  23.691  1.00  0.00     0.000 A 
ENDBRANCH  63  76
ENDBRANCH  37  38
ENDBRANCH  30  32
ENDBRANCH  29  30
ENDBRANCH  28  29
ENDBRANCH  27  28
ENDBRANCH  26  27
ENDBRANCH  25  26
ENDBRANCH   1  25
TORSDOF 21
ENDMDL
MODEL 3
REMARK VINA RESULT:      -9.7      1.482      5.872
REMARK SMILES C[C@@H](C(=O)OCCOCCOCCOC(=O)c1ccc(-c2c3nc(c(-c4ccccc4)c4ccc([nH]4)c(-c4ccccc4)c4nc(c(-c5ccccc5)c5ccc2[nH]5)C=C4)C=C3)cc1)c1ccc(C[C@@H]2CCC[C@@H]2O)cc1F
REMARK SMILES IDX 9 1 8 2 7 3 6 4 5 5 3 6 4 7 2 8 1 9 65 10 66 11 77 12 67 13
REMARK SMILES IDX 76 14 78 15 68 16 69 17 70 18 71 19 74 20 72 21 73 22 75 23
REMARK SMILES IDX 10 25 11 26 12 27 13 28 14 29 15 30 16 31 17 32 18 33 64 34
REMARK SMILES IDX 19 35 63 36 20 37 21 38 22 39 57 40 23 41 62 42 56 43 58 44
REMARK SMILES IDX 24 45 61 46 55 47 54 48 25 50 47 51 32 52 46 53 33 54 36 55
REMARK SMILES IDX 45 56 59 57 34 58 35 59 44 61 60 62 37 63 26 64 27 65 31 66
REMARK SMILES IDX 28 67 30 68 29 69 48 70 49 71 53 72 50 73 52 74 51 75 38 76
REMARK SMILES IDX 39 77 43 78 40 79 42 80 41 81
REMARK H PARENT 75 24 58 49 36 60
REMARK Flexibility Score: inf
ROOT
ATOM      1  C   UNL A   1      33.133  29.427  24.846  1.00  0.00     0.188 C 
ENDROOT
BRANCH   1   2
ATOM      2  O   UNL A   1      33.337  28.023  24.747  1.00  0.00    -0.376 OA
BRANCH   2   3
ATOM      3  C   UNL A   1      33.695  27.307  25.930  1.00  0.00     0.202 C 
BRANCH   3   4
ATOM      4  C   UNL A   1      34.018  25.803  25.833  1.00  0.00     0.261 C 
BRANCH   4   5
ATOM      5  O   UNL A   1      32.856  24.947  25.808  1.00  0.00    -0.463 OA
BRANCH   5   6
ATOM      6  C   UNL A   1      32.816  23.988  24.846  1.00  0.00     0.313 C 
ATOM      7  O   UNL A   1      33.734  23.201  24.634  1.00  0.00    -0.252 OA
BRANCH   6   8
ATOM      8  C   UNL A   1      31.466  23.900  24.112  1.00  0.00     0.129 C 
ATOM      9  C   UNL A   1      31.401  22.730  23.117  1.00  0.00     0.025 C 
BRANCH   8  10
ATOM     10  C   UNL A   1      30.918  25.252  23.628  1.00  0.00     0.002 A 
ATOM     11  C   UNL A   1      31.410  25.853  22.455  1.00  0.00     0.008 A 
ATOM     12  C   UNL A   1      30.034  26.025  24.396  1.00  0.00     0.127 A 
ATOM     13  C   UNL A   1      31.075  27.166  22.100  1.00  0.00     0.004 A 
ATOM     14  C   UNL A   1      29.725  27.350  24.066  1.00  0.00     0.043 A 
ATOM     15  F   UNL A   1      29.491  25.530  25.516  1.00  0.00    -0.207 F 
ATOM     16  C   UNL A   1      30.293  27.957  22.943  1.00  0.00    -0.045 A 
BRANCH  16  17
ATOM     17  C   UNL A   1      30.134  29.438  22.697  1.00  0.00     0.041 C 
BRANCH  17  18
ATOM     18  C   UNL A   1      28.709  30.044  22.757  1.00  0.00     0.022 C 
ATOM     19  C   UNL A   1      27.955  30.091  21.422  1.00  0.00     0.007 C 
ATOM     20  C   UNL A   1      28.590  31.490  23.247  1.00  0.00     0.117 C 
ATOM     21  C   UNL A   1      28.116  31.515  20.878  1.00  0.00     0.003 C 
ATOM     22  C   UNL A   1      28.754  32.338  21.993  1.00  0.00     0.032 C 
BRANCH  20  23
ATOM     23  O   UNL A   1      29.526  31.829  24.248  1.00  0.00    -0.393 OA
ATOM     24  H   UNL A   1      30.148  32.485  23.899  1.00  0.00     0.210 HD
ENDBRANCH  20  23
ENDBRANCH  17  18
ENDBRANCH  16  17
ENDBRANCH   8  10
ENDBRANCH   6   8
ENDBRANCH   5   6
ENDBRANCH   4   5
ENDBRANCH   3   4
ENDBRANCH   2   3
ENDBRANCH   1   2
BRANCH   1  25
ATOM     25  C   UNL A   1      32.613  30.006  26.172  1.00  0.00     0.188 C 
BRANCH  25  26
ATOM     26  O   UNL A   1      31.601  30.974  26.030  1.00  0.00    -0.376 OA
BRANCH  26  27
ATOM     27  C   UNL A   1      31.556  32.067  26.928  1.00  0.00     0.202 C 
BRANCH  27  28
ATOM     28  C   UNL A   1      32.822  32.605  27.624  1.00  0.00     0.261 C 
BRANCH  28  29
ATOM     29  O   UNL A   1      33.093  34.012  27.526  1.00  0.00    -0.460 OA
BRANCH  29  30
ATOM     30  C   UNL A   1      33.295  34.687  28.680  1.00  0.00     0.338 C 
ATOM     31  O   UNL A   1      32.572  35.543  29.171  1.00  0.00    -0.246 OA
BRANCH  30  32
ATOM     32  C   UNL A   1      34.431  34.044  29.378  1.00  0.00     0.060 A 
ATOM     33  C   UNL A   1      35.736  34.272  28.915  1.00  0.00     0.016 A 
ATOM     34  C   UNL A   1      34.212  33.245  30.501  1.00  0.00     0.016 A 
ATOM     35  C   UNL A   1      36.824  33.686  29.564  1.00  0.00     0.010 A 
ATOM     36  C   UNL A   1      35.300  32.634  31.132  1.00  0.00     0.010 A 
ATOM     37  C   UNL A   1      36.607  32.829  30.651  1.00  0.00    -0.014 A 
BRANCH  37  38
ATOM     38  C   UNL A   1      37.714  31.986  31.164  1.00  0.00     0.031 A 
ATOM     39  C   UNL A   1      38.232  32.254  32.551  1.00  0.00     0.074 A 
ATOM     40  C   UNL A   1      38.259  31.005  30.422  1.00  0.00     0.049 A 
ATOM     41  N   UNL A   1      39.229  31.698  33.189  1.00  0.00    -0.248 NA
ATOM     42  C   UNL A   1      37.533  33.301  33.316  1.00  0.00     0.031 C 
ATOM     43  C   UNL A   1      37.831  30.622  29.080  1.00  0.00     0.029 A 
ATOM     44  N   UNL A   1      39.297  30.151  30.703  1.00  0.00    -0.354 N 
ATOM     45  C   UNL A   1      39.298  32.347  34.415  1.00  0.00     0.074 A 
ATOM     46  C   UNL A   1      38.251  33.345  34.427  1.00  0.00     0.031 C 
ATOM     47  C   UNL A   1      38.596  29.600  28.657  1.00  0.00     0.029 A 
ATOM     48  C   UNL A   1      39.588  29.282  29.682  1.00  0.00     0.049 A 
ATOM     49  H   UNL A   1      39.787  30.162  31.558  1.00  0.00     0.167 HD
ATOM     50  C   UNL A   1      40.162  32.139  35.437  1.00  0.00     0.031 A 
ATOM     51  C   UNL A   1      40.554  28.345  29.581  1.00  0.00     0.031 A 
ATOM     52  C   UNL A   1      41.213  31.159  35.421  1.00  0.00     0.049 A 
ATOM     53  C   UNL A   1      41.539  28.173  30.711  1.00  0.00     0.074 A 
ATOM     54  C   UNL A   1      42.131  30.866  36.415  1.00  0.00     0.029 A 
ATOM     55  N   UNL A   1      41.495  30.319  34.355  1.00  0.00    -0.354 N 
ATOM     56  N   UNL A   1      41.580  28.775  31.876  1.00  0.00    -0.248 NA
ATOM     57  C   UNL A   1      42.619  27.195  30.505  1.00  0.00     0.031 C 
ATOM     58  C   UNL A   1      43.010  29.896  35.925  1.00  0.00     0.029 A 
ATOM     59  C   UNL A   1      42.592  29.530  34.655  1.00  0.00     0.049 A 
ATOM     60  H   UNL A   1      40.990  30.290  33.510  1.00  0.00     0.167 HD
ATOM     61  C   UNL A   1      42.671  28.233  32.547  1.00  0.00     0.074 A 
ATOM     62  C   UNL A   1      43.249  27.237  31.671  1.00  0.00     0.031 C 
ATOM     63  C   UNL A   1      43.156  28.538  33.777  1.00  0.00     0.031 A 
BRANCH  50  64
ATOM     64  C   UNL A   1      40.037  33.033  36.640  1.00  0.00    -0.014 A 
ATOM     65  C   UNL A   1      39.164  32.728  37.696  1.00  0.00     0.009 A 
ATOM     66  C   UNL A   1      40.831  34.187  36.727  1.00  0.00     0.009 A 
ATOM     67  C   UNL A   1      39.065  33.581  38.798  1.00  0.00     0.001 A 
ATOM     68  C   UNL A   1      40.754  35.019  37.844  1.00  0.00     0.001 A 
ATOM     69  C   UNL A   1      39.864  34.721  38.874  1.00  0.00     0.000 A 
ENDBRANCH  50  64
BRANCH  51  70
ATOM     70  C   UNL A   1      40.666  27.505  28.358  1.00  0.00    -0.014 A 
ATOM     71  C   UNL A   1      41.366  27.971  27.233  1.00  0.00     0.009 A 
ATOM     72  C   UNL A   1      40.042  26.250  28.291  1.00  0.00     0.009 A 
ATOM     73  C   UNL A   1      41.411  27.211  26.060  1.00  0.00     0.001 A 
ATOM     74  C   UNL A   1      40.119  25.478  27.130  1.00  0.00     0.001 A 
ATOM     75  C   UNL A   1      40.792  25.963  26.012  1.00  0.00     0.000 A 
ENDBRANCH  51  70
BRANCH  63  76
ATOM     76  C   UNL A   1      44.344  27.755  34.271  1.00  0.00    -0.014 A 
ATOM     77  C   UNL A   1      44.190  26.577  35.018  1.00  0.00     0.009 A 
ATOM     78  C   UNL A   1      45.639  28.181  33.938  1.00  0.00     0.009 A 
ATOM     79  C   UNL A   1      45.310  25.863  35.451  1.00  0.00     0.001 A 
ATOM     80  C   UNL A   1      46.756  27.448  34.344  1.00  0.00     0.001 A 
ATOM     81  C   UNL A   1      46.591  26.296  35.109  1.00  0.00     0.000 A 
ENDBRANCH  63  76
ENDBRANCH  37  38
ENDBRANCH  30  32
ENDBRANCH  29  30
ENDBRANCH  28  29
ENDBRANCH  27  28
ENDBRANCH  26  27
ENDBRANCH  25  26
ENDBRANCH   1  25
TORSDOF 21
ENDMDL
