MODEL 1
REMARK VINA RESULT:      -9.8      0.000      0.000
REMARK SMILES O=C(OCCOCCOCCOC(=O)[C@H](c1ccc(Cl)cc1)[NH+]1CCCCC1)c1ccc(-c2c3nc(c(-c4ccccc4)c4ccc([nH]4)c(-c4ccccc4)c4nc(c(-c5ccccc5)c5ccc2[nH]5)C=C4)C=C3)cc1
REMARK SMILES IDX 7 1 6 2 5 3 4 4 3 5 2 6 1 7 29 8 30 9 76 10 31 11 75 12
REMARK SMILES IDX 32 13 33 14 34 15 69 16 35 17 74 18 68 19 70 20 36 21 73 22
REMARK SMILES IDX 67 23 66 24 37 26 59 27 44 28 58 29 45 30 48 31 57 32 71 33
REMARK SMILES IDX 46 34 47 35 56 37 72 38 49 39 38 40 39 41 43 42 40 43 42 44
REMARK SMILES IDX 41 45 60 46 61 47 65 48 62 49 64 50 63 51 50 52 51 53 55 54
REMARK SMILES IDX 52 55 54 56 53 57 8 58 9 59 10 60 11 61 12 62 13 63 14 64
REMARK SMILES IDX 15 65 23 66 24 67 28 68 25 70 27 71 26 72 16 73 17 74 22 75
REMARK SMILES IDX 18 76 21 77 19 78 20 79
REMARK H PARENT 70 25 48 36 23 69
REMARK Flexibility Score: inf
ROOT
ATOM      1  C   UNL A   1      35.543  21.409  25.541  1.00  0.00     0.188 C 
ENDROOT
BRANCH   1   2
ATOM      2  O   UNL A   1      36.786  21.670  24.886  1.00  0.00    -0.376 OA
BRANCH   2   3
ATOM      3  C   UNL A   1      37.670  20.550  24.843  1.00  0.00     0.202 C 
BRANCH   3   4
ATOM      4  C   UNL A   1      38.791  20.568  25.893  1.00  0.00     0.261 C 
BRANCH   4   5
ATOM      5  O   UNL A   1      39.819  19.592  25.649  1.00  0.00    -0.460 OA
BRANCH   5   6
ATOM      6  C   UNL A   1      41.120  19.667  26.009  1.00  0.00     0.338 C 
ATOM      7  O   UNL A   1      41.832  18.657  25.898  1.00  0.00    -0.246 OA
BRANCH   6   8
ATOM      8  C   UNL A   1      41.758  20.922  26.487  1.00  0.00     0.060 A 
ATOM      9  C   UNL A   1      42.070  21.185  27.822  1.00  0.00     0.016 A 
ATOM     10  C   UNL A   1      42.147  21.862  25.527  1.00  0.00     0.016 A 
ATOM     11  C   UNL A   1      42.630  22.392  28.220  1.00  0.00     0.010 A 
ATOM     12  C   UNL A   1      42.805  23.036  25.908  1.00  0.00     0.010 A 
ATOM     13  C   UNL A   1      43.015  23.326  27.267  1.00  0.00    -0.014 A 
BRANCH  13  14
ATOM     14  C   UNL A   1      43.536  24.648  27.689  1.00  0.00     0.031 A 
ATOM     15  C   UNL A   1      42.540  25.694  28.095  1.00  0.00     0.074 A 
ATOM     16  C   UNL A   1      44.858  24.902  27.738  1.00  0.00     0.049 A 
ATOM     17  N   UNL A   1      42.725  26.961  28.342  1.00  0.00    -0.248 NA
ATOM     18  C   UNL A   1      41.146  25.243  28.248  1.00  0.00     0.031 C 
ATOM     19  C   UNL A   1      45.924  23.927  27.517  1.00  0.00     0.029 A 
ATOM     20  N   UNL A   1      45.536  26.071  27.973  1.00  0.00    -0.354 N 
ATOM     21  C   UNL A   1      41.467  27.463  28.652  1.00  0.00     0.074 A 
ATOM     22  C   UNL A   1      40.523  26.379  28.514  1.00  0.00     0.031 C 
ATOM     23  C   UNL A   1      47.115  24.545  27.545  1.00  0.00     0.029 A 
ATOM     24  C   UNL A   1      46.895  25.964  27.784  1.00  0.00     0.049 A 
ATOM     25  H   UNL A   1      45.093  26.906  28.250  1.00  0.00     0.167 HD
ATOM     26  C   UNL A   1      41.135  28.714  29.043  1.00  0.00     0.031 A 
ATOM     27  C   UNL A   1      47.850  26.910  27.780  1.00  0.00     0.031 A 
ATOM     28  C   UNL A   1      42.093  29.771  29.196  1.00  0.00     0.049 A 
ATOM     29  C   UNL A   1      47.446  28.320  28.099  1.00  0.00     0.074 A 
ATOM     30  C   UNL A   1      41.883  31.078  29.590  1.00  0.00     0.029 A 
ATOM     31  N   UNL A   1      43.453  29.630  28.960  1.00  0.00    -0.354 N 
ATOM     32  N   UNL A   1      46.253  28.787  28.385  1.00  0.00    -0.248 NA
ATOM     33  C   UNL A   1      48.513  29.328  28.121  1.00  0.00     0.031 C 
ATOM     34  C   UNL A   1      43.114  31.741  29.548  1.00  0.00     0.029 A 
ATOM     35  C   UNL A   1      44.095  30.834  29.176  1.00  0.00     0.049 A 
ATOM     36  H   UNL A   1      43.895  28.796  28.680  1.00  0.00     0.167 HD
ATOM     37  C   UNL A   1      46.431  30.133  28.664  1.00  0.00     0.074 A 
ATOM     38  C   UNL A   1      47.847  30.406  28.514  1.00  0.00     0.031 C 
ATOM     39  C   UNL A   1      45.510  31.060  29.024  1.00  0.00     0.031 A 
BRANCH  26  40
ATOM     40  C   UNL A   1      39.678  28.981  29.285  1.00  0.00    -0.014 A 
ATOM     41  C   UNL A   1      39.092  28.768  30.544  1.00  0.00     0.009 A 
ATOM     42  C   UNL A   1      38.866  29.401  28.222  1.00  0.00     0.009 A 
ATOM     43  C   UNL A   1      37.714  28.918  30.719  1.00  0.00     0.001 A 
ATOM     44  C   UNL A   1      37.494  29.580  28.406  1.00  0.00     0.001 A 
ATOM     45  C   UNL A   1      36.918  29.324  29.650  1.00  0.00     0.000 A 
ENDBRANCH  26  40
BRANCH  27  46
ATOM     46  C   UNL A   1      49.260  26.559  27.459  1.00  0.00    -0.014 A 
ATOM     47  C   UNL A   1      50.148  26.140  28.460  1.00  0.00     0.009 A 
ATOM     48  C   UNL A   1      49.729  26.650  26.137  1.00  0.00     0.009 A 
ATOM     49  C   UNL A   1      51.480  25.850  28.152  1.00  0.00     0.001 A 
ATOM     50  C   UNL A   1      51.055  26.336  25.827  1.00  0.00     0.001 A 
ATOM     51  C   UNL A   1      51.931  25.945  26.836  1.00  0.00     0.000 A 
ENDBRANCH  27  46
BRANCH  39  52
ATOM     52  C   UNL A   1      46.018  32.438  29.320  1.00  0.00    -0.014 A 
ATOM     53  C   UNL A   1      46.470  32.786  30.600  1.00  0.00     0.009 A 
ATOM     54  C   UNL A   1      46.104  33.379  28.281  1.00  0.00     0.009 A 
ATOM     55  C   UNL A   1      46.979  34.062  30.842  1.00  0.00     0.001 A 
ATOM     56  C   UNL A   1      46.641  34.643  28.518  1.00  0.00     0.001 A 
ATOM     57  C   UNL A   1      47.072  34.985  29.798  1.00  0.00     0.000 A 
ENDBRANCH  39  52
ENDBRANCH  13  14
ENDBRANCH   6   8
ENDBRANCH   5   6
ENDBRANCH   4   5
ENDBRANCH   3   4
ENDBRANCH   2   3
ENDBRANCH   1   2
BRANCH   1  58
ATOM     58  C   UNL A   1      34.393  21.381  24.538  1.00  0.00     0.188 C 
BRANCH  58  59
ATOM     59  O   UNL A   1      33.078  21.493  25.074  1.00  0.00    -0.376 OA
BRANCH  59  60
ATOM     60  C   UNL A   1      32.944  22.029  26.382  1.00  0.00     0.202 C 
BRANCH  60  61
ATOM     61  C   UNL A   1      31.610  22.671  26.809  1.00  0.00     0.261 C 
BRANCH  61  62
ATOM     62  O   UNL A   1      31.611  23.987  27.396  1.00  0.00    -0.459 OA
BRANCH  62  63
ATOM     63  C   UNL A   1      31.212  24.971  26.531  1.00  0.00     0.369 C 
ATOM     64  O   UNL A   1      30.023  25.210  26.300  1.00  0.00    -0.245 OA
BRANCH  63  65
ATOM     65  C   UNL A   1      32.415  25.669  25.814  1.00  0.00     0.326 C 
BRANCH  65  66
ATOM     66  N   UNL A   1      32.140  25.720  24.346  1.00  0.00    -0.319 N 
ATOM     67  C   UNL A   1      31.907  27.051  23.775  1.00  0.00     0.263 C 
ATOM     68  C   UNL A   1      33.152  25.025  23.533  1.00  0.00     0.263 C 
ATOM     69  H   UNL A   1      31.253  25.219  24.296  1.00  0.00     0.349 HD
ATOM     70  C   UNL A   1      31.294  26.906  22.379  1.00  0.00     0.062 C 
ATOM     71  C   UNL A   1      32.527  24.718  22.174  1.00  0.00     0.062 C 
ATOM     72  C   UNL A   1      32.118  26.003  21.465  1.00  0.00     0.012 C 
ENDBRANCH  65  66
BRANCH  65  73
ATOM     73  C   UNL A   1      32.687  27.072  26.374  1.00  0.00     0.021 A 
ATOM     74  C   UNL A   1      31.660  27.908  26.836  1.00  0.00     0.012 A 
ATOM     75  C   UNL A   1      33.980  27.621  26.272  1.00  0.00     0.012 A 
ATOM     76  C   UNL A   1      31.928  29.226  27.229  1.00  0.00     0.021 A 
ATOM     77  C   UNL A   1      34.246  28.940  26.640  1.00  0.00     0.021 A 
ATOM     78  C   UNL A   1      33.216  29.737  27.125  1.00  0.00     0.041 A 
ATOM     79  Cl  UNL A   1      33.538  31.372  27.557  1.00  0.00    -0.084 Cl
ENDBRANCH  65  73
ENDBRANCH  63  65
ENDBRANCH  62  63
ENDBRANCH  61  62
ENDBRANCH  60  61
ENDBRANCH  59  60
ENDBRANCH  58  59
ENDBRANCH   1  58
TORSDOF 19
ENDMDL
MODEL 2
REMARK VINA RESULT:      -9.7      1.762      2.607
REMARK SMILES O=C(OCCOCCOCCOC(=O)[C@H](c1ccc(Cl)cc1)[NH+]1CCCCC1)c1ccc(-c2c3nc(c(-c4ccccc4)c4ccc([nH]4)c(-c4ccccc4)c4nc(c(-c5ccccc5)c5ccc2[nH]5)C=C4)C=C3)cc1
REMARK SMILES IDX 7 1 6 2 5 3 4 4 3 5 2 6 1 7 29 8 30 9 76 10 31 11 75 12
REMARK SMILES IDX 32 13 33 14 34 15 69 16 35 17 74 18 68 19 70 20 36 21 73 22
REMARK SMILES IDX 67 23 66 24 37 26 59 27 44 28 58 29 45 30 48 31 57 32 71 33
REMARK SMILES IDX 46 34 47 35 56 37 72 38 49 39 38 40 39 41 43 42 40 43 42 44
REMARK SMILES IDX 41 45 60 46 61 47 65 48 62 49 64 50 63 51 50 52 51 53 55 54
REMARK SMILES IDX 52 55 54 56 53 57 8 58 9 59 10 60 11 61 12 62 13 63 14 64
REMARK SMILES IDX 15 65 23 66 24 67 28 68 25 70 27 71 26 72 16 73 17 74 22 75
REMARK SMILES IDX 18 76 21 77 19 78 20 79
REMARK H PARENT 70 25 48 36 23 69
REMARK Flexibility Score: inf
ROOT
ATOM      1  C   UNL A   1      32.618  19.656  25.082  1.00  0.00     0.188 C 
ENDROOT
BRANCH   1   2
ATOM      2  O   UNL A   1      34.023  19.434  24.952  1.00  0.00    -0.376 OA
BRANCH   2   3
ATOM      3  C   UNL A   1      34.817  20.613  25.081  1.00  0.00     0.202 C 
BRANCH   3   4
ATOM      4  C   UNL A   1      36.333  20.387  24.999  1.00  0.00     0.261 C 
BRANCH   4   5
ATOM      5  O   UNL A   1      37.105  21.535  25.393  1.00  0.00    -0.460 OA
BRANCH   5   6
ATOM      6  C   UNL A   1      38.379  21.547  25.848  1.00  0.00     0.338 C 
ATOM      7  O   UNL A   1      39.025  20.488  25.851  1.00  0.00    -0.246 OA
BRANCH   6   8
ATOM      8  C   UNL A   1      39.066  22.785  26.301  1.00  0.00     0.060 A 
ATOM      9  C   UNL A   1      38.624  24.078  26.015  1.00  0.00     0.016 A 
ATOM     10  C   UNL A   1      40.176  22.644  27.142  1.00  0.00     0.016 A 
ATOM     11  C   UNL A   1      39.327  25.202  26.430  1.00  0.00     0.010 A 
ATOM     12  C   UNL A   1      40.829  23.772  27.650  1.00  0.00     0.010 A 
ATOM     13  C   UNL A   1      40.429  25.063  27.263  1.00  0.00    -0.014 A 
BRANCH  13  14
ATOM     14  C   UNL A   1      41.230  26.250  27.641  1.00  0.00     0.031 A 
ATOM     15  C   UNL A   1      40.574  27.293  28.498  1.00  0.00     0.074 A 
ATOM     16  C   UNL A   1      42.514  26.386  27.258  1.00  0.00     0.049 A 
ATOM     17  N   UNL A   1      40.996  28.482  28.825  1.00  0.00    -0.248 NA
ATOM     18  C   UNL A   1      39.263  26.937  29.070  1.00  0.00     0.031 C 
ATOM     19  C   UNL A   1      43.308  25.377  26.557  1.00  0.00     0.029 A 
ATOM     20  N   UNL A   1      43.381  27.441  27.389  1.00  0.00    -0.354 N 
ATOM     21  C   UNL A   1      39.991  29.026  29.614  1.00  0.00     0.074 A 
ATOM     22  C   UNL A   1      38.920  28.060  29.678  1.00  0.00     0.031 C 
ATOM     23  C   UNL A   1      44.511  25.884  26.246  1.00  0.00     0.029 A 
ATOM     24  C   UNL A   1      44.572  27.257  26.726  1.00  0.00     0.049 A 
ATOM     25  H   UNL A   1      43.170  28.252  27.906  1.00  0.00     0.167 HD
ATOM     26  C   UNL A   1      39.977  30.218  30.253  1.00  0.00     0.031 A 
ATOM     27  C   UNL A   1      45.589  28.111  26.510  1.00  0.00     0.031 A 
ATOM     28  C   UNL A   1      41.062  31.154  30.195  1.00  0.00     0.049 A 
ATOM     29  C   UNL A   1      45.504  29.477  27.126  1.00  0.00     0.074 A 
ATOM     30  C   UNL A   1      41.171  32.391  30.801  1.00  0.00     0.029 A 
ATOM     31  N   UNL A   1      42.235  30.945  29.484  1.00  0.00    -0.354 N 
ATOM     32  N   UNL A   1      44.547  29.985  27.866  1.00  0.00    -0.248 NA
ATOM     33  C   UNL A   1      46.641  30.377  26.903  1.00  0.00     0.031 C 
ATOM     34  C   UNL A   1      42.395  32.951  30.416  1.00  0.00     0.029 A 
ATOM     35  C   UNL A   1      43.067  32.041  29.614  1.00  0.00     0.049 A 
ATOM     36  H   UNL A   1      42.445  30.135  28.963  1.00  0.00     0.167 HD
ATOM     37  C   UNL A   1      44.984  31.248  28.235  1.00  0.00     0.074 A 
ATOM     38  C   UNL A   1      46.293  31.426  27.637  1.00  0.00     0.031 C 
ATOM     39  C   UNL A   1      44.367  32.174  29.008  1.00  0.00     0.031 A 
BRANCH  26  40
ATOM     40  C   UNL A   1      38.733  30.559  31.020  1.00  0.00    -0.014 A 
ATOM     41  C   UNL A   1      37.637  31.181  30.399  1.00  0.00     0.009 A 
ATOM     42  C   UNL A   1      38.678  30.304  32.397  1.00  0.00     0.009 A 
ATOM     43  C   UNL A   1      36.533  31.588  31.153  1.00  0.00     0.001 A 
ATOM     44  C   UNL A   1      37.561  30.685  33.144  1.00  0.00     0.001 A 
ATOM     45  C   UNL A   1      36.497  31.340  32.524  1.00  0.00     0.000 A 
ENDBRANCH  26  40
BRANCH  27  46
ATOM     46  C   UNL A   1      46.751  27.705  25.675  1.00  0.00    -0.014 A 
ATOM     47  C   UNL A   1      46.729  27.856  24.281  1.00  0.00     0.009 A 
ATOM     48  C   UNL A   1      47.897  27.152  26.274  1.00  0.00     0.009 A 
ATOM     49  C   UNL A   1      47.812  27.435  23.503  1.00  0.00     0.001 A 
ATOM     50  C   UNL A   1      48.988  26.756  25.497  1.00  0.00     0.001 A 
ATOM     51  C   UNL A   1      48.940  26.889  24.111  1.00  0.00     0.000 A 
ENDBRANCH  27  46
BRANCH  39  52
ATOM     52  C   UNL A   1      45.123  33.439  29.281  1.00  0.00    -0.014 A 
ATOM     53  C   UNL A   1      46.008  33.536  30.363  1.00  0.00     0.009 A 
ATOM     54  C   UNL A   1      44.991  34.524  28.400  1.00  0.00     0.009 A 
ATOM     55  C   UNL A   1      46.733  34.709  30.572  1.00  0.00     0.001 A 
ATOM     56  C   UNL A   1      45.739  35.684  28.593  1.00  0.00     0.001 A 
ATOM     57  C   UNL A   1      46.604  35.778  29.682  1.00  0.00     0.000 A 
ENDBRANCH  39  52
ENDBRANCH  13  14
ENDBRANCH   6   8
ENDBRANCH   5   6
ENDBRANCH   4   5
ENDBRANCH   3   4
ENDBRANCH   2   3
ENDBRANCH   1   2
BRANCH   1  58
ATOM     58  C   UNL A   1      32.298  21.148  25.067  1.00  0.00     0.188 C 
BRANCH  58  59
ATOM     59  O   UNL A   1      30.945  21.512  25.322  1.00  0.00    -0.376 OA
BRANCH  59  60
ATOM     60  C   UNL A   1      30.706  22.512  26.303  1.00  0.00     0.202 C 
BRANCH  60  61
ATOM     61  C   UNL A   1      31.856  23.440  26.740  1.00  0.00     0.261 C 
BRANCH  61  62
ATOM     62  O   UNL A   1      31.553  24.752  27.253  1.00  0.00    -0.459 OA
BRANCH  62  63
ATOM     63  C   UNL A   1      31.325  25.681  26.273  1.00  0.00     0.369 C 
ATOM     64  O   UNL A   1      30.204  25.883  25.796  1.00  0.00    -0.245 OA
BRANCH  63  65
ATOM     65  C   UNL A   1      32.639  26.368  25.774  1.00  0.00     0.326 C 
BRANCH  65  66
ATOM     66  N   UNL A   1      32.618  26.427  24.282  1.00  0.00    -0.319 N 
ATOM     67  C   UNL A   1      33.636  27.276  23.652  1.00  0.00     0.263 C 
ATOM     68  C   UNL A   1      32.641  25.102  23.639  1.00  0.00     0.263 C 
ATOM     69  H   UNL A   1      31.718  26.876  24.116  1.00  0.00     0.349 HD
ATOM     70  C   UNL A   1      33.263  27.515  22.185  1.00  0.00     0.062 C 
ATOM     71  C   UNL A   1      32.125  25.267  22.212  1.00  0.00     0.062 C 
ATOM     72  C   UNL A   1      33.015  26.218  21.421  1.00  0.00     0.012 C 
ENDBRANCH  65  66
BRANCH  65  73
ATOM     73  C   UNL A   1      32.828  27.766  26.380  1.00  0.00     0.021 A 
ATOM     74  C   UNL A   1      31.788  28.705  26.438  1.00  0.00     0.012 A 
ATOM     75  C   UNL A   1      34.119  28.198  26.739  1.00  0.00     0.012 A 
ATOM     76  C   UNL A   1      32.023  30.011  26.887  1.00  0.00     0.021 A 
ATOM     77  C   UNL A   1      34.362  29.505  27.164  1.00  0.00     0.021 A 
ATOM     78  C   UNL A   1      33.308  30.407  27.243  1.00  0.00     0.041 A 
ATOM     79  Cl  UNL A   1      33.610  32.025  27.744  1.00  0.00    -0.084 Cl
ENDBRANCH  65  73
ENDBRANCH  63  65
ENDBRANCH  62  63
ENDBRANCH  61  62
ENDBRANCH  60  61
ENDBRANCH  59  60
ENDBRANCH  58  59
ENDBRANCH   1  58
TORSDOF 19
ENDMDL
MODEL 3
REMARK VINA RESULT:      -9.6      6.136     10.520
REMARK SMILES O=C(OCCOCCOCCOC(=O)[C@H](c1ccc(Cl)cc1)[NH+]1CCCCC1)c1ccc(-c2c3nc(c(-c4ccccc4)c4ccc([nH]4)c(-c4ccccc4)c4nc(c(-c5ccccc5)c5ccc2[nH]5)C=C4)C=C3)cc1
REMARK SMILES IDX 7 1 6 2 5 3 4 4 3 5 2 6 1 7 29 8 30 9 76 10 31 11 75 12
REMARK SMILES IDX 32 13 33 14 34 15 69 16 35 17 74 18 68 19 70 20 36 21 73 22
REMARK SMILES IDX 67 23 66 24 37 26 59 27 44 28 58 29 45 30 48 31 57 32 71 33
REMARK SMILES IDX 46 34 47 35 56 37 72 38 49 39 38 40 39 41 43 42 40 43 42 44
REMARK SMILES IDX 41 45 60 46 61 47 65 48 62 49 64 50 63 51 50 52 51 53 55 54
REMARK SMILES IDX 52 55 54 56 53 57 8 58 9 59 10 60 11 61 12 62 13 63 14 64
REMARK SMILES IDX 15 65 23 66 24 67 28 68 25 70 27 71 26 72 16 73 17 74 22 75
REMARK SMILES IDX 18 76 21 77 19 78 20 79
REMARK H PARENT 70 25 48 36 23 69
REMARK Flexibility Score: inf
ROOT
ATOM      1  C   UNL A   1      35.115  33.343  28.186  1.00  0.00     0.188 C 
ENDROOT
BRANCH   1   2
ATOM      2  O   UNL A   1      34.510  34.629  28.033  1.00  0.00    -0.376 OA
BRANCH   2   3
ATOM      3  C   UNL A   1      33.232  34.752  28.655  1.00  0.00     0.202 C 
BRANCH   3   4
ATOM      4  C   UNL A   1      32.972  36.101  29.340  1.00  0.00     0.261 C 
BRANCH   4   5
ATOM      5  O   UNL A   1      32.124  36.001  30.498  1.00  0.00    -0.460 OA
BRANCH   5   6
ATOM      6  C   UNL A   1      32.512  35.922  31.792  1.00  0.00     0.338 C 
ATOM      7  O   UNL A   1      31.813  36.466  32.661  1.00  0.00    -0.246 OA
BRANCH   6   8
ATOM      8  C   UNL A   1      33.715  35.168  32.233  1.00  0.00     0.060 A 
ATOM      9  C   UNL A   1      35.001  35.706  32.291  1.00  0.00     0.016 A 
ATOM     10  C   UNL A   1      33.529  33.862  32.701  1.00  0.00     0.016 A 
ATOM     11  C   UNL A   1      36.098  34.944  32.673  1.00  0.00     0.010 A 
ATOM     12  C   UNL A   1      34.613  33.122  33.185  1.00  0.00     0.010 A 
ATOM     13  C   UNL A   1      35.915  33.648  33.137  1.00  0.00    -0.014 A 
BRANCH  13  14
ATOM     14  C   UNL A   1      37.087  32.804  33.466  1.00  0.00     0.031 A 
ATOM     15  C   UNL A   1      37.795  33.066  34.763  1.00  0.00     0.074 A 
ATOM     16  C   UNL A   1      37.494  31.813  32.650  1.00  0.00     0.049 A 
ATOM     17  N   UNL A   1      38.926  32.586  35.201  1.00  0.00    -0.248 NA
ATOM     18  C   UNL A   1      37.128  33.993  35.694  1.00  0.00     0.031 C 
ATOM     19  C   UNL A   1      36.803  31.362  31.443  1.00  0.00     0.029 A 
ATOM     20  N   UNL A   1      38.606  31.011  32.701  1.00  0.00    -0.354 N 
ATOM     21  C   UNL A   1      39.119  33.174  36.444  1.00  0.00     0.074 A 
ATOM     22  C   UNL A   1      38.018  34.081  36.669  1.00  0.00     0.031 C 
ATOM     23  C   UNL A   1      37.539  30.425  30.824  1.00  0.00     0.029 A 
ATOM     24  C   UNL A   1      38.757  30.212  31.591  1.00  0.00     0.049 A 
ATOM     25  H   UNL A   1      39.235  31.008  33.458  1.00  0.00     0.167 HD
ATOM     26  C   UNL A   1      40.115  32.955  37.331  1.00  0.00     0.031 A 
ATOM     27  C   UNL A   1      39.777  29.416  31.223  1.00  0.00     0.031 A 
ATOM     28  C   UNL A   1      41.188  32.032  37.097  1.00  0.00     0.049 A 
ATOM     29  C   UNL A   1      40.936  29.276  32.167  1.00  0.00     0.074 A 
ATOM     30  C   UNL A   1      42.253  31.718  37.919  1.00  0.00     0.029 A 
ATOM     31  N   UNL A   1      41.323  31.270  35.946  1.00  0.00    -0.354 N 
ATOM     32  N   UNL A   1      41.113  29.841  33.338  1.00  0.00    -0.248 NA
ATOM     33  C   UNL A   1      42.020  28.376  31.758  1.00  0.00     0.031 C 
ATOM     34  C   UNL A   1      43.060  30.796  37.241  1.00  0.00     0.029 A 
ATOM     35  C   UNL A   1      42.469  30.501  36.021  1.00  0.00     0.049 A 
ATOM     36  H   UNL A   1      40.696  31.276  35.187  1.00  0.00     0.167 HD
ATOM     37  C   UNL A   1      42.306  29.332  33.827  1.00  0.00     0.074 A 
ATOM     38  C   UNL A   1      42.808  28.412  32.825  1.00  0.00     0.031 C 
ATOM     39  C   UNL A   1      42.927  29.591  35.004  1.00  0.00     0.031 A 
BRANCH  26  40
ATOM     40  C   UNL A   1      40.083  33.763  38.596  1.00  0.00    -0.014 A 
ATOM     41  C   UNL A   1      39.476  33.272  39.764  1.00  0.00     0.009 A 
ATOM     42  C   UNL A   1      40.621  35.057  38.603  1.00  0.00     0.009 A 
ATOM     43  C   UNL A   1      39.360  34.083  40.896  1.00  0.00     0.001 A 
ATOM     44  C   UNL A   1      40.532  35.855  39.745  1.00  0.00     0.001 A 
ATOM     45  C   UNL A   1      39.889  35.373  40.885  1.00  0.00     0.000 A 
ENDBRANCH  26  40
BRANCH  27  46
ATOM     46  C   UNL A   1      39.750  28.710  29.915  1.00  0.00    -0.014 A 
ATOM     47  C   UNL A   1      40.174  29.347  28.740  1.00  0.00     0.009 A 
ATOM     48  C   UNL A   1      39.288  27.384  29.833  1.00  0.00     0.009 A 
ATOM     49  C   UNL A   1      40.108  28.686  27.510  1.00  0.00     0.001 A 
ATOM     50  C   UNL A   1      39.247  26.717  28.607  1.00  0.00     0.001 A 
ATOM     51  C   UNL A   1      39.648  27.372  27.444  1.00  0.00     0.000 A 
ENDBRANCH  27  46
BRANCH  39  52
ATOM     52  C   UNL A   1      44.192  28.835  35.280  1.00  0.00    -0.014 A 
ATOM     53  C   UNL A   1      45.443  29.365  34.940  1.00  0.00     0.009 A 
ATOM     54  C   UNL A   1      44.125  27.603  35.951  1.00  0.00     0.009 A 
ATOM     55  C   UNL A   1      46.609  28.663  35.246  1.00  0.00     0.001 A 
ATOM     56  C   UNL A   1      45.292  26.918  36.282  1.00  0.00     0.001 A 
ATOM     57  C   UNL A   1      46.532  27.445  35.924  1.00  0.00     0.000 A 
ENDBRANCH  39  52
ENDBRANCH  13  14
ENDBRANCH   6   8
ENDBRANCH   5   6
ENDBRANCH   4   5
ENDBRANCH   3   4
ENDBRANCH   2   3
ENDBRANCH   1   2
BRANCH   1  58
ATOM     58  C   UNL A   1      34.055  32.261  28.377  1.00  0.00     0.188 C 
BRANCH  58  59
ATOM     59  O   UNL A   1      34.323  30.996  27.782  1.00  0.00    -0.376 OA
BRANCH  59  60
ATOM     60  C   UNL A   1      33.364  30.482  26.869  1.00  0.00     0.202 C 
BRANCH  60  61
ATOM     61  C   UNL A   1      32.582  29.203  27.225  1.00  0.00     0.261 C 
BRANCH  61  62
ATOM     62  O   UNL A   1      31.952  28.441  26.177  1.00  0.00    -0.459 OA
BRANCH  62  63
ATOM     63  C   UNL A   1      32.826  27.661  25.469  1.00  0.00     0.369 C 
ATOM     64  O   UNL A   1      34.021  27.564  25.765  1.00  0.00    -0.245 OA
BRANCH  63  65
ATOM     65  C   UNL A   1      32.167  27.003  24.211  1.00  0.00     0.326 C 
BRANCH  65  66
ATOM     66  N   UNL A   1      31.612  25.671  24.597  1.00  0.00    -0.319 N 
ATOM     67  C   UNL A   1      31.737  24.602  23.599  1.00  0.00     0.263 C 
ATOM     68  C   UNL A   1      32.114  25.174  25.889  1.00  0.00     0.263 C 
ATOM     69  H   UNL A   1      30.618  25.887  24.672  1.00  0.00     0.349 HD
ATOM     70  C   UNL A   1      30.822  23.436  23.984  1.00  0.00     0.062 C 
ATOM     71  C   UNL A   1      31.139  24.111  26.390  1.00  0.00     0.062 C 
ATOM     72  C   UNL A   1      31.058  22.948  25.410  1.00  0.00     0.012 C 
ENDBRANCH  65  66
BRANCH  65  73
ATOM     73  C   UNL A   1      31.082  27.896  23.593  1.00  0.00     0.021 A 
ATOM     74  C   UNL A   1      29.716  27.600  23.701  1.00  0.00     0.012 A 
ATOM     75  C   UNL A   1      31.456  28.955  22.744  1.00  0.00     0.012 A 
ATOM     76  C   UNL A   1      28.758  28.368  23.025  1.00  0.00     0.021 A 
ATOM     77  C   UNL A   1      30.507  29.707  22.051  1.00  0.00     0.021 A 
ATOM     78  C   UNL A   1      29.157  29.413  22.200  1.00  0.00     0.041 A 
ATOM     79  Cl  UNL A   1      27.987  30.325  21.327  1.00  0.00    -0.084 Cl
ENDBRANCH  65  73
ENDBRANCH  63  65
ENDBRANCH  62  63
ENDBRANCH  61  62
ENDBRANCH  60  61
ENDBRANCH  59  60
ENDBRANCH  58  59
ENDBRANCH   1  58
TORSDOF 19
ENDMDL
