MODEL 1
REMARK VINA RESULT:      -9.3      0.000      0.000
REMARK SMILES Cc1nnc(S[C@@H](C)CCO)c(C(=O)OCCOCCOCCOC(=O)c2ccc(-c3c4nc(c(-c5ccccc5)c5ccc([nH]5)c(-c5ccccc5)c5nc(c(-c6ccccc6)c6ccc3[nH]6)C=C5)C=C4)cc2)c1C
REMARK SMILES IDX 18 1 17 2 16 3 15 4 13 5 14 6 12 7 1 8 2 9 3 10 75 11 4 12
REMARK SMILES IDX 76 13 5 14 6 15 7 16 8 17 9 18 10 19 11 20 19 22 20 23 21 24
REMARK SMILES IDX 22 25 23 26 24 27 25 28 26 29 27 30 28 31 74 32 29 33 73 34
REMARK SMILES IDX 30 35 31 36 32 37 67 38 33 39 72 40 66 41 68 42 34 43 71 44
REMARK SMILES IDX 65 45 64 46 35 48 57 49 42 50 56 51 43 52 46 53 55 54 69 55
REMARK SMILES IDX 44 56 45 57 54 59 70 60 47 61 36 62 37 63 41 64 38 65 40 66
REMARK SMILES IDX 39 67 58 68 59 69 63 70 60 71 62 72 61 73 48 74 49 75 53 76
REMARK SMILES IDX 50 77 52 78 51 79
REMARK H PARENT 11 21 68 47 46 58
REMARK Flexibility Score: inf
ROOT
ATOM      1  O   UNL A   1      35.055  30.563  28.228  1.00  0.00    -0.376 OA
ENDROOT
BRANCH   1   2
ATOM      2  C   UNL A   1      35.188  29.533  27.264  1.00  0.00     0.202 C 
BRANCH   2   3
ATOM      3  C   UNL A   1      33.893  29.312  26.495  1.00  0.00     0.261 C 
BRANCH   3   4
ATOM      4  O   UNL A   1      33.426  27.969  26.695  1.00  0.00    -0.460 OA
BRANCH   4   5
ATOM      5  C   UNL A   1      32.101  27.727  26.811  1.00  0.00     0.341 C 
ATOM      6  O   UNL A   1      31.426  27.900  27.804  1.00  0.00    -0.246 OA
BRANCH   5   7
ATOM      7  C   UNL A   1      31.637  27.267  25.485  1.00  0.00     0.098 A 
ATOM      8  C   UNL A   1      29.898  28.770  22.394  1.00  0.00     0.069 C 
ATOM      9  C   UNL A   1      30.527  27.848  23.394  1.00  0.00     0.064 A 
ATOM     10  N   UNL A   1      30.569  26.560  23.047  1.00  0.00    -0.155 NA
ATOM     11  C   UNL A   1      31.071  28.262  24.607  1.00  0.00    -0.011 A 
ATOM     12  N   UNL A   1      31.143  25.627  23.888  1.00  0.00    -0.143 NA
ATOM     13  C   UNL A   1      30.967  29.726  24.983  1.00  0.00     0.047 C 
ATOM     14  C   UNL A   1      31.684  25.924  25.097  1.00  0.00     0.134 A 
BRANCH  14  15
ATOM     15  S   UNL A   1      32.259  24.369  25.740  1.00  0.00    -0.100 SA
BRANCH  15  16
ATOM     16  C   UNL A   1      34.057  24.208  26.102  1.00  0.00     0.052 C 
ATOM     17  C   UNL A   1      34.374  22.931  26.880  1.00  0.00     0.020 C 
BRANCH  16  18
ATOM     18  C   UNL A   1      34.996  24.483  24.936  1.00  0.00     0.043 C 
BRANCH  18  19
ATOM     19  C   UNL A   1      34.471  24.110  23.557  1.00  0.00     0.157 C 
BRANCH  19  20
ATOM     20  O   UNL A   1      35.437  23.326  22.874  1.00  0.00    -0.396 OA
ATOM     21  H   UNL A   1      35.021  22.513  22.547  1.00  0.00     0.210 HD
ENDBRANCH  19  20
ENDBRANCH  18  19
ENDBRANCH  16  18
ENDBRANCH  15  16
ENDBRANCH  14  15
ENDBRANCH   5   7
ENDBRANCH   4   5
ENDBRANCH   3   4
ENDBRANCH   2   3
ENDBRANCH   1   2
BRANCH   1  22
ATOM     22  C   UNL A   1      34.648  31.861  27.816  1.00  0.00     0.188 C 
BRANCH  22  23
ATOM     23  C   UNL A   1      35.635  32.933  28.293  1.00  0.00     0.188 C 
BRANCH  23  24
ATOM     24  O   UNL A   1      35.120  34.105  28.914  1.00  0.00    -0.376 OA
BRANCH  24  25
ATOM     25  C   UNL A   1      34.258  33.978  30.038  1.00  0.00     0.202 C 
BRANCH  25  26
ATOM     26  C   UNL A   1      34.922  33.899  31.416  1.00  0.00     0.261 C 
BRANCH  26  27
ATOM     27  O   UNL A   1      34.846  32.611  32.062  1.00  0.00    -0.460 OA
BRANCH  27  28
ATOM     28  C   UNL A   1      35.852  32.325  32.926  1.00  0.00     0.338 C 
ATOM     29  O   UNL A   1      35.922  32.645  34.100  1.00  0.00    -0.246 OA
BRANCH  28  30
ATOM     30  C   UNL A   1      36.879  31.473  32.282  1.00  0.00     0.060 A 
ATOM     31  C   UNL A   1      38.134  31.353  32.894  1.00  0.00     0.016 A 
ATOM     32  C   UNL A   1      36.661  30.905  31.023  1.00  0.00     0.016 A 
ATOM     33  C   UNL A   1      39.182  30.696  32.236  1.00  0.00     0.010 A 
ATOM     34  C   UNL A   1      37.719  30.264  30.358  1.00  0.00     0.010 A 
ATOM     35  C   UNL A   1      38.994  30.180  30.945  1.00  0.00    -0.014 A 
BRANCH  35  36
ATOM     36  C   UNL A   1      40.153  29.705  30.139  1.00  0.00     0.031 A 
ATOM     37  C   UNL A   1      41.277  30.661  29.845  1.00  0.00     0.074 A 
ATOM     38  C   UNL A   1      40.221  28.455  29.644  1.00  0.00     0.049 A 
ATOM     39  N   UNL A   1      42.370  30.456  29.154  1.00  0.00    -0.248 NA
ATOM     40  C   UNL A   1      41.164  32.013  30.414  1.00  0.00     0.031 C 
ATOM     41  C   UNL A   1      39.259  27.395  29.903  1.00  0.00     0.029 A 
ATOM     42  N   UNL A   1      41.139  27.868  28.806  1.00  0.00    -0.354 N 
ATOM     43  C   UNL A   1      43.094  31.635  29.243  1.00  0.00     0.074 A 
ATOM     44  C   UNL A   1      42.299  32.569  30.011  1.00  0.00     0.031 C 
ATOM     45  C   UNL A   1      39.594  26.304  29.196  1.00  0.00     0.029 A 
ATOM     46  C   UNL A   1      40.815  26.582  28.445  1.00  0.00     0.049 A 
ATOM     47  H   UNL A   1      41.953  28.326  28.494  1.00  0.00     0.167 HD
ATOM     48  C   UNL A   1      44.322  31.913  28.747  1.00  0.00     0.031 A 
ATOM     49  C   UNL A   1      41.424  25.717  27.611  1.00  0.00     0.031 A 
ATOM     50  C   UNL A   1      45.107  31.015  27.947  1.00  0.00     0.049 A 
ATOM     51  C   UNL A   1      42.718  26.098  26.950  1.00  0.00     0.074 A 
ATOM     52  C   UNL A   1      46.367  31.225  27.413  1.00  0.00     0.029 A 
ATOM     53  N   UNL A   1      44.705  29.752  27.549  1.00  0.00    -0.354 N 
ATOM     54  N   UNL A   1      43.409  27.204  27.079  1.00  0.00    -0.248 NA
ATOM     55  C   UNL A   1      43.327  25.110  26.045  1.00  0.00     0.031 C 
ATOM     56  C   UNL A   1      46.707  30.107  26.647  1.00  0.00     0.029 A 
ATOM     57  C   UNL A   1      45.679  29.184  26.746  1.00  0.00     0.049 A 
ATOM     58  H   UNL A   1      43.856  29.323  27.800  1.00  0.00     0.167 HD
ATOM     59  C   UNL A   1      44.550  27.029  26.308  1.00  0.00     0.074 A 
ATOM     60  C   UNL A   1      44.456  25.719  25.700  1.00  0.00     0.031 C 
ATOM     61  C   UNL A   1      45.587  27.882  26.140  1.00  0.00     0.031 A 
BRANCH  48  62
ATOM     62  C   UNL A   1      44.905  33.257  29.059  1.00  0.00    -0.014 A 
ATOM     63  C   UNL A   1      45.719  33.433  30.188  1.00  0.00     0.009 A 
ATOM     64  C   UNL A   1      44.708  34.331  28.179  1.00  0.00     0.009 A 
ATOM     65  C   UNL A   1      46.320  34.667  30.436  1.00  0.00     0.001 A 
ATOM     66  C   UNL A   1      45.324  35.559  28.421  1.00  0.00     0.001 A 
ATOM     67  C   UNL A   1      46.127  35.726  29.549  1.00  0.00     0.000 A 
ENDBRANCH  48  62
BRANCH  49  68
ATOM     68  C   UNL A   1      40.821  24.382  27.373  1.00  0.00    -0.014 A 
ATOM     69  C   UNL A   1      39.695  24.248  26.548  1.00  0.00     0.009 A 
ATOM     70  C   UNL A   1      41.383  23.232  27.951  1.00  0.00     0.009 A 
ATOM     71  C   UNL A   1      39.139  22.988  26.311  1.00  0.00     0.001 A 
ATOM     72  C   UNL A   1      40.834  21.973  27.699  1.00  0.00     0.001 A 
ATOM     73  C   UNL A   1      39.711  21.852  26.882  1.00  0.00     0.000 A 
ENDBRANCH  49  68
BRANCH  61  74
ATOM     74  C   UNL A   1      46.738  27.449  25.280  1.00  0.00    -0.014 A 
ATOM     75  C   UNL A   1      46.807  27.821  23.930  1.00  0.00     0.009 A 
ATOM     76  C   UNL A   1      47.831  26.789  25.865  1.00  0.00     0.009 A 
ATOM     77  C   UNL A   1      47.955  27.546  23.184  1.00  0.00     0.001 A 
ATOM     78  C   UNL A   1      48.983  26.533  25.122  1.00  0.00     0.001 A 
ATOM     79  C   UNL A   1      49.045  26.914  23.782  1.00  0.00     0.000 A 
ENDBRANCH  61  74
ENDBRANCH  35  36
ENDBRANCH  28  30
ENDBRANCH  27  28
ENDBRANCH  26  27
ENDBRANCH  25  26
ENDBRANCH  24  25
ENDBRANCH  23  24
ENDBRANCH  22  23
ENDBRANCH   1  22
TORSDOF 22
ENDMDL
MODEL 2
REMARK VINA RESULT:      -8.7      4.128      6.250
REMARK SMILES Cc1nnc(S[C@@H](C)CCO)c(C(=O)OCCOCCOCCOC(=O)c2ccc(-c3c4nc(c(-c5ccccc5)c5ccc([nH]5)c(-c5ccccc5)c5nc(c(-c6ccccc6)c6ccc3[nH]6)C=C5)C=C4)cc2)c1C
REMARK SMILES IDX 18 1 17 2 16 3 15 4 13 5 14 6 12 7 1 8 2 9 3 10 75 11 4 12
REMARK SMILES IDX 76 13 5 14 6 15 7 16 8 17 9 18 10 19 11 20 19 22 20 23 21 24
REMARK SMILES IDX 22 25 23 26 24 27 25 28 26 29 27 30 28 31 74 32 29 33 73 34
REMARK SMILES IDX 30 35 31 36 32 37 67 38 33 39 72 40 66 41 68 42 34 43 71 44
REMARK SMILES IDX 65 45 64 46 35 48 57 49 42 50 56 51 43 52 46 53 55 54 69 55
REMARK SMILES IDX 44 56 45 57 54 59 70 60 47 61 36 62 37 63 41 64 38 65 40 66
REMARK SMILES IDX 39 67 58 68 59 69 63 70 60 71 62 72 61 73 48 74 49 75 53 76
REMARK SMILES IDX 50 77 52 78 51 79
REMARK H PARENT 11 21 68 47 46 58
REMARK Flexibility Score: inf
ROOT
ATOM      1  O   UNL A   1      33.442  27.672  26.850  1.00  0.00    -0.376 OA
ENDROOT
BRANCH   1   2
ATOM      2  C   UNL A   1      34.402  27.546  25.815  1.00  0.00     0.202 C 
BRANCH   2   3
ATOM      3  C   UNL A   1      33.792  26.953  24.553  1.00  0.00     0.261 C 
BRANCH   3   4
ATOM      4  O   UNL A   1      32.771  27.827  24.044  1.00  0.00    -0.460 OA
BRANCH   4   5
ATOM      5  C   UNL A   1      32.202  27.569  22.846  1.00  0.00     0.341 C 
ATOM      6  O   UNL A   1      32.778  27.491  21.781  1.00  0.00    -0.246 OA
BRANCH   5   7
ATOM      7  C   UNL A   1      30.762  27.351  23.100  1.00  0.00     0.098 A 
ATOM      8  C   UNL A   1      27.476  29.335  22.774  1.00  0.00     0.069 C 
ATOM      9  C   UNL A   1      28.515  28.296  23.071  1.00  0.00     0.064 A 
ATOM     10  N   UNL A   1      28.071  27.184  23.660  1.00  0.00    -0.155 NA
ATOM     11  C   UNL A   1      29.864  28.424  22.748  1.00  0.00    -0.011 A 
ATOM     12  N   UNL A   1      28.942  26.156  23.961  1.00  0.00    -0.143 NA
ATOM     13  C   UNL A   1      30.337  29.717  22.117  1.00  0.00     0.047 C 
ATOM     14  C   UNL A   1      30.274  26.188  23.705  1.00  0.00     0.134 A 
BRANCH  14  15
ATOM     15  S   UNL A   1      30.896  24.631  24.298  1.00  0.00    -0.100 SA
BRANCH  15  16
ATOM     16  C   UNL A   1      31.564  23.449  23.054  1.00  0.00     0.052 C 
ATOM     17  C   UNL A   1      32.863  23.952  22.425  1.00  0.00     0.020 C 
BRANCH  16  18
ATOM     18  C   UNL A   1      31.593  21.987  23.475  1.00  0.00     0.043 C 
BRANCH  18  19
ATOM     19  C   UNL A   1      32.187  21.017  22.464  1.00  0.00     0.157 C 
BRANCH  19  20
ATOM     20  O   UNL A   1      31.307  20.880  21.360  1.00  0.00    -0.396 OA
ATOM     21  H   UNL A   1      30.703  21.637  21.332  1.00  0.00     0.210 HD
ENDBRANCH  19  20
ENDBRANCH  18  19
ENDBRANCH  16  18
ENDBRANCH  15  16
ENDBRANCH  14  15
ENDBRANCH   5   7
ENDBRANCH   4   5
ENDBRANCH   3   4
ENDBRANCH   2   3
ENDBRANCH   1   2
BRANCH   1  22
ATOM     22  C   UNL A   1      33.172  28.952  27.404  1.00  0.00     0.188 C 
BRANCH  22  23
ATOM     23  C   UNL A   1      31.818  29.493  26.929  1.00  0.00     0.188 C 
BRANCH  23  24
ATOM     24  O   UNL A   1      31.748  30.834  26.460  1.00  0.00    -0.376 OA
BRANCH  24  25
ATOM     25  C   UNL A   1      32.739  31.769  26.866  1.00  0.00     0.202 C 
BRANCH  25  26
ATOM     26  C   UNL A   1      32.302  32.859  27.850  1.00  0.00     0.261 C 
BRANCH  26  27
ATOM     27  O   UNL A   1      32.755  34.192  27.531  1.00  0.00    -0.460 OA
BRANCH  27  28
ATOM     28  C   UNL A   1      32.979  35.007  28.591  1.00  0.00     0.338 C 
ATOM     29  O   UNL A   1      32.270  35.921  28.977  1.00  0.00    -0.246 OA
BRANCH  28  30
ATOM     30  C   UNL A   1      34.205  34.604  29.320  1.00  0.00     0.060 A 
ATOM     31  C   UNL A   1      35.411  34.518  28.613  1.00  0.00     0.016 A 
ATOM     32  C   UNL A   1      34.148  34.187  30.653  1.00  0.00     0.016 A 
ATOM     33  C   UNL A   1      36.553  33.983  29.224  1.00  0.00     0.010 A 
ATOM     34  C   UNL A   1      35.288  33.633  31.257  1.00  0.00     0.010 A 
ATOM     35  C   UNL A   1      36.491  33.500  30.540  1.00  0.00    -0.014 A 
BRANCH  35  36
ATOM     36  C   UNL A   1      37.615  32.709  31.114  1.00  0.00     0.031 A 
ATOM     37  C   UNL A   1      38.294  33.205  32.361  1.00  0.00     0.074 A 
ATOM     38  C   UNL A   1      38.061  31.575  30.542  1.00  0.00     0.049 A 
ATOM     39  N   UNL A   1      39.297  32.678  33.016  1.00  0.00    -0.248 NA
ATOM     40  C   UNL A   1      37.767  34.444  32.955  1.00  0.00     0.031 C 
ATOM     41  C   UNL A   1      37.465  30.925  29.385  1.00  0.00     0.029 A 
ATOM     42  N   UNL A   1      39.133  30.772  30.854  1.00  0.00    -0.354 N 
ATOM     43  C   UNL A   1      39.491  33.492  34.121  1.00  0.00     0.074 A 
ATOM     44  C   UNL A   1      38.538  34.577  34.026  1.00  0.00     0.031 C 
ATOM     45  C   UNL A   1      38.204  29.859  29.039  1.00  0.00     0.029 A 
ATOM     46  C   UNL A   1      39.322  29.736  29.970  1.00  0.00     0.049 A 
ATOM     47  H   UNL A   1      39.710  30.924  31.637  1.00  0.00     0.167 HD
ATOM     48  C   UNL A   1      40.372  33.342  35.138  1.00  0.00     0.031 A 
ATOM     49  C   UNL A   1      40.279  28.789  29.909  1.00  0.00     0.031 A 
ATOM     50  C   UNL A   1      41.352  32.297  35.228  1.00  0.00     0.049 A 
ATOM     51  C   UNL A   1      41.341  28.727  30.970  1.00  0.00     0.074 A 
ATOM     52  C   UNL A   1      42.276  32.076  36.235  1.00  0.00     0.029 A 
ATOM     53  N   UNL A   1      41.552  31.315  34.274  1.00  0.00    -0.354 N 
ATOM     54  N   UNL A   1      41.483  29.481  32.032  1.00  0.00    -0.248 NA
ATOM     55  C   UNL A   1      42.360  27.673  30.840  1.00  0.00     0.031 C 
ATOM     56  C   UNL A   1      43.072  30.989  35.865  1.00  0.00     0.029 A 
ATOM     57  C   UNL A   1      42.610  30.506  34.652  1.00  0.00     0.049 A 
ATOM     58  H   UNL A   1      41.022  31.208  33.452  1.00  0.00     0.167 HD
ATOM     59  C   UNL A   1      42.579  28.971  32.714  1.00  0.00     0.074 A 
ATOM     60  C   UNL A   1      43.076  27.852  31.943  1.00  0.00     0.031 C 
ATOM     61  C   UNL A   1      43.107  29.393  33.887  1.00  0.00     0.031 A 
BRANCH  48  62
ATOM     62  C   UNL A   1      40.314  34.340  36.253  1.00  0.00    -0.014 A 
ATOM     63  C   UNL A   1      41.082  35.514  36.197  1.00  0.00     0.009 A 
ATOM     64  C   UNL A   1      39.429  34.149  37.323  1.00  0.00     0.009 A 
ATOM     65  C   UNL A   1      40.971  36.475  37.201  1.00  0.00     0.001 A 
ATOM     66  C   UNL A   1      39.307  35.121  38.317  1.00  0.00     0.001 A 
ATOM     67  C   UNL A   1      40.079  36.281  38.256  1.00  0.00     0.000 A 
ENDBRANCH  48  62
BRANCH  49  68
ATOM     68  C   UNL A   1      40.260  27.800  28.803  1.00  0.00    -0.014 A 
ATOM     69  C   UNL A   1      39.596  26.575  28.957  1.00  0.00     0.009 A 
ATOM     70  C   UNL A   1      40.882  28.088  27.577  1.00  0.00     0.009 A 
ATOM     71  C   UNL A   1      39.563  25.652  27.909  1.00  0.00     0.001 A 
ATOM     72  C   UNL A   1      40.834  27.170  26.526  1.00  0.00     0.001 A 
ATOM     73  C   UNL A   1      40.177  25.952  26.694  1.00  0.00     0.000 A 
ENDBRANCH  49  68
BRANCH  61  74
ATOM     74  C   UNL A   1      44.280  28.648  34.452  1.00  0.00    -0.014 A 
ATOM     75  C   UNL A   1      45.592  29.073  34.197  1.00  0.00     0.009 A 
ATOM     76  C   UNL A   1      44.064  27.604  35.366  1.00  0.00     0.009 A 
ATOM     77  C   UNL A   1      46.666  28.468  34.854  1.00  0.00     0.001 A 
ATOM     78  C   UNL A   1      45.137  27.015  36.034  1.00  0.00     0.001 A 
ATOM     79  C   UNL A   1      46.438  27.450  35.780  1.00  0.00     0.000 A 
ENDBRANCH  61  74
ENDBRANCH  35  36
ENDBRANCH  28  30
ENDBRANCH  27  28
ENDBRANCH  26  27
ENDBRANCH  25  26
ENDBRANCH  24  25
ENDBRANCH  23  24
ENDBRANCH  22  23
ENDBRANCH   1  22
TORSDOF 22
ENDMDL
MODEL 3
REMARK VINA RESULT:      -8.6      4.120      6.830
REMARK SMILES Cc1nnc(S[C@@H](C)CCO)c(C(=O)OCCOCCOCCOC(=O)c2ccc(-c3c4nc(c(-c5ccccc5)c5ccc([nH]5)c(-c5ccccc5)c5nc(c(-c6ccccc6)c6ccc3[nH]6)C=C5)C=C4)cc2)c1C
REMARK SMILES IDX 18 1 17 2 16 3 15 4 13 5 14 6 12 7 1 8 2 9 3 10 75 11 4 12
REMARK SMILES IDX 76 13 5 14 6 15 7 16 8 17 9 18 10 19 11 20 19 22 20 23 21 24
REMARK SMILES IDX 22 25 23 26 24 27 25 28 26 29 27 30 28 31 74 32 29 33 73 34
REMARK SMILES IDX 30 35 31 36 32 37 67 38 33 39 72 40 66 41 68 42 34 43 71 44
REMARK SMILES IDX 65 45 64 46 35 48 57 49 42 50 56 51 43 52 46 53 55 54 69 55
REMARK SMILES IDX 44 56 45 57 54 59 70 60 47 61 36 62 37 63 41 64 38 65 40 66
REMARK SMILES IDX 39 67 58 68 59 69 63 70 60 71 62 72 61 73 48 74 49 75 53 76
REMARK SMILES IDX 50 77 52 78 51 79
REMARK H PARENT 11 21 68 47 46 58
REMARK Flexibility Score: inf
ROOT
ATOM      1  O   UNL A   1      33.295  27.730  27.081  1.00  0.00    -0.376 OA
ENDROOT
BRANCH   1   2
ATOM      2  C   UNL A   1      33.156  27.115  25.812  1.00  0.00     0.202 C 
BRANCH   2   3
ATOM      3  C   UNL A   1      33.812  25.742  25.779  1.00  0.00     0.261 C 
BRANCH   3   4
ATOM      4  O   UNL A   1      33.107  24.839  26.645  1.00  0.00    -0.460 OA
BRANCH   4   5
ATOM      5  C   UNL A   1      33.066  23.520  26.352  1.00  0.00     0.341 C 
ATOM      6  O   UNL A   1      32.676  22.636  27.086  1.00  0.00    -0.246 OA
BRANCH   5   7
ATOM      7  C   UNL A   1      33.534  23.382  24.958  1.00  0.00     0.098 A 
ATOM      8  C   UNL A   1      36.855  22.734  23.116  1.00  0.00     0.069 C 
ATOM      9  C   UNL A   1      35.428  23.035  23.463  1.00  0.00     0.064 A 
ATOM     10  N   UNL A   1      34.615  23.254  22.427  1.00  0.00    -0.155 NA
ATOM     11  C   UNL A   1      34.929  23.068  24.762  1.00  0.00    -0.011 A 
ATOM     12  N   UNL A   1      33.276  23.523  22.634  1.00  0.00    -0.143 NA
ATOM     13  C   UNL A   1      35.891  22.855  25.912  1.00  0.00     0.047 C 
ATOM     14  C   UNL A   1      32.695  23.595  23.858  1.00  0.00     0.134 A 
BRANCH  14  15
ATOM     15  S   UNL A   1      30.986  23.970  23.538  1.00  0.00    -0.100 SA
BRANCH  15  16
ATOM     16  C   UNL A   1      30.590  25.637  22.864  1.00  0.00     0.052 C 
ATOM     17  C   UNL A   1      30.293  26.647  23.971  1.00  0.00     0.020 C 
BRANCH  16  18
ATOM     18  C   UNL A   1      31.522  26.152  21.776  1.00  0.00     0.043 C 
BRANCH  18  19
ATOM     19  C   UNL A   1      32.744  26.921  22.256  1.00  0.00     0.157 C 
BRANCH  19  20
ATOM     20  O   UNL A   1      33.923  26.277  21.800  1.00  0.00    -0.396 OA
ATOM     21  H   UNL A   1      34.417  26.879  21.222  1.00  0.00     0.210 HD
ENDBRANCH  19  20
ENDBRANCH  18  19
ENDBRANCH  16  18
ENDBRANCH  15  16
ENDBRANCH  14  15
ENDBRANCH   5   7
ENDBRANCH   4   5
ENDBRANCH   3   4
ENDBRANCH   2   3
ENDBRANCH   1   2
BRANCH   1  22
ATOM     22  C   UNL A   1      33.309  29.148  27.175  1.00  0.00     0.188 C 
BRANCH  22  23
ATOM     23  C   UNL A   1      31.899  29.731  27.021  1.00  0.00     0.188 C 
BRANCH  23  24
ATOM     24  O   UNL A   1      31.761  31.055  26.518  1.00  0.00    -0.376 OA
BRANCH  24  25
ATOM     25  C   UNL A   1      32.711  32.046  26.889  1.00  0.00     0.202 C 
BRANCH  25  26
ATOM     26  C   UNL A   1      32.220  33.169  27.808  1.00  0.00     0.261 C 
BRANCH  26  27
ATOM     27  O   UNL A   1      32.794  34.468  27.551  1.00  0.00    -0.460 OA
BRANCH  27  28
ATOM     28  C   UNL A   1      32.995  35.248  28.641  1.00  0.00     0.338 C 
ATOM     29  O   UNL A   1      32.285  36.159  29.032  1.00  0.00    -0.246 OA
BRANCH  28  30
ATOM     30  C   UNL A   1      34.193  34.810  29.394  1.00  0.00     0.060 A 
ATOM     31  C   UNL A   1      35.394  34.618  28.697  1.00  0.00     0.016 A 
ATOM     32  C   UNL A   1      34.109  34.461  30.746  1.00  0.00     0.016 A 
ATOM     33  C   UNL A   1      36.501  34.046  29.339  1.00  0.00     0.010 A 
ATOM     34  C   UNL A   1      35.213  33.870  31.381  1.00  0.00     0.010 A 
ATOM     35  C   UNL A   1      36.407  33.632  30.677  1.00  0.00    -0.014 A 
BRANCH  35  36
ATOM     36  C   UNL A   1      37.481  32.804  31.293  1.00  0.00     0.031 A 
ATOM     37  C   UNL A   1      38.068  33.234  32.610  1.00  0.00     0.074 A 
ATOM     38  C   UNL A   1      37.963  31.695  30.702  1.00  0.00     0.049 A 
ATOM     39  N   UNL A   1      39.016  32.666  33.311  1.00  0.00    -0.248 NA
ATOM     40  C   UNL A   1      37.504  34.447  33.223  1.00  0.00     0.031 C 
ATOM     41  C   UNL A   1      37.451  31.107  29.473  1.00  0.00     0.029 A 
ATOM     42  N   UNL A   1      39.004  30.868  31.053  1.00  0.00    -0.354 N 
ATOM     43  C   UNL A   1      39.132  33.425  34.466  1.00  0.00     0.074 A 
ATOM     44  C   UNL A   1      38.195  34.521  34.353  1.00  0.00     0.031 C 
ATOM     45  C   UNL A   1      38.208  30.052  29.132  1.00  0.00     0.029 A 
ATOM     46  C   UNL A   1      39.253  29.875  30.136  1.00  0.00     0.049 A 
ATOM     47  H   UNL A   1      39.522  30.977  31.883  1.00  0.00     0.167 HD
ATOM     48  C   UNL A   1      39.933  33.218  35.537  1.00  0.00     0.031 A 
ATOM     49  C   UNL A   1      40.207  28.923  30.100  1.00  0.00     0.031 A 
ATOM     50  C   UNL A   1      40.899  32.161  35.649  1.00  0.00     0.049 A 
ATOM     51  C   UNL A   1      41.186  28.800  31.233  1.00  0.00     0.074 A 
ATOM     52  C   UNL A   1      41.744  31.884  36.709  1.00  0.00     0.029 A 
ATOM     53  N   UNL A   1      41.164  31.224  34.665  1.00  0.00    -0.354 N 
ATOM     54  N   UNL A   1      41.253  29.502  32.337  1.00  0.00    -0.248 NA
ATOM     55  C   UNL A   1      42.207  27.745  31.128  1.00  0.00     0.031 C 
ATOM     56  C   UNL A   1      42.559  30.808  36.348  1.00  0.00     0.029 A 
ATOM     57  C   UNL A   1      42.186  30.388  35.081  1.00  0.00     0.049 A 
ATOM     58  H   UNL A   1      40.697  31.162  33.802  1.00  0.00     0.167 HD
ATOM     59  C   UNL A   1      42.292  28.949  33.074  1.00  0.00     0.074 A 
ATOM     60  C   UNL A   1      42.840  27.864  32.289  1.00  0.00     0.031 C 
ATOM     61  C   UNL A   1      42.733  29.309  34.301  1.00  0.00     0.031 A 
BRANCH  48  62
ATOM     62  C   UNL A   1      39.798  34.162  36.692  1.00  0.00    -0.014 A 
ATOM     63  C   UNL A   1      39.033  33.807  37.814  1.00  0.00     0.009 A 
ATOM     64  C   UNL A   1      40.503  35.374  36.696  1.00  0.00     0.009 A 
ATOM     65  C   UNL A   1      38.969  34.656  38.918  1.00  0.00     0.001 A 
ATOM     66  C   UNL A   1      40.451  36.213  37.810  1.00  0.00     0.001 A 
ATOM     67  C   UNL A   1      39.682  35.855  38.918  1.00  0.00     0.000 A 
ENDBRANCH  48  62
BRANCH  49  68
ATOM     68  C   UNL A   1      40.265  27.989  28.949  1.00  0.00    -0.014 A 
ATOM     69  C   UNL A   1      40.978  28.331  27.791  1.00  0.00     0.009 A 
ATOM     70  C   UNL A   1      39.628  26.738  29.012  1.00  0.00     0.009 A 
ATOM     71  C   UNL A   1      41.046  27.443  26.714  1.00  0.00     0.001 A 
ATOM     72  C   UNL A   1      39.712  25.847  27.941  1.00  0.00     0.001 A 
ATOM     73  C   UNL A   1      40.418  26.201  26.792  1.00  0.00     0.000 A 
ENDBRANCH  49  68
BRANCH  61  74
ATOM     74  C   UNL A   1      43.857  28.528  34.916  1.00  0.00    -0.014 A 
ATOM     75  C   UNL A   1      45.190  28.932  34.749  1.00  0.00     0.009 A 
ATOM     76  C   UNL A   1      43.568  27.466  35.788  1.00  0.00     0.009 A 
ATOM     77  C   UNL A   1      46.211  28.291  35.452  1.00  0.00     0.001 A 
ATOM     78  C   UNL A   1      44.589  26.840  36.503  1.00  0.00     0.001 A 
ATOM     79  C   UNL A   1      45.910  27.255  36.336  1.00  0.00     0.000 A 
ENDBRANCH  61  74
ENDBRANCH  35  36
ENDBRANCH  28  30
ENDBRANCH  27  28
ENDBRANCH  26  27
ENDBRANCH  25  26
ENDBRANCH  24  25
ENDBRANCH  23  24
ENDBRANCH  22  23
ENDBRANCH   1  22
TORSDOF 22
ENDMDL
