MODEL 1
REMARK VINA RESULT:      -9.3      0.000      0.000
REMARK SMILES C[C@]1(C(=O)OCCOCCOCCOC(=O)c2ccc(-c3c4nc(c(-c5ccccc5)c5ccc([nH]5)c(-c5ccccc5)c5nc(c(-c6ccccc6)c6ccc3[nH]6)C=C5)C=C4)cc2)CCN(c2ccc([N+](=O)[O-])c(N)n2)C1
REMARK SMILES IDX 9 1 8 2 7 3 6 4 5 5 3 6 4 7 2 8 1 9 65 10 78 11 66 12 67 13
REMARK SMILES IDX 68 14 69 15 77 16 70 17 75 18 71 19 76 20 72 23 73 24 74 25
REMARK SMILES IDX 10 26 11 27 12 28 13 29 14 30 15 31 16 32 17 33 18 34 64 35
REMARK SMILES IDX 19 36 63 37 20 38 21 39 22 40 57 41 23 42 62 43 56 44 58 45
REMARK SMILES IDX 24 46 61 47 55 48 54 49 25 51 47 52 32 53 46 54 33 55 36 56
REMARK SMILES IDX 45 57 59 58 34 59 35 60 44 62 60 63 37 64 26 65 27 66 31 67
REMARK SMILES IDX 28 68 30 69 29 70 48 71 49 72 53 73 50 74 52 75 51 76 38 77
REMARK SMILES IDX 39 78 43 79 40 80 42 81 41 82
REMARK H PARENT 76 21 76 22 58 50 36 61
REMARK Flexibility Score: inf
ROOT
ATOM      1  C   UNL A   1      33.960  36.777  33.379  1.00  0.00     0.188 C 
ENDROOT
BRANCH   1   2
ATOM      2  O   UNL A   1      35.127  35.975  33.305  1.00  0.00    -0.376 OA
BRANCH   2   3
ATOM      3  C   UNL A   1      35.010  34.618  33.728  1.00  0.00     0.202 C 
BRANCH   3   4
ATOM      4  C   UNL A   1      36.226  33.701  33.513  1.00  0.00     0.261 C 
BRANCH   4   5
ATOM      5  O   UNL A   1      36.460  32.735  34.563  1.00  0.00    -0.463 OA
BRANCH   5   6
ATOM      6  C   UNL A   1      37.671  32.110  34.542  1.00  0.00     0.313 C 
ATOM      7  O   UNL A   1      38.078  31.452  33.590  1.00  0.00    -0.252 OA
BRANCH   6   8
ATOM      8  C   UNL A   1      38.509  32.327  35.804  1.00  0.00     0.084 C 
ATOM      9  C   UNL A   1      39.984  31.887  35.736  1.00  0.00     0.026 C 
ATOM     10  C   UNL A   1      38.408  33.815  36.179  1.00  0.00     0.042 C 
ATOM     11  C   UNL A   1      37.797  31.654  37.006  1.00  0.00     0.136 C 
ATOM     12  C   UNL A   1      38.543  33.845  37.699  1.00  0.00     0.119 C 
ATOM     13  N   UNL A   1      38.107  32.523  38.141  1.00  0.00    -0.355 N 
BRANCH  13  14
ATOM     14  C   UNL A   1      37.337  32.427  39.284  1.00  0.00     0.131 A 
ATOM     15  C   UNL A   1      36.503  31.333  39.481  1.00  0.00     0.054 A 
ATOM     16  N   UNL A   1      37.441  33.395  40.221  1.00  0.00    -0.207 NA
ATOM     17  C   UNL A   1      35.805  31.210  40.681  1.00  0.00     0.093 A 
ATOM     18  C   UNL A   1      36.741  33.312  41.374  1.00  0.00     0.204 A 
ATOM     19  C   UNL A   1      35.936  32.214  41.647  1.00  0.00     0.311 A 
BRANCH  18  20
ATOM     20  N   UNL A   1      36.992  34.352  42.243  1.00  0.00    -0.378 N 
ATOM     21  H   UNL A   1      36.302  34.634  42.886  1.00  0.00     0.158 HD
ATOM     22  H   UNL A   1      37.861  34.815  42.219  1.00  0.00     0.158 HD
ENDBRANCH  18  20
BRANCH  19  23
ATOM     23  N   UNL A   1      35.218  32.088  42.910  1.00  0.00     0.066 N 
ATOM     24  O   UNL A   1      35.836  32.375  43.948  1.00  0.00    -0.258 OA
ATOM     25  O   UNL A   1      34.048  31.675  42.893  1.00  0.00    -0.258 OA
ENDBRANCH  19  23
ENDBRANCH  13  14
ENDBRANCH   6   8
ENDBRANCH   5   6
ENDBRANCH   4   5
ENDBRANCH   3   4
ENDBRANCH   2   3
ENDBRANCH   1   2
BRANCH   1  26
ATOM     26  C   UNL A   1      32.679  36.214  32.762  1.00  0.00     0.188 C 
BRANCH  26  27
ATOM     27  O   UNL A   1      32.210  36.837  31.581  1.00  0.00    -0.376 OA
BRANCH  27  28
ATOM     28  C   UNL A   1      33.184  37.062  30.558  1.00  0.00     0.202 C 
BRANCH  28  29
ATOM     29  C   UNL A   1      33.023  36.248  29.250  1.00  0.00     0.261 C 
BRANCH  29  30
ATOM     30  O   UNL A   1      32.540  34.888  29.376  1.00  0.00    -0.460 OA
BRANCH  30  31
ATOM     31  C   UNL A   1      32.886  33.995  28.417  1.00  0.00     0.338 C 
ATOM     32  O   UNL A   1      32.310  33.823  27.355  1.00  0.00    -0.246 OA
BRANCH  31  33
ATOM     33  C   UNL A   1      34.250  33.464  28.718  1.00  0.00     0.060 A 
ATOM     34  C   UNL A   1      34.402  32.634  29.840  1.00  0.00     0.016 A 
ATOM     35  C   UNL A   1      35.348  33.690  27.882  1.00  0.00     0.016 A 
ATOM     36  C   UNL A   1      35.644  32.063  30.147  1.00  0.00     0.010 A 
ATOM     37  C   UNL A   1      36.598  33.133  28.202  1.00  0.00     0.010 A 
ATOM     38  C   UNL A   1      36.764  32.337  29.350  1.00  0.00    -0.014 A 
BRANCH  38  39
ATOM     39  C   UNL A   1      38.128  31.943  29.805  1.00  0.00     0.031 A 
ATOM     40  C   UNL A   1      38.678  30.610  29.365  1.00  0.00     0.074 A 
ATOM     41  C   UNL A   1      38.887  32.740  30.581  1.00  0.00     0.049 A 
ATOM     42  N   UNL A   1      39.807  30.027  29.683  1.00  0.00    -0.248 NA
ATOM     43  C   UNL A   1      37.839  29.833  28.438  1.00  0.00     0.031 C 
ATOM     44  C   UNL A   1      38.523  34.076  31.046  1.00  0.00     0.029 A 
ATOM     45  N   UNL A   1      40.134  32.525  31.125  1.00  0.00    -0.354 N 
ATOM     46  C   UNL A   1      39.811  28.814  29.003  1.00  0.00     0.074 A 
ATOM     47  C   UNL A   1      38.559  28.734  28.279  1.00  0.00     0.031 C 
ATOM     48  C   UNL A   1      39.516  34.555  31.818  1.00  0.00     0.029 A 
ATOM     49  C   UNL A   1      40.569  33.547  31.935  1.00  0.00     0.049 A 
ATOM     50  H   UNL A   1      40.664  31.713  30.951  1.00  0.00     0.167 HD
ATOM     51  C   UNL A   1      40.764  27.851  28.976  1.00  0.00     0.031 A 
ATOM     52  C   UNL A   1      41.672  33.647  32.707  1.00  0.00     0.031 A 
ATOM     53  C   UNL A   1      42.002  27.906  29.708  1.00  0.00     0.049 A 
ATOM     54  C   UNL A   1      42.670  32.516  32.747  1.00  0.00     0.074 A 
ATOM     55  C   UNL A   1      43.028  26.976  29.733  1.00  0.00     0.029 A 
ATOM     56  N   UNL A   1      42.377  28.937  30.553  1.00  0.00    -0.354 N 
ATOM     57  N   UNL A   1      42.670  31.385  32.084  1.00  0.00    -0.248 NA
ATOM     58  C   UNL A   1      43.827  32.682  33.643  1.00  0.00     0.031 C 
ATOM     59  C   UNL A   1      43.994  27.414  30.644  1.00  0.00     0.029 A 
ATOM     60  C   UNL A   1      43.603  28.650  31.131  1.00  0.00     0.049 A 
ATOM     61  H   UNL A   1      41.851  29.752  30.719  1.00  0.00     0.167 HD
ATOM     62  C   UNL A   1      43.835  30.723  32.459  1.00  0.00     0.074 A 
ATOM     63  C   UNL A   1      44.527  31.583  33.394  1.00  0.00     0.031 C 
ATOM     64  C   UNL A   1      44.289  29.508  32.062  1.00  0.00     0.031 A 
BRANCH  51  65
ATOM     65  C   UNL A   1      40.484  26.625  28.152  1.00  0.00    -0.014 A 
ATOM     66  C   UNL A   1      39.765  25.539  28.676  1.00  0.00     0.009 A 
ATOM     67  C   UNL A   1      40.914  26.573  26.816  1.00  0.00     0.009 A 
ATOM     68  C   UNL A   1      39.513  24.413  27.889  1.00  0.00     0.001 A 
ATOM     69  C   UNL A   1      40.632  25.460  26.024  1.00  0.00     0.001 A 
ATOM     70  C   UNL A   1      39.942  24.377  26.563  1.00  0.00     0.000 A 
ENDBRANCH  51  65
BRANCH  52  71
ATOM     71  C   UNL A   1      41.886  34.853  33.557  1.00  0.00    -0.014 A 
ATOM     72  C   UNL A   1      42.770  35.869  33.159  1.00  0.00     0.009 A 
ATOM     73  C   UNL A   1      41.242  34.968  34.800  1.00  0.00     0.009 A 
ATOM     74  C   UNL A   1      43.025  36.957  33.999  1.00  0.00     0.001 A 
ATOM     75  C   UNL A   1      41.473  36.073  35.622  1.00  0.00     0.001 A 
ATOM     76  C   UNL A   1      42.372  37.061  35.226  1.00  0.00     0.000 A 
ENDBRANCH  52  71
BRANCH  64  77
ATOM     77  C   UNL A   1      45.617  29.046  32.604  1.00  0.00    -0.014 A 
ATOM     78  C   UNL A   1      45.731  28.467  33.878  1.00  0.00     0.009 A 
ATOM     79  C   UNL A   1      46.768  29.154  31.806  1.00  0.00     0.009 A 
ATOM     80  C   UNL A   1      46.973  28.041  34.354  1.00  0.00     0.001 A 
ATOM     81  C   UNL A   1      48.003  28.696  32.270  1.00  0.00     0.001 A 
ATOM     82  C   UNL A   1      48.107  28.149  33.548  1.00  0.00     0.000 A 
ENDBRANCH  64  77
ENDBRANCH  38  39
ENDBRANCH  31  33
ENDBRANCH  30  31
ENDBRANCH  29  30
ENDBRANCH  28  29
ENDBRANCH  27  28
ENDBRANCH  26  27
ENDBRANCH   1  26
TORSDOF 20
ENDMDL
MODEL 2
REMARK VINA RESULT:      -9.2      2.411      6.901
REMARK SMILES C[C@]1(C(=O)OCCOCCOCCOC(=O)c2ccc(-c3c4nc(c(-c5ccccc5)c5ccc([nH]5)c(-c5ccccc5)c5nc(c(-c6ccccc6)c6ccc3[nH]6)C=C5)C=C4)cc2)CCN(c2ccc([N+](=O)[O-])c(N)n2)C1
REMARK SMILES IDX 9 1 8 2 7 3 6 4 5 5 3 6 4 7 2 8 1 9 65 10 78 11 66 12 67 13
REMARK SMILES IDX 68 14 69 15 77 16 70 17 75 18 71 19 76 20 72 23 73 24 74 25
REMARK SMILES IDX 10 26 11 27 12 28 13 29 14 30 15 31 16 32 17 33 18 34 64 35
REMARK SMILES IDX 19 36 63 37 20 38 21 39 22 40 57 41 23 42 62 43 56 44 58 45
REMARK SMILES IDX 24 46 61 47 55 48 54 49 25 51 47 52 32 53 46 54 33 55 36 56
REMARK SMILES IDX 45 57 59 58 34 59 35 60 44 62 60 63 37 64 26 65 27 66 31 67
REMARK SMILES IDX 28 68 30 69 29 70 48 71 49 72 53 73 50 74 52 75 51 76 38 77
REMARK SMILES IDX 39 78 43 79 40 80 42 81 41 82
REMARK H PARENT 76 21 76 22 58 50 36 61
REMARK Flexibility Score: inf
ROOT
ATOM      1  C   UNL A   1      33.725  36.856  33.355  1.00  0.00     0.188 C 
ENDROOT
BRANCH   1   2
ATOM      2  O   UNL A   1      35.013  36.275  33.233  1.00  0.00    -0.376 OA
BRANCH   2   3
ATOM      3  C   UNL A   1      35.084  34.968  32.666  1.00  0.00     0.202 C 
BRANCH   3   4
ATOM      4  C   UNL A   1      36.113  33.992  33.261  1.00  0.00     0.261 C 
BRANCH   4   5
ATOM      5  O   UNL A   1      37.059  34.584  34.181  1.00  0.00    -0.463 OA
BRANCH   5   6
ATOM      6  C   UNL A   1      37.143  34.001  35.410  1.00  0.00     0.313 C 
ATOM      7  O   UNL A   1      36.166  33.647  36.061  1.00  0.00    -0.252 OA
BRANCH   6   8
ATOM      8  C   UNL A   1      38.576  33.787  35.904  1.00  0.00     0.084 C 
ATOM      9  C   UNL A   1      39.420  35.054  36.141  1.00  0.00     0.026 C 
ATOM     10  C   UNL A   1      38.505  32.939  37.185  1.00  0.00     0.042 C 
ATOM     11  C   UNL A   1      39.307  32.824  34.933  1.00  0.00     0.136 C 
ATOM     12  C   UNL A   1      39.804  32.138  37.195  1.00  0.00     0.119 C 
ATOM     13  N   UNL A   1      40.209  32.059  35.795  1.00  0.00    -0.355 N 
BRANCH  13  14
ATOM     14  C   UNL A   1      40.736  30.873  35.322  1.00  0.00     0.131 A 
ATOM     15  C   UNL A   1      41.360  30.825  34.081  1.00  0.00     0.054 A 
ATOM     16  N   UNL A   1      40.669  29.775  36.106  1.00  0.00    -0.207 NA
ATOM     17  C   UNL A   1      41.965  29.640  33.663  1.00  0.00     0.093 A 
ATOM     18  C   UNL A   1      41.216  28.607  35.700  1.00  0.00     0.204 A 
ATOM     19  C   UNL A   1      41.899  28.517  34.494  1.00  0.00     0.311 A 
BRANCH  18  20
ATOM     20  N   UNL A   1      41.103  27.597  36.630  1.00  0.00    -0.378 N 
ATOM     21  H   UNL A   1      41.390  27.749  37.560  1.00  0.00     0.158 HD
ATOM     22  H   UNL A   1      40.736  26.723  36.366  1.00  0.00     0.158 HD
ENDBRANCH  18  20
BRANCH  19  23
ATOM     23  N   UNL A   1      42.540  27.277  34.070  1.00  0.00     0.066 N 
ATOM     24  O   UNL A   1      42.896  27.196  32.884  1.00  0.00    -0.258 OA
ATOM     25  O   UNL A   1      42.669  26.360  34.896  1.00  0.00    -0.258 OA
ENDBRANCH  19  23
ENDBRANCH  13  14
ENDBRANCH   6   8
ENDBRANCH   5   6
ENDBRANCH   4   5
ENDBRANCH   3   4
ENDBRANCH   2   3
ENDBRANCH   1   2
BRANCH   1  26
ATOM     26  C   UNL A   1      32.581  36.202  32.579  1.00  0.00     0.188 C 
BRANCH  26  27
ATOM     27  O   UNL A   1      32.173  36.838  31.383  1.00  0.00    -0.376 OA
BRANCH  27  28
ATOM     28  C   UNL A   1      33.190  37.038  30.397  1.00  0.00     0.202 C 
BRANCH  28  29
ATOM     29  C   UNL A   1      33.148  36.116  29.154  1.00  0.00     0.261 C 
BRANCH  29  30
ATOM     30  O   UNL A   1      32.626  34.778  29.343  1.00  0.00    -0.460 OA
BRANCH  30  31
ATOM     31  C   UNL A   1      33.008  33.812  28.474  1.00  0.00     0.338 C 
ATOM     32  O   UNL A   1      32.466  33.544  27.413  1.00  0.00    -0.246 OA
BRANCH  31  33
ATOM     33  C   UNL A   1      34.369  33.326  28.857  1.00  0.00     0.060 A 
ATOM     34  C   UNL A   1      35.455  33.703  28.050  1.00  0.00     0.016 A 
ATOM     35  C   UNL A   1      34.607  32.594  30.024  1.00  0.00     0.016 A 
ATOM     36  C   UNL A   1      36.761  33.323  28.384  1.00  0.00     0.010 A 
ATOM     37  C   UNL A   1      35.915  32.197  30.347  1.00  0.00     0.010 A 
ATOM     38  C   UNL A   1      37.000  32.534  29.517  1.00  0.00    -0.014 A 
BRANCH  38  39
ATOM     39  C   UNL A   1      38.341  31.920  29.740  1.00  0.00     0.031 A 
ATOM     40  C   UNL A   1      39.391  32.724  30.464  1.00  0.00     0.074 A 
ATOM     41  C   UNL A   1      38.639  30.672  29.331  1.00  0.00     0.049 A 
ATOM     42  N   UNL A   1      40.641  32.428  30.717  1.00  0.00    -0.248 NA
ATOM     43  C   UNL A   1      38.968  34.040  30.972  1.00  0.00     0.031 C 
ATOM     44  C   UNL A   1      37.721  29.750  28.666  1.00  0.00     0.029 A 
ATOM     45  N   UNL A   1      39.821  29.969  29.409  1.00  0.00    -0.354 N 
ATOM     46  C   UNL A   1      41.157  33.520  31.405  1.00  0.00     0.074 A 
ATOM     47  C   UNL A   1      40.092  34.496  31.504  1.00  0.00     0.031 C 
ATOM     48  C   UNL A   1      38.377  28.609  28.385  1.00  0.00     0.029 A 
ATOM     49  C   UNL A   1      39.771  28.732  28.811  1.00  0.00     0.049 A 
ATOM     50  H   UNL A   1      40.627  30.321  29.853  1.00  0.00     0.167 HD
ATOM     51  C   UNL A   1      42.400  33.702  31.914  1.00  0.00     0.031 A 
ATOM     52  C   UNL A   1      40.741  27.818  28.603  1.00  0.00     0.031 A 
ATOM     53  C   UNL A   1      43.475  32.752  31.804  1.00  0.00     0.049 A 
ATOM     54  C   UNL A   1      42.147  28.086  29.083  1.00  0.00     0.074 A 
ATOM     55  C   UNL A   1      44.765  32.853  32.296  1.00  0.00     0.029 A 
ATOM     56  N   UNL A   1      43.392  31.536  31.147  1.00  0.00    -0.354 N 
ATOM     57  N   UNL A   1      42.614  29.114  29.749  1.00  0.00    -0.248 NA
ATOM     58  C   UNL A   1      43.160  27.060  28.783  1.00  0.00     0.031 C 
ATOM     59  C   UNL A   1      45.483  31.727  31.881  1.00  0.00     0.029 A 
ATOM     60  C   UNL A   1      44.618  30.892  31.192  1.00  0.00     0.049 A 
ATOM     61  H   UNL A   1      42.583  31.181  30.713  1.00  0.00     0.167 HD
ATOM     62  C   UNL A   1      43.961  28.844  29.973  1.00  0.00     0.074 A 
ATOM     63  C   UNL A   1      44.233  27.550  29.387  1.00  0.00     0.031 C 
ATOM     64  C   UNL A   1      44.888  29.604  30.607  1.00  0.00     0.031 A 
BRANCH  51  65
ATOM     65  C   UNL A   1      42.678  35.007  32.607  1.00  0.00    -0.014 A 
ATOM     66  C   UNL A   1      42.292  35.226  33.939  1.00  0.00     0.009 A 
ATOM     67  C   UNL A   1      43.373  36.021  31.927  1.00  0.00     0.009 A 
ATOM     68  C   UNL A   1      42.566  36.445  34.563  1.00  0.00     0.001 A 
ATOM     69  C   UNL A   1      43.672  37.225  32.564  1.00  0.00     0.001 A 
ATOM     70  C   UNL A   1      43.260  37.441  33.877  1.00  0.00     0.000 A 
ENDBRANCH  51  65
BRANCH  52  71
ATOM     71  C   UNL A   1      40.442  26.561  27.859  1.00  0.00    -0.014 A 
ATOM     72  C   UNL A   1      40.785  26.425  26.504  1.00  0.00     0.009 A 
ATOM     73  C   UNL A   1      39.762  25.508  28.492  1.00  0.00     0.009 A 
ATOM     74  C   UNL A   1      40.428  25.275  25.794  1.00  0.00     0.001 A 
ATOM     75  C   UNL A   1      39.438  24.345  27.789  1.00  0.00     0.001 A 
ATOM     76  C   UNL A   1      39.762  24.234  26.439  1.00  0.00     0.000 A 
ENDBRANCH  52  71
BRANCH  64  77
ATOM     77  C   UNL A   1      46.280  29.043  30.741  1.00  0.00    -0.014 A 
ATOM     78  C   UNL A   1      46.673  28.312  31.872  1.00  0.00     0.009 A 
ATOM     79  C   UNL A   1      47.200  29.214  29.693  1.00  0.00     0.009 A 
ATOM     80  C   UNL A   1      47.968  27.796  31.968  1.00  0.00     0.001 A 
ATOM     81  C   UNL A   1      48.484  28.669  29.776  1.00  0.00     0.001 A 
ATOM     82  C   UNL A   1      48.870  27.969  30.918  1.00  0.00     0.000 A 
ENDBRANCH  64  77
ENDBRANCH  38  39
ENDBRANCH  31  33
ENDBRANCH  30  31
ENDBRANCH  29  30
ENDBRANCH  28  29
ENDBRANCH  27  28
ENDBRANCH  26  27
ENDBRANCH   1  26
TORSDOF 20
ENDMDL
MODEL 3
REMARK VINA RESULT:      -9.2      0.923      5.915
REMARK SMILES C[C@]1(C(=O)OCCOCCOCCOC(=O)c2ccc(-c3c4nc(c(-c5ccccc5)c5ccc([nH]5)c(-c5ccccc5)c5nc(c(-c6ccccc6)c6ccc3[nH]6)C=C5)C=C4)cc2)CCN(c2ccc([N+](=O)[O-])c(N)n2)C1
REMARK SMILES IDX 9 1 8 2 7 3 6 4 5 5 3 6 4 7 2 8 1 9 65 10 78 11 66 12 67 13
REMARK SMILES IDX 68 14 69 15 77 16 70 17 75 18 71 19 76 20 72 23 73 24 74 25
REMARK SMILES IDX 10 26 11 27 12 28 13 29 14 30 15 31 16 32 17 33 18 34 64 35
REMARK SMILES IDX 19 36 63 37 20 38 21 39 22 40 57 41 23 42 62 43 56 44 58 45
REMARK SMILES IDX 24 46 61 47 55 48 54 49 25 51 47 52 32 53 46 54 33 55 36 56
REMARK SMILES IDX 45 57 59 58 34 59 35 60 44 62 60 63 37 64 26 65 27 66 31 67
REMARK SMILES IDX 28 68 30 69 29 70 48 71 49 72 53 73 50 74 52 75 51 76 38 77
REMARK SMILES IDX 39 78 43 79 40 80 42 81 41 82
REMARK H PARENT 76 21 76 22 58 50 36 61
REMARK Flexibility Score: inf
ROOT
ATOM      1  C   UNL A   1      33.892  36.868  33.314  1.00  0.00     0.188 C 
ENDROOT
BRANCH   1   2
ATOM      2  O   UNL A   1      35.137  36.197  33.222  1.00  0.00    -0.376 OA
BRANCH   2   3
ATOM      3  C   UNL A   1      35.101  34.781  33.048  1.00  0.00     0.202 C 
BRANCH   3   4
ATOM      4  C   UNL A   1      35.531  33.909  34.239  1.00  0.00     0.261 C 
BRANCH   4   5
ATOM      5  O   UNL A   1      36.857  33.341  34.137  1.00  0.00    -0.463 OA
BRANCH   5   6
ATOM      6  C   UNL A   1      37.858  34.045  34.736  1.00  0.00     0.313 C 
ATOM      7  O   UNL A   1      38.143  35.201  34.440  1.00  0.00    -0.252 OA
BRANCH   6   8
ATOM      8  C   UNL A   1      38.582  33.281  35.846  1.00  0.00     0.084 C 
ATOM      9  C   UNL A   1      39.671  32.285  35.401  1.00  0.00     0.026 C 
ATOM     10  C   UNL A   1      39.167  34.318  36.820  1.00  0.00     0.042 C 
ATOM     11  C   UNL A   1      37.533  32.572  36.740  1.00  0.00     0.136 C 
ATOM     12  C   UNL A   1      39.164  33.624  38.179  1.00  0.00     0.119 C 
ATOM     13  N   UNL A   1      38.116  32.612  38.082  1.00  0.00    -0.355 N 
BRANCH  13  14
ATOM     14  C   UNL A   1      37.294  32.402  39.172  1.00  0.00     0.131 A 
ATOM     15  C   UNL A   1      37.827  31.977  40.384  1.00  0.00     0.054 A 
ATOM     16  N   UNL A   1      35.973  32.656  39.049  1.00  0.00    -0.207 NA
ATOM     17  C   UNL A   1      36.994  31.859  41.495  1.00  0.00     0.093 A 
ATOM     18  C   UNL A   1      35.144  32.509  40.106  1.00  0.00     0.204 A 
ATOM     19  C   UNL A   1      35.631  32.140  41.353  1.00  0.00     0.311 A 
BRANCH  18  20
ATOM     20  N   UNL A   1      33.838  32.851  39.829  1.00  0.00    -0.378 N 
ATOM     21  H   UNL A   1      33.503  32.806  38.904  1.00  0.00     0.158 HD
ATOM     22  H   UNL A   1      33.240  33.140  40.556  1.00  0.00     0.158 HD
ENDBRANCH  18  20
BRANCH  19  23
ATOM     23  N   UNL A   1      34.755  32.031  42.514  1.00  0.00     0.066 N 
ATOM     24  O   UNL A   1      35.253  31.597  43.565  1.00  0.00    -0.258 OA
ATOM     25  O   UNL A   1      33.561  32.343  42.391  1.00  0.00    -0.258 OA
ENDBRANCH  19  23
ENDBRANCH  13  14
ENDBRANCH   6   8
ENDBRANCH   5   6
ENDBRANCH   4   5
ENDBRANCH   3   4
ENDBRANCH   2   3
ENDBRANCH   1   2
BRANCH   1  26
ATOM     26  C   UNL A   1      32.695  36.233  32.605  1.00  0.00     0.188 C 
BRANCH  26  27
ATOM     27  O   UNL A   1      32.253  36.856  31.413  1.00  0.00    -0.376 OA
BRANCH  27  28
ATOM     28  C   UNL A   1      33.233  37.016  30.384  1.00  0.00     0.202 C 
BRANCH  28  29
ATOM     29  C   UNL A   1      33.030  36.184  29.093  1.00  0.00     0.261 C 
BRANCH  29  30
ATOM     30  O   UNL A   1      32.521  34.837  29.250  1.00  0.00    -0.460 OA
BRANCH  30  31
ATOM     31  C   UNL A   1      32.944  33.887  28.382  1.00  0.00     0.338 C 
ATOM     32  O   UNL A   1      32.450  33.637  27.294  1.00  0.00    -0.246 OA
BRANCH  31  33
ATOM     33  C   UNL A   1      34.288  33.398  28.816  1.00  0.00     0.060 A 
ATOM     34  C   UNL A   1      35.384  33.644  27.972  1.00  0.00     0.016 A 
ATOM     35  C   UNL A   1      34.505  32.790  30.056  1.00  0.00     0.016 A 
ATOM     36  C   UNL A   1      36.677  33.257  28.345  1.00  0.00     0.010 A 
ATOM     37  C   UNL A   1      35.800  32.384  30.421  1.00  0.00     0.010 A 
ATOM     38  C   UNL A   1      36.893  32.590  29.559  1.00  0.00    -0.014 A 
BRANCH  38  39
ATOM     39  C   UNL A   1      38.211  31.956  29.847  1.00  0.00     0.031 A 
ATOM     40  C   UNL A   1      39.223  32.731  30.655  1.00  0.00     0.074 A 
ATOM     41  C   UNL A   1      38.523  30.716  29.426  1.00  0.00     0.049 A 
ATOM     42  N   UNL A   1      40.452  32.414  30.976  1.00  0.00    -0.248 NA
ATOM     43  C   UNL A   1      38.781  34.037  31.169  1.00  0.00     0.031 C 
ATOM     44  C   UNL A   1      37.640  29.820  28.683  1.00  0.00     0.029 A 
ATOM     45  N   UNL A   1      39.691  29.998  29.558  1.00  0.00    -0.354 N 
ATOM     46  C   UNL A   1      40.934  33.484  31.722  1.00  0.00     0.074 A 
ATOM     47  C   UNL A   1      39.874  34.468  31.780  1.00  0.00     0.031 C 
ATOM     48  C   UNL A   1      38.301  28.679  28.413  1.00  0.00     0.029 A 
ATOM     49  C   UNL A   1      39.668  28.777  28.927  1.00  0.00     0.049 A 
ATOM     50  H   UNL A   1      40.472  30.330  30.060  1.00  0.00     0.167 HD
ATOM     51  C   UNL A   1      42.145  33.640  32.311  1.00  0.00     0.031 A 
ATOM     52  C   UNL A   1      40.640  27.858  28.755  1.00  0.00     0.031 A 
ATOM     53  C   UNL A   1      43.217  32.682  32.243  1.00  0.00     0.049 A 
ATOM     54  C   UNL A   1      42.016  28.100  29.327  1.00  0.00     0.074 A 
ATOM     55  C   UNL A   1      44.475  32.757  32.816  1.00  0.00     0.029 A 
ATOM     56  N   UNL A   1      43.163  31.483  31.551  1.00  0.00    -0.354 N 
ATOM     57  N   UNL A   1      42.451  29.106  30.047  1.00  0.00    -0.248 NA
ATOM     58  C   UNL A   1      43.036  27.070  29.064  1.00  0.00     0.031 C 
ATOM     59  C   UNL A   1      45.206  31.634  32.416  1.00  0.00     0.029 A 
ATOM     60  C   UNL A   1      44.378  30.825  31.654  1.00  0.00     0.049 A 
ATOM     61  H   UNL A   1      42.379  31.148  31.060  1.00  0.00     0.167 HD
ATOM     62  C   UNL A   1      43.779  28.816  30.345  1.00  0.00     0.074 A 
ATOM     63  C   UNL A   1      44.075  27.534  29.745  1.00  0.00     0.031 C 
ATOM     64  C   UNL A   1      44.672  29.550  31.055  1.00  0.00     0.031 A 
BRANCH  51  65
ATOM     65  C   UNL A   1      42.392  34.924  33.052  1.00  0.00    -0.014 A 
ATOM     66  C   UNL A   1      43.125  35.974  32.475  1.00  0.00     0.009 A 
ATOM     67  C   UNL A   1      41.849  35.102  34.335  1.00  0.00     0.009 A 
ATOM     68  C   UNL A   1      43.337  37.160  33.182  1.00  0.00     0.001 A 
ATOM     69  C   UNL A   1      42.036  36.300  35.025  1.00  0.00     0.001 A 
ATOM     70  C   UNL A   1      42.788  37.323  34.453  1.00  0.00     0.000 A 
ENDBRANCH  51  65
BRANCH  52  71
ATOM     71  C   UNL A   1      40.376  26.623  27.963  1.00  0.00    -0.014 A 
ATOM     72  C   UNL A   1      39.746  25.512  28.547  1.00  0.00     0.009 A 
ATOM     73  C   UNL A   1      40.799  26.533  26.627  1.00  0.00     0.009 A 
ATOM     74  C   UNL A   1      39.574  24.331  27.819  1.00  0.00     0.001 A 
ATOM     75  C   UNL A   1      40.595  25.364  25.892  1.00  0.00     0.001 A 
ATOM     76  C   UNL A   1      39.992  24.260  26.492  1.00  0.00     0.000 A 
ENDBRANCH  52  71
BRANCH  64  77
ATOM     77  C   UNL A   1      46.048  28.971  31.259  1.00  0.00    -0.014 A 
ATOM     78  C   UNL A   1      46.379  28.252  32.418  1.00  0.00     0.009 A 
ATOM     79  C   UNL A   1      47.017  29.112  30.252  1.00  0.00     0.009 A 
ATOM     80  C   UNL A   1      47.660  27.719  32.579  1.00  0.00     0.001 A 
ATOM     81  C   UNL A   1      48.286  28.550  30.400  1.00  0.00     0.001 A 
ATOM     82  C   UNL A   1      48.611  27.863  31.568  1.00  0.00     0.000 A 
ENDBRANCH  64  77
ENDBRANCH  38  39
ENDBRANCH  31  33
ENDBRANCH  30  31
ENDBRANCH  29  30
ENDBRANCH  28  29
ENDBRANCH  27  28
ENDBRANCH  26  27
ENDBRANCH   1  26
TORSDOF 20
ENDMDL
