MODEL 1
REMARK VINA RESULT:     -13.9      0.000      0.000
REMARK SMILES O=C(OCCOCCOCCOC(=O)[C@H]1[C@@H](C(=O)Nc2ccccc2-c2ccccc2)[C@@H]2C=C[C@H]1O2)c1ccc(-c2c3nc(c(-c4ccccc4)c4ccc([nH]4)c(-c4ccccc4)c4nc(c(-c5ccccc5)c5ccc2[nH]5)C=C4)C=C3)cc1
REMARK SMILES IDX 8 1 7 2 6 3 5 4 4 5 3 6 2 7 1 8 37 9 38 10 84 11 39 12 83 13
REMARK SMILES IDX 40 14 41 15 42 16 77 17 43 18 82 19 76 20 78 21 44 22 81 23
REMARK SMILES IDX 75 24 74 25 45 27 67 28 52 29 66 30 53 31 56 32 65 33 79 34
REMARK SMILES IDX 54 35 55 36 64 38 80 39 57 40 46 41 47 42 51 43 48 44 50 45
REMARK SMILES IDX 49 46 68 47 69 48 73 49 70 50 72 51 71 52 58 53 59 54 63 55
REMARK SMILES IDX 60 56 62 57 61 58 9 59 10 60 11 61 12 62 13 63 14 64 15 65
REMARK SMILES IDX 16 66 35 67 32 68 34 69 36 70 33 71 17 72 18 73 19 74 20 76
REMARK SMILES IDX 21 77 25 78 22 79 24 80 23 81 26 82 27 83 31 84 28 85 30 86
REMARK SMILES IDX 29 87
REMARK H PARENT 78 26 56 37 19 75
REMARK Flexibility Score: inf
ROOT
ATOM      1  C   UNL A   1      39.175  22.939  26.563  1.00  0.00     0.188 C 
ENDROOT
BRANCH   1   2
ATOM      2  C   UNL A   1      40.485  21.164  26.431  1.00  0.00     0.188 C 
BRANCH   2   3
ATOM      3  O   UNL A   1      42.040  21.070  25.716  1.00  0.00    -0.376 OA
BRANCH   3   4
ATOM      4  C   UNL A   1      43.215  21.932  25.792  1.00  0.00     0.202 C 
BRANCH   4   5
ATOM      5  C   UNL A   1      43.161  23.346  25.139  1.00  0.00     0.261 C 
BRANCH   5   6
ATOM      6  O   UNL A   1      42.322  24.295  25.817  1.00  0.00    -0.460 OA
BRANCH   6   7
ATOM      7  C   UNL A   1      42.273  25.644  25.666  1.00  0.00     0.338 C 
ATOM      8  O   UNL A   1      42.662  26.132  24.607  1.00  0.00    -0.246 OA
BRANCH   7   9
ATOM      9  C   UNL A   1      41.788  26.568  26.735  1.00  0.00     0.060 A 
ATOM     10  C   UNL A   1      42.265  27.857  26.892  1.00  0.00     0.016 A 
ATOM     11  C   UNL A   1      40.807  26.155  27.644  1.00  0.00     0.016 A 
ATOM     12  C   UNL A   1      41.788  28.764  27.784  1.00  0.00     0.010 A 
ATOM     13  C   UNL A   1      40.330  27.047  28.623  1.00  0.00     0.010 A 
ATOM     14  C   UNL A   1      40.834  28.358  28.678  1.00  0.00    -0.014 A 
BRANCH  14  15
ATOM     15  C   UNL A   1      40.748  29.273  29.814  1.00  0.00     0.031 A 
ATOM     16  C   UNL A   1      39.581  30.196  29.804  1.00  0.00     0.074 A 
ATOM     17  C   UNL A   1      41.425  29.023  30.948  1.00  0.00     0.049 A 
ATOM     18  N   UNL A   1      39.220  31.059  30.705  1.00  0.00    -0.248 NA
ATOM     19  C   UNL A   1      38.643  30.072  28.668  1.00  0.00     0.031 C 
ATOM     20  C   UNL A   1      42.234  27.837  31.195  1.00  0.00     0.029 A 
ATOM     21  N   UNL A   1      41.538  29.710  32.115  1.00  0.00    -0.354 N 
ATOM     22  C   UNL A   1      38.042  31.605  30.228  1.00  0.00     0.074 A 
ATOM     23  C   UNL A   1      37.738  30.986  28.963  1.00  0.00     0.031 C 
ATOM     24  C   UNL A   1      42.934  27.967  32.327  1.00  0.00     0.029 A 
ATOM     25  C   UNL A   1      42.516  29.206  32.944  1.00  0.00     0.049 A 
ATOM     26  H   UNL A   1      40.979  30.488  32.345  1.00  0.00     0.167 HD
ATOM     27  C   UNL A   1      37.300  32.562  30.817  1.00  0.00     0.031 A 
ATOM     28  C   UNL A   1      43.007  29.708  34.083  1.00  0.00     0.031 A 
ATOM     29  C   UNL A   1      37.685  33.157  32.062  1.00  0.00     0.049 A 
ATOM     30  C   UNL A   1      42.304  30.921  34.602  1.00  0.00     0.074 A 
ATOM     31  C   UNL A   1      37.099  34.209  32.731  1.00  0.00     0.029 A 
ATOM     32  N   UNL A   1      38.783  32.750  32.816  1.00  0.00    -0.354 N 
ATOM     33  N   UNL A   1      41.256  31.532  34.101  1.00  0.00    -0.248 NA
ATOM     34  C   UNL A   1      42.808  31.487  35.850  1.00  0.00     0.031 C 
ATOM     35  C   UNL A   1      37.899  34.501  33.839  1.00  0.00     0.029 A 
ATOM     36  C   UNL A   1      38.919  33.562  33.923  1.00  0.00     0.049 A 
ATOM     37  H   UNL A   1      39.374  31.996  32.591  1.00  0.00     0.167 HD
ATOM     38  C   UNL A   1      40.931  32.526  35.001  1.00  0.00     0.074 A 
ATOM     39  C   UNL A   1      41.901  32.425  36.081  1.00  0.00     0.031 C 
ATOM     40  C   UNL A   1      39.919  33.426  34.957  1.00  0.00     0.031 A 
BRANCH  27  41
ATOM     41  C   UNL A   1      36.150  33.093  30.021  1.00  0.00    -0.014 A 
ATOM     42  C   UNL A   1      34.828  32.662  30.224  1.00  0.00     0.009 A 
ATOM     43  C   UNL A   1      36.424  33.979  28.968  1.00  0.00     0.009 A 
ATOM     44  C   UNL A   1      33.814  33.078  29.358  1.00  0.00     0.001 A 
ATOM     45  C   UNL A   1      35.403  34.422  28.130  1.00  0.00     0.001 A 
ATOM     46  C   UNL A   1      34.101  33.961  28.317  1.00  0.00     0.000 A 
ENDBRANCH  27  41
BRANCH  28  47
ATOM     47  C   UNL A   1      44.158  29.077  34.777  1.00  0.00    -0.014 A 
ATOM     48  C   UNL A   1      45.477  29.421  34.447  1.00  0.00     0.009 A 
ATOM     49  C   UNL A   1      43.943  28.104  35.767  1.00  0.00     0.009 A 
ATOM     50  C   UNL A   1      46.553  28.765  35.051  1.00  0.00     0.001 A 
ATOM     51  C   UNL A   1      45.021  27.468  36.390  1.00  0.00     0.001 A 
ATOM     52  C   UNL A   1      46.325  27.787  36.019  1.00  0.00     0.000 A 
ENDBRANCH  28  47
BRANCH  40  53
ATOM     53  C   UNL A   1      39.791  34.330  36.143  1.00  0.00    -0.014 A 
ATOM     54  C   UNL A   1      40.403  35.591  36.177  1.00  0.00     0.009 A 
ATOM     55  C   UNL A   1      39.009  33.912  37.230  1.00  0.00     0.009 A 
ATOM     56  C   UNL A   1      40.278  36.395  37.309  1.00  0.00     0.001 A 
ATOM     57  C   UNL A   1      38.841  34.741  38.335  1.00  0.00     0.001 A 
ATOM     58  C   UNL A   1      39.492  35.973  38.380  1.00  0.00     0.000 A 
ENDBRANCH  40  53
ENDBRANCH  14  15
ENDBRANCH   7   9
ENDBRANCH   6   7
ENDBRANCH   5   6
ENDBRANCH   4   5
ENDBRANCH   3   4
ENDBRANCH   2   3
ENDBRANCH   1   2
BRANCH   1  59
ATOM     59  O   UNL A   1      37.680  22.955  25.436  1.00  0.00    -0.376 OA
BRANCH  59  60
ATOM     60  C   UNL A   1      35.999  23.099  26.004  1.00  0.00     0.202 C 
BRANCH  60  61
ATOM     61  C   UNL A   1      34.936  21.646  26.659  1.00  0.00     0.261 C 
BRANCH  61  62
ATOM     62  O   UNL A   1      33.726  20.825  25.752  1.00  0.00    -0.463 OA
BRANCH  62  63
ATOM     63  C   UNL A   1      32.589  21.369  25.103  1.00  0.00     0.312 C 
ATOM     64  O   UNL A   1      31.470  20.993  25.471  1.00  0.00    -0.252 OA
BRANCH  63  65
ATOM     65  C   UNL A   1      32.642  22.564  23.870  1.00  0.00     0.147 C 
ATOM     66  C   UNL A   1      32.058  24.054  24.193  1.00  0.00     0.129 C 
ATOM     67  C   UNL A   1      33.808  23.033  22.903  1.00  0.00     0.157 C 
ATOM     68  C   UNL A   1      32.912  24.993  23.311  1.00  0.00     0.155 C 
ATOM     69  C   UNL A   1      33.369  23.665  21.588  1.00  0.00     0.004 C 
ATOM     70  O   UNL A   1      34.184  24.321  23.455  1.00  0.00    -0.365 OA
ATOM     71  C   UNL A   1      32.757  24.823  21.852  1.00  0.00     0.004 C 
BRANCH  66  72
ATOM     72  C   UNL A   1      32.058  24.864  25.523  1.00  0.00     0.231 C 
ATOM     73  O   UNL A   1      32.910  24.625  26.385  1.00  0.00    -0.274 OA
ATOM     74  N   UNL A   1      30.978  25.694  25.856  1.00  0.00    -0.325 N 
ATOM     75  H   UNL A   1      30.513  25.557  26.713  1.00  0.00     0.169 HD
BRANCH  74  76
ATOM     76  C   UNL A   1      30.545  26.717  24.992  1.00  0.00     0.049 A 
ATOM     77  C   UNL A   1      29.178  26.259  24.345  1.00  0.00     0.027 A 
ATOM     78  C   UNL A   1      31.248  28.305  24.750  1.00  0.00     0.005 A 
ATOM     79  C   UNL A   1      28.238  27.387  23.462  1.00  0.00     0.002 A 
ATOM     80  C   UNL A   1      30.451  29.564  23.741  1.00  0.00     0.011 A 
ATOM     81  C   UNL A   1      28.847  29.138  22.993  1.00  0.00     0.001 A 
BRANCH  78  82
ATOM     82  C   UNL A   1      32.242  28.586  25.839  1.00  0.00    -0.016 A 
ATOM     83  C   UNL A   1      33.574  28.117  25.782  1.00  0.00     0.009 A 
ATOM     84  C   UNL A   1      31.995  29.673  26.694  1.00  0.00     0.009 A 
ATOM     85  C   UNL A   1      34.609  28.747  26.502  1.00  0.00     0.001 A 
ATOM     86  C   UNL A   1      33.021  30.296  27.417  1.00  0.00     0.001 A 
ATOM     87  C   UNL A   1      34.332  29.842  27.314  1.00  0.00     0.000 A 
ENDBRANCH  78  82
ENDBRANCH  74  76
ENDBRANCH  66  72
ENDBRANCH  63  65
ENDBRANCH  62  63
ENDBRANCH  61  62
ENDBRANCH  60  61
ENDBRANCH  59  60
ENDBRANCH   1  59
TORSDOF 20
ENDMDL
MODEL 2
REMARK VINA RESULT:     -13.9      2.664      8.501
REMARK SMILES O=C(OCCOCCOCCOC(=O)[C@H]1[C@@H](C(=O)Nc2ccccc2-c2ccccc2)[C@@H]2C=C[C@H]1O2)c1ccc(-c2c3nc(c(-c4ccccc4)c4ccc([nH]4)c(-c4ccccc4)c4nc(c(-c5ccccc5)c5ccc2[nH]5)C=C4)C=C3)cc1
REMARK SMILES IDX 8 1 7 2 6 3 5 4 4 5 3 6 2 7 1 8 37 9 38 10 84 11 39 12 83 13
REMARK SMILES IDX 40 14 41 15 42 16 77 17 43 18 82 19 76 20 78 21 44 22 81 23
REMARK SMILES IDX 75 24 74 25 45 27 67 28 52 29 66 30 53 31 56 32 65 33 79 34
REMARK SMILES IDX 54 35 55 36 64 38 80 39 57 40 46 41 47 42 51 43 48 44 50 45
REMARK SMILES IDX 49 46 68 47 69 48 73 49 70 50 72 51 71 52 58 53 59 54 63 55
REMARK SMILES IDX 60 56 62 57 61 58 9 59 10 60 11 61 12 62 13 63 14 64 15 65
REMARK SMILES IDX 16 66 35 67 32 68 34 69 36 70 33 71 17 72 18 73 19 74 20 76
REMARK SMILES IDX 21 77 25 78 22 79 24 80 23 81 26 82 27 83 31 84 28 85 30 86
REMARK SMILES IDX 29 87
REMARK H PARENT 78 26 56 37 19 75
REMARK Flexibility Score: inf
ROOT
ATOM      1  C   UNL A   1      28.868  33.108  22.975  1.00  0.00     0.188 C 
ENDROOT
BRANCH   1   2
ATOM      2  C   UNL A   1      29.853  31.811  24.469  1.00  0.00     0.188 C 
BRANCH   2   3
ATOM      3  O   UNL A   1      30.656  32.300  25.902  1.00  0.00    -0.376 OA
BRANCH   3   4
ATOM      4  C   UNL A   1      31.646  31.645  26.750  1.00  0.00     0.202 C 
BRANCH   4   5
ATOM      5  C   UNL A   1      32.840  32.479  27.304  1.00  0.00     0.261 C 
BRANCH   5   6
ATOM      6  O   UNL A   1      32.513  33.825  27.685  1.00  0.00    -0.460 OA
BRANCH   6   7
ATOM      7  C   UNL A   1      33.129  34.623  28.595  1.00  0.00     0.338 C 
ATOM      8  O   UNL A   1      32.735  35.780  28.727  1.00  0.00    -0.246 OA
BRANCH   7   9
ATOM      9  C   UNL A   1      34.281  34.168  29.432  1.00  0.00     0.060 A 
ATOM     10  C   UNL A   1      35.595  34.225  29.002  1.00  0.00     0.016 A 
ATOM     11  C   UNL A   1      34.071  33.651  30.715  1.00  0.00     0.016 A 
ATOM     12  C   UNL A   1      36.680  33.915  29.759  1.00  0.00     0.010 A 
ATOM     13  C   UNL A   1      35.166  33.262  31.508  1.00  0.00     0.010 A 
ATOM     14  C   UNL A   1      36.474  33.404  31.012  1.00  0.00    -0.014 A 
BRANCH  14  15
ATOM     15  C   UNL A   1      37.669  32.728  31.512  1.00  0.00     0.031 A 
ATOM     16  C   UNL A   1      38.151  33.183  32.844  1.00  0.00     0.074 A 
ATOM     17  C   UNL A   1      38.047  31.541  31.005  1.00  0.00     0.049 A 
ATOM     18  N   UNL A   1      39.137  32.722  33.552  1.00  0.00    -0.248 NA
ATOM     19  C   UNL A   1      37.364  34.243  33.510  1.00  0.00     0.031 C 
ATOM     20  C   UNL A   1      37.314  30.791  29.994  1.00  0.00     0.029 A 
ATOM     21  N   UNL A   1      39.108  30.733  31.267  1.00  0.00    -0.354 N 
ATOM     22  C   UNL A   1      39.113  33.458  34.723  1.00  0.00     0.074 A 
ATOM     23  C   UNL A   1      38.023  34.397  34.643  1.00  0.00     0.031 C 
ATOM     24  C   UNL A   1      38.036  29.754  29.557  1.00  0.00     0.029 A 
ATOM     25  C   UNL A   1      39.238  29.705  30.359  1.00  0.00     0.049 A 
ATOM     26  H   UNL A   1      39.721  30.868  32.025  1.00  0.00     0.167 HD
ATOM     27  C   UNL A   1      39.962  33.347  35.762  1.00  0.00     0.031 A 
ATOM     28  C   UNL A   1      40.233  28.822  30.210  1.00  0.00     0.031 A 
ATOM     29  C   UNL A   1      41.047  32.412  35.756  1.00  0.00     0.049 A 
ATOM     30  C   UNL A   1      41.295  28.874  31.260  1.00  0.00     0.074 A 
ATOM     31  C   UNL A   1      42.053  32.254  36.683  1.00  0.00     0.029 A 
ATOM     32  N   UNL A   1      41.270  31.482  34.743  1.00  0.00    -0.354 N 
ATOM     33  N   UNL A   1      41.358  29.649  32.318  1.00  0.00    -0.248 NA
ATOM     34  C   UNL A   1      42.389  27.915  31.134  1.00  0.00     0.031 C 
ATOM     35  C   UNL A   1      42.939  31.295  36.183  1.00  0.00     0.029 A 
ATOM     36  C   UNL A   1      42.427  30.776  35.001  1.00  0.00     0.049 A 
ATOM     37  H   UNL A   1      40.689  31.349  33.960  1.00  0.00     0.167 HD
ATOM     38  C   UNL A   1      42.470  29.237  33.023  1.00  0.00     0.074 A 
ATOM     39  C   UNL A   1      43.046  28.137  32.263  1.00  0.00     0.031 C 
ATOM     40  C   UNL A   1      42.963  29.703  34.196  1.00  0.00     0.031 A 
BRANCH  27  41
ATOM     41  C   UNL A   1      39.819  34.368  36.847  1.00  0.00    -0.014 A 
ATOM     42  C   UNL A   1      40.373  35.656  36.751  1.00  0.00     0.009 A 
ATOM     43  C   UNL A   1      39.194  33.982  38.043  1.00  0.00     0.009 A 
ATOM     44  C   UNL A   1      40.339  36.518  37.850  1.00  0.00     0.001 A 
ATOM     45  C   UNL A   1      39.127  34.859  39.123  1.00  0.00     0.001 A 
ATOM     46  C   UNL A   1      39.711  36.121  39.031  1.00  0.00     0.000 A 
ENDBRANCH  27  41
BRANCH  28  47
ATOM     47  C   UNL A   1      40.251  27.856  29.082  1.00  0.00    -0.014 A 
ATOM     48  C   UNL A   1      40.819  28.198  27.847  1.00  0.00     0.009 A 
ATOM     49  C   UNL A   1      39.677  26.582  29.231  1.00  0.00     0.009 A 
ATOM     50  C   UNL A   1      40.761  27.309  26.770  1.00  0.00     0.001 A 
ATOM     51  C   UNL A   1      39.644  25.684  28.160  1.00  0.00     0.001 A 
ATOM     52  C   UNL A   1      40.172  26.055  26.925  1.00  0.00     0.000 A 
ENDBRANCH  28  47
BRANCH  40  53
ATOM     53  C   UNL A   1      44.155  28.981  34.742  1.00  0.00    -0.014 A 
ATOM     54  C   UNL A   1      44.021  27.867  35.582  1.00  0.00     0.009 A 
ATOM     55  C   UNL A   1      45.437  29.415  34.370  1.00  0.00     0.009 A 
ATOM     56  C   UNL A   1      45.155  27.235  36.087  1.00  0.00     0.001 A 
ATOM     57  C   UNL A   1      46.566  28.747  34.832  1.00  0.00     0.001 A 
ATOM     58  C   UNL A   1      46.424  27.669  35.705  1.00  0.00     0.000 A 
ENDBRANCH  40  53
ENDBRANCH  14  15
ENDBRANCH   7   9
ENDBRANCH   6   7
ENDBRANCH   5   6
ENDBRANCH   4   5
ENDBRANCH   3   4
ENDBRANCH   2   3
ENDBRANCH   1   2
BRANCH   1  59
ATOM     59  O   UNL A   1      27.793  32.248  21.707  1.00  0.00    -0.376 OA
BRANCH  59  60
ATOM     60  C   UNL A   1      28.000  30.554  21.201  1.00  0.00     0.202 C 
BRANCH  60  61
ATOM     61  C   UNL A   1      28.713  29.160  22.306  1.00  0.00     0.261 C 
BRANCH  61  62
ATOM     62  O   UNL A   1      30.314  28.538  22.194  1.00  0.00    -0.463 OA
BRANCH  62  63
ATOM     63  C   UNL A   1      30.742  27.187  22.248  1.00  0.00     0.312 C 
ATOM     64  O   UNL A   1      31.259  26.696  21.239  1.00  0.00    -0.252 OA
BRANCH  63  65
ATOM     65  C   UNL A   1      30.647  26.185  23.641  1.00  0.00     0.147 C 
ATOM     66  C   UNL A   1      31.646  24.899  23.752  1.00  0.00     0.129 C 
ATOM     67  C   UNL A   1      30.618  26.528  25.188  1.00  0.00     0.157 C 
ATOM     68  C   UNL A   1      31.881  24.736  25.272  1.00  0.00     0.155 C 
ATOM     69  C   UNL A   1      29.956  25.490  26.087  1.00  0.00     0.004 C 
ATOM     70  O   UNL A   1      31.944  26.136  25.628  1.00  0.00    -0.365 OA
ATOM     71  C   UNL A   1      30.693  24.376  26.072  1.00  0.00     0.004 C 
BRANCH  66  72
ATOM     72  C   UNL A   1      33.103  24.713  23.236  1.00  0.00     0.231 C 
ATOM     73  O   UNL A   1      33.875  25.676  23.224  1.00  0.00    -0.274 OA
ATOM     74  N   UNL A   1      33.483  23.537  22.573  1.00  0.00    -0.325 N 
ATOM     75  H   UNL A   1      33.878  23.599  21.673  1.00  0.00     0.169 HD
BRANCH  74  76
ATOM     76  C   UNL A   1      33.313  22.272  23.166  1.00  0.00     0.049 A 
ATOM     77  C   UNL A   1      32.218  21.490  22.336  1.00  0.00     0.027 A 
ATOM     78  C   UNL A   1      34.224  21.557  24.483  1.00  0.00     0.005 A 
ATOM     79  C   UNL A   1      31.973  19.818  22.618  1.00  0.00     0.002 A 
ATOM     80  C   UNL A   1      33.993  19.846  24.991  1.00  0.00     0.011 A 
ATOM     81  C   UNL A   1      32.784  18.857  24.058  1.00  0.00     0.001 A 
BRANCH  78  82
ATOM     82  C   UNL A   1      35.468  22.360  24.727  1.00  0.00    -0.016 A 
ATOM     83  C   UNL A   1      35.489  23.467  25.606  1.00  0.00     0.009 A 
ATOM     84  C   UNL A   1      36.707  21.764  24.439  1.00  0.00     0.009 A 
ATOM     85  C   UNL A   1      36.684  23.909  26.207  1.00  0.00     0.001 A 
ATOM     86  C   UNL A   1      37.899  22.207  25.029  1.00  0.00     0.001 A 
ATOM     87  C   UNL A   1      37.889  23.273  25.923  1.00  0.00     0.000 A 
ENDBRANCH  78  82
ENDBRANCH  74  76
ENDBRANCH  66  72
ENDBRANCH  63  65
ENDBRANCH  62  63
ENDBRANCH  61  62
ENDBRANCH  60  61
ENDBRANCH  59  60
ENDBRANCH   1  59
TORSDOF 20
ENDMDL
MODEL 3
REMARK VINA RESULT:     -12.8      2.901      8.719
REMARK SMILES O=C(OCCOCCOCCOC(=O)[C@H]1[C@@H](C(=O)Nc2ccccc2-c2ccccc2)[C@@H]2C=C[C@H]1O2)c1ccc(-c2c3nc(c(-c4ccccc4)c4ccc([nH]4)c(-c4ccccc4)c4nc(c(-c5ccccc5)c5ccc2[nH]5)C=C4)C=C3)cc1
REMARK SMILES IDX 8 1 7 2 6 3 5 4 4 5 3 6 2 7 1 8 37 9 38 10 84 11 39 12 83 13
REMARK SMILES IDX 40 14 41 15 42 16 77 17 43 18 82 19 76 20 78 21 44 22 81 23
REMARK SMILES IDX 75 24 74 25 45 27 67 28 52 29 66 30 53 31 56 32 65 33 79 34
REMARK SMILES IDX 54 35 55 36 64 38 80 39 57 40 46 41 47 42 51 43 48 44 50 45
REMARK SMILES IDX 49 46 68 47 69 48 73 49 70 50 72 51 71 52 58 53 59 54 63 55
REMARK SMILES IDX 60 56 62 57 61 58 9 59 10 60 11 61 12 62 13 63 14 64 15 65
REMARK SMILES IDX 16 66 35 67 32 68 34 69 36 70 33 71 17 72 18 73 19 74 20 76
REMARK SMILES IDX 21 77 25 78 22 79 24 80 23 81 26 82 27 83 31 84 28 85 30 86
REMARK SMILES IDX 29 87
REMARK H PARENT 78 26 56 37 19 75
REMARK Flexibility Score: inf
ROOT
ATOM      1  C   UNL A   1      31.536  32.299  26.933  1.00  0.00     0.188 C 
ENDROOT
BRANCH   1   2
ATOM      2  C   UNL A   1      33.542  32.205  27.854  1.00  0.00     0.188 C 
BRANCH   2   3
ATOM      3  O   UNL A   1      34.601  33.513  28.178  1.00  0.00    -0.376 OA
BRANCH   3   4
ATOM      4  C   UNL A   1      34.441  34.960  28.074  1.00  0.00     0.202 C 
BRANCH   4   5
ATOM      5  C   UNL A   1      33.253  35.646  28.812  1.00  0.00     0.261 C 
BRANCH   5   6
ATOM      6  O   UNL A   1      32.732  34.914  29.932  1.00  0.00    -0.460 OA
BRANCH   6   7
ATOM      7  C   UNL A   1      33.037  35.047  31.249  1.00  0.00     0.338 C 
ATOM      8  O   UNL A   1      32.297  35.724  31.960  1.00  0.00    -0.246 OA
BRANCH   7   9
ATOM      9  C   UNL A   1      34.245  34.426  31.873  1.00  0.00     0.060 A 
ATOM     10  C   UNL A   1      35.537  34.742  31.495  1.00  0.00     0.016 A 
ATOM     11  C   UNL A   1      34.112  33.474  32.891  1.00  0.00     0.016 A 
ATOM     12  C   UNL A   1      36.664  34.279  32.096  1.00  0.00     0.010 A 
ATOM     13  C   UNL A   1      35.257  32.925  33.498  1.00  0.00     0.010 A 
ATOM     14  C   UNL A   1      36.534  33.343  33.087  1.00  0.00    -0.014 A 
BRANCH  14  15
ATOM     15  C   UNL A   1      37.794  32.639  33.319  1.00  0.00     0.031 A 
ATOM     16  C   UNL A   1      38.457  32.925  34.620  1.00  0.00     0.074 A 
ATOM     17  C   UNL A   1      38.105  31.540  32.608  1.00  0.00     0.049 A 
ATOM     18  N   UNL A   1      39.536  32.400  35.114  1.00  0.00    -0.248 NA
ATOM     19  C   UNL A   1      37.764  33.866  35.527  1.00  0.00     0.031 C 
ATOM     20  C   UNL A   1      37.242  30.912  31.617  1.00  0.00     0.029 A 
ATOM     21  N   UNL A   1      39.199  30.733  32.607  1.00  0.00    -0.354 N 
ATOM     22  C   UNL A   1      39.673  32.972  36.366  1.00  0.00     0.074 A 
ATOM     23  C   UNL A   1      38.576  33.884  36.567  1.00  0.00     0.031 C 
ATOM     24  C   UNL A   1      37.902  29.963  30.946  1.00  0.00     0.029 A 
ATOM     25  C   UNL A   1      39.206  29.840  31.558  1.00  0.00     0.049 A 
ATOM     26  H   UNL A   1      39.912  30.782  33.283  1.00  0.00     0.167 HD
ATOM     27  C   UNL A   1      40.662  32.747  37.252  1.00  0.00     0.031 A 
ATOM     28  C   UNL A   1      40.177  29.011  31.154  1.00  0.00     0.031 A 
ATOM     29  C   UNL A   1      41.742  31.850  36.967  1.00  0.00     0.049 A 
ATOM     30  C   UNL A   1      41.376  28.951  32.043  1.00  0.00     0.074 A 
ATOM     31  C   UNL A   1      42.871  31.597  37.715  1.00  0.00     0.029 A 
ATOM     32  N   UNL A   1      41.827  31.070  35.817  1.00  0.00    -0.354 N 
ATOM     33  N   UNL A   1      41.583  29.579  33.177  1.00  0.00    -0.248 NA
ATOM     34  C   UNL A   1      42.449  28.047  31.636  1.00  0.00     0.031 C 
ATOM     35  C   UNL A   1      43.684  30.737  36.971  1.00  0.00     0.029 A 
ATOM     36  C   UNL A   1      43.014  30.367  35.812  1.00  0.00     0.049 A 
ATOM     37  H   UNL A   1      41.141  31.027  35.111  1.00  0.00     0.167 HD
ATOM     38  C   UNL A   1      42.787  29.106  33.657  1.00  0.00     0.074 A 
ATOM     39  C   UNL A   1      43.258  28.134  32.682  1.00  0.00     0.031 C 
ATOM     40  C   UNL A   1      43.438  29.426  34.802  1.00  0.00     0.031 A 
BRANCH  27  41
ATOM     41  C   UNL A   1      40.666  33.610  38.474  1.00  0.00    -0.014 A 
ATOM     42  C   UNL A   1      41.234  34.895  38.491  1.00  0.00     0.009 A 
ATOM     43  C   UNL A   1      40.174  33.067  39.671  1.00  0.00     0.009 A 
ATOM     44  C   UNL A   1      41.345  35.598  39.692  1.00  0.00     0.001 A 
ATOM     45  C   UNL A   1      40.251  33.788  40.860  1.00  0.00     0.001 A 
ATOM     46  C   UNL A   1      40.848  35.047  40.873  1.00  0.00     0.000 A 
ENDBRANCH  27  41
BRANCH  28  47
ATOM     47  C   UNL A   1      40.042  28.205  29.914  1.00  0.00    -0.014 A 
ATOM     48  C   UNL A   1      39.450  26.934  29.940  1.00  0.00     0.009 A 
ATOM     49  C   UNL A   1      40.528  28.697  28.691  1.00  0.00     0.009 A 
ATOM     50  C   UNL A   1      39.398  26.153  28.782  1.00  0.00     0.001 A 
ATOM     51  C   UNL A   1      40.450  27.925  27.528  1.00  0.00     0.001 A 
ATOM     52  C   UNL A   1      39.901  26.646  27.579  1.00  0.00     0.000 A 
ENDBRANCH  28  47
BRANCH  40  53
ATOM     53  C   UNL A   1      44.701  28.669  35.073  1.00  0.00    -0.014 A 
ATOM     54  C   UNL A   1      45.950  29.145  34.651  1.00  0.00     0.009 A 
ATOM     55  C   UNL A   1      44.627  27.469  35.798  1.00  0.00     0.009 A 
ATOM     56  C   UNL A   1      47.100  28.400  34.904  1.00  0.00     0.001 A 
ATOM     57  C   UNL A   1      45.784  26.757  36.096  1.00  0.00     0.001 A 
ATOM     58  C   UNL A   1      47.017  27.213  35.633  1.00  0.00     0.000 A 
ENDBRANCH  40  53
ENDBRANCH  14  15
ENDBRANCH   7   9
ENDBRANCH   6   7
ENDBRANCH   5   6
ENDBRANCH   4   5
ENDBRANCH   3   4
ENDBRANCH   2   3
ENDBRANCH   1   2
BRANCH   1  59
ATOM     59  O   UNL A   1      31.190  31.068  25.566  1.00  0.00    -0.376 OA
BRANCH  59  60
ATOM     60  C   UNL A   1      32.103  29.560  25.321  1.00  0.00     0.202 C 
BRANCH  60  61
ATOM     61  C   UNL A   1      32.317  28.671  23.637  1.00  0.00     0.261 C 
BRANCH  61  62
ATOM     62  O   UNL A   1      31.499  27.229  23.176  1.00  0.00    -0.463 OA
BRANCH  62  63
ATOM     63  C   UNL A   1      30.299  26.688  23.703  1.00  0.00     0.312 C 
ATOM     64  O   UNL A   1      29.225  27.177  23.334  1.00  0.00    -0.252 OA
BRANCH  63  65
ATOM     65  C   UNL A   1      30.217  25.355  24.784  1.00  0.00     0.147 C 
ATOM     66  C   UNL A   1      31.291  24.137  24.613  1.00  0.00     0.129 C 
ATOM     67  C   UNL A   1      30.109  25.281  26.363  1.00  0.00     0.157 C 
ATOM     68  C   UNL A   1      31.480  23.598  26.049  1.00  0.00     0.155 C 
ATOM     69  C   UNL A   1      29.481  24.013  26.930  1.00  0.00     0.004 C 
ATOM     70  O   UNL A   1      31.440  24.859  26.757  1.00  0.00    -0.365 OA
ATOM     71  C   UNL A   1      30.288  22.981  26.667  1.00  0.00     0.004 C 
BRANCH  66  72
ATOM     72  C   UNL A   1      32.776  24.168  24.143  1.00  0.00     0.231 C 
ATOM     73  O   UNL A   1      33.488  25.136  24.429  1.00  0.00    -0.274 OA
ATOM     74  N   UNL A   1      33.251  23.235  23.211  1.00  0.00    -0.325 N 
ATOM     75  H   UNL A   1      33.675  23.556  22.382  1.00  0.00     0.169 HD
BRANCH  74  76
ATOM     76  C   UNL A   1      33.135  21.850  23.434  1.00  0.00     0.049 A 
ATOM     77  C   UNL A   1      32.131  21.267  22.362  1.00  0.00     0.027 A 
ATOM     78  C   UNL A   1      34.031  20.853  24.566  1.00  0.00     0.005 A 
ATOM     79  C   UNL A   1      31.981  19.571  22.174  1.00  0.00     0.002 A 
ATOM     80  C   UNL A   1      33.888  19.059  24.586  1.00  0.00     0.011 A 
ATOM     81  C   UNL A   1      32.787  18.299  23.353  1.00  0.00     0.001 A 
BRANCH  78  82
ATOM     82  C   UNL A   1      35.209  21.621  25.089  1.00  0.00    -0.016 A 
ATOM     83  C   UNL A   1      36.314  21.954  24.273  1.00  0.00     0.009 A 
ATOM     84  C   UNL A   1      35.033  22.390  26.251  1.00  0.00     0.009 A 
ATOM     85  C   UNL A   1      37.158  23.040  24.581  1.00  0.00     0.001 A 
ATOM     86  C   UNL A   1      35.875  23.466  26.564  1.00  0.00     0.001 A 
ATOM     87  C   UNL A   1      36.932  23.801  25.724  1.00  0.00     0.000 A 
ENDBRANCH  78  82
ENDBRANCH  74  76
ENDBRANCH  66  72
ENDBRANCH  63  65
ENDBRANCH  62  63
ENDBRANCH  61  62
ENDBRANCH  60  61
ENDBRANCH  59  60
ENDBRANCH   1  59
TORSDOF 20
ENDMDL
